# generated using pymatgen
data_Pr3Dy2Y3(CdPt)2
_symmetry_space_group_name_H-M   'P 1'
_cell_length_a   9.84007618
_cell_length_b   9.84007588
_cell_length_c   9.84007500
_cell_angle_alpha   59.99999959
_cell_angle_beta   60.00000061
_cell_angle_gamma   59.99999550
_symmetry_Int_Tables_number   1
_chemical_formula_structural   Pr3Dy2Y3(CdPt)2
_chemical_formula_sum   'Pr6 Dy4 Y6 Cd4 Pt4'
_cell_volume   673.72134142
_cell_formula_units_Z   2
loop_
 _symmetry_equiv_pos_site_id
 _symmetry_equiv_pos_as_xyz
  1  'x, y, z'
loop_
 _atom_site_type_symbol
 _atom_site_label
 _atom_site_symmetry_multiplicity
 _atom_site_fract_x
 _atom_site_fract_y
 _atom_site_fract_z
 _atom_site_occupancy
  Pr  Pr0  1  0.938019  0.561981  0.561981  1
  Pr  Pr1  1  0.561981  0.938019  0.938019  1
  Pr  Pr2  1  0.561981  0.938019  0.561981  1
  Pr  Pr3  1  0.938019  0.561981  0.938019  1
  Pr  Pr4  1  0.561981  0.561981  0.938019  1
  Pr  Pr5  1  0.938019  0.938019  0.561981  1
  Dy  Dy6  1  0.349879  0.349879  0.349879  1
  Dy  Dy7  1  0.349879  0.349879  0.950362  1
  Dy  Dy8  1  0.349879  0.950362  0.349879  1
  Dy  Dy9  1  0.950362  0.349879  0.349879  1
  Y  Y10  1  0.811203  0.188797  0.188797  1
  Y  Y11  1  0.188797  0.811203  0.811203  1
  Y  Y12  1  0.188797  0.811203  0.188797  1
  Y  Y13  1  0.811203  0.188797  0.811203  1
  Y  Y14  1  0.188797  0.188797  0.811203  1
  Y  Y15  1  0.811203  0.811203  0.188797  1
  Cd  Cd16  1  0.579500  0.579500  0.579500  1
  Cd  Cd17  1  0.579500  0.579500  0.261497  1
  Cd  Cd18  1  0.579500  0.261497  0.579500  1
  Cd  Cd19  1  0.261497  0.579500  0.579500  1
  Pt  Pt20  1  0.142927  0.142927  0.142927  1
  Pt  Pt21  1  0.142927  0.142927  0.571217  1
  Pt  Pt22  1  0.142927  0.571217  0.142927  1
  Pt  Pt23  1  0.571217  0.142927  0.142927  1
