# generated using pymatgen
data_Ca2Al2Pb2O9
_symmetry_space_group_name_H-M   'P 1'
_cell_length_a   9.21216600
_cell_length_b   5.64264000
_cell_length_c   15.25109800
_cell_angle_alpha   90.00000000
_cell_angle_beta   90.00000000
_cell_angle_gamma   90.00000000
_symmetry_Int_Tables_number   1
_chemical_formula_structural   Ca2Al2Pb2O9
_chemical_formula_sum   'Ca8 Al8 Pb8 O36'
_cell_volume   792.76635453
_cell_formula_units_Z   4
loop_
 _symmetry_equiv_pos_site_id
 _symmetry_equiv_pos_as_xyz
  1  'x, y, z'
loop_
 _atom_site_type_symbol
 _atom_site_label
 _atom_site_symmetry_multiplicity
 _atom_site_fract_x
 _atom_site_fract_y
 _atom_site_fract_z
 _atom_site_occupancy
  Ca  Ca0  1  0.064703  0.361679  0.143395  1
  Ca  Ca1  1  0.435297  0.861680  0.143395  1
  Ca  Ca2  1  0.935297  0.361679  0.356605  1
  Ca  Ca3  1  0.564703  0.861680  0.356605  1
  Ca  Ca4  1  0.435297  0.138321  0.643395  1
  Ca  Ca5  1  0.064703  0.638322  0.643395  1
  Ca  Ca6  1  0.564703  0.138321  0.856605  1
  Ca  Ca7  1  0.935297  0.638322  0.856605  1
  Al  Al8  1  0.340006  0.306704  0.030195  1
  Al  Al9  1  0.159994  0.806705  0.030195  1
  Al  Al10  1  0.659994  0.306704  0.469805  1
  Al  Al11  1  0.840006  0.806705  0.469805  1
  Al  Al12  1  0.159994  0.193295  0.530195  1
  Al  Al13  1  0.340006  0.693295  0.530195  1
  Al  Al14  1  0.840006  0.193295  0.969805  1
  Al  Al15  1  0.659994  0.693295  0.969805  1
  Pb  Pb16  1  0.652946  0.365984  0.165689  1
  Pb  Pb17  1  0.847054  0.865982  0.165689  1
  Pb  Pb18  1  0.347055  0.365984  0.334311  1
  Pb  Pb19  1  0.152945  0.865982  0.334311  1
  Pb  Pb20  1  0.847054  0.134017  0.665689  1
  Pb  Pb21  1  0.652946  0.634017  0.665689  1
  Pb  Pb22  1  0.152945  0.134017  0.834311  1
  Pb  Pb23  1  0.347055  0.634017  0.834311  1
  O  O24  1  0.509494  0.215867  0.071471  1
  O  O25  1  0.990506  0.715868  0.071471  1
  O  O26  1  0.225109  0.078321  0.071682  1
  O  O27  1  0.274891  0.578322  0.071682  1
  O  O28  1  0.843431  0.198183  0.086671  1
  O  O29  1  0.656569  0.698184  0.086671  1
  O  O30  1  0.659195  0.025488  0.230005  1
  O  O31  1  0.840805  0.525489  0.230005  1
  O  O32  1  0.000000  0.054527  0.250000  1
  O  O33  1  0.500000  0.554526  0.250000  1
  O  O34  1  0.340805  0.025488  0.269995  1
  O  O35  1  0.159195  0.525489  0.269995  1
  O  O36  1  0.156569  0.198183  0.413329  1
  O  O37  1  0.343431  0.698184  0.413329  1
  O  O38  1  0.774891  0.078321  0.428318  1
  O  O39  1  0.725109  0.578322  0.428318  1
  O  O40  1  0.490506  0.215867  0.428529  1
  O  O41  1  0.009494  0.715868  0.428529  1
  O  O42  1  0.990506  0.284133  0.571471  1
  O  O43  1  0.509494  0.784134  0.571471  1
  O  O44  1  0.274891  0.421679  0.571682  1
  O  O45  1  0.225109  0.921678  0.571682  1
  O  O46  1  0.656569  0.301815  0.586671  1
  O  O47  1  0.843431  0.801816  0.586671  1
  O  O48  1  0.840805  0.474512  0.730005  1
  O  O49  1  0.659195  0.974513  0.730005  1
  O  O50  1  0.500000  0.445473  0.750000  1
  O  O51  1  0.000000  0.945474  0.750000  1
  O  O52  1  0.159195  0.474512  0.769995  1
  O  O53  1  0.340805  0.974513  0.769995  1
  O  O54  1  0.343431  0.301815  0.913329  1
  O  O55  1  0.156569  0.801816  0.913329  1
  O  O56  1  0.725109  0.421679  0.928318  1
  O  O57  1  0.774891  0.921678  0.928318  1
  O  O58  1  0.009494  0.284133  0.928529  1
  O  O59  1  0.490506  0.784134  0.928529  1
