# generated using pymatgen
data_Ti5AlBi2
_symmetry_space_group_name_H-M   'P 1'
_cell_length_a   8.03468768
_cell_length_b   8.03467711
_cell_length_c   8.03468866
_cell_angle_alpha   96.24225273
_cell_angle_beta   96.20165944
_cell_angle_gamma   141.55824174
_symmetry_Int_Tables_number   1
_chemical_formula_structural   Ti5AlBi2
_chemical_formula_sum   'Ti10 Al2 Bi4'
_cell_volume   304.50198155
_cell_formula_units_Z   2
loop_
 _symmetry_equiv_pos_site_id
 _symmetry_equiv_pos_as_xyz
  1  'x, y, z'
loop_
 _atom_site_type_symbol
 _atom_site_label
 _atom_site_symmetry_multiplicity
 _atom_site_fract_x
 _atom_site_fract_y
 _atom_site_fract_z
 _atom_site_occupancy
  Ti  Ti0  1  0.572631  0.712659  0.285291  1
  Ti  Ti1  1  0.427369  0.287341  0.714709  1
  Ti  Ti2  1  0.749962  0.250000  0.499962  1
  Ti  Ti3  1  0.250038  0.750000  0.500038  1
  Ti  Ti4  1  0.712558  0.427454  0.140026  1
  Ti  Ti5  1  0.287442  0.572546  0.859974  1
  Ti  Ti6  1  0.927368  0.212659  0.140028  1
  Ti  Ti7  1  0.212571  0.072546  0.285104  1
  Ti  Ti8  1  0.072632  0.787341  0.859972  1
  Ti  Ti9  1  0.787429  0.927454  0.714896  1
  Al  Al10  1  0.750002  0.750000  0.000002  1
  Al  Al11  1  0.249998  0.250000  0.999998  1
  Bi  Bi12  1  0.335390  0.835401  0.170784  1
  Bi  Bi13  1  0.164618  0.335401  0.500012  1
  Bi  Bi14  1  0.664610  0.164599  0.829216  1
  Bi  Bi15  1  0.835382  0.664599  0.499988  1
