# generated using pymatgen
data_VAsHO5
_symmetry_space_group_name_H-M   'P 1'
_cell_length_a   5.47033077
_cell_length_b   7.43164663
_cell_length_c   5.36301061
_cell_angle_alpha   108.20942899
_cell_angle_beta   101.33560538
_cell_angle_gamma   104.97176959
_symmetry_Int_Tables_number   1
_chemical_formula_structural   VAsHO5
_chemical_formula_sum   'V2 As2 H2 O10'
_cell_volume   190.72411504
_cell_formula_units_Z   2
loop_
 _symmetry_equiv_pos_site_id
 _symmetry_equiv_pos_as_xyz
  1  'x, y, z'
loop_
 _atom_site_type_symbol
 _atom_site_label
 _atom_site_symmetry_multiplicity
 _atom_site_fract_x
 _atom_site_fract_y
 _atom_site_fract_z
 _atom_site_occupancy
  V  V0  1  0.000000  0.500000  0.000000  1
  V  V1  1  0.000000  0.000000  0.000000  1
  As  As2  1  0.336613  0.224804  0.685879  1
  As  As3  1  0.663387  0.775196  0.314121  1
  H  H4  1  0.998955  0.326136  0.334022  1
  H  H5  1  0.001045  0.673864  0.665978  1
  O  O6  1  0.027121  0.724642  0.866785  1
  O  O7  1  0.157729  0.387312  0.711163  1
  O  O8  1  0.340385  0.640076  0.266765  1
  O  O9  1  0.218342  0.041627  0.360280  1
  O  O10  1  0.319314  0.111060  0.918855  1
  O  O11  1  0.680686  0.888940  0.081145  1
  O  O12  1  0.781658  0.958373  0.639720  1
  O  O13  1  0.659615  0.359924  0.733235  1
  O  O14  1  0.842271  0.612688  0.288837  1
  O  O15  1  0.972879  0.275358  0.133215  1
