# generated using pymatgen
data_Nb8FeTe8P
_symmetry_space_group_name_H-M   'P 1'
_cell_length_a   4.85631800
_cell_length_b   10.90460600
_cell_length_c   18.90318600
_cell_angle_alpha   90.00000000
_cell_angle_beta   90.00000000
_cell_angle_gamma   90.00000000
_symmetry_Int_Tables_number   1
_chemical_formula_structural   Nb8FeTe8P
_chemical_formula_sum   'Nb16 Fe2 Te16 P2'
_cell_volume   1001.04154874
_cell_formula_units_Z   2
loop_
 _symmetry_equiv_pos_site_id
 _symmetry_equiv_pos_as_xyz
  1  'x, y, z'
loop_
 _atom_site_type_symbol
 _atom_site_label
 _atom_site_symmetry_multiplicity
 _atom_site_fract_x
 _atom_site_fract_y
 _atom_site_fract_z
 _atom_site_occupancy
  Nb  Nb0  1  0.500817  0.563553  0.383871  1
  Nb  Nb1  1  0.500817  0.436447  0.616129  1
  Nb  Nb2  1  0.499183  0.063553  0.116129  1
  Nb  Nb3  1  0.499183  0.936447  0.883871  1
  Nb  Nb4  1  0.497950  0.702946  0.536333  1
  Nb  Nb5  1  0.497950  0.297054  0.463667  1
  Nb  Nb6  1  0.502050  0.202946  0.963667  1
  Nb  Nb7  1  0.502050  0.797054  0.036333  1
  Nb  Nb8  1  0.001230  0.688410  0.443260  1
  Nb  Nb9  1  0.001230  0.311590  0.556740  1
  Nb  Nb10  1  0.998770  0.188410  0.056740  1
  Nb  Nb11  1  0.998770  0.811590  0.943260  1
  Nb  Nb12  1  0.999944  0.401661  0.392223  1
  Nb  Nb13  1  0.999944  0.598339  0.607777  1
  Nb  Nb14  1  0.000056  0.901661  0.107777  1
  Nb  Nb15  1  0.000056  0.098339  0.892223  1
  Fe  Fe16  1  0.749553  0.500000  0.500000  1
  Fe  Fe17  1  0.250447  0.000000  0.000000  1
  Te  Te18  1  0.988830  0.847546  0.562850  1
  Te  Te19  1  0.988830  0.152454  0.437150  1
  Te  Te20  1  0.011170  0.347546  0.937150  1
  Te  Te21  1  0.011170  0.652454  0.062850  1
  Te  Te22  1  0.508881  0.332397  0.314761  1
  Te  Te23  1  0.508881  0.667603  0.685239  1
  Te  Te24  1  0.491119  0.832397  0.185239  1
  Te  Te25  1  0.491119  0.167603  0.814761  1
  Te  Te26  1  0.510383  0.822866  0.402505  1
  Te  Te27  1  0.510383  0.177134  0.597495  1
  Te  Te28  1  0.489617  0.322866  0.097495  1
  Te  Te29  1  0.489617  0.677134  0.902505  1
  Te  Te30  1  0.991956  0.607731  0.300247  1
  Te  Te31  1  0.991956  0.392269  0.699753  1
  Te  Te32  1  0.008044  0.107731  0.199753  1
  Te  Te33  1  0.008044  0.892269  0.800247  1
  P  P34  1  0.249831  0.500000  0.500000  1
  P  P35  1  0.750169  0.000000  0.000000  1
