# generated using pymatgen
data_CePa(ReB4)2
_symmetry_space_group_name_H-M   'P 1'
_cell_length_a   3.67290500
_cell_length_b   5.99855753
_cell_length_c   11.61611598
_cell_angle_alpha   89.91800519
_cell_angle_beta   90.00000000
_cell_angle_gamma   90.00000000
_symmetry_Int_Tables_number   1
_chemical_formula_structural   CePa(ReB4)2
_chemical_formula_sum   'Ce2 Pa2 Re4 B16'
_cell_volume   255.92753799
_cell_formula_units_Z   2
loop_
 _symmetry_equiv_pos_site_id
 _symmetry_equiv_pos_as_xyz
  1  'x, y, z'
loop_
 _atom_site_type_symbol
 _atom_site_label
 _atom_site_symmetry_multiplicity
 _atom_site_fract_x
 _atom_site_fract_y
 _atom_site_fract_z
 _atom_site_occupancy
  Ce  Ce0  1  0.000000  0.626907  0.350666  1
  Ce  Ce1  1  0.000000  0.373093  0.649334  1
  Pa  Pa2  1  0.000000  0.127484  0.150294  1
  Pa  Pa3  1  0.000000  0.872516  0.849706  1
  Re  Re4  1  0.000000  0.136611  0.406928  1
  Re  Re5  1  0.000000  0.863389  0.593072  1
  Re  Re6  1  0.000000  0.639051  0.092746  1
  Re  Re7  1  0.000000  0.360949  0.907254  1
  B  B8  1  0.500000  0.528092  0.809614  1
  B  B9  1  0.500000  0.471908  0.190386  1
  B  B10  1  0.500000  0.024572  0.691361  1
  B  B11  1  0.500000  0.975428  0.308639  1
  B  B12  1  0.500000  0.387530  0.046143  1
  B  B13  1  0.500000  0.612470  0.953857  1
  B  B14  1  0.500000  0.888058  0.454192  1
  B  B15  1  0.500000  0.111942  0.545808  1
  B  B16  1  0.500000  0.210809  0.814506  1
  B  B17  1  0.500000  0.789191  0.185494  1
  B  B18  1  0.500000  0.714021  0.686732  1
  B  B19  1  0.500000  0.285979  0.313268  1
  B  B20  1  0.500000  0.135241  0.968478  1
  B  B21  1  0.500000  0.864759  0.031522  1
  B  B22  1  0.500000  0.638104  0.531692  1
  B  B23  1  0.500000  0.361896  0.468308  1
