# generated using pymatgen
data_Y7VO12
_symmetry_space_group_name_H-M   'P 1'
_cell_length_a   6.65348936
_cell_length_b   6.65349090
_cell_length_c   6.65348890
_cell_angle_alpha   93.42046869
_cell_angle_beta   93.42046195
_cell_angle_gamma   93.42047790
_symmetry_Int_Tables_number   1
_chemical_formula_structural   Y7VO12
_chemical_formula_sum   'Y7 V1 O12'
_cell_volume   292.90300573
_cell_formula_units_Z   1
loop_
 _symmetry_equiv_pos_site_id
 _symmetry_equiv_pos_as_xyz
  1  'x, y, z'
loop_
 _atom_site_type_symbol
 _atom_site_label
 _atom_site_symmetry_multiplicity
 _atom_site_fract_x
 _atom_site_fract_y
 _atom_site_fract_z
 _atom_site_occupancy
  Y  Y0  1  0.738521  0.923686  0.435026  1
  Y  Y1  1  0.435026  0.738521  0.923686  1
  Y  Y2  1  0.076314  0.564974  0.261479  1
  Y  Y3  1  0.923686  0.435026  0.738521  1
  Y  Y4  1  0.564974  0.261479  0.076314  1
  Y  Y5  1  0.261479  0.076314  0.564974  1
  Y  Y6  1  0.000000  0.000000  0.000000  1
  V  V7  1  0.500000  0.500000  0.500000  1
  O  O8  1  0.067432  0.907540  0.319079  1
  O  O9  1  0.680921  0.932568  0.092460  1
  O  O10  1  0.461712  0.799688  0.588426  1
  O  O11  1  0.092460  0.680921  0.932568  1
  O  O12  1  0.799688  0.588426  0.461712  1
  O  O13  1  0.411574  0.538288  0.200312  1
  O  O14  1  0.588426  0.461712  0.799688  1
  O  O15  1  0.200312  0.411574  0.538288  1
  O  O16  1  0.907540  0.319079  0.067432  1
  O  O17  1  0.538288  0.200312  0.411574  1
  O  O18  1  0.319079  0.067432  0.907540  1
  O  O19  1  0.932568  0.092460  0.680921  1
