# generated using pymatgen
data_Lu3ScBe4(AlIr5)2
_symmetry_space_group_name_H-M   'P 1'
_cell_length_a   9.59999160
_cell_length_b   9.59999160
_cell_length_c   3.12239100
_cell_angle_alpha   90.00000000
_cell_angle_beta   90.00000000
_cell_angle_gamma   89.78058071
_symmetry_Int_Tables_number   1
_chemical_formula_structural   Lu3ScBe4(AlIr5)2
_chemical_formula_sum   'Lu3 Sc1 Be4 Al2 Ir10'
_cell_volume   287.75694082
_cell_formula_units_Z   1
loop_
 _symmetry_equiv_pos_site_id
 _symmetry_equiv_pos_as_xyz
  1  'x, y, z'
loop_
 _atom_site_type_symbol
 _atom_site_label
 _atom_site_symmetry_multiplicity
 _atom_site_fract_x
 _atom_site_fract_y
 _atom_site_fract_z
 _atom_site_occupancy
  Lu  Lu0  1  0.676215  0.175607  0.000000  1
  Lu  Lu1  1  0.324393  0.823785  0.000000  1
  Lu  Lu2  1  0.174869  0.325131  0.000000  1
  Sc  Sc3  1  0.824394  0.675606  0.000000  1
  Be  Be4  1  0.122110  0.623450  0.000000  1
  Be  Be5  1  0.876550  0.377890  0.000000  1
  Be  Be6  1  0.624867  0.875133  0.000000  1
  Be  Be7  1  0.377031  0.122969  0.000000  1
  Al  Al8  1  0.999937  0.000309  0.000000  1
  Al  Al9  1  0.499691  0.500063  0.000000  1
  Ir  Ir10  1  0.209712  0.066455  0.500000  1
  Ir  Ir11  1  0.792106  0.928551  0.500000  1
  Ir  Ir12  1  0.062749  0.789679  0.500000  1
  Ir  Ir13  1  0.710321  0.437251  0.500000  1
  Ir  Ir14  1  0.933411  0.210299  0.500000  1
  Ir  Ir15  1  0.289701  0.566589  0.500000  1
  Ir  Ir16  1  0.571449  0.707894  0.500000  1
  Ir  Ir17  1  0.433545  0.290288  0.500000  1
  Ir  Ir18  1  0.500904  0.999096  0.500000  1
  Ir  Ir19  1  0.996045  0.503955  0.500000  1
