# generated using pymatgen
data_Y6AlCoRh
_symmetry_space_group_name_H-M   'P 1'
_cell_length_a   8.38889163
_cell_length_b   8.38889284
_cell_length_c   8.38889202
_cell_angle_alpha   106.46342397
_cell_angle_beta   110.15236649
_cell_angle_gamma   111.84389318
_symmetry_Int_Tables_number   1
_chemical_formula_structural   Y6AlCoRh
_chemical_formula_sum   'Y12 Al2 Co2 Rh2'
_cell_volume   453.41845717
_cell_formula_units_Z   2
loop_
 _symmetry_equiv_pos_site_id
 _symmetry_equiv_pos_as_xyz
  1  'x, y, z'
loop_
 _atom_site_type_symbol
 _atom_site_label
 _atom_site_symmetry_multiplicity
 _atom_site_fract_x
 _atom_site_fract_y
 _atom_site_fract_z
 _atom_site_occupancy
  Y  Y0  1  0.695443  0.256496  0.951939  1
  Y  Y1  1  0.304557  0.743504  0.048061  1
  Y  Y2  1  0.695443  0.743504  0.438949  1
  Y  Y3  1  0.304557  0.256496  0.561051  1
  Y  Y4  1  0.810517  0.129871  0.319354  1
  Y  Y5  1  0.810517  0.491164  0.680646  1
  Y  Y6  1  0.189483  0.870129  0.680646  1
  Y  Y7  1  0.189483  0.508836  0.319354  1
  Y  Y8  1  0.601482  0.781988  0.819493  1
  Y  Y9  1  0.962495  0.781988  0.180507  1
  Y  Y10  1  0.037505  0.218012  0.819493  1
  Y  Y11  1  0.398518  0.218012  0.180507  1
  Al  Al12  1  0.500000  0.500000  0.000000  1
  Al  Al13  1  0.500000  0.000000  0.500000  1
  Co  Co14  1  0.000000  0.111470  0.111470  1
  Co  Co15  1  0.000000  0.888530  0.888530  1
  Rh  Rh16  1  0.834749  0.500000  0.334749  1
  Rh  Rh17  1  0.165251  0.500000  0.665251  1
