# generated using pymatgen
data_Tm6LuS8
_symmetry_space_group_name_H-M   'P 1'
_cell_length_a   7.64663071
_cell_length_b   7.64642840
_cell_length_c   7.64385900
_cell_angle_alpha   120.01877561
_cell_angle_beta   89.94353316
_cell_angle_gamma   120.01752237
_symmetry_Int_Tables_number   1
_chemical_formula_structural   Tm6LuS8
_chemical_formula_sum   'Tm6 Lu1 S8'
_cell_volume   316.01079135
_cell_formula_units_Z   1
loop_
 _symmetry_equiv_pos_site_id
 _symmetry_equiv_pos_as_xyz
  1  'x, y, z'
loop_
 _atom_site_type_symbol
 _atom_site_label
 _atom_site_symmetry_multiplicity
 _atom_site_fract_x
 _atom_site_fract_y
 _atom_site_fract_z
 _atom_site_occupancy
  Tm  Tm0  1  0.250009  0.000020  0.250002  1
  Tm  Tm1  1  0.249997  0.499982  0.249991  1
  Tm  Tm2  1  0.750018  0.000014  0.250005  1
  Tm  Tm3  1  0.250017  0.000023  0.750017  1
  Tm  Tm4  1  0.750015  0.000015  0.750013  1
  Tm  Tm5  1  0.750001  0.500001  0.750000  1
  Lu  Lu6  1  0.249945  0.499950  0.749968  1
  S  S7  1  0.999983  0.999965  0.999986  1
  S  S8  1  0.499992  0.999989  0.499979  1
  S  S9  1  0.999527  0.999060  0.499547  1
  S  S10  1  0.999580  0.500016  0.499588  1
  S  S11  1  0.500620  0.500014  0.499400  1
  S  S12  1  0.999392  0.500002  0.000611  1
  S  S13  1  0.500429  0.500002  0.000440  1
  S  S14  1  0.500479  0.000949  0.000465  1
