# generated using pymatgen
data_Tb4DySc5Pb8
_symmetry_space_group_name_H-M   'P 1'
_cell_length_a   7.97430100
_cell_length_b   8.05613958
_cell_length_c   15.21075200
_cell_angle_alpha   90.02180559
_cell_angle_beta   90.00000000
_cell_angle_gamma   90.00000000
_symmetry_Int_Tables_number   1
_chemical_formula_structural   Tb4DySc5Pb8
_chemical_formula_sum   'Tb8 Dy2 Sc10 Pb16'
_cell_volume   977.17030553
_cell_formula_units_Z   2
loop_
 _symmetry_equiv_pos_site_id
 _symmetry_equiv_pos_as_xyz
  1  'x, y, z'
loop_
 _atom_site_type_symbol
 _atom_site_label
 _atom_site_symmetry_multiplicity
 _atom_site_fract_x
 _atom_site_fract_y
 _atom_site_fract_z
 _atom_site_occupancy
  Tb  Tb0  1  0.528637  0.320420  0.906188  1
  Tb  Tb1  1  0.028637  0.179580  0.593812  1
  Tb  Tb2  1  0.471057  0.676289  0.401815  1
  Tb  Tb3  1  0.971057  0.823711  0.098185  1
  Tb  Tb4  1  0.474220  0.679017  0.096893  1
  Tb  Tb5  1  0.974220  0.820983  0.403107  1
  Tb  Tb6  1  0.527515  0.321911  0.595511  1
  Tb  Tb7  1  0.027515  0.178089  0.904489  1
  Dy  Dy8  1  0.368463  0.842745  0.619894  1
  Dy  Dy9  1  0.868463  0.657255  0.880106  1
  Sc  Sc10  1  0.365669  0.842606  0.875941  1
  Sc  Sc11  1  0.865669  0.657394  0.624059  1
  Sc  Sc12  1  0.633931  0.155386  0.376043  1
  Sc  Sc13  1  0.133931  0.344614  0.123957  1
  Sc  Sc14  1  0.630905  0.155805  0.126771  1
  Sc  Sc15  1  0.130905  0.344195  0.373229  1
  Sc  Sc16  1  0.198544  0.506468  0.749420  1
  Sc  Sc17  1  0.698544  0.993532  0.750580  1
  Sc  Sc18  1  0.799796  0.492387  0.251443  1
  Sc  Sc19  1  0.299796  0.007613  0.248557  1
  Pb  Pb20  1  0.294917  0.041999  0.043894  1
  Pb  Pb21  1  0.794917  0.458001  0.456106  1
  Pb  Pb22  1  0.713636  0.960052  0.542344  1
  Pb  Pb23  1  0.213636  0.539948  0.957656  1
  Pb  Pb24  1  0.698995  0.964467  0.958690  1
  Pb  Pb25  1  0.198995  0.535533  0.541310  1
  Pb  Pb26  1  0.294366  0.046838  0.450548  1
  Pb  Pb27  1  0.794366  0.453162  0.049452  1
  Pb  Pb28  1  0.558818  0.625817  0.750592  1
  Pb  Pb29  1  0.058818  0.874183  0.749408  1
  Pb  Pb30  1  0.440065  0.368469  0.250530  1
  Pb  Pb31  1  0.940065  0.131531  0.249470  1
  Pb  Pb32  1  0.339150  0.155457  0.751367  1
  Pb  Pb33  1  0.839150  0.344543  0.748633  1
  Pb  Pb34  1  0.661316  0.848136  0.250731  1
  Pb  Pb35  1  0.161316  0.651864  0.249269  1
