# generated using pymatgen
data_Dy3ErBCl6
_symmetry_space_group_name_H-M   'P 1'
_cell_length_a   3.86151700
_cell_length_b   12.64398719
_cell_length_c   13.10951191
_cell_angle_alpha   89.80032263
_cell_angle_beta   90.00000000
_cell_angle_gamma   90.00000000
_symmetry_Int_Tables_number   1
_chemical_formula_structural   Dy3ErBCl6
_chemical_formula_sum   'Dy6 Er2 B2 Cl12'
_cell_volume   640.06765811
_cell_formula_units_Z   2
loop_
 _symmetry_equiv_pos_site_id
 _symmetry_equiv_pos_as_xyz
  1  'x, y, z'
loop_
 _atom_site_type_symbol
 _atom_site_label
 _atom_site_symmetry_multiplicity
 _atom_site_fract_x
 _atom_site_fract_y
 _atom_site_fract_z
 _atom_site_occupancy
  Dy  Dy0  1  0.000000  0.106604  0.084304  1
  Dy  Dy1  1  0.000000  0.893396  0.915696  1
  Dy  Dy2  1  0.500000  0.126864  0.850682  1
  Dy  Dy3  1  0.500000  0.873136  0.149318  1
  Dy  Dy4  1  0.500000  0.626226  0.648639  1
  Dy  Dy5  1  0.500000  0.373774  0.351361  1
  Er  Er6  1  0.000000  0.605164  0.416718  1
  Er  Er7  1  0.000000  0.394836  0.583282  1
  B  B8  1  0.500000  0.000000  0.000000  1
  B  B9  1  0.500000  0.500000  0.500000  1
  Cl  Cl10  1  0.500000  0.269838  0.681312  1
  Cl  Cl11  1  0.500000  0.730162  0.318688  1
  Cl  Cl12  1  0.500000  0.767342  0.816848  1
  Cl  Cl13  1  0.500000  0.232658  0.183152  1
  Cl  Cl14  1  0.000000  0.257357  0.928774  1
  Cl  Cl15  1  0.000000  0.742643  0.071226  1
  Cl  Cl16  1  0.000000  0.479810  0.243928  1
  Cl  Cl17  1  0.000000  0.520190  0.756072  1
  Cl  Cl18  1  0.000000  0.977895  0.257356  1
  Cl  Cl19  1  0.000000  0.022105  0.742644  1
  Cl  Cl20  1  0.000000  0.243676  0.430793  1
  Cl  Cl21  1  0.000000  0.756324  0.569207  1
