# generated using pymatgen
data_YbDyIr2O7
_symmetry_space_group_name_H-M   'P 1'
_cell_length_a   7.23334979
_cell_length_b   7.23334986
_cell_length_c   7.22646000
_cell_angle_alpha   60.03150390
_cell_angle_beta   60.03150355
_cell_angle_gamma   60.06206286
_symmetry_Int_Tables_number   1
_chemical_formula_structural   YbDyIr2O7
_chemical_formula_sum   'Yb2 Dy2 Ir4 O14'
_cell_volume   267.60835183
_cell_formula_units_Z   2
loop_
 _symmetry_equiv_pos_site_id
 _symmetry_equiv_pos_as_xyz
  1  'x, y, z'
loop_
 _atom_site_type_symbol
 _atom_site_label
 _atom_site_symmetry_multiplicity
 _atom_site_fract_x
 _atom_site_fract_y
 _atom_site_fract_z
 _atom_site_occupancy
  Yb  Yb0  1  0.625000  0.125000  0.125000  1
  Yb  Yb1  1  0.125000  0.625000  0.125000  1
  Dy  Dy2  1  0.125000  0.125000  0.625000  1
  Dy  Dy3  1  0.125000  0.125000  0.125000  1
  Ir  Ir4  1  0.125000  0.625000  0.625000  1
  Ir  Ir5  1  0.625000  0.125000  0.625000  1
  Ir  Ir6  1  0.625000  0.625000  0.125000  1
  Ir  Ir7  1  0.625000  0.625000  0.625000  1
  O  O8  1  0.704490  0.704490  0.295510  1
  O  O9  1  0.292527  0.292527  0.707473  1
  O  O10  1  0.711585  0.293444  0.700881  1
  O  O11  1  0.293444  0.711585  0.294090  1
  O  O12  1  0.293444  0.711585  0.700881  1
  O  O13  1  0.711585  0.293444  0.294090  1
  O  O14  1  0.545510  0.545510  0.954490  1
  O  O15  1  0.957473  0.957473  0.542527  1
  O  O16  1  0.538415  0.956556  0.549119  1
  O  O17  1  0.956556  0.538415  0.955910  1
  O  O18  1  0.956556  0.538415  0.549119  1
  O  O19  1  0.538415  0.956556  0.955910  1
  O  O20  1  0.245570  0.245570  0.254430  1
  O  O21  1  0.004430  0.004430  0.995570  1
