# generated using pymatgen
data_Tb16Dy4Co3Bi8Os
_symmetry_space_group_name_H-M   'P 1'
_cell_length_a   8.04934312
_cell_length_b   8.94068916
_cell_length_c   12.50328958
_cell_angle_alpha   90.01795550
_cell_angle_beta   90.23265380
_cell_angle_gamma   90.01188065
_symmetry_Int_Tables_number   1
_chemical_formula_structural   Tb16Dy4Co3Bi8Os
_chemical_formula_sum   'Tb16 Dy4 Co3 Bi8 Os1'
_cell_volume   899.81269245
_cell_formula_units_Z   1
loop_
 _symmetry_equiv_pos_site_id
 _symmetry_equiv_pos_as_xyz
  1  'x, y, z'
loop_
 _atom_site_type_symbol
 _atom_site_label
 _atom_site_symmetry_multiplicity
 _atom_site_fract_x
 _atom_site_fract_y
 _atom_site_fract_z
 _atom_site_occupancy
  Tb  Tb0  1  0.846478  0.749845  0.800545  1
  Tb  Tb1  1  0.152706  0.250079  0.198098  1
  Tb  Tb2  1  0.347214  0.250209  0.699149  1
  Tb  Tb3  1  0.654978  0.749882  0.294815  1
  Tb  Tb4  1  0.377167  0.749833  0.693982  1
  Tb  Tb5  1  0.620254  0.250276  0.310381  1
  Tb  Tb6  1  0.879737  0.250166  0.811593  1
  Tb  Tb7  1  0.119488  0.749792  0.186914  1
  Tb  Tb8  1  0.945997  0.749777  0.504038  1
  Tb  Tb9  1  0.049496  0.250100  0.496597  1
  Tb  Tb10  1  0.452515  0.250120  0.997103  1
  Tb  Tb11  1  0.547741  0.749918  0.002657  1
  Tb  Tb12  1  0.676974  0.040610  0.565002  1
  Tb  Tb13  1  0.323581  0.965333  0.436259  1
  Tb  Tb14  1  0.175898  0.966440  0.936802  1
  Tb  Tb15  1  0.323773  0.535077  0.436318  1
  Dy  Dy16  1  0.824211  0.035709  0.063123  1
  Dy  Dy17  1  0.676278  0.459045  0.564916  1
  Dy  Dy18  1  0.824447  0.464181  0.063130  1
  Dy  Dy19  1  0.175093  0.533675  0.936784  1
  Co  Co20  1  0.434803  0.250114  0.491106  1
  Co  Co21  1  0.059569  0.250209  0.992175  1
  Co  Co22  1  0.938423  0.749745  0.007294  1
  Bi  Bi23  1  0.570515  0.491971  0.827176  1
  Bi  Bi24  1  0.429186  0.507119  0.173224  1
  Bi  Bi25  1  0.070213  0.507239  0.674681  1
  Bi  Bi26  1  0.429223  0.992917  0.173292  1
  Bi  Bi27  1  0.931384  0.492328  0.325533  1
  Bi  Bi28  1  0.570759  0.008073  0.827140  1
  Bi  Bi29  1  0.931194  0.007600  0.325553  1
  Bi  Bi30  1  0.070565  0.992782  0.674566  1
  Os  Os31  1  0.570138  0.749837  0.510051  1
