# generated using pymatgen
data_Nd2FeRuCl
_symmetry_space_group_name_H-M   'P 1'
_cell_length_a   4.11637300
_cell_length_b   4.11637311
_cell_length_c   16.45803000
_cell_angle_alpha   90.00000000
_cell_angle_beta   90.00000000
_cell_angle_gamma   119.99999112
_symmetry_Int_Tables_number   1
_chemical_formula_structural   Nd2FeRuCl
_chemical_formula_sum   'Nd4 Fe2 Ru2 Cl2'
_cell_volume   241.51158781
_cell_formula_units_Z   2
loop_
 _symmetry_equiv_pos_site_id
 _symmetry_equiv_pos_as_xyz
  1  'x, y, z'
loop_
 _atom_site_type_symbol
 _atom_site_label
 _atom_site_symmetry_multiplicity
 _atom_site_fract_x
 _atom_site_fract_y
 _atom_site_fract_z
 _atom_site_occupancy
  Nd  Nd0  1  0.000000  0.000000  0.114652  1
  Nd  Nd1  1  0.000000  0.000000  0.385348  1
  Nd  Nd2  1  0.000000  0.000000  0.615083  1
  Nd  Nd3  1  0.000000  0.000000  0.884917  1
  Fe  Fe4  1  0.666667  0.333333  0.507444  1
  Fe  Fe5  1  0.666667  0.333333  0.992556  1
  Ru  Ru6  1  0.333333  0.666665  0.006619  1
  Ru  Ru7  1  0.333333  0.666665  0.493381  1
  Cl  Cl8  1  0.666667  0.333333  0.250000  1
  Cl  Cl9  1  0.333333  0.666665  0.750000  1
