# generated using pymatgen
data_Dy8Ti2Nb9Si16Tc
_symmetry_space_group_name_H-M   'P 1'
_cell_length_a   7.04484011
_cell_length_b   7.04867591
_cell_length_c   13.01531168
_cell_angle_alpha   90.12613364
_cell_angle_beta   90.05804009
_cell_angle_gamma   90.03241347
_symmetry_Int_Tables_number   1
_chemical_formula_structural   Dy8Ti2Nb9Si16Tc
_chemical_formula_sum   'Dy8 Ti2 Nb9 Si16 Tc1'
_cell_volume   646.29665957
_cell_formula_units_Z   1
loop_
 _symmetry_equiv_pos_site_id
 _symmetry_equiv_pos_as_xyz
  1  'x, y, z'
loop_
 _atom_site_type_symbol
 _atom_site_label
 _atom_site_symmetry_multiplicity
 _atom_site_fract_x
 _atom_site_fract_y
 _atom_site_fract_z
 _atom_site_occupancy
  Dy  Dy0  1  0.000789  0.656959  0.034505  1
  Dy  Dy1  1  0.002178  0.342035  0.530893  1
  Dy  Dy2  1  0.658393  0.998068  0.966973  1
  Dy  Dy3  1  0.158814  0.502051  0.782142  1
  Dy  Dy4  1  0.841067  0.498417  0.282709  1
  Dy  Dy5  1  0.502918  0.158768  0.219355  1
  Dy  Dy6  1  0.497359  0.840853  0.716238  1
  Dy  Dy7  1  0.341251  0.999903  0.467098  1
  Ti  Ti8  1  0.495497  0.653165  0.123093  1
  Ti  Ti9  1  0.654724  0.492786  0.875890  1
  Nb  Nb10  1  0.846564  0.993215  0.374050  1
  Nb  Nb11  1  0.010619  0.156460  0.128053  1
  Nb  Nb12  1  0.995035  0.845936  0.624406  1
  Nb  Nb13  1  0.506488  0.346155  0.623808  1
  Nb  Nb14  1  0.154204  0.007340  0.873398  1
  Nb  Nb15  1  0.671728  0.670635  0.499924  1
  Nb  Nb16  1  0.828149  0.171102  0.750666  1
  Nb  Nb17  1  0.171626  0.831301  0.249506  1
  Nb  Nb18  1  0.327301  0.327130  0.001314  1
  Si  Si19  1  0.048936  0.706437  0.434772  1
  Si  Si20  1  0.953614  0.293919  0.936623  1
  Si  Si21  1  0.707697  0.046386  0.563172  1
  Si  Si22  1  0.210710  0.458295  0.189076  1
  Si  Si23  1  0.791562  0.545278  0.687299  1
  Si  Si24  1  0.455093  0.207938  0.814522  1
  Si  Si25  1  0.540904  0.785407  0.312665  1
  Si  Si26  1  0.294401  0.952373  0.063755  1
  Si  Si27  1  0.793042  0.866838  0.182701  1
  Si  Si28  1  0.297838  0.631845  0.564634  1
  Si  Si29  1  0.701717  0.368310  0.066562  1
  Si  Si30  1  0.626292  0.301003  0.431950  1
  Si  Si31  1  0.369040  0.700713  0.934219  1
  Si  Si32  1  0.134137  0.209178  0.319284  1
  Si  Si33  1  0.202462  0.134445  0.682152  1
  Si  Si34  1  0.866019  0.793564  0.817057  1
  Tc  Tc35  1  0.341835  0.505793  0.375536  1
