# generated using pymatgen
data_Dy3Ho(NbRu3)2
_symmetry_space_group_name_H-M   'P 1'
_cell_length_a   5.70014600
_cell_length_b   5.70014617
_cell_length_c   8.03508000
_cell_angle_alpha   90.00032312
_cell_angle_beta   89.99967517
_cell_angle_gamma   120.00517401
_symmetry_Int_Tables_number   1
_chemical_formula_structural   Dy3Ho(NbRu3)2
_chemical_formula_sum   'Dy3 Ho1 Nb2 Ru6'
_cell_volume   226.08417473
_cell_formula_units_Z   1
loop_
 _symmetry_equiv_pos_site_id
 _symmetry_equiv_pos_as_xyz
  1  'x, y, z'
loop_
 _atom_site_type_symbol
 _atom_site_label
 _atom_site_symmetry_multiplicity
 _atom_site_fract_x
 _atom_site_fract_y
 _atom_site_fract_z
 _atom_site_occupancy
  Dy  Dy0  1  0.666613  0.333387  0.560544  1
  Dy  Dy1  1  0.333388  0.666612  0.439416  1
  Dy  Dy2  1  0.333387  0.666613  0.060554  1
  Ho  Ho3  1  0.666611  0.333389  0.939496  1
  Nb  Nb4  1  0.999999  0.000001  0.500044  1
  Nb  Nb5  1  0.000001  0.999999  0.000025  1
  Ru  Ru6  1  0.171662  0.343409  0.750024  1
  Ru  Ru7  1  0.171713  0.828287  0.750025  1
  Ru  Ru8  1  0.656591  0.828338  0.750024  1
  Ru  Ru9  1  0.828302  0.656513  0.249950  1
  Ru  Ru10  1  0.828245  0.171755  0.249948  1
  Ru  Ru11  1  0.343487  0.171698  0.249950  1
