# generated using pymatgen
data_Li8Pr3Tm5Pt8
_symmetry_space_group_name_H-M   'P 1'
_cell_length_a   9.42966226
_cell_length_b   7.82177497
_cell_length_c   7.06089600
_cell_angle_alpha   90.00000000
_cell_angle_beta   90.12449984
_cell_angle_gamma   114.50314047
_symmetry_Int_Tables_number   1
_chemical_formula_structural   Li8Pr3Tm5Pt8
_chemical_formula_sum   'Li8 Pr3 Tm5 Pt8'
_cell_volume   473.88404981
_cell_formula_units_Z   1
loop_
 _symmetry_equiv_pos_site_id
 _symmetry_equiv_pos_as_xyz
  1  'x, y, z'
loop_
 _atom_site_type_symbol
 _atom_site_label
 _atom_site_symmetry_multiplicity
 _atom_site_fract_x
 _atom_site_fract_y
 _atom_site_fract_z
 _atom_site_occupancy
  Li  Li0  1  0.800171  0.152829  0.622341  1
  Li  Li1  1  0.800171  0.647341  0.622341  1
  Li  Li2  1  0.309125  0.154561  0.877941  1
  Li  Li3  1  0.200553  0.848730  0.124368  1
  Li  Li4  1  0.200553  0.351825  0.124368  1
  Li  Li5  1  0.688715  0.844357  0.380113  1
  Li  Li6  1  0.689256  0.344627  0.387143  1
  Li  Li7  1  0.313141  0.656572  0.879976  1
  Pr  Pr8  1  0.928586  0.464294  0.948361  1
  Pr  Pr9  1  0.075032  0.037516  0.448333  1
  Pr  Pr10  1  0.928916  0.964459  0.951030  1
  Tm  Tm11  1  0.432207  0.469229  0.553050  1
  Tm  Tm12  1  0.432207  0.962978  0.553050  1
  Tm  Tm13  1  0.075063  0.537531  0.446832  1
  Tm  Tm14  1  0.566366  0.533233  0.054932  1
  Tm  Tm15  1  0.566366  0.033132  0.054932  1
  Pt  Pt16  1  0.865500  0.188106  0.253597  1
  Pt  Pt17  1  0.865500  0.677392  0.253597  1
  Pt  Pt18  1  0.386912  0.193456  0.259185  1
  Pt  Pt19  1  0.135775  0.809608  0.740122  1
  Pt  Pt20  1  0.135775  0.326168  0.740122  1
  Pt  Pt21  1  0.617467  0.808733  0.760154  1
  Pt  Pt22  1  0.610714  0.305358  0.762489  1
  Pt  Pt23  1  0.375929  0.687965  0.259630  1
