# generated using pymatgen
data_MnZn4Ni(AsO4)4
_symmetry_space_group_name_H-M   'P 1'
_cell_length_a   8.65244450
_cell_length_b   5.35835347
_cell_length_c   9.07210218
_cell_angle_alpha   60.36011355
_cell_angle_beta   90.26057464
_cell_angle_gamma   90.23556095
_symmetry_Int_Tables_number   1
_chemical_formula_structural   MnZn4Ni(AsO4)4
_chemical_formula_sum   'Mn1 Zn4 Ni1 As4 O16'
_cell_volume   365.56767856
_cell_formula_units_Z   1
loop_
 _symmetry_equiv_pos_site_id
 _symmetry_equiv_pos_as_xyz
  1  'x, y, z'
loop_
 _atom_site_type_symbol
 _atom_site_label
 _atom_site_symmetry_multiplicity
 _atom_site_fract_x
 _atom_site_fract_y
 _atom_site_fract_z
 _atom_site_occupancy
  Mn  Mn0  1  0.000000  0.500000  0.500000  1
  Zn  Zn1  1  0.140858  0.479654  0.110426  1
  Zn  Zn2  1  0.637012  0.511854  0.389333  1
  Zn  Zn3  1  0.859142  0.520346  0.889574  1
  Zn  Zn4  1  0.362988  0.488146  0.610667  1
  Ni  Ni5  1  0.500000  0.500000  0.000000  1
  As  As6  1  0.311334  0.852702  0.190252  1
  As  As7  1  0.801405  0.152309  0.299792  1
  As  As8  1  0.688666  0.147298  0.809748  1
  As  As9  1  0.198595  0.847691  0.700208  1
  O  O10  1  0.067488  0.705220  0.865068  1
  O  O11  1  0.565607  0.292018  0.636767  1
  O  O12  1  0.932512  0.294780  0.134932  1
  O  O13  1  0.434393  0.707982  0.363233  1
  O  O14  1  0.202044  0.211283  0.624872  1
  O  O15  1  0.693968  0.782835  0.884395  1
  O  O16  1  0.797956  0.788717  0.375128  1
  O  O17  1  0.306032  0.217165  0.115605  1
  O  O18  1  0.146491  0.780452  0.540551  1
  O  O19  1  0.635122  0.219942  0.966103  1
  O  O20  1  0.133395  0.678112  0.250226  1
  O  O21  1  0.625287  0.333452  0.237515  1
  O  O22  1  0.866605  0.321888  0.749774  1
  O  O23  1  0.374713  0.666548  0.762485  1
  O  O24  1  0.364878  0.780058  0.033897  1
  O  O25  1  0.853509  0.219548  0.459449  1
