# generated using pymatgen
data_Li4Pr7Nd(ZnRh2)4
_symmetry_space_group_name_H-M   'P 1'
_cell_length_a   4.08614000
_cell_length_b   7.31095854
_cell_length_c   16.57166458
_cell_angle_alpha   89.83681237
_cell_angle_beta   90.00000000
_cell_angle_gamma   90.00000000
_symmetry_Int_Tables_number   1
_chemical_formula_structural   Li4Pr7Nd(ZnRh2)4
_chemical_formula_sum   'Li4 Pr7 Nd1 Zn4 Rh8'
_cell_volume   495.05327323
_cell_formula_units_Z   1
loop_
 _symmetry_equiv_pos_site_id
 _symmetry_equiv_pos_as_xyz
  1  'x, y, z'
loop_
 _atom_site_type_symbol
 _atom_site_label
 _atom_site_symmetry_multiplicity
 _atom_site_fract_x
 _atom_site_fract_y
 _atom_site_fract_z
 _atom_site_occupancy
  Li  Li0  1  0.750000  0.008185  0.560421  1
  Li  Li1  1  0.250000  0.633801  0.351455  1
  Li  Li2  1  0.750000  0.367620  0.648896  1
  Li  Li3  1  0.250000  0.491091  0.060404  1
  Pr  Pr4  1  0.250000  0.170430  0.939178  1
  Pr  Pr5  1  0.250000  0.661274  0.561064  1
  Pr  Pr6  1  0.750000  0.333543  0.438571  1
  Pr  Pr7  1  0.750000  0.956506  0.282169  1
  Pr  Pr8  1  0.750000  0.833774  0.059741  1
  Pr  Pr9  1  0.750000  0.451719  0.215509  1
  Pr  Pr10  1  0.250000  0.042623  0.718538  1
  Nd  Nd11  1  0.250000  0.548772  0.785670  1
  Zn  Zn12  1  0.750000  0.503773  0.941016  1
  Zn  Zn13  1  0.250000  0.992938  0.438739  1
  Zn  Zn14  1  0.250000  0.128395  0.148576  1
  Zn  Zn15  1  0.750000  0.873283  0.851117  1
  Rh  Rh16  1  0.750000  0.758706  0.439388  1
  Rh  Rh17  1  0.250000  0.241853  0.312027  1
  Rh  Rh18  1  0.750000  0.250769  0.815767  1
  Rh  Rh19  1  0.750000  0.756726  0.690187  1
  Rh  Rh20  1  0.250000  0.247713  0.559142  1
  Rh  Rh21  1  0.250000  0.753171  0.184372  1
  Rh  Rh22  1  0.750000  0.250224  0.064156  1
  Rh  Rh23  1  0.250000  0.743114  0.933898  1
