# generated using pymatgen
data_Dy4HoMo3(P3Ir4)4
_symmetry_space_group_name_H-M   'P 1'
_cell_length_a   12.67896300
_cell_length_b   12.67896321
_cell_length_c   3.99001600
_cell_angle_alpha   90.00000000
_cell_angle_beta   90.00000000
_cell_angle_gamma   120.00000207
_symmetry_Int_Tables_number   1
_chemical_formula_structural   Dy4HoMo3(P3Ir4)4
_chemical_formula_sum   'Dy4 Ho1 Mo3 P12 Ir16'
_cell_volume   555.48551140
_cell_formula_units_Z   1
loop_
 _symmetry_equiv_pos_site_id
 _symmetry_equiv_pos_as_xyz
  1  'x, y, z'
loop_
 _atom_site_type_symbol
 _atom_site_label
 _atom_site_symmetry_multiplicity
 _atom_site_fract_x
 _atom_site_fract_y
 _atom_site_fract_z
 _atom_site_occupancy
  Dy  Dy0  1  0.666667  0.333333  0.500000  1
  Dy  Dy1  1  0.999998  0.812966  0.000000  1
  Dy  Dy2  1  0.187034  0.187032  0.000000  1
  Dy  Dy3  1  0.812968  0.000002  0.000000  1
  Ho  Ho4  1  0.333333  0.666667  0.500000  1
  Mo  Mo5  1  0.000006  0.453485  0.500000  1
  Mo  Mo6  1  0.546515  0.546521  0.500000  1
  Mo  Mo7  1  0.453479  0.999994  0.500000  1
  P  P8  1  0.999982  0.638766  0.500000  1
  P  P9  1  0.361234  0.361216  0.500000  1
  P  P10  1  0.638784  0.000018  0.500000  1
  P  P11  1  0.516104  0.684321  0.000000  1
  P  P12  1  0.315679  0.831782  0.000000  1
  P  P13  1  0.168218  0.483896  0.000000  1
  P  P14  1  0.483782  0.168120  0.000000  1
  P  P15  1  0.684337  0.516218  0.000000  1
  P  P16  1  0.831880  0.315663  0.000000  1
  P  P17  1  0.000000  0.176872  0.500000  1
  P  P18  1  0.823128  0.823127  0.500000  1
  P  P19  1  0.176873  0.000000  0.500000  1
  Ir  Ir20  1  0.508951  0.866412  0.000000  1
  Ir  Ir21  1  0.133588  0.642540  0.000000  1
  Ir  Ir22  1  0.357460  0.491049  0.000000  1
  Ir  Ir23  1  0.490879  0.357474  0.000000  1
  Ir  Ir24  1  0.866596  0.509121  0.000000  1
  Ir  Ir25  1  0.642526  0.133404  0.000000  1
  Ir  Ir26  1  0.000002  0.286505  0.000000  1
  Ir  Ir27  1  0.713495  0.713498  0.000000  1
  Ir  Ir28  1  0.286502  0.999998  0.000000  1
  Ir  Ir29  1  0.625764  0.804504  0.500000  1
  Ir  Ir30  1  0.195496  0.821260  0.500000  1
  Ir  Ir31  1  0.178740  0.374236  0.500000  1
  Ir  Ir32  1  0.374179  0.178704  0.500000  1
  Ir  Ir33  1  0.804526  0.625821  0.500000  1
  Ir  Ir34  1  0.821296  0.195474  0.500000  1
  Ir  Ir35  1  0.000000  0.000000  0.500000  1
