# generated using pymatgen
data_Rb8ZrBi4
_symmetry_space_group_name_H-M   'P 1'
_cell_length_a   12.35354966
_cell_length_b   12.35353801
_cell_length_c   12.35355400
_cell_angle_alpha   59.99995182
_cell_angle_beta   59.99998302
_cell_angle_gamma   59.99994356
_symmetry_Int_Tables_number   1
_chemical_formula_structural   Rb8ZrBi4
_chemical_formula_sum   'Rb16 Zr2 Bi8'
_cell_volume   1333.09052600
_cell_formula_units_Z   2
loop_
 _symmetry_equiv_pos_site_id
 _symmetry_equiv_pos_as_xyz
  1  'x, y, z'
loop_
 _atom_site_type_symbol
 _atom_site_label
 _atom_site_symmetry_multiplicity
 _atom_site_fract_x
 _atom_site_fract_y
 _atom_site_fract_z
 _atom_site_occupancy
  Rb  Rb0  1  0.625000  0.125000  0.625000  1
  Rb  Rb1  1  0.625000  0.625000  0.125000  1
  Rb  Rb2  1  0.125000  0.625000  0.625000  1
  Rb  Rb3  1  0.625000  0.625000  0.625000  1
  Rb  Rb4  1  0.025730  0.025730  0.474270  1
  Rb  Rb5  1  0.775731  0.224270  0.224269  1
  Rb  Rb6  1  0.224270  0.775730  0.775730  1
  Rb  Rb7  1  0.775731  0.775730  0.224270  1
  Rb  Rb8  1  0.775731  0.224270  0.775730  1
  Rb  Rb9  1  0.224270  0.775730  0.224270  1
  Rb  Rb10  1  0.474269  0.025730  0.474270  1
  Rb  Rb11  1  0.474269  0.025730  0.025731  1
  Rb  Rb12  1  0.025730  0.474270  0.474270  1
  Rb  Rb13  1  0.025730  0.474270  0.025730  1
  Rb  Rb14  1  0.224270  0.224270  0.775730  1
  Rb  Rb15  1  0.474269  0.474270  0.025730  1
  Zr  Zr16  1  0.750000  0.750000  0.750000  1
  Zr  Zr17  1  0.500000  0.500000  0.500000  1
  Bi  Bi18  1  0.401255  0.796237  0.401255  1
  Bi  Bi19  1  0.848745  0.848745  0.453764  1
  Bi  Bi20  1  0.453764  0.848745  0.848745  1
  Bi  Bi21  1  0.848745  0.848745  0.848745  1
  Bi  Bi22  1  0.796236  0.401255  0.401255  1
  Bi  Bi23  1  0.401255  0.401255  0.401255  1
  Bi  Bi24  1  0.401255  0.401255  0.796236  1
  Bi  Bi25  1  0.848745  0.453763  0.848745  1
