# generated using pymatgen
data_Nd10Si5Ag
_symmetry_space_group_name_H-M   'P 1'
_cell_length_a   9.05731481
_cell_length_b   9.05731472
_cell_length_c   9.05731448
_cell_angle_alpha   129.17788141
_cell_angle_beta   129.17788612
_cell_angle_gamma   74.72451774
_symmetry_Int_Tables_number   1
_chemical_formula_structural   Nd10Si5Ag
_chemical_formula_sum   'Nd10 Si5 Ag1'
_cell_volume   434.97105264
_cell_formula_units_Z   1
loop_
 _symmetry_equiv_pos_site_id
 _symmetry_equiv_pos_as_xyz
  1  'x, y, z'
loop_
 _atom_site_type_symbol
 _atom_site_label
 _atom_site_symmetry_multiplicity
 _atom_site_fract_x
 _atom_site_fract_y
 _atom_site_fract_z
 _atom_site_occupancy
  Nd  Nd0  1  0.470753  0.960049  0.144944  1
  Nd  Nd1  1  0.174191  0.684896  0.144944  1
  Nd  Nd2  1  0.539951  0.029247  0.855056  1
  Nd  Nd3  1  0.029247  0.174191  0.489296  1
  Nd  Nd4  1  0.684896  0.539951  0.510704  1
  Nd  Nd5  1  0.960049  0.815104  0.489296  1
  Nd  Nd6  1  0.005567  0.005567  0.000000  1
  Nd  Nd7  1  0.494433  0.494433  0.000000  1
  Nd  Nd8  1  0.815104  0.325809  0.855056  1
  Nd  Nd9  1  0.325809  0.470753  0.510704  1
  Si  Si10  1  0.115191  0.615191  0.730380  1
  Si  Si11  1  0.615191  0.884809  0.500000  1
  Si  Si12  1  0.384809  0.115191  0.500000  1
  Si  Si13  1  0.884809  0.384809  0.269620  1
  Si  Si14  1  0.750000  0.750000  0.000000  1
  Ag  Ag15  1  0.250000  0.250000  0.000000  1
