# generated using pymatgen
data_Th4Mn3Ru9C10
_symmetry_space_group_name_H-M   'P 1'
_cell_length_a   8.92397674
_cell_length_b   9.03933379
_cell_length_c   4.22662000
_cell_angle_alpha   90.00000000
_cell_angle_beta   90.00000000
_cell_angle_gamma   89.58371152
_symmetry_Int_Tables_number   1
_chemical_formula_structural   Th4Mn3Ru9C10
_chemical_formula_sum   'Th4 Mn3 Ru9 C10'
_cell_volume   340.93893000
_cell_formula_units_Z   1
loop_
 _symmetry_equiv_pos_site_id
 _symmetry_equiv_pos_as_xyz
  1  'x, y, z'
loop_
 _atom_site_type_symbol
 _atom_site_label
 _atom_site_symmetry_multiplicity
 _atom_site_fract_x
 _atom_site_fract_y
 _atom_site_fract_z
 _atom_site_occupancy
  Th  Th0  1  0.315309  0.815267  0.500000  1
  Th  Th1  1  0.822960  0.690174  0.500000  1
  Th  Th2  1  0.178536  0.315519  0.500000  1
  Th  Th3  1  0.687525  0.176340  0.500000  1
  Mn  Mn4  1  0.718947  0.441276  0.000000  1
  Mn  Mn5  1  0.498853  0.997564  0.000000  1
  Mn  Mn6  1  0.995056  0.500152  0.000000  1
  Ru  Ru7  1  0.444001  0.281309  0.000000  1
  Ru  Ru8  1  0.000334  0.003258  0.500000  1
  Ru  Ru9  1  0.509360  0.497758  0.500000  1
  Ru  Ru10  1  0.781903  0.937878  0.000000  1
  Ru  Ru11  1  0.934650  0.221490  0.000000  1
  Ru  Ru12  1  0.064395  0.781530  0.000000  1
  Ru  Ru13  1  0.219470  0.063169  0.000000  1
  Ru  Ru14  1  0.563728  0.714860  0.000000  1
  Ru  Ru15  1  0.285010  0.557498  0.000000  1
  C  C16  1  0.507312  0.496670  0.000000  1
  C  C17  1  0.000739  0.001868  0.000000  1
  C  C18  1  0.871288  0.393317  0.671231  1
  C  C19  1  0.115080  0.610547  0.671188  1
  C  C20  1  0.871288  0.393317  0.328769  1
  C  C21  1  0.387665  0.115839  0.330821  1
  C  C22  1  0.611923  0.883508  0.330027  1
  C  C23  1  0.115080  0.610547  0.328812  1
  C  C24  1  0.611923  0.883508  0.669973  1
  C  C25  1  0.387665  0.115839  0.669179  1
