# generated using pymatgen
data_Li22Rh3Au
_symmetry_space_group_name_H-M   'P 1'
_cell_length_a   8.22672243
_cell_length_b   8.16489954
_cell_length_c   8.22672298
_cell_angle_alpha   109.31906226
_cell_angle_beta   109.62295108
_cell_angle_gamma   109.31904990
_symmetry_Int_Tables_number   1
_chemical_formula_structural   Li22Rh3Au
_chemical_formula_sum   'Li22 Rh3 Au1'
_cell_volume   426.18172360
_cell_formula_units_Z   1
loop_
 _symmetry_equiv_pos_site_id
 _symmetry_equiv_pos_as_xyz
  1  'x, y, z'
loop_
 _atom_site_type_symbol
 _atom_site_label
 _atom_site_symmetry_multiplicity
 _atom_site_fract_x
 _atom_site_fract_y
 _atom_site_fract_z
 _atom_site_occupancy
  Li  Li0  1  0.000000  0.802454  0.000000  1
  Li  Li1  1  0.796885  0.994570  0.000000  1
  Li  Li2  1  0.000000  0.994570  0.796885  1
  Li  Li3  1  0.203115  0.197686  0.203115  1
  Li  Li4  1  0.358836  0.606408  0.358836  1
  Li  Li5  1  0.251107  0.000474  0.647809  1
  Li  Li6  1  0.647809  0.000474  0.251107  1
  Li  Li7  1  0.257292  0.655113  0.000000  1
  Li  Li8  1  0.748893  0.749367  0.396702  1
  Li  Li9  1  0.396702  0.749367  0.748893  1
  Li  Li10  1  0.000000  0.655113  0.257292  1
  Li  Li11  1  0.000000  0.247572  0.641164  1
  Li  Li12  1  0.641164  0.247572  0.000000  1
  Li  Li13  1  0.352191  0.352665  0.603298  1
  Li  Li14  1  0.603298  0.352665  0.352191  1
  Li  Li15  1  0.742708  0.397822  0.742708  1
  Li  Li16  1  0.346610  0.340400  0.000000  1
  Li  Li17  1  0.000000  0.659528  0.658318  1
  Li  Li18  1  0.000000  0.340400  0.346610  1
  Li  Li19  1  0.341682  0.001209  0.341682  1
  Li  Li20  1  0.653390  0.993790  0.653390  1
  Li  Li21  1  0.658318  0.659528  0.000000  1
  Rh  Rh22  1  0.341063  0.000489  0.000000  1
  Rh  Rh23  1  0.000000  0.000489  0.341063  1
  Rh  Rh24  1  0.658937  0.659427  0.658937  1
  Au  Au25  1  0.000000  0.340850  0.000000  1
