# generated using pymatgen
data_Y8Er2Os3Rh
_symmetry_space_group_name_H-M   'P 1'
_cell_length_a   6.37066863
_cell_length_b   7.36189027
_cell_length_c   8.46528800
_cell_angle_alpha   96.78275678
_cell_angle_beta   112.21562595
_cell_angle_gamma   90.02687732
_symmetry_Int_Tables_number   1
_chemical_formula_structural   Y8Er2Os3Rh
_chemical_formula_sum   'Y8 Er2 Os3 Rh1'
_cell_volume   364.53894160
_cell_formula_units_Z   1
loop_
 _symmetry_equiv_pos_site_id
 _symmetry_equiv_pos_as_xyz
  1  'x, y, z'
loop_
 _atom_site_type_symbol
 _atom_site_label
 _atom_site_symmetry_multiplicity
 _atom_site_fract_x
 _atom_site_fract_y
 _atom_site_fract_z
 _atom_site_occupancy
  Y  Y0  1  0.791849  0.584793  0.817468  1
  Y  Y1  1  0.974420  0.916574  0.182812  1
  Y  Y2  1  0.209396  0.417271  0.188376  1
  Y  Y3  1  0.024577  0.081980  0.818587  1
  Y  Y4  1  0.205036  0.685281  0.563850  1
  Y  Y5  1  0.641991  0.817004  0.435610  1
  Y  Y6  1  0.790132  0.315042  0.431486  1
  Y  Y7  1  0.360776  0.180526  0.562466  1
  Er  Er8  1  0.424237  0.751988  0.001899  1
  Er  Er9  1  0.578887  0.249295  0.000541  1
  Os  Os10  1  0.602147  0.923054  0.783835  1
  Os  Os11  1  0.818832  0.575176  0.216919  1
  Os  Os12  1  0.395361  0.077791  0.214411  1
  Rh  Rh13  1  0.182359  0.424226  0.781740  1
