# generated using pymatgen
data_Nd4InB4Ir9
_symmetry_space_group_name_H-M   'P 1'
_cell_length_a   11.09170648
_cell_length_b   11.09170608
_cell_length_c   11.09170646
_cell_angle_alpha   29.33708167
_cell_angle_beta   29.33708549
_cell_angle_gamma   29.33708436
_symmetry_Int_Tables_number   1
_chemical_formula_structural   Nd4InB4Ir9
_chemical_formula_sum   'Nd4 In1 B4 Ir9'
_cell_volume   289.86606616
_cell_formula_units_Z   1
loop_
 _symmetry_equiv_pos_site_id
 _symmetry_equiv_pos_as_xyz
  1  'x, y, z'
loop_
 _atom_site_type_symbol
 _atom_site_label
 _atom_site_symmetry_multiplicity
 _atom_site_fract_x
 _atom_site_fract_y
 _atom_site_fract_z
 _atom_site_occupancy
  Nd  Nd0  1  0.148393  0.148393  0.148393  1
  Nd  Nd1  1  0.950893  0.950893  0.950893  1
  Nd  Nd2  1  0.851607  0.851607  0.851607  1
  Nd  Nd3  1  0.049107  0.049107  0.049107  1
  In  In4  1  0.500000  0.500000  0.500000  1
  B  B5  1  0.616918  0.616918  0.616918  1
  B  B6  1  0.716682  0.716682  0.716682  1
  B  B7  1  0.383082  0.383082  0.383082  1
  B  B8  1  0.283318  0.283318  0.283318  1
  Ir  Ir9  1  0.405076  0.906821  0.405076  1
  Ir  Ir10  1  0.906821  0.405076  0.405076  1
  Ir  Ir11  1  0.500000  0.500000  0.000000  1
  Ir  Ir12  1  0.500000  0.000000  0.500000  1
  Ir  Ir13  1  0.000000  0.500000  0.500000  1
  Ir  Ir14  1  0.594924  0.093179  0.594924  1
  Ir  Ir15  1  0.594924  0.594924  0.093179  1
  Ir  Ir16  1  0.093179  0.594924  0.594924  1
  Ir  Ir17  1  0.405076  0.405076  0.906821  1
