# generated using pymatgen
data_LaYbEu7Pt6
_symmetry_space_group_name_H-M   'P 1'
_cell_length_a   7.82153388
_cell_length_b   7.82153359
_cell_length_c   7.82153600
_cell_angle_alpha   70.06477554
_cell_angle_beta   70.06476852
_cell_angle_gamma   70.06477840
_symmetry_Int_Tables_number   1
_chemical_formula_structural   LaYbEu7Pt6
_chemical_formula_sum   'La1 Yb1 Eu7 Pt6'
_cell_volume   408.96986283
_cell_formula_units_Z   1
loop_
 _symmetry_equiv_pos_site_id
 _symmetry_equiv_pos_as_xyz
  1  'x, y, z'
loop_
 _atom_site_type_symbol
 _atom_site_label
 _atom_site_symmetry_multiplicity
 _atom_site_fract_x
 _atom_site_fract_y
 _atom_site_fract_z
 _atom_site_occupancy
  La  La0  1  0.805412  0.805412  0.805412  1
  Yb  Yb1  1  0.002469  0.002469  0.002469  1
  Eu  Eu2  1  0.197149  0.197149  0.197149  1
  Eu  Eu3  1  0.332071  0.604211  0.846246  1
  Eu  Eu4  1  0.846246  0.332071  0.604211  1
  Eu  Eu5  1  0.604211  0.846246  0.332071  1
  Eu  Eu6  1  0.668847  0.393703  0.152700  1
  Eu  Eu7  1  0.152700  0.668847  0.393703  1
  Eu  Eu8  1  0.393703  0.152700  0.668847  1
  Pt  Pt9  1  0.156069  0.955320  0.597300  1
  Pt  Pt10  1  0.597300  0.156069  0.955320  1
  Pt  Pt11  1  0.955320  0.597300  0.156069  1
  Pt  Pt12  1  0.832052  0.041471  0.414978  1
  Pt  Pt13  1  0.414978  0.832052  0.041471  1
  Pt  Pt14  1  0.041471  0.414978  0.832052  1
