# generated using pymatgen
data_Tm6MnFeB14
_symmetry_space_group_name_H-M   'P 1'
_cell_length_a   7.92683466
_cell_length_b   7.92683338
_cell_length_c   9.19971400
_cell_angle_alpha   90.00000000
_cell_angle_beta   90.00000000
_cell_angle_gamma   155.26111634
_symmetry_Int_Tables_number   1
_chemical_formula_structural   Tm6MnFeB14
_chemical_formula_sum   'Tm6 Mn1 Fe1 B14'
_cell_volume   241.90911379
_cell_formula_units_Z   1
loop_
 _symmetry_equiv_pos_site_id
 _symmetry_equiv_pos_as_xyz
  1  'x, y, z'
loop_
 _atom_site_type_symbol
 _atom_site_label
 _atom_site_symmetry_multiplicity
 _atom_site_fract_x
 _atom_site_fract_y
 _atom_site_fract_z
 _atom_site_occupancy
  Tm  Tm0  1  0.758110  0.241890  0.250000  1
  Tm  Tm1  1  0.242432  0.757568  0.750000  1
  Tm  Tm2  1  0.895055  0.104945  0.559275  1
  Tm  Tm3  1  0.104854  0.895146  0.438721  1
  Tm  Tm4  1  0.104854  0.895146  0.061279  1
  Tm  Tm5  1  0.895055  0.104945  0.940725  1
  Mn  Mn6  1  0.947097  0.052903  0.250000  1
  Fe  Fe7  1  0.053860  0.946140  0.750000  1
  B  B8  1  0.542687  0.457313  0.250000  1
  B  B9  1  0.457854  0.542146  0.750000  1
  B  B10  1  0.520834  0.479166  0.902557  1
  B  B11  1  0.479135  0.520865  0.097481  1
  B  B12  1  0.479135  0.520865  0.402519  1
  B  B13  1  0.520834  0.479166  0.597443  1
  B  B14  1  0.630195  0.369805  0.847365  1
  B  B15  1  0.369450  0.630550  0.152651  1
  B  B16  1  0.727452  0.272548  0.966086  1
  B  B17  1  0.272006  0.727994  0.032820  1
  B  B18  1  0.272006  0.727994  0.467180  1
  B  B19  1  0.727452  0.272548  0.533914  1
  B  B20  1  0.630195  0.369805  0.652635  1
  B  B21  1  0.369450  0.630550  0.347349  1
