# generated using pymatgen
data_Yb2Si5Ni
_symmetry_space_group_name_H-M   'P 1'
_cell_length_a   8.42083720
_cell_length_b   8.42083671
_cell_length_c   4.16693800
_cell_angle_alpha   90.00000000
_cell_angle_beta   90.00000000
_cell_angle_gamma   151.57077181
_symmetry_Int_Tables_number   1
_chemical_formula_structural   Yb2Si5Ni
_chemical_formula_sum   'Yb2 Si5 Ni1'
_cell_volume   140.66984163
_cell_formula_units_Z   1
loop_
 _symmetry_equiv_pos_site_id
 _symmetry_equiv_pos_as_xyz
  1  'x, y, z'
loop_
 _atom_site_type_symbol
 _atom_site_label
 _atom_site_symmetry_multiplicity
 _atom_site_fract_x
 _atom_site_fract_y
 _atom_site_fract_z
 _atom_site_occupancy
  Yb  Yb0  1  0.604195  0.395805  0.250000  1
  Yb  Yb1  1  0.390453  0.609547  0.750000  1
  Si  Si2  1  0.825611  0.174389  0.250000  1
  Si  Si3  1  0.967998  0.032002  0.250000  1
  Si  Si4  1  0.040019  0.959981  0.750000  1
  Si  Si5  1  0.243538  0.756462  0.250000  1
  Si  Si6  1  0.747368  0.252632  0.750000  1
  Ni  Ni7  1  0.180818  0.819182  0.750000  1
