# generated using pymatgen
data_DyNbB2SbRu5
_symmetry_space_group_name_H-M   'P 1'
_cell_length_a   9.60099047
_cell_length_b   9.60099069
_cell_length_c   3.10191800
_cell_angle_alpha   90.00000000
_cell_angle_beta   90.00000000
_cell_angle_gamma   91.31916329
_symmetry_Int_Tables_number   1
_chemical_formula_structural   DyNbB2SbRu5
_chemical_formula_sum   'Dy2 Nb2 B4 Sb2 Ru10'
_cell_volume   285.85597998
_cell_formula_units_Z   2
loop_
 _symmetry_equiv_pos_site_id
 _symmetry_equiv_pos_as_xyz
  1  'x, y, z'
loop_
 _atom_site_type_symbol
 _atom_site_label
 _atom_site_symmetry_multiplicity
 _atom_site_fract_x
 _atom_site_fract_y
 _atom_site_fract_z
 _atom_site_occupancy
  Dy  Dy0  1  0.824119  0.675881  0.000000  1
  Dy  Dy1  1  0.175881  0.324119  0.000000  1
  Nb  Nb2  1  0.325970  0.825970  0.000000  1
  Nb  Nb3  1  0.674030  0.174030  0.000000  1
  B  B4  1  0.619835  0.880165  0.000000  1
  B  B5  1  0.380165  0.119835  0.000000  1
  B  B6  1  0.121720  0.621720  0.000000  1
  B  B7  1  0.878280  0.378280  0.000000  1
  Sb  Sb8  1  0.500000  0.500000  0.000000  1
  Sb  Sb9  1  0.000000  0.000000  0.000000  1
  Ru  Ru10  1  0.557105  0.726270  0.500000  1
  Ru  Ru11  1  0.442895  0.273730  0.500000  1
  Ru  Ru12  1  0.083710  0.783864  0.500000  1
  Ru  Ru13  1  0.916290  0.216136  0.500000  1
  Ru  Ru14  1  0.283864  0.583710  0.500000  1
  Ru  Ru15  1  0.716136  0.416290  0.500000  1
  Ru  Ru16  1  0.226270  0.057105  0.500000  1
  Ru  Ru17  1  0.773730  0.942895  0.500000  1
  Ru  Ru18  1  0.500000  0.000000  0.500000  1
  Ru  Ru19  1  0.000000  0.500000  0.500000  1
