# generated using pymatgen
data_Pr2Nd2ErRu2
_symmetry_space_group_name_H-M   'P 1'
_cell_length_a   6.57072025
_cell_length_b   7.33095045
_cell_length_c   8.83704833
_cell_angle_alpha   96.15306668
_cell_angle_beta   111.82489719
_cell_angle_gamma   89.99999702
_symmetry_Int_Tables_number   1
_chemical_formula_structural   Pr2Nd2ErRu2
_chemical_formula_sum   'Pr4 Nd4 Er2 Ru4'
_cell_volume   392.52375677
_cell_formula_units_Z   2
loop_
 _symmetry_equiv_pos_site_id
 _symmetry_equiv_pos_as_xyz
  1  'x, y, z'
loop_
 _atom_site_type_symbol
 _atom_site_label
 _atom_site_symmetry_multiplicity
 _atom_site_fract_x
 _atom_site_fract_y
 _atom_site_fract_z
 _atom_site_occupancy
  Pr  Pr0  1  0.794345  0.583616  0.816540  1
  Pr  Pr1  1  0.977805  0.916384  0.183460  1
  Pr  Pr2  1  0.205655  0.416384  0.183460  1
  Pr  Pr3  1  0.022195  0.083616  0.816540  1
  Nd  Nd4  1  0.208001  0.686906  0.570540  1
  Nd  Nd5  1  0.637461  0.813094  0.429460  1
  Nd  Nd6  1  0.791999  0.313094  0.429460  1
  Nd  Nd7  1  0.362539  0.186906  0.570540  1
  Er  Er8  1  0.429919  0.750000  0.000000  1
  Er  Er9  1  0.570081  0.250000  0.000000  1
  Ru  Ru10  1  0.598842  0.927807  0.785468  1
  Ru  Ru11  1  0.813373  0.572193  0.214532  1
  Ru  Ru12  1  0.401158  0.072193  0.214532  1
  Ru  Ru13  1  0.186627  0.427807  0.785468  1
