# generated using pymatgen
data_Y3Al5Pd
_symmetry_space_group_name_H-M   'P 1'
_cell_length_a   7.02228300
_cell_length_b   7.02228148
_cell_length_c   4.39133000
_cell_angle_alpha   90.00000000
_cell_angle_beta   90.00000000
_cell_angle_gamma   120.00000247
_symmetry_Int_Tables_number   1
_chemical_formula_structural   Y3Al5Pd
_chemical_formula_sum   'Y3 Al5 Pd1'
_cell_volume   187.53539898
_cell_formula_units_Z   1
loop_
 _symmetry_equiv_pos_site_id
 _symmetry_equiv_pos_as_xyz
  1  'x, y, z'
loop_
 _atom_site_type_symbol
 _atom_site_label
 _atom_site_symmetry_multiplicity
 _atom_site_fract_x
 _atom_site_fract_y
 _atom_site_fract_z
 _atom_site_occupancy
  Y  Y0  1  0.584258  0.000000  0.000000  1
  Y  Y1  1  0.000000  0.584258  0.000000  1
  Y  Y2  1  0.415742  0.415742  0.000000  1
  Al  Al3  1  0.234181  0.000000  0.500000  1
  Al  Al4  1  0.000000  0.234181  0.500000  1
  Al  Al5  1  0.765819  0.765819  0.500000  1
  Al  Al6  1  0.333333  0.666667  0.500000  1
  Al  Al7  1  0.666667  0.333333  0.500000  1
  Pd  Pd8  1  0.000000  0.000000  0.000000  1
