# generated using pymatgen
data_Tb5Ho3Hf12Si15Ir
_symmetry_space_group_name_H-M   'P 1'
_cell_length_a   7.29177217
_cell_length_b   7.29550366
_cell_length_c   13.42340149
_cell_angle_alpha   89.86117988
_cell_angle_beta   89.90068360
_cell_angle_gamma   90.03387967
_symmetry_Int_Tables_number   1
_chemical_formula_structural   Tb5Ho3Hf12Si15Ir
_chemical_formula_sum   'Tb5 Ho3 Hf12 Si15 Ir1'
_cell_volume   714.08341484
_cell_formula_units_Z   1
loop_
 _symmetry_equiv_pos_site_id
 _symmetry_equiv_pos_as_xyz
  1  'x, y, z'
loop_
 _atom_site_type_symbol
 _atom_site_label
 _atom_site_symmetry_multiplicity
 _atom_site_fract_x
 _atom_site_fract_y
 _atom_site_fract_z
 _atom_site_occupancy
  Tb  Tb0  1  0.503778  0.842655  0.034232  1
  Tb  Tb1  1  0.844504  0.503124  0.965029  1
  Tb  Tb2  1  0.495774  0.157396  0.535443  1
  Tb  Tb3  1  0.343402  0.996714  0.785015  1
  Tb  Tb4  1  0.657666  0.000787  0.284590  1
  Ho  Ho5  1  0.995991  0.346904  0.214679  1
  Ho  Ho6  1  0.004066  0.655086  0.714538  1
  Ho  Ho7  1  0.157393  0.494625  0.463457  1
  Hf  Hf8  1  0.174845  0.175081  0.998663  1
  Hf  Hf9  1  0.827346  0.825380  0.500465  1
  Hf  Hf10  1  0.324832  0.667089  0.252912  1
  Hf  Hf11  1  0.674546  0.325603  0.750231  1
  Hf  Hf12  1  0.153656  0.005515  0.373532  1
  Hf  Hf13  1  0.850668  0.003915  0.874605  1
  Hf  Hf14  1  0.503588  0.650350  0.625537  1
  Hf  Hf15  1  0.351064  0.496283  0.873674  1
  Hf  Hf16  1  0.494776  0.346865  0.126420  1
  Hf  Hf17  1  0.646010  0.501788  0.378801  1
  Hf  Hf18  1  0.997488  0.148424  0.626196  1
  Hf  Hf19  1  0.000444  0.848761  0.124413  1
  Si  Si20  1  0.638920  0.705066  0.818165  1
  Si  Si21  1  0.204242  0.860646  0.567021  1
  Si  Si22  1  0.137944  0.794841  0.932721  1
  Si  Si23  1  0.797026  0.137624  0.066457  1
  Si  Si24  1  0.860976  0.200390  0.435552  1
  Si  Si25  1  0.295255  0.362608  0.683167  1
  Si  Si26  1  0.704097  0.638805  0.182787  1
  Si  Si27  1  0.290565  0.045963  0.183723  1
  Si  Si28  1  0.705937  0.950869  0.685738  1
  Si  Si29  1  0.451429  0.797599  0.438122  1
  Si  Si30  1  0.205182  0.550034  0.061737  1
  Si  Si31  1  0.548455  0.204812  0.935114  1
  Si  Si32  1  0.796288  0.451790  0.566329  1
  Si  Si33  1  0.047917  0.296378  0.814333  1
  Si  Si34  1  0.949786  0.708336  0.314052  1
  Ir  Ir35  1  0.364142  0.301893  0.312549  1
