# generated using pymatgen
data_Er3B4Mo(Ru5W)2
_symmetry_space_group_name_H-M   'P 1'
_cell_length_a   9.55866100
_cell_length_b   9.55866128
_cell_length_c   3.08493100
_cell_angle_alpha   90.00000000
_cell_angle_beta   90.00000000
_cell_angle_gamma   90.20347688
_symmetry_Int_Tables_number   1
_chemical_formula_structural   Er3B4Mo(Ru5W)2
_chemical_formula_sum   'Er3 B4 Mo1 Ru10 W2'
_cell_volume   281.86220669
_cell_formula_units_Z   1
loop_
 _symmetry_equiv_pos_site_id
 _symmetry_equiv_pos_as_xyz
  1  'x, y, z'
loop_
 _atom_site_type_symbol
 _atom_site_label
 _atom_site_symmetry_multiplicity
 _atom_site_fract_x
 _atom_site_fract_y
 _atom_site_fract_z
 _atom_site_occupancy
  Er  Er0  1  0.824263  0.675462  0.000000  1
  Er  Er1  1  0.175462  0.324263  0.000000  1
  Er  Er2  1  0.325055  0.825055  0.000000  1
  B  B3  1  0.622472  0.881314  0.000000  1
  B  B4  1  0.381314  0.122472  0.000000  1
  B  B5  1  0.117859  0.617859  0.000000  1
  B  B6  1  0.876625  0.376625  0.000000  1
  Mo  Mo7  1  0.676974  0.176974  0.000000  1
  Ru  Ru8  1  0.570347  0.719265  0.500000  1
  Ru  Ru9  1  0.442468  0.281913  0.500000  1
  Ru  Ru10  1  0.067769  0.782883  0.500000  1
  Ru  Ru11  1  0.916426  0.211010  0.500000  1
  Ru  Ru12  1  0.282883  0.567769  0.500000  1
  Ru  Ru13  1  0.711010  0.416426  0.500000  1
  Ru  Ru14  1  0.219265  0.070347  0.500000  1
  Ru  Ru15  1  0.781913  0.942468  0.500000  1
  Ru  Ru16  1  0.510261  0.010261  0.500000  1
  Ru  Ru17  1  0.996079  0.496079  0.500000  1
  W  W18  1  0.497519  0.504034  0.000000  1
  W  W19  1  0.004034  0.997519  0.000000  1
