# generated using pymatgen
data_Cs8Na4Y3ErSb8
_symmetry_space_group_name_H-M   'P 1'
_cell_length_a   11.66322290
_cell_length_b   11.66322160
_cell_length_c   7.59273424
_cell_angle_alpha   89.97781398
_cell_angle_beta   90.02218733
_cell_angle_gamma   99.93283227
_symmetry_Int_Tables_number   1
_chemical_formula_structural   Cs8Na4Y3ErSb8
_chemical_formula_sum   'Cs8 Na4 Y3 Er1 Sb8'
_cell_volume   1017.36354129
_cell_formula_units_Z   1
loop_
 _symmetry_equiv_pos_site_id
 _symmetry_equiv_pos_as_xyz
  1  'x, y, z'
loop_
 _atom_site_type_symbol
 _atom_site_label
 _atom_site_symmetry_multiplicity
 _atom_site_fract_x
 _atom_site_fract_y
 _atom_site_fract_z
 _atom_site_occupancy
  Cs  Cs0  1  0.070429  0.429303  0.249794  1
  Cs  Cs1  1  0.429303  0.070429  0.750206  1
  Cs  Cs2  1  0.929750  0.570380  0.750067  1
  Cs  Cs3  1  0.570380  0.929750  0.249933  1
  Cs  Cs4  1  0.677231  0.322674  0.212452  1
  Cs  Cs5  1  0.823003  0.177267  0.712608  1
  Cs  Cs6  1  0.322674  0.677231  0.787548  1
  Cs  Cs7  1  0.177267  0.823003  0.287392  1
  Na  Na8  1  0.381642  0.381642  0.000000  1
  Na  Na9  1  0.118230  0.118230  0.500000  1
  Na  Na10  1  0.618109  0.618109  0.000000  1
  Na  Na11  1  0.882016  0.882016  0.500000  1
  Y  Y12  1  0.368820  0.368820  0.500000  1
  Y  Y13  1  0.869584  0.869584  0.000000  1
  Y  Y14  1  0.630832  0.630832  0.500000  1
  Er  Er15  1  0.130312  0.130312  0.000000  1
  Sb  Sb16  1  0.841785  0.658300  0.250044  1
  Sb  Sb17  1  0.658300  0.841785  0.749956  1
  Sb  Sb18  1  0.158211  0.340253  0.751540  1
  Sb  Sb19  1  0.340253  0.158211  0.248460  1
  Sb  Sb20  1  0.906325  0.095641  0.209726  1
  Sb  Sb21  1  0.595021  0.404878  0.710673  1
  Sb  Sb22  1  0.095641  0.906325  0.790274  1
  Sb  Sb23  1  0.404878  0.595021  0.289327  1
