# generated using pymatgen
data_Dy17Hf2InIr12
_symmetry_space_group_name_H-M   'P 1'
_cell_length_a   10.84318800
_cell_length_b   10.84318800
_cell_length_c   6.28148900
_cell_angle_alpha   90.00000000
_cell_angle_beta   90.00000000
_cell_angle_gamma   90.00000000
_symmetry_Int_Tables_number   1
_chemical_formula_structural   Dy17Hf2InIr12
_chemical_formula_sum   'Dy17 Hf2 In1 Ir12'
_cell_volume   738.54434807
_cell_formula_units_Z   1
loop_
 _symmetry_equiv_pos_site_id
 _symmetry_equiv_pos_as_xyz
  1  'x, y, z'
loop_
 _atom_site_type_symbol
 _atom_site_label
 _atom_site_symmetry_multiplicity
 _atom_site_fract_x
 _atom_site_fract_y
 _atom_site_fract_z
 _atom_site_occupancy
  Dy  Dy0  1  0.284410  0.084182  0.379802  1
  Dy  Dy1  1  0.291953  0.912054  0.879459  1
  Dy  Dy2  1  0.708047  0.087946  0.879459  1
  Dy  Dy3  1  0.715590  0.915818  0.379802  1
  Dy  Dy4  1  0.587414  0.788206  0.879633  1
  Dy  Dy5  1  0.586454  0.211227  0.376035  1
  Dy  Dy6  1  0.413546  0.788773  0.376035  1
  Dy  Dy7  1  0.412586  0.211794  0.879633  1
  Dy  Dy8  1  0.211227  0.413546  0.623965  1
  Dy  Dy9  1  0.211794  0.587414  0.120367  1
  Dy  Dy10  1  0.788206  0.412586  0.120367  1
  Dy  Dy11  1  0.788773  0.586454  0.623965  1
  Dy  Dy12  1  0.912054  0.708047  0.120541  1
  Dy  Dy13  1  0.915818  0.284410  0.620198  1
  Dy  Dy14  1  0.084182  0.715590  0.620198  1
  Dy  Dy15  1  0.087946  0.291953  0.120541  1
  Dy  Dy16  1  0.000000  0.000000  0.000000  1
  Hf  Hf17  1  0.500000  0.500000  0.000000  1
  Hf  Hf18  1  0.500000  0.500000  0.500000  1
  In  In19  1  0.000000  0.000000  0.500000  1
  Ir  Ir20  1  0.845189  0.157418  0.244136  1
  Ir  Ir21  1  0.842582  0.845189  0.755864  1
  Ir  Ir22  1  0.157418  0.154811  0.755864  1
  Ir  Ir23  1  0.154811  0.842582  0.244136  1
  Ir  Ir24  1  0.641837  0.359208  0.747422  1
  Ir  Ir25  1  0.640792  0.641837  0.252578  1
  Ir  Ir26  1  0.359208  0.358163  0.252578  1
  Ir  Ir27  1  0.358163  0.640792  0.747422  1
  Ir  Ir28  1  0.500000  0.000000  0.126963  1
  Ir  Ir29  1  0.500000  0.000000  0.622495  1
  Ir  Ir30  1  0.000000  0.500000  0.873037  1
  Ir  Ir31  1  0.000000  0.500000  0.377505  1
