# generated using pymatgen
data_La5Yb5Ir4
_symmetry_space_group_name_H-M   'P 1'
_cell_length_a   8.72722020
_cell_length_b   8.84995667
_cell_length_c   7.48718517
_cell_angle_alpha   83.49616430
_cell_angle_beta   83.25259439
_cell_angle_gamma   44.94762781
_symmetry_Int_Tables_number   1
_chemical_formula_structural   La5Yb5Ir4
_chemical_formula_sum   'La5 Yb5 Ir4'
_cell_volume   405.32591701
_cell_formula_units_Z   1
loop_
 _symmetry_equiv_pos_site_id
 _symmetry_equiv_pos_as_xyz
  1  'x, y, z'
loop_
 _atom_site_type_symbol
 _atom_site_label
 _atom_site_symmetry_multiplicity
 _atom_site_fract_x
 _atom_site_fract_y
 _atom_site_fract_z
 _atom_site_occupancy
  La  La0  1  0.787765  0.652351  0.681270  1
  La  La1  1  0.644971  0.794684  0.179143  1
  La  La2  1  0.215580  0.345433  0.317473  1
  La  La3  1  0.565328  0.426203  0.751397  1
  La  La4  1  0.431326  0.568379  0.252433  1
  Yb  Yb5  1  0.013594  0.807417  0.912577  1
  Yb  Yb6  1  0.195792  0.985864  0.588613  1
  Yb  Yb7  1  0.987880  0.191910  0.085455  1
  Yb  Yb8  1  0.804329  0.014544  0.413163  1
  Yb  Yb9  1  0.350942  0.210170  0.817729  1
  Ir  Ir10  1  0.178002  0.595525  0.570117  1
  Ir  Ir11  1  0.409373  0.810164  0.926984  1
  Ir  Ir12  1  0.819642  0.412321  0.426850  1
  Ir  Ir13  1  0.595475  0.185036  0.076796  1
