# generated using pymatgen
data_CaTm(Si2Rh3)2
_symmetry_space_group_name_H-M   'P 1'
_cell_length_a   6.63693056
_cell_length_b   6.63692992
_cell_length_c   6.63693103
_cell_angle_alpha   130.13269701
_cell_angle_beta   114.98195123
_cell_angle_gamma   86.16446614
_symmetry_Int_Tables_number   1
_chemical_formula_structural   CaTm(Si2Rh3)2
_chemical_formula_sum   'Ca1 Tm1 Si4 Rh6'
_cell_volume   193.50811395
_cell_formula_units_Z   1
loop_
 _symmetry_equiv_pos_site_id
 _symmetry_equiv_pos_as_xyz
  1  'x, y, z'
loop_
 _atom_site_type_symbol
 _atom_site_label
 _atom_site_symmetry_multiplicity
 _atom_site_fract_x
 _atom_site_fract_y
 _atom_site_fract_z
 _atom_site_occupancy
  Ca  Ca0  1  0.750000  0.034350  0.284350  1
  Tm  Tm1  1  0.250000  0.946995  0.696995  1
  Si  Si2  1  0.580668  0.384207  0.803539  1
  Si  Si3  1  0.919332  0.722870  0.803539  1
  Si  Si4  1  0.424904  0.618390  0.193486  1
  Si  Si5  1  0.075096  0.268583  0.193486  1
  Rh  Rh6  1  0.217171  0.507568  0.719123  1
  Rh  Rh7  1  0.788445  0.507568  0.290397  1
  Rh  Rh8  1  0.493158  0.502783  0.495941  1
  Rh  Rh9  1  0.006842  0.502783  0.009626  1
  Rh  Rh10  1  0.711555  0.001952  0.719123  1
  Rh  Rh11  1  0.282829  0.001952  0.290397  1
