# generated using pymatgen
data_KI19
_symmetry_space_group_name_H-M   'P 1'
_cell_length_a   10.32069883
_cell_length_b   11.99885730
_cell_length_c   10.16158369
_cell_angle_alpha   70.70461563
_cell_angle_beta   82.30837912
_cell_angle_gamma   88.69427902
_symmetry_Int_Tables_number   1
_chemical_formula_structural   KI19
_chemical_formula_sum   'K1 I19'
_cell_volume   1176.69473649
_cell_formula_units_Z   1
loop_
 _symmetry_equiv_pos_site_id
 _symmetry_equiv_pos_as_xyz
  1  'x, y, z'
loop_
 _atom_site_type_symbol
 _atom_site_label
 _atom_site_symmetry_multiplicity
 _atom_site_fract_x
 _atom_site_fract_y
 _atom_site_fract_z
 _atom_site_occupancy
  K  K0  1  0.856542  0.656561  0.254208  1
  I  I1  1  0.353108  0.503616  0.554747  1
  I  I2  1  0.879804  0.476147  0.035798  1
  I  I3  1  0.611717  0.415892  0.540430  1
  I  I4  1  0.130019  0.569755  0.032072  1
  I  I5  1  0.061659  0.635158  0.545678  1
  I  I6  1  0.572522  0.343472  0.037584  1
  I  I7  1  0.902054  0.303923  0.513078  1
  I  I8  1  0.408064  0.679297  0.033511  1
  I  I9  1  0.165609  0.859383  0.547738  1
  I  I10  1  0.710262  0.131420  0.971691  1
  I  I11  1  0.812057  0.142799  0.398681  1
  I  I12  1  0.291319  0.896719  0.042160  1
  I  I13  1  0.261558  0.079948  0.573393  1
  I  I14  1  0.833774  0.940714  0.902480  1
  I  I15  1  0.686658  0.959660  0.288929  1
  I  I16  1  0.150677  0.112382  0.063742  1
  I  I17  1  0.660845  0.775949  0.544562  1
  I  I18  1  0.243409  0.301537  0.813508  1
  I  I19  1  0.408344  0.215668  0.306015  1
