# generated using pymatgen
data_Sc4(Al8Pt3)3
_symmetry_space_group_name_H-M   'P 1'
_cell_length_a   7.45996826
_cell_length_b   7.47150176
_cell_length_c   13.04034671
_cell_angle_alpha   84.65885395
_cell_angle_beta   79.15047639
_cell_angle_gamma   59.97912615
_symmetry_Int_Tables_number   1
_chemical_formula_structural   Sc4(Al8Pt3)3
_chemical_formula_sum   'Sc4 Al24 Pt9'
_cell_volume   618.07281231
_cell_formula_units_Z   1
loop_
 _symmetry_equiv_pos_site_id
 _symmetry_equiv_pos_as_xyz
  1  'x, y, z'
loop_
 _atom_site_type_symbol
 _atom_site_label
 _atom_site_symmetry_multiplicity
 _atom_site_fract_x
 _atom_site_fract_y
 _atom_site_fract_z
 _atom_site_occupancy
  Sc  Sc0  1  0.393820  0.168419  0.807860  1
  Sc  Sc1  1  0.606180  0.831581  0.192140  1
  Sc  Sc2  1  0.733735  0.498918  0.807650  1
  Sc  Sc3  1  0.266265  0.501082  0.192350  1
  Al  Al4  1  0.682110  0.833608  0.941754  1
  Al  Al5  1  0.317890  0.166392  0.058246  1
  Al  Al6  1  0.146187  0.832566  0.562835  1
  Al  Al7  1  0.853813  0.167434  0.437165  1
  Al  Al8  1  0.479452  0.166799  0.560031  1
  Al  Al9  1  0.520548  0.833201  0.439969  1
  Al  Al10  1  0.221358  0.165432  0.324324  1
  Al  Al11  1  0.778642  0.834568  0.675676  1
  Al  Al12  1  0.437867  0.504107  0.675848  1
  Al  Al13  1  0.562133  0.495893  0.324152  1
  Al  Al14  1  0.107583  0.162629  0.675103  1
  Al  Al15  1  0.892417  0.837371  0.324897  1
  Al  Al16  1  0.356987  0.496093  0.941660  1
  Al  Al17  1  0.643013  0.503907  0.058340  1
  Al  Al18  1  0.017093  0.170568  0.948734  1
  Al  Al19  1  0.982907  0.829432  0.051266  1
  Al  Al20  1  0.187195  0.499282  0.439992  1
  Al  Al21  1  0.812805  0.500718  0.560008  1
  Al  Al22  1  0.730338  0.163848  0.183208  1
  Al  Al23  1  0.269662  0.836152  0.816792  1
  Al  Al24  1  0.061166  0.627143  0.815866  1
  Al  Al25  1  0.938834  0.372857  0.184134  1
  Al  Al26  1  0.850818  0.046248  0.816302  1
  Al  Al27  1  0.149182  0.953752  0.183699  1
  Pt  Pt28  1  0.119917  0.491088  0.639404  1
  Pt  Pt29  1  0.880083  0.508912  0.360596  1
  Pt  Pt30  1  0.657563  0.171386  0.999918  1
  Pt  Pt31  1  0.342437  0.828614  0.000082  1
  Pt  Pt32  1  0.537543  0.166454  0.360622  1
  Pt  Pt33  1  0.462457  0.833546  0.639378  1
  Pt  Pt34  1  0.778143  0.175732  0.637692  1
  Pt  Pt35  1  0.221857  0.824268  0.362308  1
  Pt  Pt36  1  0.000000  0.500000  0.000000  1
