# generated using pymatgen
data_Tb5Ho3Tc2(B12Os)2
_symmetry_space_group_name_H-M   'P 1'
_cell_length_a   3.67073200
_cell_length_b   9.14992450
_cell_length_c   11.53867316
_cell_angle_alpha   89.93626888
_cell_angle_beta   90.00000000
_cell_angle_gamma   90.00000000
_symmetry_Int_Tables_number   1
_chemical_formula_structural   Tb5Ho3Tc2(B12Os)2
_chemical_formula_sum   'Tb5 Ho3 Tc2 B24 Os2'
_cell_volume   387.54826034
_cell_formula_units_Z   1
loop_
 _symmetry_equiv_pos_site_id
 _symmetry_equiv_pos_as_xyz
  1  'x, y, z'
loop_
 _atom_site_type_symbol
 _atom_site_label
 _atom_site_symmetry_multiplicity
 _atom_site_fract_x
 _atom_site_fract_y
 _atom_site_fract_z
 _atom_site_occupancy
  Tb  Tb0  1  0.000000  0.324738  0.415282  1
  Tb  Tb1  1  0.000000  0.675250  0.584894  1
  Tb  Tb2  1  0.000000  0.820907  0.087122  1
  Tb  Tb3  1  0.000000  0.179058  0.912706  1
  Tb  Tb4  1  0.000000  0.941620  0.371022  1
  Ho  Ho5  1  0.000000  0.058557  0.629421  1
  Ho  Ho6  1  0.000000  0.443537  0.129876  1
  Ho  Ho7  1  0.000000  0.556455  0.870022  1
  Tc  Tc8  1  0.000000  0.637782  0.320008  1
  Tc  Tc9  1  0.000000  0.361611  0.679980  1
  B  B10  1  0.500000  0.553105  0.432707  1
  B  B11  1  0.500000  0.446682  0.567364  1
  B  B12  1  0.500000  0.053901  0.067169  1
  B  B13  1  0.500000  0.946136  0.932690  1
  B  B14  1  0.500000  0.747654  0.418540  1
  B  B15  1  0.500000  0.251701  0.581519  1
  B  B16  1  0.500000  0.248829  0.081629  1
  B  B17  1  0.500000  0.751265  0.918328  1
  B  B18  1  0.500000  0.790438  0.265369  1
  B  B19  1  0.500000  0.208978  0.734459  1
  B  B20  1  0.500000  0.290553  0.234010  1
  B  B21  1  0.500000  0.709666  0.765924  1
  B  B22  1  0.500000  0.630735  0.185324  1
  B  B23  1  0.500000  0.369119  0.814584  1
  B  B24  1  0.500000  0.130926  0.313526  1
  B  B25  1  0.500000  0.869574  0.686241  1
  B  B26  1  0.500000  0.983308  0.211699  1
  B  B27  1  0.500000  0.017010  0.787890  1
  B  B28  1  0.500000  0.482774  0.287417  1
  B  B29  1  0.500000  0.517153  0.712552  1
  B  B30  1  0.500000  0.602738  0.028277  1
  B  B31  1  0.500000  0.397254  0.971688  1
  B  B32  1  0.500000  0.103546  0.471653  1
  B  B33  1  0.500000  0.897008  0.529471  1
  Os  Os34  1  0.000000  0.137925  0.178023  1
  Os  Os35  1  0.000000  0.862508  0.821613  1
