# generated using pymatgen
data_Sr3InHg2Pd3
_symmetry_space_group_name_H-M   'P 1'
_cell_length_a   7.91064045
_cell_length_b   7.91064068
_cell_length_c   4.28350900
_cell_angle_alpha   90.00000000
_cell_angle_beta   90.00000000
_cell_angle_gamma   120.89848891
_symmetry_Int_Tables_number   1
_chemical_formula_structural   Sr3InHg2Pd3
_chemical_formula_sum   'Sr3 In1 Hg2 Pd3'
_cell_volume   230.01172908
_cell_formula_units_Z   1
loop_
 _symmetry_equiv_pos_site_id
 _symmetry_equiv_pos_as_xyz
  1  'x, y, z'
loop_
 _atom_site_type_symbol
 _atom_site_label
 _atom_site_symmetry_multiplicity
 _atom_site_fract_x
 _atom_site_fract_y
 _atom_site_fract_z
 _atom_site_occupancy
  Sr  Sr0  1  0.403409  0.993425  0.500000  1
  Sr  Sr1  1  0.993425  0.403409  0.500000  1
  Sr  Sr2  1  0.604578  0.604578  0.500000  1
  In  In3  1  0.250417  0.250417  0.000000  1
  Hg  Hg4  1  0.741958  0.001354  0.000000  1
  Hg  Hg5  1  0.001354  0.741958  0.000000  1
  Pd  Pd6  1  0.332891  0.651514  0.000000  1
  Pd  Pd7  1  0.651514  0.332891  0.000000  1
  Pd  Pd8  1  0.020454  0.020454  0.500000  1
