# generated using pymatgen
data_Bi(O2F7)2
_symmetry_space_group_name_H-M   'P 1'
_cell_length_a   12.56114600
_cell_length_b   6.60125343
_cell_length_c   8.79984376
_cell_angle_alpha   68.06061244
_cell_angle_beta   90.00000000
_cell_angle_gamma   90.00000000
_symmetry_Int_Tables_number   1
_chemical_formula_structural   Bi(O2F7)2
_chemical_formula_sum   'Bi2 O8 F28'
_cell_volume   676.83347853
_cell_formula_units_Z   2
loop_
 _symmetry_equiv_pos_site_id
 _symmetry_equiv_pos_as_xyz
  1  'x, y, z'
loop_
 _atom_site_type_symbol
 _atom_site_label
 _atom_site_symmetry_multiplicity
 _atom_site_fract_x
 _atom_site_fract_y
 _atom_site_fract_z
 _atom_site_occupancy
  Bi  Bi0  1  0.500000  0.500000  0.500000  1
  Bi  Bi1  1  0.000000  0.500000  0.000000  1
  O  O2  1  0.366839  0.770482  0.908139  1
  O  O3  1  0.633161  0.229518  0.091861  1
  O  O4  1  0.866839  0.229518  0.591861  1
  O  O5  1  0.133161  0.770482  0.408139  1
  O  O6  1  0.735848  0.748559  0.876628  1
  O  O7  1  0.264152  0.251441  0.123372  1
  O  O8  1  0.235848  0.251441  0.623372  1
  O  O9  1  0.764152  0.748559  0.376628  1
  F  F10  1  0.442184  0.858103  0.782171  1
  F  F11  1  0.557816  0.141897  0.217829  1
  F  F12  1  0.942184  0.141897  0.717829  1
  F  F13  1  0.057816  0.858103  0.282171  1
  F  F14  1  0.429554  0.786523  0.484117  1
  F  F15  1  0.570446  0.213477  0.515883  1
  F  F16  1  0.929554  0.213477  0.015883  1
  F  F17  1  0.070446  0.786523  0.984117  1
  F  F18  1  0.423443  0.339782  0.718798  1
  F  F19  1  0.576557  0.660218  0.281202  1
  F  F20  1  0.923443  0.660218  0.781202  1
  F  F21  1  0.076557  0.339782  0.218798  1
  F  F22  1  0.090526  0.805969  0.544920  1
  F  F23  1  0.909474  0.194031  0.455080  1
  F  F24  1  0.590526  0.194031  0.955080  1
  F  F25  1  0.409474  0.805969  0.044920  1
  F  F26  1  0.344866  0.300446  0.002649  1
  F  F27  1  0.655134  0.699554  0.997351  1
  F  F28  1  0.844866  0.699554  0.497351  1
  F  F29  1  0.155134  0.300446  0.502649  1
  F  F30  1  0.127102  0.444044  0.874648  1
  F  F31  1  0.872898  0.555956  0.125352  1
  F  F32  1  0.627102  0.555956  0.625352  1
  F  F33  1  0.372898  0.444044  0.374648  1
  F  F34  1  0.190646  0.093432  0.765390  1
  F  F35  1  0.809354  0.906568  0.234610  1
  F  F36  1  0.690646  0.906568  0.734610  1
  F  F37  1  0.309354  0.093432  0.265390  1
