# generated using pymatgen
data_Pr8Lu4Sc7Si16Ag
_symmetry_space_group_name_H-M   'P 1'
_cell_length_a   7.24580671
_cell_length_b   7.63045975
_cell_length_c   14.44747665
_cell_angle_alpha   89.91760562
_cell_angle_beta   90.14194534
_cell_angle_gamma   90.17809168
_symmetry_Int_Tables_number   1
_chemical_formula_structural   Pr8Lu4Sc7Si16Ag
_chemical_formula_sum   'Pr8 Lu4 Sc7 Si16 Ag1'
_cell_volume   798.77704725
_cell_formula_units_Z   1
loop_
 _symmetry_equiv_pos_site_id
 _symmetry_equiv_pos_as_xyz
  1  'x, y, z'
loop_
 _atom_site_type_symbol
 _atom_site_label
 _atom_site_symmetry_multiplicity
 _atom_site_fract_x
 _atom_site_fract_y
 _atom_site_fract_z
 _atom_site_occupancy
  Pr  Pr0  1  0.013891  0.175592  0.401124  1
  Pr  Pr1  1  0.513997  0.326835  0.399441  1
  Pr  Pr2  1  0.489540  0.684002  0.898805  1
  Pr  Pr3  1  0.489256  0.683809  0.602408  1
  Pr  Pr4  1  0.977360  0.827187  0.603513  1
  Pr  Pr5  1  0.979437  0.825467  0.898996  1
  Pr  Pr6  1  0.511660  0.328973  0.096441  1
  Pr  Pr7  1  0.013139  0.173390  0.097373  1
  Lu  Lu8  1  0.335227  0.173331  0.625224  1
  Lu  Lu9  1  0.674596  0.820141  0.373767  1
  Lu  Lu10  1  0.173476  0.676821  0.376029  1
  Lu  Lu11  1  0.825258  0.313392  0.876726  1
  Sc  Sc12  1  0.825720  0.314876  0.627458  1
  Sc  Sc13  1  0.842095  0.499357  0.246914  1
  Sc  Sc14  1  0.341590  0.000653  0.246995  1
  Sc  Sc15  1  0.333069  0.172380  0.875216  1
  Sc  Sc16  1  0.172988  0.676589  0.123886  1
  Sc  Sc17  1  0.672952  0.821765  0.125584  1
  Sc  Sc18  1  0.156625  0.497565  0.750943  1
  Si  Si19  1  0.275393  0.880478  0.751506  1
  Si  Si20  1  0.469626  0.619422  0.246025  1
  Si  Si21  1  0.041144  0.119630  0.751454  1
  Si  Si22  1  0.528101  0.391924  0.750688  1
  Si  Si23  1  0.147690  0.466673  0.543327  1
  Si  Si24  1  0.970386  0.877399  0.246185  1
  Si  Si25  1  0.711423  0.120073  0.247732  1
  Si  Si26  1  0.852385  0.537980  0.039933  1
  Si  Si27  1  0.348032  0.962754  0.039701  1
  Si  Si28  1  0.157182  0.466296  0.960802  1
  Si  Si29  1  0.658743  0.044147  0.531401  1
  Si  Si30  1  0.351390  0.966912  0.459996  1
  Si  Si31  1  0.847707  0.532242  0.465873  1
  Si  Si32  1  0.789776  0.598207  0.749791  1
  Si  Si33  1  0.211353  0.381941  0.247561  1
  Si  Si34  1  0.648708  0.036216  0.970481  1
  Ag  Ag35  1  0.649085  0.005583  0.750700  1
