# generated using pymatgen
data_Er8Tm8MgAg3Rh4
_symmetry_space_group_name_H-M   'P 1'
_cell_length_a   9.45556357
_cell_length_b   9.46765522
_cell_length_c   9.47110600
_cell_angle_alpha   59.98794931
_cell_angle_beta   59.94561782
_cell_angle_gamma   59.97671274
_symmetry_Int_Tables_number   1
_chemical_formula_structural   Er8Tm8MgAg3Rh4
_chemical_formula_sum   'Er8 Tm8 Mg1 Ag3 Rh4'
_cell_volume   599.12962149
_cell_formula_units_Z   1
loop_
 _symmetry_equiv_pos_site_id
 _symmetry_equiv_pos_as_xyz
  1  'x, y, z'
loop_
 _atom_site_type_symbol
 _atom_site_label
 _atom_site_symmetry_multiplicity
 _atom_site_fract_x
 _atom_site_fract_y
 _atom_site_fract_z
 _atom_site_occupancy
  Er  Er0  1  0.185144  0.186216  0.814320  1
  Er  Er1  1  0.809519  0.811024  0.189728  1
  Er  Er2  1  0.934109  0.563850  0.565015  1
  Er  Er3  1  0.565039  0.935256  0.934728  1
  Er  Er4  1  0.565039  0.935256  0.564978  1
  Er  Er5  1  0.934109  0.563850  0.937027  1
  Er  Er6  1  0.563425  0.565021  0.935777  1
  Er  Er7  1  0.935032  0.935915  0.564526  1
  Tm  Tm8  1  0.350406  0.348730  0.348821  1
  Tm  Tm9  1  0.350406  0.348730  0.952044  1
  Tm  Tm10  1  0.349109  0.955719  0.347586  1
  Tm  Tm11  1  0.938547  0.353706  0.353873  1
  Tm  Tm12  1  0.809418  0.188297  0.190176  1
  Tm  Tm13  1  0.185155  0.813198  0.813857  1
  Tm  Tm14  1  0.185155  0.813198  0.187790  1
  Tm  Tm15  1  0.809418  0.188297  0.812109  1
  Mg  Mg16  1  0.287558  0.571311  0.570565  1
  Ag  Ag17  1  0.584005  0.585037  0.583509  1
  Ag  Ag18  1  0.584005  0.585037  0.247449  1
  Ag  Ag19  1  0.584780  0.246682  0.584268  1
  Rh  Rh20  1  0.138917  0.145449  0.143680  1
  Rh  Rh21  1  0.138917  0.145449  0.571952  1
  Rh  Rh22  1  0.141190  0.570256  0.144276  1
  Rh  Rh23  1  0.571601  0.144514  0.141942  1
