# generated using pymatgen
data_PrCuTeO6
_symmetry_space_group_name_H-M   'P 1'
_cell_length_a   5.21361300
_cell_length_b   5.21361427
_cell_length_c   10.33781000
_cell_angle_alpha   89.99953667
_cell_angle_beta   90.00032861
_cell_angle_gamma   120.00031648
_symmetry_Int_Tables_number   1
_chemical_formula_structural   PrCuTeO6
_chemical_formula_sum   'Pr2 Cu2 Te2 O12'
_cell_volume   243.35231379
_cell_formula_units_Z   2
loop_
 _symmetry_equiv_pos_site_id
 _symmetry_equiv_pos_as_xyz
  1  'x, y, z'
loop_
 _atom_site_type_symbol
 _atom_site_label
 _atom_site_symmetry_multiplicity
 _atom_site_fract_x
 _atom_site_fract_y
 _atom_site_fract_z
 _atom_site_occupancy
  Pr  Pr0  1  0.999999  0.999999  0.000023  1
  Pr  Pr1  1  0.000000  0.000000  0.499977  1
  Cu  Cu2  1  0.333334  0.666667  0.250000  1
  Cu  Cu3  1  0.666669  0.333336  0.750000  1
  Te  Te4  1  0.666664  0.333333  0.250000  1
  Te  Te5  1  0.333336  0.666669  0.750000  1
  O  O6  1  0.634627  0.624261  0.143052  1
  O  O7  1  0.989643  0.365376  0.143052  1
  O  O8  1  0.375737  0.010364  0.143052  1
  O  O9  1  0.375735  0.365375  0.356949  1
  O  O10  1  0.989636  0.624265  0.356948  1
  O  O11  1  0.634624  0.010362  0.356948  1
  O  O12  1  0.365401  0.989607  0.643082  1
  O  O13  1  0.624208  0.634601  0.643082  1
  O  O14  1  0.010393  0.375791  0.643083  1
  O  O15  1  0.010388  0.634601  0.856917  1
  O  O16  1  0.624205  0.989605  0.856917  1
  O  O17  1  0.365399  0.375795  0.856918  1
