# generated using pymatgen
data_Li5(Al2Pt)8
_symmetry_space_group_name_H-M   'P 1'
_cell_length_a   8.61921513
_cell_length_b   8.65667527
_cell_length_c   8.65667500
_cell_angle_alpha   59.71391107
_cell_angle_beta   60.14303992
_cell_angle_gamma   60.14304104
_symmetry_Int_Tables_number   1
_chemical_formula_structural   Li5(Al2Pt)8
_chemical_formula_sum   'Li5 Al16 Pt8'
_cell_volume   456.70812801
_cell_formula_units_Z   1
loop_
 _symmetry_equiv_pos_site_id
 _symmetry_equiv_pos_as_xyz
  1  'x, y, z'
loop_
 _atom_site_type_symbol
 _atom_site_label
 _atom_site_symmetry_multiplicity
 _atom_site_fract_x
 _atom_site_fract_y
 _atom_site_fract_z
 _atom_site_occupancy
  Li  Li0  1  0.757764  0.242236  0.242236  1
  Li  Li1  1  0.758161  0.241839  0.740502  1
  Li  Li2  1  0.758161  0.740502  0.241839  1
  Li  Li3  1  0.259498  0.740502  0.241839  1
  Li  Li4  1  0.259498  0.241839  0.740502  1
  Al  Al5  1  0.892963  0.860736  0.860736  1
  Al  Al6  1  0.879867  0.859867  0.380397  1
  Al  Al7  1  0.385565  0.860736  0.860736  1
  Al  Al8  1  0.879867  0.380397  0.859867  1
  Al  Al9  1  0.140133  0.120133  0.120133  1
  Al  Al10  1  0.139264  0.107037  0.614435  1
  Al  Al11  1  0.139264  0.614435  0.107037  1
  Al  Al12  1  0.619603  0.120133  0.120133  1
  Al  Al13  1  0.624828  0.622494  0.622494  1
  Al  Al14  1  0.637841  0.623543  0.100778  1
  Al  Al15  1  0.130184  0.622494  0.622494  1
  Al  Al16  1  0.637841  0.100778  0.623543  1
  Al  Al17  1  0.376457  0.362159  0.362159  1
  Al  Al18  1  0.377506  0.375172  0.869816  1
  Al  Al19  1  0.377506  0.869816  0.375172  1
  Al  Al20  1  0.899222  0.362159  0.362159  1
  Pt  Pt21  1  0.004685  0.995315  0.995315  1
  Pt  Pt22  1  0.008563  0.491437  0.491437  1
  Pt  Pt23  1  0.508563  0.991437  0.991437  1
  Pt  Pt24  1  0.509584  0.992478  0.490416  1
  Pt  Pt25  1  0.509584  0.490416  0.992478  1
  Pt  Pt26  1  0.007522  0.490416  0.992478  1
  Pt  Pt27  1  0.007522  0.992478  0.490416  1
  Pt  Pt28  1  0.512987  0.487013  0.487013  1
