# generated using pymatgen
data_AcU(PS3)4
_symmetry_space_group_name_H-M   'P 1'
_cell_length_a   7.11155501
_cell_length_b   7.11730201
_cell_length_c   10.03822400
_cell_angle_alpha   90.00000000
_cell_angle_beta   90.00000000
_cell_angle_gamma   90.00483221
_symmetry_Int_Tables_number   1
_chemical_formula_structural   AcU(PS3)4
_chemical_formula_sum   'Ac1 U1 P4 S12'
_cell_volume   508.08555634
_cell_formula_units_Z   1
loop_
 _symmetry_equiv_pos_site_id
 _symmetry_equiv_pos_as_xyz
  1  'x, y, z'
loop_
 _atom_site_type_symbol
 _atom_site_label
 _atom_site_symmetry_multiplicity
 _atom_site_fract_x
 _atom_site_fract_y
 _atom_site_fract_z
 _atom_site_occupancy
  Ac  Ac0  1  0.000000  0.000000  0.749941  1
  U  U1  1  0.000000  0.000000  0.250059  1
  P  P2  1  0.060951  0.350265  0.489933  1
  P  P3  1  0.939049  0.649735  0.489933  1
  P  P4  1  0.350235  0.939089  0.010047  1
  P  P5  1  0.649765  0.060911  0.010047  1
  S  S6  1  0.217204  0.336771  0.654826  1
  S  S7  1  0.692299  0.204259  0.184174  1
  S  S8  1  0.176246  0.169852  0.017373  1
  S  S9  1  0.830031  0.176268  0.482618  1
  S  S10  1  0.169969  0.823732  0.482618  1
  S  S11  1  0.823754  0.830148  0.017373  1
  S  S12  1  0.204417  0.307677  0.315854  1
  S  S13  1  0.663267  0.217147  0.845175  1
  S  S14  1  0.336733  0.782853  0.845175  1
  S  S15  1  0.795583  0.692323  0.315854  1
  S  S16  1  0.782796  0.663229  0.654826  1
  S  S17  1  0.307701  0.795741  0.184174  1
