# generated using pymatgen
data_Tl3AgS8(O3F)8
_symmetry_space_group_name_H-M   'P 1'
_cell_length_a   8.50247055
_cell_length_b   9.93418904
_cell_length_c   10.36518196
_cell_angle_alpha   64.57348755
_cell_angle_beta   88.99450201
_cell_angle_gamma   88.58352105
_symmetry_Int_Tables_number   1
_chemical_formula_structural   Tl3AgS8(O3F)8
_chemical_formula_sum   'Tl3 Ag1 S8 O24 F8'
_cell_volume   790.42822814
_cell_formula_units_Z   1
loop_
 _symmetry_equiv_pos_site_id
 _symmetry_equiv_pos_as_xyz
  1  'x, y, z'
loop_
 _atom_site_type_symbol
 _atom_site_label
 _atom_site_symmetry_multiplicity
 _atom_site_fract_x
 _atom_site_fract_y
 _atom_site_fract_z
 _atom_site_occupancy
  Tl  Tl0  1  0.500000  0.000000  0.000000  1
  Tl  Tl1  1  0.500000  0.500000  0.500000  1
  Tl  Tl2  1  0.000000  0.000000  0.500000  1
  Ag  Ag3  1  0.000000  0.500000  0.000000  1
  S  S4  1  0.288684  0.668036  0.156604  1
  S  S5  1  0.761102  0.828913  0.858959  1
  S  S6  1  0.711316  0.331964  0.843396  1
  S  S7  1  0.238898  0.171087  0.141041  1
  S  S8  1  0.272338  0.191246  0.683050  1
  S  S9  1  0.719826  0.320509  0.347240  1
  S  S10  1  0.727662  0.808754  0.316950  1
  S  S11  1  0.280174  0.679491  0.652760  1
  O  O12  1  0.305479  0.824673  0.049784  1
  O  O13  1  0.783541  0.690521  0.984352  1
  O  O14  1  0.694521  0.175327  0.950216  1
  O  O15  1  0.216459  0.309479  0.015648  1
  O  O16  1  0.140817  0.605868  0.147487  1
  O  O17  1  0.608841  0.911153  0.855705  1
  O  O18  1  0.859183  0.394132  0.852513  1
  O  O19  1  0.391159  0.088847  0.144295  1
  O  O20  1  0.336502  0.644492  0.299803  1
  O  O21  1  0.790477  0.830410  0.721279  1
  O  O22  1  0.663498  0.355508  0.700197  1
  O  O23  1  0.209523  0.169590  0.278721  1
  O  O24  1  0.351361  0.292169  0.548838  1
  O  O25  1  0.790519  0.232403  0.483860  1
  O  O26  1  0.648639  0.707831  0.451162  1
  O  O27  1  0.209481  0.767597  0.516140  1
  O  O28  1  0.219107  0.056542  0.681349  1
  O  O29  1  0.642514  0.463044  0.337896  1
  O  O30  1  0.780893  0.943458  0.318651  1
  O  O31  1  0.357486  0.536956  0.662104  1
  O  O32  1  0.356577  0.177660  0.810672  1
  O  O33  1  0.807899  0.348733  0.218871  1
  O  O34  1  0.643423  0.822340  0.189328  1
  O  O35  1  0.192101  0.651267  0.781129  1
  F  F36  1  0.418446  0.580626  0.107899  1
  F  F37  1  0.887919  0.938980  0.873695  1
  F  F38  1  0.581554  0.419374  0.892101  1
  F  F39  1  0.112081  0.061020  0.126305  1
  F  F40  1  0.118634  0.283887  0.686792  1
  F  F41  1  0.571233  0.228032  0.341334  1
  F  F42  1  0.881366  0.716113  0.313208  1
  F  F43  1  0.428767  0.771968  0.658666  1
