# generated using pymatgen
data_HfSc3(VP)4
_symmetry_space_group_name_H-M   'P 1'
_cell_length_a   3.49497200
_cell_length_b   6.63192675
_cell_length_c   7.88268647
_cell_angle_alpha   90.24144375
_cell_angle_beta   90.00000000
_cell_angle_gamma   90.00000000
_symmetry_Int_Tables_number   1
_chemical_formula_structural   HfSc3(VP)4
_chemical_formula_sum   'Hf1 Sc3 V4 P4'
_cell_volume   182.70642425
_cell_formula_units_Z   1
loop_
 _symmetry_equiv_pos_site_id
 _symmetry_equiv_pos_as_xyz
  1  'x, y, z'
loop_
 _atom_site_type_symbol
 _atom_site_label
 _atom_site_symmetry_multiplicity
 _atom_site_fract_x
 _atom_site_fract_y
 _atom_site_fract_z
 _atom_site_occupancy
  Hf  Hf0  1  0.750000  0.458866  0.333097  1
  Sc  Sc1  1  0.250000  0.041481  0.833175  1
  Sc  Sc2  1  0.250000  0.540677  0.666262  1
  Sc  Sc3  1  0.750000  0.958572  0.166707  1
  V  V4  1  0.250000  0.129086  0.443838  1
  V  V5  1  0.250000  0.625777  0.056499  1
  V  V6  1  0.750000  0.871719  0.555074  1
  V  V7  1  0.750000  0.375242  0.946077  1
  P  P8  1  0.250000  0.761991  0.361692  1
  P  P9  1  0.250000  0.259902  0.137224  1
  P  P10  1  0.750000  0.237855  0.638401  1
  P  P11  1  0.750000  0.738832  0.861956  1
