# generated using pymatgen
data_Dy13Lu3(AgRh)4
_symmetry_space_group_name_H-M   'P 1'
_cell_length_a   9.50379397
_cell_length_b   9.50379456
_cell_length_c   9.50231406
_cell_angle_alpha   59.99484994
_cell_angle_beta   59.99484459
_cell_angle_gamma   60.00000199
_symmetry_Int_Tables_number   1
_chemical_formula_structural   Dy13Lu3(AgRh)4
_chemical_formula_sum   'Dy13 Lu3 Ag4 Rh4'
_cell_volume   606.84057690
_cell_formula_units_Z   1
loop_
 _symmetry_equiv_pos_site_id
 _symmetry_equiv_pos_as_xyz
  1  'x, y, z'
loop_
 _atom_site_type_symbol
 _atom_site_label
 _atom_site_symmetry_multiplicity
 _atom_site_fract_x
 _atom_site_fract_y
 _atom_site_fract_z
 _atom_site_occupancy
  Dy  Dy0  1  0.935572  0.935572  0.563291  1
  Dy  Dy1  1  0.146890  0.146890  0.559328  1
  Dy  Dy2  1  0.565565  0.935572  0.563291  1
  Dy  Dy3  1  0.145288  0.145288  0.147323  1
  Dy  Dy4  1  0.313223  0.313223  0.685890  1
  Dy  Dy5  1  0.935572  0.565565  0.563291  1
  Dy  Dy6  1  0.563745  0.563745  0.937813  1
  Dy  Dy7  1  0.563745  0.934697  0.937813  1
  Dy  Dy8  1  0.934697  0.563745  0.937813  1
  Dy  Dy9  1  0.145288  0.562099  0.147323  1
  Dy  Dy10  1  0.313223  0.687664  0.685890  1
  Dy  Dy11  1  0.687664  0.313223  0.685890  1
  Dy  Dy12  1  0.562099  0.145288  0.147323  1
  Lu  Lu13  1  0.685998  0.315454  0.312551  1
  Lu  Lu14  1  0.685998  0.685998  0.312551  1
  Lu  Lu15  1  0.315454  0.685998  0.312551  1
  Ag  Ag16  1  0.917678  0.917678  0.246967  1
  Ag  Ag17  1  0.246848  0.917650  0.917853  1
  Ag  Ag18  1  0.917650  0.246848  0.917853  1
  Ag  Ag19  1  0.917650  0.917650  0.917853  1
  Rh  Rh20  1  0.357557  0.357557  0.355898  1
  Rh  Rh21  1  0.928988  0.357557  0.355898  1
  Rh  Rh22  1  0.356050  0.356050  0.931849  1
  Rh  Rh23  1  0.357557  0.928988  0.355898  1
