# generated using pymatgen
data_Y4Er16Cd3Ni2Au3
_symmetry_space_group_name_H-M   'P 1'
_cell_length_a   9.54267490
_cell_length_b   9.53912579
_cell_length_c   9.45553585
_cell_angle_alpha   90.00021197
_cell_angle_beta   90.04200164
_cell_angle_gamma   119.98799909
_symmetry_Int_Tables_number   1
_chemical_formula_structural   Y4Er16Cd3Ni2Au3
_chemical_formula_sum   'Y4 Er16 Cd3 Ni2 Au3'
_cell_volume   745.50031548
_cell_formula_units_Z   1
loop_
 _symmetry_equiv_pos_site_id
 _symmetry_equiv_pos_as_xyz
  1  'x, y, z'
loop_
 _atom_site_type_symbol
 _atom_site_label
 _atom_site_symmetry_multiplicity
 _atom_site_fract_x
 _atom_site_fract_y
 _atom_site_fract_z
 _atom_site_occupancy
  Y  Y0  1  0.456977  0.542605  0.749609  1
  Y  Y1  1  0.457013  0.914419  0.749581  1
  Y  Y2  1  0.085812  0.542902  0.750044  1
  Y  Y3  1  0.581288  0.790641  0.062930  1
  Er  Er4  1  0.000062  0.000000  0.459670  1
  Er  Er5  1  0.000408  0.000149  0.040198  1
  Er  Er6  1  0.541965  0.457677  0.250188  1
  Er  Er7  1  0.542026  0.084316  0.250169  1
  Er  Er8  1  0.916037  0.458101  0.250085  1
  Er  Er9  1  0.209714  0.790364  0.436792  1
  Er  Er10  1  0.209648  0.419300  0.436798  1
  Er  Er11  1  0.580625  0.790274  0.437138  1
  Er  Er12  1  0.790776  0.209316  0.559540  1
  Er  Er13  1  0.790782  0.581465  0.559558  1
  Er  Er14  1  0.418445  0.209250  0.559604  1
  Er  Er15  1  0.790924  0.209513  0.940316  1
  Er  Er16  1  0.790896  0.581411  0.940333  1
  Er  Er17  1  0.418622  0.209348  0.940434  1
  Er  Er18  1  0.209361  0.790346  0.063188  1
  Er  Er19  1  0.209300  0.418938  0.063210  1
  Cd  Cd20  1  0.109622  0.890420  0.750006  1
  Cd  Cd21  1  0.109612  0.219183  0.750008  1
  Cd  Cd22  1  0.780915  0.890441  0.749880  1
  Ni  Ni23  1  0.332323  0.666168  0.250681  1
  Ni  Ni24  1  0.666661  0.333314  0.749961  1
  Au  Au25  1  0.869558  0.130635  0.250038  1
  Au  Au26  1  0.869485  0.738913  0.250044  1
  Au  Au27  1  0.261145  0.130591  0.250000  1
