# generated using pymatgen
data_ErCrCo4P3
_symmetry_space_group_name_H-M   'P 1'
_cell_length_a   3.64124900
_cell_length_b   10.28355200
_cell_length_c   11.75956000
_cell_angle_alpha   90.00000000
_cell_angle_beta   90.00000000
_cell_angle_gamma   90.00000000
_symmetry_Int_Tables_number   1
_chemical_formula_structural   ErCrCo4P3
_chemical_formula_sum   'Er4 Cr4 Co16 P12'
_cell_volume   440.33641182
_cell_formula_units_Z   4
loop_
 _symmetry_equiv_pos_site_id
 _symmetry_equiv_pos_as_xyz
  1  'x, y, z'
loop_
 _atom_site_type_symbol
 _atom_site_label
 _atom_site_symmetry_multiplicity
 _atom_site_fract_x
 _atom_site_fract_y
 _atom_site_fract_z
 _atom_site_occupancy
  Er  Er0  1  0.250000  0.582707  0.704380  1
  Er  Er1  1  0.250000  0.917293  0.204380  1
  Er  Er2  1  0.750000  0.417293  0.295620  1
  Er  Er3  1  0.750000  0.082707  0.795620  1
  Cr  Cr4  1  0.250000  0.709762  0.988772  1
  Cr  Cr5  1  0.250000  0.790238  0.488772  1
  Cr  Cr6  1  0.750000  0.290238  0.011228  1
  Cr  Cr7  1  0.750000  0.209762  0.511228  1
  Co  Co8  1  0.250000  0.406272  0.489102  1
  Co  Co9  1  0.250000  0.093728  0.989102  1
  Co  Co10  1  0.750000  0.593728  0.510898  1
  Co  Co11  1  0.750000  0.906272  0.010898  1
  Co  Co12  1  0.250000  0.220694  0.177308  1
  Co  Co13  1  0.250000  0.279306  0.677308  1
  Co  Co14  1  0.750000  0.779306  0.822692  1
  Co  Co15  1  0.750000  0.720694  0.322692  1
  Co  Co16  1  0.250000  0.885713  0.698923  1
  Co  Co17  1  0.250000  0.614287  0.198923  1
  Co  Co18  1  0.750000  0.114287  0.301077  1
  Co  Co19  1  0.750000  0.385713  0.801077  1
  Co  Co20  1  0.250000  0.465916  0.933332  1
  Co  Co21  1  0.250000  0.034084  0.433332  1
  Co  Co22  1  0.750000  0.534084  0.066668  1
  Co  Co23  1  0.750000  0.965916  0.566668  1
  P  P24  1  0.250000  0.417848  0.113594  1
  P  P25  1  0.250000  0.082152  0.613594  1
  P  P26  1  0.750000  0.582152  0.886406  1
  P  P27  1  0.750000  0.917848  0.386406  1
  P  P28  1  0.250000  0.268835  0.868464  1
  P  P29  1  0.250000  0.231165  0.368464  1
  P  P30  1  0.750000  0.731165  0.131536  1
  P  P31  1  0.750000  0.768835  0.631536  1
  P  P32  1  0.250000  0.599757  0.391342  1
  P  P33  1  0.250000  0.900243  0.891342  1
  P  P34  1  0.750000  0.400243  0.608658  1
  P  P35  1  0.750000  0.099757  0.108658  1
