# generated using pymatgen
data_YEr2(TmFe6)3
_symmetry_space_group_name_H-M   'P 1'
_cell_length_a   5.08074600
_cell_length_b   5.08074677
_cell_length_c   16.06703700
_cell_angle_alpha   90.00000000
_cell_angle_beta   90.00000000
_cell_angle_gamma   119.99999496
_symmetry_Int_Tables_number   1
_chemical_formula_structural   YEr2(TmFe6)3
_chemical_formula_sum   'Y1 Er2 Tm3 Fe18'
_cell_volume   359.18772089
_cell_formula_units_Z   1
loop_
 _symmetry_equiv_pos_site_id
 _symmetry_equiv_pos_as_xyz
  1  'x, y, z'
loop_
 _atom_site_type_symbol
 _atom_site_label
 _atom_site_symmetry_multiplicity
 _atom_site_fract_x
 _atom_site_fract_y
 _atom_site_fract_z
 _atom_site_occupancy
  Y  Y0  1  0.666667  0.333333  0.249701  1
  Er  Er1  1  0.333333  0.666667  0.536867  1
  Er  Er2  1  0.333333  0.666667  0.750785  1
  Tm  Tm3  1  0.333333  0.666667  0.963206  1
  Tm  Tm4  1  0.666667  0.333333  0.036610  1
  Tm  Tm5  1  0.666667  0.333333  0.462833  1
  Fe  Fe6  1  0.167042  0.832958  0.372930  1
  Fe  Fe7  1  0.167042  0.334084  0.372930  1
  Fe  Fe8  1  0.665916  0.832958  0.372930  1
  Fe  Fe9  1  0.832884  0.167116  0.627344  1
  Fe  Fe10  1  0.832884  0.665767  0.627344  1
  Fe  Fe11  1  0.334233  0.167116  0.627344  1
  Fe  Fe12  1  0.832812  0.167188  0.873437  1
  Fe  Fe13  1  0.832812  0.665623  0.873437  1
  Fe  Fe14  1  0.334377  0.167188  0.873437  1
  Fe  Fe15  1  0.167165  0.832835  0.126308  1
  Fe  Fe16  1  0.167165  0.334330  0.126308  1
  Fe  Fe17  1  0.665670  0.832835  0.126308  1
  Fe  Fe18  1  0.333333  0.666667  0.249714  1
  Fe  Fe19  1  0.666667  0.333333  0.750406  1
  Fe  Fe20  1  0.000000  0.000000  0.249572  1
  Fe  Fe21  1  0.000000  0.000000  0.750441  1
  Fe  Fe22  1  0.000000  0.000000  0.499885  1
  Fe  Fe23  1  0.000000  0.000000  0.999926  1
