# generated using pymatgen
data_ZrScReOs3
_symmetry_space_group_name_H-M   'P 1'
_cell_length_a   5.26544011
_cell_length_b   5.15191836
_cell_length_c   8.68952590
_cell_angle_alpha   89.94792451
_cell_angle_beta   90.02547434
_cell_angle_gamma   119.28933821
_symmetry_Int_Tables_number   1
_chemical_formula_structural   ZrScReOs3
_chemical_formula_sum   'Zr2 Sc2 Re2 Os6'
_cell_volume   205.58710830
_cell_formula_units_Z   2
loop_
 _symmetry_equiv_pos_site_id
 _symmetry_equiv_pos_as_xyz
  1  'x, y, z'
loop_
 _atom_site_type_symbol
 _atom_site_label
 _atom_site_symmetry_multiplicity
 _atom_site_fract_x
 _atom_site_fract_y
 _atom_site_fract_z
 _atom_site_occupancy
  Zr  Zr0  1  0.332098  0.663770  0.434031  1
  Zr  Zr1  1  0.667902  0.331671  0.934031  1
  Sc  Sc2  1  0.668956  0.332268  0.564846  1
  Sc  Sc3  1  0.331044  0.663313  0.064846  1
  Re  Re4  1  0.168472  0.834524  0.749999  1
  Re  Re5  1  0.831528  0.666052  0.249999  1
  Os  Os6  1  0.652920  0.832779  0.749725  1
  Os  Os7  1  0.347080  0.179860  0.249725  1
  Os  Os8  1  0.828113  0.178936  0.250030  1
  Os  Os9  1  0.171887  0.350822  0.750030  1
  Os  Os10  1  0.997258  0.981632  0.501368  1
  Os  Os11  1  0.002742  0.984375  0.001368  1
