# generated using pymatgen
data_Nd8Dy9Er3Pb16
_symmetry_space_group_name_H-M   'P 1'
_cell_length_a   8.26872677
_cell_length_b   8.35879778
_cell_length_c   15.84507200
_cell_angle_alpha   90.00000000
_cell_angle_beta   90.00000000
_cell_angle_gamma   90.04956522
_symmetry_Int_Tables_number   1
_chemical_formula_structural   Nd8Dy9Er3Pb16
_chemical_formula_sum   'Nd8 Dy9 Er3 Pb16'
_cell_volume   1095.15733150
_cell_formula_units_Z   1
loop_
 _symmetry_equiv_pos_site_id
 _symmetry_equiv_pos_as_xyz
  1  'x, y, z'
loop_
 _atom_site_type_symbol
 _atom_site_label
 _atom_site_symmetry_multiplicity
 _atom_site_fract_x
 _atom_site_fract_y
 _atom_site_fract_z
 _atom_site_occupancy
  Nd  Nd0  1  0.470497  0.677705  0.598948  1
  Nd  Nd1  1  0.970741  0.822631  0.901076  1
  Nd  Nd2  1  0.529486  0.322443  0.098992  1
  Nd  Nd3  1  0.029411  0.177513  0.401132  1
  Nd  Nd4  1  0.529486  0.322443  0.401008  1
  Nd  Nd5  1  0.029411  0.177513  0.098868  1
  Nd  Nd6  1  0.470497  0.677705  0.901052  1
  Nd  Nd7  1  0.970741  0.822631  0.598924  1
  Dy  Dy8  1  0.628008  0.159379  0.621527  1
  Dy  Dy9  1  0.128395  0.340424  0.878418  1
  Dy  Dy10  1  0.371770  0.840645  0.121632  1
  Dy  Dy11  1  0.871814  0.659325  0.378218  1
  Dy  Dy12  1  0.371770  0.840645  0.378368  1
  Dy  Dy13  1  0.871814  0.659325  0.121782  1
  Dy  Dy14  1  0.628008  0.159379  0.878473  1
  Dy  Dy15  1  0.128395  0.340424  0.621582  1
  Dy  Dy16  1  0.795948  0.494807  0.750000  1
  Er  Er17  1  0.295903  0.005446  0.750000  1
  Er  Er18  1  0.204064  0.505487  0.250000  1
  Er  Er19  1  0.703996  0.994623  0.250000  1
  Pb  Pb20  1  0.710607  0.963286  0.456306  1
  Pb  Pb21  1  0.210690  0.536575  0.043717  1
  Pb  Pb22  1  0.289266  0.036583  0.956182  1
  Pb  Pb23  1  0.789358  0.463316  0.543486  1
  Pb  Pb24  1  0.289266  0.036583  0.543818  1
  Pb  Pb25  1  0.789358  0.463316  0.956514  1
  Pb  Pb26  1  0.710607  0.963286  0.043694  1
  Pb  Pb27  1  0.210690  0.536575  0.456283  1
  Pb  Pb28  1  0.433156  0.370632  0.750000  1
  Pb  Pb29  1  0.933879  0.128432  0.750000  1
  Pb  Pb30  1  0.566081  0.629216  0.250000  1
  Pb  Pb31  1  0.066080  0.871038  0.250000  1
  Pb  Pb32  1  0.660283  0.850805  0.750000  1
  Pb  Pb33  1  0.160381  0.650044  0.750000  1
  Pb  Pb34  1  0.340011  0.150115  0.250000  1
  Pb  Pb35  1  0.840133  0.349702  0.250000  1
