# generated using pymatgen
data_Y7Lu(SiI6)2
_symmetry_space_group_name_H-M   'P 1'
_cell_length_a   4.21250900
_cell_length_b   14.04294921
_cell_length_c   14.82320819
_cell_angle_alpha   90.25307648
_cell_angle_beta   90.00000000
_cell_angle_gamma   90.00000000
_symmetry_Int_Tables_number   1
_chemical_formula_structural   Y7Lu(SiI6)2
_chemical_formula_sum   'Y7 Lu1 Si2 I12'
_cell_volume   876.87388984
_cell_formula_units_Z   1
loop_
 _symmetry_equiv_pos_site_id
 _symmetry_equiv_pos_as_xyz
  1  'x, y, z'
loop_
 _atom_site_type_symbol
 _atom_site_label
 _atom_site_symmetry_multiplicity
 _atom_site_fract_x
 _atom_site_fract_y
 _atom_site_fract_z
 _atom_site_occupancy
  Y  Y0  1  0.500000  0.115491  0.349589  1
  Y  Y1  1  0.500000  0.885752  0.650935  1
  Y  Y2  1  0.500000  0.615400  0.151406  1
  Y  Y3  1  0.500000  0.384101  0.848171  1
  Y  Y4  1  0.000000  0.890836  0.425105  1
  Y  Y5  1  0.000000  0.610457  0.924189  1
  Y  Y6  1  0.000000  0.389626  0.075288  1
  Lu  Lu7  1  0.000000  0.108237  0.573844  1
  Si  Si8  1  0.500000  0.001926  0.501109  1
  Si  Si9  1  0.500000  0.499925  0.999574  1
  I  I10  1  0.500000  0.247942  0.164958  1
  I  I11  1  0.500000  0.753565  0.835986  1
  I  I12  1  0.500000  0.748228  0.336080  1
  I  I13  1  0.500000  0.245934  0.662772  1
  I  I14  1  0.000000  0.258188  0.421376  1
  I  I15  1  0.000000  0.741468  0.582967  1
  I  I16  1  0.000000  0.759396  0.083704  1
  I  I17  1  0.000000  0.240378  0.916158  1
  I  I18  1  0.000000  0.001067  0.240976  1
  I  I19  1  0.000000  0.003196  0.756502  1
  I  I20  1  0.000000  0.501369  0.259754  1
  I  I21  1  0.000000  0.497518  0.739559  1
