# generated using pymatgen
data_Sr5Nd(Sn4Sb)2
_symmetry_space_group_name_H-M   'P 1'
_cell_length_a   8.97037422
_cell_length_b   8.97037513
_cell_length_c   8.97326115
_cell_angle_alpha   120.21984134
_cell_angle_beta   120.21984467
_cell_angle_gamma   89.62830650
_symmetry_Int_Tables_number   1
_chemical_formula_structural   Sr5Nd(Sn4Sb)2
_chemical_formula_sum   'Sr5 Nd1 Sn8 Sb2'
_cell_volume   508.82440726
_cell_formula_units_Z   1
loop_
 _symmetry_equiv_pos_site_id
 _symmetry_equiv_pos_as_xyz
  1  'x, y, z'
loop_
 _atom_site_type_symbol
 _atom_site_label
 _atom_site_symmetry_multiplicity
 _atom_site_fract_x
 _atom_site_fract_y
 _atom_site_fract_z
 _atom_site_occupancy
  Sr  Sr0  1  0.750008  0.749992  0.000000  1
  Sr  Sr1  1  0.162330  0.662359  0.824689  1
  Sr  Sr2  1  0.837641  0.337670  0.175311  1
  Sr  Sr3  1  0.662337  0.837663  0.500000  1
  Sr  Sr4  1  0.337651  0.162349  0.500000  1
  Nd  Nd5  1  0.249982  0.250018  0.000000  1
  Sn  Sn6  1  0.832266  0.329170  0.787230  1
  Sn  Sn7  1  0.170830  0.667734  0.212770  1
  Sn  Sn8  1  0.541918  0.044972  0.212720  1
  Sn  Sn9  1  0.329127  0.541928  0.496905  1
  Sn  Sn10  1  0.958072  0.170873  0.503095  1
  Sn  Sn11  1  0.455028  0.958082  0.787280  1
  Sn  Sn12  1  0.667798  0.455004  0.496964  1
  Sn  Sn13  1  0.044996  0.832202  0.503036  1
  Sb  Sb14  1  0.004750  0.004735  0.000011  1
  Sb  Sb15  1  0.495265  0.495250  0.999989  1
