# generated using pymatgen
data_La3Ce(SbS5)2
_symmetry_space_group_name_H-M   'P 1'
_cell_length_a   7.39462100
_cell_length_b   8.12212686
_cell_length_c   11.51948700
_cell_angle_alpha   90.00000000
_cell_angle_beta   90.00000000
_cell_angle_gamma   89.88327270
_symmetry_Int_Tables_number   1
_chemical_formula_structural   La3Ce(SbS5)2
_chemical_formula_sum   'La6 Ce2 Sb4 S20'
_cell_volume   691.85952722
_cell_formula_units_Z   2
loop_
 _symmetry_equiv_pos_site_id
 _symmetry_equiv_pos_as_xyz
  1  'x, y, z'
loop_
 _atom_site_type_symbol
 _atom_site_label
 _atom_site_symmetry_multiplicity
 _atom_site_fract_x
 _atom_site_fract_y
 _atom_site_fract_z
 _atom_site_occupancy
  La  La0  1  0.436772  0.499985  0.172682  1
  La  La1  1  0.063077  0.000016  0.672645  1
  La  La2  1  0.563750  0.000318  0.831168  1
  La  La3  1  0.936205  0.499681  0.331218  1
  La  La4  1  0.562199  0.500135  0.834270  1
  La  La5  1  0.937822  0.999861  0.334235  1
  Ce  Ce6  1  0.439243  0.999852  0.167118  1
  Ce  Ce7  1  0.060722  0.500157  0.666943  1
  Sb  Sb8  1  0.997920  0.749807  0.000007  1
  Sb  Sb9  1  0.502062  0.750208  0.499965  1
  Sb  Sb10  1  0.000868  0.250968  0.999541  1
  Sb  Sb11  1  0.499089  0.249016  0.499496  1
  S  S12  1  0.158507  0.754223  0.205795  1
  S  S13  1  0.341425  0.745783  0.705854  1
  S  S14  1  0.844842  0.254208  0.793273  1
  S  S15  1  0.655145  0.245802  0.293245  1
  S  S16  1  0.655909  0.753798  0.292827  1
  S  S17  1  0.844088  0.746179  0.792864  1
  S  S18  1  0.340868  0.254432  0.706338  1
  S  S19  1  0.159070  0.245547  0.206270  1
  S  S20  1  0.496886  0.753594  0.004825  1
  S  S21  1  0.003243  0.746630  0.504669  1
  S  S22  1  0.494481  0.246740  0.004395  1
  S  S23  1  0.005673  0.253046  0.504250  1
  S  S24  1  0.806813  0.499310  0.075931  1
  S  S25  1  0.693093  0.000700  0.576104  1
  S  S26  1  0.191843  0.998912  0.926148  1
  S  S27  1  0.308092  0.501108  0.426111  1
  S  S28  1  0.184624  0.501212  0.913547  1
  S  S29  1  0.315712  0.998781  0.412950  1
  S  S30  1  0.803582  0.001568  0.072606  1
  S  S31  1  0.696374  0.498423  0.572712  1
