# generated using pymatgen
data_La3TmMg2Ir3
_symmetry_space_group_name_H-M   'P 1'
_cell_length_a   7.62518000
_cell_length_b   7.64854758
_cell_length_c   4.22838800
_cell_angle_alpha   90.00000000
_cell_angle_beta   90.00000000
_cell_angle_gamma   119.89897863
_symmetry_Int_Tables_number   1
_chemical_formula_structural   La3TmMg2Ir3
_chemical_formula_sum   'La3 Tm1 Mg2 Ir3'
_cell_volume   213.78426184
_cell_formula_units_Z   1
loop_
 _symmetry_equiv_pos_site_id
 _symmetry_equiv_pos_as_xyz
  1  'x, y, z'
loop_
 _atom_site_type_symbol
 _atom_site_label
 _atom_site_symmetry_multiplicity
 _atom_site_fract_x
 _atom_site_fract_y
 _atom_site_fract_z
 _atom_site_occupancy
  La  La0  1  0.398280  0.000000  0.500001  1
  La  La1  1  0.016558  0.435461  0.500001  1
  La  La2  1  0.581096  0.564540  0.500001  1
  Tm  Tm3  1  0.756460  0.000000  0.000000  1
  Mg  Mg4  1  0.238175  0.239851  0.000000  1
  Mg  Mg5  1  0.998324  0.760149  0.000000  1
  Ir  Ir6  1  0.671049  0.328444  0.000000  1
  Ir  Ir7  1  0.342605  0.671556  0.000000  1
  Ir  Ir8  1  0.997453  0.000000  0.500001  1
