# generated using pymatgen
data_Tb6CrNi17As12
_symmetry_space_group_name_H-M   'P 1'
_cell_length_a   3.90563400
_cell_length_b   10.90512800
_cell_length_c   12.76344200
_cell_angle_alpha   90.00000000
_cell_angle_beta   90.00000000
_cell_angle_gamma   90.00000000
_symmetry_Int_Tables_number   1
_chemical_formula_structural   Tb6CrNi17As12
_chemical_formula_sum   'Tb6 Cr1 Ni17 As12'
_cell_volume   543.61335743
_cell_formula_units_Z   1
loop_
 _symmetry_equiv_pos_site_id
 _symmetry_equiv_pos_as_xyz
  1  'x, y, z'
loop_
 _atom_site_type_symbol
 _atom_site_label
 _atom_site_symmetry_multiplicity
 _atom_site_fract_x
 _atom_site_fract_y
 _atom_site_fract_z
 _atom_site_occupancy
  Tb  Tb0  1  0.000000  0.500000  0.524054  1
  Tb  Tb1  1  0.500000  0.000000  0.477917  1
  Tb  Tb2  1  0.500000  0.817423  0.207774  1
  Tb  Tb3  1  0.500000  0.182577  0.207774  1
  Tb  Tb4  1  0.000000  0.684037  0.794267  1
  Tb  Tb5  1  0.000000  0.315963  0.794267  1
  Cr  Cr6  1  0.500000  0.500000  0.151627  1
  Ni  Ni7  1  0.000000  0.000000  0.844196  1
  Ni  Ni8  1  0.500000  0.500000  0.699669  1
  Ni  Ni9  1  0.000000  0.000000  0.301866  1
  Ni  Ni10  1  0.000000  0.500000  0.981980  1
  Ni  Ni11  1  0.500000  0.000000  0.019146  1
  Ni  Ni12  1  0.500000  0.329462  0.994305  1
  Ni  Ni13  1  0.500000  0.670538  0.994305  1
  Ni  Ni14  1  0.000000  0.163588  0.003249  1
  Ni  Ni15  1  0.000000  0.836412  0.003249  1
  Ni  Ni16  1  0.500000  0.303015  0.426002  1
  Ni  Ni17  1  0.500000  0.696985  0.426002  1
  Ni  Ni18  1  0.000000  0.196610  0.574231  1
  Ni  Ni19  1  0.000000  0.803390  0.574231  1
  Ni  Ni20  1  0.500000  0.879549  0.707629  1
  Ni  Ni21  1  0.500000  0.120451  0.707629  1
  Ni  Ni22  1  0.000000  0.619889  0.290879  1
  Ni  Ni23  1  0.000000  0.380111  0.290879  1
  As  As24  1  0.500000  0.500000  0.877822  1
  As  As25  1  0.000000  0.000000  0.125016  1
  As  As26  1  0.500000  0.500000  0.347309  1
  As  As27  1  0.000000  0.000000  0.655851  1
  As  As28  1  0.500000  0.313639  0.613631  1
  As  As29  1  0.500000  0.686361  0.613631  1
  As  As30  1  0.000000  0.186216  0.387512  1
  As  As31  1  0.000000  0.813784  0.387512  1
  As  As32  1  0.500000  0.849655  0.890019  1
  As  As33  1  0.500000  0.150345  0.890019  1
  As  As34  1  0.000000  0.655259  0.107276  1
  As  As35  1  0.000000  0.344741  0.107276  1
