# generated using pymatgen
data_Ti6Re11MoW6
_symmetry_space_group_name_H-M   'P 1'
_cell_length_a   4.42906400
_cell_length_b   6.25839100
_cell_length_c   13.37689500
_cell_angle_alpha   89.99969874
_cell_angle_beta   90.00002561
_cell_angle_gamma   89.99996875
_symmetry_Int_Tables_number   1
_chemical_formula_structural   Ti6Re11MoW6
_chemical_formula_sum   'Ti6 Re11 Mo1 W6'
_cell_volume   370.79166809
_cell_formula_units_Z   1
loop_
 _symmetry_equiv_pos_site_id
 _symmetry_equiv_pos_as_xyz
  1  'x, y, z'
loop_
 _atom_site_type_symbol
 _atom_site_label
 _atom_site_symmetry_multiplicity
 _atom_site_fract_x
 _atom_site_fract_y
 _atom_site_fract_z
 _atom_site_occupancy
  Ti  Ti0  1  0.999993  0.499624  0.999997  1
  Ti  Ti1  1  0.499939  0.000193  0.166746  1
  Ti  Ti2  1  0.999941  0.500173  0.333253  1
  Ti  Ti3  1  0.500009  0.000121  0.500002  1
  Ti  Ti4  1  0.000061  0.500164  0.666750  1
  Ti  Ti5  1  0.500065  0.000197  0.833252  1
  Re  Re6  1  0.499993  0.750033  0.999997  1
  Re  Re7  1  0.999952  0.250282  0.167949  1
  Re  Re8  1  0.999962  0.749762  0.167034  1
  Re  Re9  1  0.499947  0.249185  0.334082  1
  Re  Re10  1  0.499925  0.750678  0.333263  1
  Re  Re11  1  0.000009  0.250865  0.500006  1
  Re  Re12  1  0.999990  0.749042  0.500008  1
  Re  Re13  1  0.500057  0.249180  0.665925  1
  Re  Re14  1  0.500047  0.750666  0.666742  1
  Re  Re15  1  0.000049  0.250291  0.832040  1
  Re  Re16  1  0.000052  0.749776  0.832950  1
  Mo  Mo17  1  0.499989  0.250117  0.000001  1
  W  W18  1  0.999987  0.999800  0.000003  1
  W  W19  1  0.499961  0.499940  0.167063  1
  W  W20  1  0.999946  0.000046  0.333118  1
  W  W21  1  0.500010  0.499884  0.500000  1
  W  W22  1  0.000062  0.000049  0.666882  1
  W  W23  1  0.500060  0.499933  0.832938  1
