# generated using pymatgen
data_Sc6AlNiRh
_symmetry_space_group_name_H-M   'P 1'
_cell_length_a   7.83232996
_cell_length_b   7.83232916
_cell_length_c   7.83232964
_cell_angle_alpha   112.01169543
_cell_angle_beta   110.89164495
_cell_angle_gamma   105.58111062
_symmetry_Int_Tables_number   1
_chemical_formula_structural   Sc6AlNiRh
_chemical_formula_sum   'Sc12 Al2 Ni2 Rh2'
_cell_volume   368.56621706
_cell_formula_units_Z   2
loop_
 _symmetry_equiv_pos_site_id
 _symmetry_equiv_pos_as_xyz
  1  'x, y, z'
loop_
 _atom_site_type_symbol
 _atom_site_label
 _atom_site_symmetry_multiplicity
 _atom_site_fract_x
 _atom_site_fract_y
 _atom_site_fract_z
 _atom_site_occupancy
  Sc  Sc0  1  0.442077  0.244813  0.197264  1
  Sc  Sc1  1  0.557923  0.755187  0.802736  1
  Sc  Sc2  1  0.047549  0.244813  0.802736  1
  Sc  Sc3  1  0.952451  0.755187  0.197264  1
  Sc  Sc4  1  0.183025  0.281252  0.464277  1
  Sc  Sc5  1  0.816975  0.718748  0.535723  1
  Sc  Sc6  1  0.183025  0.718748  0.901772  1
  Sc  Sc7  1  0.816975  0.281252  0.098228  1
  Sc  Sc8  1  0.321375  0.623720  0.302346  1
  Sc  Sc9  1  0.678625  0.376280  0.697654  1
  Sc  Sc10  1  0.321375  0.019029  0.697654  1
  Sc  Sc11  1  0.678625  0.980971  0.302346  1
  Al  Al12  1  0.500000  0.500000  0.000000  1
  Al  Al13  1  0.000000  0.000000  0.000000  1
  Ni  Ni14  1  0.123703  0.623703  0.500000  1
  Ni  Ni15  1  0.876297  0.376297  0.500000  1
  Rh  Rh16  1  0.333021  0.000000  0.333021  1
  Rh  Rh17  1  0.666979  0.000000  0.666979  1
