# generated using pymatgen
data_Pr4Gd2FeCl10
_symmetry_space_group_name_H-M   'P 1'
_cell_length_a   7.37504427
_cell_length_b   9.10167320
_cell_length_c   9.23952600
_cell_angle_alpha   108.05432623
_cell_angle_beta   106.84457980
_cell_angle_gamma   95.67914242
_symmetry_Int_Tables_number   1
_chemical_formula_structural   Pr4Gd2FeCl10
_chemical_formula_sum   'Pr4 Gd2 Fe1 Cl10'
_cell_volume   552.09195300
_cell_formula_units_Z   1
loop_
 _symmetry_equiv_pos_site_id
 _symmetry_equiv_pos_as_xyz
  1  'x, y, z'
loop_
 _atom_site_type_symbol
 _atom_site_label
 _atom_site_symmetry_multiplicity
 _atom_site_fract_x
 _atom_site_fract_y
 _atom_site_fract_z
 _atom_site_occupancy
  Pr  Pr0  1  0.128024  0.769921  0.053461  1
  Pr  Pr1  1  0.625413  0.804249  0.853139  1
  Pr  Pr2  1  0.872708  0.230211  0.950211  1
  Pr  Pr3  1  0.974392  0.105846  0.314042  1
  Gd  Gd4  1  0.368689  0.187419  0.137184  1
  Gd  Gd5  1  0.029963  0.901373  0.694764  1
  Fe  Fe6  1  0.999102  0.999158  0.001096  1
  Cl  Cl7  1  0.449776  0.076144  0.828737  1
  Cl  Cl8  1  0.760659  0.550041  0.921875  1
  Cl  Cl9  1  0.244220  0.442212  0.080790  1
  Cl  Cl10  1  0.917424  0.162367  0.637364  1
  Cl  Cl11  1  0.662629  0.735275  0.548880  1
  Cl  Cl12  1  0.542893  0.925360  0.168836  1
  Cl  Cl13  1  0.091554  0.839491  0.377135  1
  Cl  Cl14  1  0.776466  0.339423  0.246433  1
  Cl  Cl15  1  0.197524  0.659063  0.745462  1
  Cl  Cl16  1  0.358563  0.272445  0.440589  1
