# generated using pymatgen
data_K8SmEu2YF20
_symmetry_space_group_name_H-M   'P 1'
_cell_length_a   6.80266915
_cell_length_b   7.50254900
_cell_length_c   11.14808699
_cell_angle_alpha   90.00000000
_cell_angle_beta   90.18137710
_cell_angle_gamma   90.00000000
_symmetry_Int_Tables_number   1
_chemical_formula_structural   K8SmEu2YF20
_chemical_formula_sum   'K8 Sm1 Eu2 Y1 F20'
_cell_volume   568.96606236
_cell_formula_units_Z   1
loop_
 _symmetry_equiv_pos_site_id
 _symmetry_equiv_pos_as_xyz
  1  'x, y, z'
loop_
 _atom_site_type_symbol
 _atom_site_label
 _atom_site_symmetry_multiplicity
 _atom_site_fract_x
 _atom_site_fract_y
 _atom_site_fract_z
 _atom_site_occupancy
  K  K0  1  0.524521  0.498205  0.828576  1
  K  K1  1  0.475701  0.502825  0.171430  1
  K  K2  1  0.027935  0.502728  0.671157  1
  K  K3  1  0.475701  0.997175  0.171430  1
  K  K4  1  0.970656  0.498977  0.328894  1
  K  K5  1  0.524521  0.001795  0.828576  1
  K  K6  1  0.970656  0.001023  0.328894  1
  K  K7  1  0.027935  0.997272  0.671157  1
  Sm  Sm8  1  0.437299  0.250000  0.497227  1
  Eu  Eu9  1  0.061153  0.250000  0.999567  1
  Eu  Eu10  1  0.939327  0.750000  0.000539  1
  Y  Y11  1  0.563011  0.750000  0.501997  1
  F  F12  1  0.832769  0.750000  0.807876  1
  F  F13  1  0.168001  0.250000  0.192917  1
  F  F14  1  0.337836  0.250000  0.692441  1
  F  F15  1  0.660896  0.750000  0.311220  1
  F  F16  1  0.370237  0.750000  0.662090  1
  F  F17  1  0.635093  0.250000  0.333210  1
  F  F18  1  0.870933  0.250000  0.833177  1
  F  F19  1  0.128688  0.750000  0.166906  1
  F  F20  1  0.888564  0.750000  0.514696  1
  F  F21  1  0.105086  0.250000  0.485675  1
  F  F22  1  0.396735  0.250000  0.988658  1
  F  F23  1  0.603364  0.750000  0.011831  1
  F  F24  1  0.643548  0.028851  0.577796  1
  F  F25  1  0.357552  0.963493  0.422262  1
  F  F26  1  0.143828  0.968054  0.918297  1
  F  F27  1  0.357552  0.536507  0.422262  1
  F  F28  1  0.856763  0.031815  0.081575  1
  F  F29  1  0.643548  0.471149  0.577796  1
  F  F30  1  0.856763  0.468185  0.081575  1
  F  F31  1  0.143828  0.531946  0.918297  1
