# generated using pymatgen
data_Y19Er(Cd3Ru)2
_symmetry_space_group_name_H-M   'P 1'
_cell_length_a   9.64516900
_cell_length_b   9.64516842
_cell_length_c   9.89115000
_cell_angle_alpha   90.00000000
_cell_angle_beta   90.00000000
_cell_angle_gamma   119.99999855
_symmetry_Int_Tables_number   1
_chemical_formula_structural   Y19Er(Cd3Ru)2
_chemical_formula_sum   'Y19 Er1 Cd6 Ru2'
_cell_volume   796.88762628
_cell_formula_units_Z   1
loop_
 _symmetry_equiv_pos_site_id
 _symmetry_equiv_pos_as_xyz
  1  'x, y, z'
loop_
 _atom_site_type_symbol
 _atom_site_label
 _atom_site_symmetry_multiplicity
 _atom_site_fract_x
 _atom_site_fract_y
 _atom_site_fract_z
 _atom_site_occupancy
  Y  Y0  1  0.000000  0.000000  0.000000  1
  Y  Y1  1  0.209229  0.790771  0.440190  1
  Y  Y2  1  0.209229  0.418459  0.440190  1
  Y  Y3  1  0.581541  0.790771  0.440190  1
  Y  Y4  1  0.790771  0.209229  0.559810  1
  Y  Y5  1  0.790771  0.581541  0.559810  1
  Y  Y6  1  0.418459  0.209229  0.559810  1
  Y  Y7  1  0.790137  0.209863  0.940214  1
  Y  Y8  1  0.790137  0.580272  0.940214  1
  Y  Y9  1  0.419728  0.209863  0.940214  1
  Y  Y10  1  0.209863  0.790137  0.059786  1
  Y  Y11  1  0.209863  0.419728  0.059786  1
  Y  Y12  1  0.580272  0.790137  0.059786  1
  Y  Y13  1  0.541337  0.458663  0.250131  1
  Y  Y14  1  0.541337  0.082674  0.250131  1
  Y  Y15  1  0.917326  0.458663  0.250131  1
  Y  Y16  1  0.458663  0.541337  0.749869  1
  Y  Y17  1  0.458663  0.917326  0.749869  1
  Y  Y18  1  0.082674  0.541337  0.749869  1
  Er  Er19  1  0.000000  0.000000  0.500000  1
  Cd  Cd20  1  0.885750  0.114250  0.251265  1
  Cd  Cd21  1  0.885750  0.771500  0.251265  1
  Cd  Cd22  1  0.228500  0.114250  0.251265  1
  Cd  Cd23  1  0.114250  0.885750  0.748735  1
  Cd  Cd24  1  0.114250  0.228500  0.748735  1
  Cd  Cd25  1  0.771500  0.885750  0.748735  1
  Ru  Ru26  1  0.333333  0.666667  0.250366  1
  Ru  Ru27  1  0.666667  0.333333  0.749634  1
