# generated using pymatgen
data_Pr2Nd2Ga5Cl2
_symmetry_space_group_name_H-M   'P 1'
_cell_length_a   11.38606531
_cell_length_b   11.38606466
_cell_length_c   4.22151300
_cell_angle_alpha   90.00000000
_cell_angle_beta   90.00000000
_cell_angle_gamma   93.94818358
_symmetry_Int_Tables_number   1
_chemical_formula_structural   Pr2Nd2Ga5Cl2
_chemical_formula_sum   'Pr4 Nd4 Ga10 Cl4'
_cell_volume   545.98853487
_cell_formula_units_Z   2
loop_
 _symmetry_equiv_pos_site_id
 _symmetry_equiv_pos_as_xyz
  1  'x, y, z'
loop_
 _atom_site_type_symbol
 _atom_site_label
 _atom_site_symmetry_multiplicity
 _atom_site_fract_x
 _atom_site_fract_y
 _atom_site_fract_z
 _atom_site_occupancy
  Pr  Pr0  1  0.680317  0.041054  0.500000  1
  Pr  Pr1  1  0.319683  0.958946  0.500000  1
  Pr  Pr2  1  0.041054  0.680317  0.500000  1
  Pr  Pr3  1  0.958946  0.319683  0.500000  1
  Nd  Nd4  1  0.732851  0.732851  0.000000  1
  Nd  Nd5  1  0.267149  0.267149  0.000000  1
  Nd  Nd6  1  0.367132  0.632868  0.000000  1
  Nd  Nd7  1  0.632868  0.367132  0.000000  1
  Ga  Ga8  1  0.579902  0.579902  0.500000  1
  Ga  Ga9  1  0.420098  0.420098  0.500000  1
  Ga  Ga10  1  0.536948  0.899775  0.000000  1
  Ga  Ga11  1  0.463052  0.100225  0.000000  1
  Ga  Ga12  1  0.899775  0.536948  0.000000  1
  Ga  Ga13  1  0.100225  0.463052  0.000000  1
  Ga  Ga14  1  0.512465  0.782896  0.500000  1
  Ga  Ga15  1  0.487535  0.217104  0.500000  1
  Ga  Ga16  1  0.217104  0.487535  0.500000  1
  Ga  Ga17  1  0.782896  0.512465  0.500000  1
  Cl  Cl18  1  0.129288  0.129288  0.500000  1
  Cl  Cl19  1  0.870712  0.870712  0.500000  1
  Cl  Cl20  1  0.823233  0.176767  0.000000  1
  Cl  Cl21  1  0.176767  0.823233  0.000000  1
