# generated using pymatgen
data_La8Dy9Lu3Sn16
_symmetry_space_group_name_H-M   'P 1'
_cell_length_a   8.08397800
_cell_length_b   8.31146327
_cell_length_c   15.66644300
_cell_angle_alpha   90.00000000
_cell_angle_beta   90.00000000
_cell_angle_gamma   89.98539249
_symmetry_Int_Tables_number   1
_chemical_formula_structural   La8Dy9Lu3Sn16
_chemical_formula_sum   'La8 Dy9 Lu3 Sn16'
_cell_volume   1052.62335520
_cell_formula_units_Z   1
loop_
 _symmetry_equiv_pos_site_id
 _symmetry_equiv_pos_as_xyz
  1  'x, y, z'
loop_
 _atom_site_type_symbol
 _atom_site_label
 _atom_site_symmetry_multiplicity
 _atom_site_fract_x
 _atom_site_fract_y
 _atom_site_fract_z
 _atom_site_occupancy
  La  La0  1  0.509037  0.323729  0.903962  1
  La  La1  1  0.008368  0.175747  0.596083  1
  La  La2  1  0.491320  0.675930  0.403636  1
  La  La3  1  0.991436  0.824018  0.096357  1
  La  La4  1  0.491320  0.675930  0.096364  1
  La  La5  1  0.991436  0.824018  0.403643  1
  La  La6  1  0.509037  0.323729  0.596038  1
  La  La7  1  0.008368  0.175747  0.903917  1
  Dy  Dy8  1  0.349211  0.835336  0.875587  1
  Dy  Dy9  1  0.848381  0.665001  0.624275  1
  Dy  Dy10  1  0.651117  0.164752  0.375420  1
  Dy  Dy11  1  0.151422  0.335376  0.124730  1
  Dy  Dy12  1  0.651117  0.164752  0.124580  1
  Dy  Dy13  1  0.151422  0.335376  0.375270  1
  Dy  Dy14  1  0.349211  0.835336  0.624413  1
  Dy  Dy15  1  0.848381  0.665001  0.875725  1
  Dy  Dy16  1  0.181504  0.501401  0.750000  1
  Lu  Lu17  1  0.681852  0.998062  0.750000  1
  Lu  Lu18  1  0.818188  0.498450  0.250000  1
  Lu  Lu19  1  0.318360  0.001680  0.250000  1
  Sn  Sn20  1  0.314493  0.040991  0.042703  1
  Sn  Sn21  1  0.814606  0.459093  0.457206  1
  Sn  Sn22  1  0.685112  0.958957  0.542455  1
  Sn  Sn23  1  0.185355  0.541443  0.958262  1
  Sn  Sn24  1  0.685112  0.958957  0.957545  1
  Sn  Sn25  1  0.185355  0.541443  0.541738  1
  Sn  Sn26  1  0.314493  0.040991  0.457297  1
  Sn  Sn27  1  0.814606  0.459093  0.042794  1
  Sn  Sn28  1  0.547215  0.624670  0.750000  1
  Sn  Sn29  1  0.044738  0.876823  0.750000  1
  Sn  Sn30  1  0.455037  0.376194  0.250000  1
  Sn  Sn31  1  0.954844  0.123719  0.250000  1
  Sn  Sn32  1  0.315941  0.142556  0.750000  1
  Sn  Sn33  1  0.814883  0.355509  0.750000  1
  Sn  Sn34  1  0.683885  0.855581  0.250000  1
  Sn  Sn35  1  0.183840  0.644606  0.250000  1
