# generated using pymatgen
data_LaYb8LuIr4
_symmetry_space_group_name_H-M   'P 1'
_cell_length_a   8.51196745
_cell_length_b   8.51196760
_cell_length_c   7.39418498
_cell_angle_alpha   82.87258090
_cell_angle_beta   82.87257986
_cell_angle_gamma   45.16815321
_symmetry_Int_Tables_number   1
_chemical_formula_structural   LaYb8LuIr4
_chemical_formula_sum   'La1 Yb8 Lu1 Ir4'
_cell_volume   376.48608683
_cell_formula_units_Z   1
loop_
 _symmetry_equiv_pos_site_id
 _symmetry_equiv_pos_as_xyz
  1  'x, y, z'
loop_
 _atom_site_type_symbol
 _atom_site_label
 _atom_site_symmetry_multiplicity
 _atom_site_fract_x
 _atom_site_fract_y
 _atom_site_fract_z
 _atom_site_occupancy
  La  La0  1  0.427097  0.572903  0.750000  1
  Yb  Yb1  1  0.359555  0.204411  0.320790  1
  Yb  Yb2  1  0.199270  0.973920  0.083244  1
  Yb  Yb3  1  0.798059  0.029193  0.925283  1
  Yb  Yb4  1  0.970807  0.201941  0.574717  1
  Yb  Yb5  1  0.643627  0.798293  0.677252  1
  Yb  Yb6  1  0.201707  0.356373  0.822748  1
  Yb  Yb7  1  0.795589  0.640445  0.179210  1
  Yb  Yb8  1  0.026080  0.800730  0.416756  1
  Lu  Lu9  1  0.566011  0.433989  0.250000  1
  Ir  Ir10  1  0.402244  0.811333  0.419336  1
  Ir  Ir11  1  0.188667  0.597756  0.080664  1
  Ir  Ir12  1  0.815450  0.394162  0.929437  1
  Ir  Ir13  1  0.605838  0.184550  0.570563  1
