# generated using pymatgen
data_Yb(ThPt4)3
_symmetry_space_group_name_H-M   'P 1'
_cell_length_a   5.93969600
_cell_length_b   5.93969496
_cell_length_c   9.73025900
_cell_angle_alpha   90.00000000
_cell_angle_beta   90.00000000
_cell_angle_gamma   119.99999467
_symmetry_Int_Tables_number   1
_chemical_formula_structural   Yb(ThPt4)3
_chemical_formula_sum   'Yb1 Th3 Pt12'
_cell_volume   297.29213167
_cell_formula_units_Z   1
loop_
 _symmetry_equiv_pos_site_id
 _symmetry_equiv_pos_as_xyz
  1  'x, y, z'
loop_
 _atom_site_type_symbol
 _atom_site_label
 _atom_site_symmetry_multiplicity
 _atom_site_fract_x
 _atom_site_fract_y
 _atom_site_fract_z
 _atom_site_occupancy
  Yb  Yb0  1  0.333333  0.666667  0.250000  1
  Th  Th1  1  0.000000  0.000000  0.494802  1
  Th  Th2  1  0.000000  0.000000  0.005198  1
  Th  Th3  1  0.666667  0.333333  0.750000  1
  Pt  Pt4  1  0.498927  0.501073  0.497954  1
  Pt  Pt5  1  0.498927  0.997854  0.497954  1
  Pt  Pt6  1  0.002146  0.501073  0.497954  1
  Pt  Pt7  1  0.498927  0.501073  0.002046  1
  Pt  Pt8  1  0.498927  0.997854  0.002046  1
  Pt  Pt9  1  0.002146  0.501073  0.002046  1
  Pt  Pt10  1  0.822580  0.645160  0.250000  1
  Pt  Pt11  1  0.354840  0.177420  0.250000  1
  Pt  Pt12  1  0.822580  0.177420  0.250000  1
  Pt  Pt13  1  0.175109  0.350218  0.750000  1
  Pt  Pt14  1  0.649782  0.824891  0.750000  1
  Pt  Pt15  1  0.175109  0.824891  0.750000  1
