# generated using pymatgen
data_Co2Tc5As12
_symmetry_space_group_name_H-M   'P 1'
_cell_length_a   3.14765000
_cell_length_b   12.74473100
_cell_length_c   15.77088600
_cell_angle_alpha   90.00000000
_cell_angle_beta   90.00000000
_cell_angle_gamma   90.00000000
_symmetry_Int_Tables_number   1
_chemical_formula_structural   Co2Tc5As12
_chemical_formula_sum   'Co4 Tc10 As24'
_cell_volume   632.66411417
_cell_formula_units_Z   2
loop_
 _symmetry_equiv_pos_site_id
 _symmetry_equiv_pos_as_xyz
  1  'x, y, z'
loop_
 _atom_site_type_symbol
 _atom_site_label
 _atom_site_symmetry_multiplicity
 _atom_site_fract_x
 _atom_site_fract_y
 _atom_site_fract_z
 _atom_site_occupancy
  Co  Co0  1  0.500000  0.126533  0.343940  1
  Co  Co1  1  0.500000  0.873467  0.656060  1
  Co  Co2  1  0.000000  0.373467  0.843940  1
  Co  Co3  1  0.000000  0.626533  0.156060  1
  Tc  Tc4  1  0.500000  0.315706  0.102047  1
  Tc  Tc5  1  0.500000  0.684294  0.897953  1
  Tc  Tc6  1  0.000000  0.184294  0.602047  1
  Tc  Tc7  1  0.000000  0.815706  0.397953  1
  Tc  Tc8  1  0.500000  0.917132  0.260518  1
  Tc  Tc9  1  0.500000  0.082868  0.739482  1
  Tc  Tc10  1  0.000000  0.582868  0.760518  1
  Tc  Tc11  1  0.000000  0.417132  0.239482  1
  Tc  Tc12  1  0.500000  0.500000  0.500000  1
  Tc  Tc13  1  0.000000  0.000000  0.000000  1
  As  As14  1  0.500000  0.903891  0.097259  1
  As  As15  1  0.500000  0.096109  0.902741  1
  As  As16  1  0.000000  0.596109  0.597259  1
  As  As17  1  0.000000  0.403891  0.402741  1
  As  As18  1  0.500000  0.568462  0.260537  1
  As  As19  1  0.500000  0.431538  0.739463  1
  As  As20  1  0.000000  0.931538  0.760537  1
  As  As21  1  0.000000  0.068462  0.239463  1
  As  As22  1  0.500000  0.656204  0.406693  1
  As  As23  1  0.500000  0.343796  0.593307  1
  As  As24  1  0.000000  0.843796  0.906693  1
  As  As25  1  0.000000  0.156204  0.093307  1
  As  As26  1  0.500000  0.968032  0.421299  1
  As  As27  1  0.500000  0.031968  0.578701  1
  As  As28  1  0.000000  0.531968  0.921299  1
  As  As29  1  0.000000  0.468032  0.078701  1
  As  As30  1  0.500000  0.706248  0.060528  1
  As  As31  1  0.500000  0.293752  0.939472  1
  As  As32  1  0.000000  0.793752  0.560528  1
  As  As33  1  0.000000  0.206248  0.439472  1
  As  As34  1  0.500000  0.728856  0.743240  1
  As  As35  1  0.500000  0.271144  0.256760  1
  As  As36  1  0.000000  0.771144  0.243240  1
  As  As37  1  0.000000  0.228856  0.756760  1
