# generated using pymatgen
data_ThSc9Tl7InPt4
_symmetry_space_group_name_H-M   'P 1'
_cell_length_a   3.51184200
_cell_length_b   7.91362248
_cell_length_c   17.78506006
_cell_angle_alpha   89.67477996
_cell_angle_beta   90.00000000
_cell_angle_gamma   90.00000000
_symmetry_Int_Tables_number   1
_chemical_formula_structural   ThSc9Tl7InPt4
_chemical_formula_sum   'Th1 Sc9 Tl7 In1 Pt4'
_cell_volume   494.26360980
_cell_formula_units_Z   1
loop_
 _symmetry_equiv_pos_site_id
 _symmetry_equiv_pos_as_xyz
  1  'x, y, z'
loop_
 _atom_site_type_symbol
 _atom_site_label
 _atom_site_symmetry_multiplicity
 _atom_site_fract_x
 _atom_site_fract_y
 _atom_site_fract_z
 _atom_site_occupancy
  Th  Th0  1  0.000000  0.745775  0.281758  1
  Sc  Sc1  1  0.000000  0.122054  0.418250  1
  Sc  Sc2  1  0.000000  0.884937  0.588899  1
  Sc  Sc3  1  0.000000  0.381436  0.910172  1
  Sc  Sc4  1  0.000000  0.615120  0.083260  1
  Sc  Sc5  1  0.000000  0.247900  0.221897  1
  Sc  Sc6  1  0.000000  0.747359  0.777657  1
  Sc  Sc7  1  0.000000  0.248261  0.721458  1
  Sc  Sc8  1  0.000000  0.997696  0.996449  1
  Sc  Sc9  1  0.000000  0.505140  0.500397  1
  Tl  Tl10  1  0.500000  0.414644  0.357887  1
  Tl  Tl11  1  0.500000  0.578806  0.644895  1
  Tl  Tl12  1  0.500000  0.075496  0.853706  1
  Tl  Tl13  1  0.500000  0.932505  0.139680  1
  Tl  Tl14  1  0.500000  0.294837  0.058220  1
  Tl  Tl15  1  0.500000  0.701608  0.936560  1
  Tl  Tl16  1  0.500000  0.205825  0.563673  1
  In  In17  1  0.500000  0.806201  0.445765  1
  Pt  Pt18  1  0.500000  0.039461  0.307310  1
  Pt  Pt19  1  0.500000  0.966179  0.697024  1
  Pt  Pt20  1  0.500000  0.465003  0.802514  1
  Pt  Pt21  1  0.500000  0.523758  0.192569  1
