# generated using pymatgen
data_Os2Ru3RhW2
_symmetry_space_group_name_H-M   'P 1'
_cell_length_a   5.53617100
_cell_length_b   5.53429232
_cell_length_c   4.38733000
_cell_angle_alpha   90.00000000
_cell_angle_beta   90.00000000
_cell_angle_gamma   120.01123592
_symmetry_Int_Tables_number   1
_chemical_formula_structural   Os2Ru3RhW2
_chemical_formula_sum   'Os2 Ru3 Rh1 W2'
_cell_volume   116.40009693
_cell_formula_units_Z   1
loop_
 _symmetry_equiv_pos_site_id
 _symmetry_equiv_pos_as_xyz
  1  'x, y, z'
loop_
 _atom_site_type_symbol
 _atom_site_label
 _atom_site_symmetry_multiplicity
 _atom_site_fract_x
 _atom_site_fract_y
 _atom_site_fract_z
 _atom_site_occupancy
  Os  Os0  1  0.666482  0.838992  0.250000  1
  Os  Os1  1  0.172510  0.838992  0.250000  1
  Ru  Ru2  1  0.833121  0.666243  0.750000  1
  Ru  Ru3  1  0.333118  0.164689  0.750000  1
  Ru  Ru4  1  0.831572  0.164689  0.750000  1
  Rh  Rh5  1  0.164838  0.329675  0.250000  1
  W  W6  1  0.334358  0.668715  0.750000  1
  W  W7  1  0.664003  0.328005  0.250000  1
