# generated using pymatgen
data_Dy3Ho3VB14W
_symmetry_space_group_name_H-M   'P 1'
_cell_length_a   8.13798843
_cell_length_b   8.13798776
_cell_length_c   9.45073550
_cell_angle_alpha   89.96358022
_cell_angle_beta   90.03642051
_cell_angle_gamma   155.58457334
_symmetry_Int_Tables_number   1
_chemical_formula_structural   Dy3Ho3VB14W
_chemical_formula_sum   'Dy3 Ho3 V1 B14 W1'
_cell_volume   258.71234466
_cell_formula_units_Z   1
loop_
 _symmetry_equiv_pos_site_id
 _symmetry_equiv_pos_as_xyz
  1  'x, y, z'
loop_
 _atom_site_type_symbol
 _atom_site_label
 _atom_site_symmetry_multiplicity
 _atom_site_fract_x
 _atom_site_fract_y
 _atom_site_fract_z
 _atom_site_occupancy
  Dy  Dy0  1  0.893603  0.106397  0.437741  1
  Dy  Dy1  1  0.241937  0.758063  0.249980  1
  Dy  Dy2  1  0.754814  0.245186  0.750013  1
  Ho  Ho3  1  0.106810  0.893190  0.557443  1
  Ho  Ho4  1  0.893775  0.106225  0.061963  1
  Ho  Ho5  1  0.106817  0.893183  0.942615  1
  V  V6  1  0.052569  0.947431  0.249903  1
  B  B7  1  0.727070  0.272930  0.466944  1
  B  B8  1  0.272495  0.727505  0.531472  1
  B  B9  1  0.727241  0.272759  0.033105  1
  B  B10  1  0.272663  0.727337  0.968675  1
  B  B11  1  0.632371  0.367629  0.149966  1
  B  B12  1  0.365369  0.634631  0.854039  1
  B  B13  1  0.632365  0.367635  0.350023  1
  B  B14  1  0.365325  0.634675  0.646263  1
  B  B15  1  0.521106  0.478894  0.095082  1
  B  B16  1  0.480663  0.519337  0.909251  1
  B  B17  1  0.521203  0.478797  0.404711  1
  B  B18  1  0.480748  0.519252  0.590961  1
  B  B19  1  0.458770  0.541230  0.249691  1
  B  B20  1  0.545187  0.454813  0.750026  1
  W  W21  1  0.947099  0.052901  0.750131  1
