# generated using pymatgen
data_Sr5TlAu2
_symmetry_space_group_name_H-M   'P 1'
_cell_length_a   8.54939695
_cell_length_b   8.54939780
_cell_length_c   9.97866200
_cell_angle_alpha   115.36503926
_cell_angle_beta   115.36504196
_cell_angle_gamma   89.99999892
_symmetry_Int_Tables_number   1
_chemical_formula_structural   Sr5TlAu2
_chemical_formula_sum   'Sr10 Tl2 Au4'
_cell_volume   580.27843522
_cell_formula_units_Z   2
loop_
 _symmetry_equiv_pos_site_id
 _symmetry_equiv_pos_as_xyz
  1  'x, y, z'
loop_
 _atom_site_type_symbol
 _atom_site_label
 _atom_site_symmetry_multiplicity
 _atom_site_fract_x
 _atom_site_fract_y
 _atom_site_fract_z
 _atom_site_occupancy
  Sr  Sr0  1  0.000000  0.000000  0.000000  1
  Sr  Sr1  1  0.500000  0.500000  0.000000  1
  Sr  Sr2  1  0.471268  0.306949  0.278218  1
  Sr  Sr3  1  0.971268  0.471268  0.278218  1
  Sr  Sr4  1  0.306949  0.806948  0.278218  1
  Sr  Sr5  1  0.806948  0.971268  0.278218  1
  Sr  Sr6  1  0.193051  0.028732  0.721782  1
  Sr  Sr7  1  0.693051  0.193051  0.721782  1
  Sr  Sr8  1  0.028732  0.528732  0.721782  1
  Sr  Sr9  1  0.528732  0.693051  0.721782  1
  Tl  Tl10  1  0.250000  0.250000  0.500000  1
  Tl  Tl11  1  0.750000  0.750000  0.500000  1
  Au  Au12  1  0.627606  0.127606  0.000000  1
  Au  Au13  1  0.127606  0.372395  0.000000  1
  Au  Au14  1  0.872394  0.627606  0.000000  1
  Au  Au15  1  0.372395  0.872394  0.000000  1
