# generated using pymatgen
data_CaTb2Y4Co6Sn23
_symmetry_space_group_name_H-M   'P 1'
_cell_length_a   9.72666903
_cell_length_b   9.72667145
_cell_length_c   9.99659500
_cell_angle_alpha   90.00109767
_cell_angle_beta   89.99890288
_cell_angle_gamma   120.00841820
_symmetry_Int_Tables_number   1
_chemical_formula_structural   CaTb2Y4Co6Sn23
_chemical_formula_sum   'Ca1 Tb2 Y4 Co6 Sn23'
_cell_volume   818.98183170
_cell_formula_units_Z   1
loop_
 _symmetry_equiv_pos_site_id
 _symmetry_equiv_pos_as_xyz
  1  'x, y, z'
loop_
 _atom_site_type_symbol
 _atom_site_label
 _atom_site_symmetry_multiplicity
 _atom_site_fract_x
 _atom_site_fract_y
 _atom_site_fract_z
 _atom_site_occupancy
  Ca  Ca0  1  0.999988  0.000012  0.999953  1
  Tb  Tb1  1  0.043258  0.521675  0.306268  1
  Tb  Tb2  1  0.478325  0.956742  0.306268  1
  Y  Y3  1  0.478333  0.521667  0.306443  1
  Y  Y4  1  0.956626  0.478267  0.693623  1
  Y  Y5  1  0.521733  0.043374  0.693623  1
  Y  Y6  1  0.521649  0.478351  0.693589  1
  Co  Co7  1  0.168764  0.831236  0.801566  1
  Co  Co8  1  0.662450  0.831251  0.801579  1
  Co  Co9  1  0.168749  0.337550  0.801579  1
  Co  Co10  1  0.831200  0.168800  0.198441  1
  Co  Co11  1  0.337651  0.168757  0.198408  1
  Co  Co12  1  0.831243  0.662349  0.198408  1
  Sn  Sn13  1  0.999979  0.000021  0.500035  1
  Sn  Sn14  1  0.117197  0.882803  0.274377  1
  Sn  Sn15  1  0.765520  0.882635  0.274357  1
  Sn  Sn16  1  0.117365  0.234480  0.274357  1
  Sn  Sn17  1  0.882798  0.117202  0.725678  1
  Sn  Sn18  1  0.234499  0.117373  0.725661  1
  Sn  Sn19  1  0.882627  0.765501  0.725661  1
  Sn  Sn20  1  0.345765  0.999988  0.000017  1
  Sn  Sn21  1  0.654270  0.654331  0.999934  1
  Sn  Sn22  1  0.000170  0.345844  0.999929  1
  Sn  Sn23  1  0.345669  0.345730  0.999934  1
  Sn  Sn24  1  0.000012  0.654235  0.000017  1
  Sn  Sn25  1  0.654156  0.999830  0.999929  1
  Sn  Sn26  1  0.781497  0.563172  0.451365  1
  Sn  Sn27  1  0.781560  0.218440  0.451485  1
  Sn  Sn28  1  0.436828  0.218503  0.451365  1
  Sn  Sn29  1  0.218364  0.436807  0.548842  1
  Sn  Sn30  1  0.218439  0.781561  0.548691  1
  Sn  Sn31  1  0.563193  0.781636  0.548842  1
  Sn  Sn32  1  0.666663  0.333337  0.184262  1
  Sn  Sn33  1  0.333396  0.666604  0.815696  1
  Sn  Sn34  1  0.666648  0.333352  0.884441  1
  Sn  Sn35  1  0.333411  0.666589  0.115376  1
