# generated using pymatgen
data_Zr4P4OsRu3
_symmetry_space_group_name_H-M   'P 1'
_cell_length_a   3.90280900
_cell_length_b   6.49117609
_cell_length_c   7.37499110
_cell_angle_alpha   90.01870482
_cell_angle_beta   90.00000000
_cell_angle_gamma   90.00000000
_symmetry_Int_Tables_number   1
_chemical_formula_structural   Zr4P4OsRu3
_chemical_formula_sum   'Zr4 P4 Os1 Ru3'
_cell_volume   186.83669035
_cell_formula_units_Z   1
loop_
 _symmetry_equiv_pos_site_id
 _symmetry_equiv_pos_as_xyz
  1  'x, y, z'
loop_
 _atom_site_type_symbol
 _atom_site_label
 _atom_site_symmetry_multiplicity
 _atom_site_fract_x
 _atom_site_fract_y
 _atom_site_fract_z
 _atom_site_occupancy
  Zr  Zr0  1  0.750000  0.521831  0.319778  1
  Zr  Zr1  1  0.250000  0.977622  0.819332  1
  Zr  Zr2  1  0.750000  0.022791  0.181188  1
  Zr  Zr3  1  0.250000  0.478053  0.679830  1
  P  P4  1  0.250000  0.723437  0.122225  1
  P  P5  1  0.250000  0.223922  0.378330  1
  P  P6  1  0.750000  0.276202  0.878095  1
  P  P7  1  0.750000  0.775470  0.621540  1
  Os  Os8  1  0.250000  0.347924  0.059460  1
  Ru  Ru9  1  0.250000  0.849987  0.439330  1
  Ru  Ru10  1  0.750000  0.151593  0.560830  1
  Ru  Ru11  1  0.750000  0.651166  0.940060  1
