# generated using pymatgen
data_Be10IrAu
_symmetry_space_group_name_H-M   'P 1'
_cell_length_a   4.26112000
_cell_length_b   4.26111985
_cell_length_c   6.92366700
_cell_angle_alpha   90.00000000
_cell_angle_beta   90.00000000
_cell_angle_gamma   120.00000113
_symmetry_Int_Tables_number   1
_chemical_formula_structural   Be10IrAu
_chemical_formula_sum   'Be10 Ir1 Au1'
_cell_volume   108.87152678
_cell_formula_units_Z   1
loop_
 _symmetry_equiv_pos_site_id
 _symmetry_equiv_pos_as_xyz
  1  'x, y, z'
loop_
 _atom_site_type_symbol
 _atom_site_label
 _atom_site_symmetry_multiplicity
 _atom_site_fract_x
 _atom_site_fract_y
 _atom_site_fract_z
 _atom_site_occupancy
  Be  Be0  1  0.334898  0.167450  0.045546  1
  Be  Be1  1  0.832552  0.167450  0.045546  1
  Be  Be2  1  0.832551  0.665102  0.045546  1
  Be  Be3  1  0.000000  0.000000  0.301593  1
  Be  Be4  1  0.666667  0.333333  0.382254  1
  Be  Be5  1  0.165711  0.331419  0.558515  1
  Be  Be6  1  0.165710  0.834291  0.558515  1
  Be  Be7  1  0.668583  0.834291  0.558515  1
  Be  Be8  1  0.000000  0.000000  0.802560  1
  Be  Be9  1  0.333333  0.666666  0.842964  1
  Ir  Ir10  1  0.666667  0.333333  0.744403  1
  Au  Au11  1  0.333333  0.666666  0.242179  1
