# generated using pymatgen
data_Sr2Zn2AgAu6
_symmetry_space_group_name_H-M   'P 1'
_cell_length_a   9.03271504
_cell_length_b   9.01886675
_cell_length_c   9.01886640
_cell_angle_alpha   57.17021112
_cell_angle_beta   56.72325244
_cell_angle_gamma   56.72326140
_symmetry_Int_Tables_number   1
_chemical_formula_structural   Sr2Zn2AgAu6
_chemical_formula_sum   'Sr4 Zn4 Ag2 Au12'
_cell_volume   482.01309459
_cell_formula_units_Z   2
loop_
 _symmetry_equiv_pos_site_id
 _symmetry_equiv_pos_as_xyz
  1  'x, y, z'
loop_
 _atom_site_type_symbol
 _atom_site_label
 _atom_site_symmetry_multiplicity
 _atom_site_fract_x
 _atom_site_fract_y
 _atom_site_fract_z
 _atom_site_occupancy
  Sr  Sr0  1  0.905440  0.905291  0.906743  1
  Sr  Sr1  1  0.403934  0.410551  0.406711  1
  Sr  Sr2  1  0.096066  0.093289  0.089449  1
  Sr  Sr3  1  0.594560  0.593257  0.594709  1
  Zn  Zn4  1  0.750000  0.942502  0.557498  1
  Zn  Zn5  1  0.439965  0.245701  0.063259  1
  Zn  Zn6  1  0.060035  0.436741  0.254299  1
  Zn  Zn7  1  0.250000  0.063151  0.436849  1
  Ag  Ag8  1  0.559346  0.751055  0.939562  1
  Ag  Ag9  1  0.940654  0.560438  0.748945  1
  Au  Au10  1  0.485596  0.866222  0.209899  1
  Au  Au11  1  0.212771  0.481044  0.863872  1
  Au  Au12  1  0.864483  0.201156  0.480547  1
  Au  Au13  1  0.705022  0.350324  0.984874  1
  Au  Au14  1  0.979874  0.709265  0.357517  1
  Au  Au15  1  0.358722  0.985446  0.698723  1
  Au  Au16  1  0.520126  0.142483  0.790735  1
  Au  Au17  1  0.794978  0.515126  0.149676  1
  Au  Au18  1  0.141278  0.801277  0.514554  1
  Au  Au19  1  0.287229  0.636128  0.018956  1
  Au  Au20  1  0.014404  0.290101  0.633778  1
  Au  Au21  1  0.635517  0.019453  0.298844  1
