# generated using pymatgen
data_Tb5PrAl24Ru5Pt3
_symmetry_space_group_name_H-M   'P 1'
_cell_length_a   8.84163304
_cell_length_b   8.83395401
_cell_length_c   9.58520579
_cell_angle_alpha   90.09182338
_cell_angle_beta   89.95586597
_cell_angle_gamma   119.54399098
_symmetry_Int_Tables_number   1
_chemical_formula_structural   Tb5PrAl24Ru5Pt3
_chemical_formula_sum   'Tb5 Pr1 Al24 Ru5 Pt3'
_cell_volume   651.32306121
_cell_formula_units_Z   1
loop_
 _symmetry_equiv_pos_site_id
 _symmetry_equiv_pos_as_xyz
  1  'x, y, z'
loop_
 _atom_site_type_symbol
 _atom_site_label
 _atom_site_symmetry_multiplicity
 _atom_site_fract_x
 _atom_site_fract_y
 _atom_site_fract_z
 _atom_site_occupancy
  Tb  Tb0  1  0.808965  0.193577  0.249914  1
  Tb  Tb1  1  0.810654  0.613970  0.248508  1
  Tb  Tb2  1  0.616613  0.810154  0.749643  1
  Tb  Tb3  1  0.191706  0.806791  0.750014  1
  Tb  Tb4  1  0.189573  0.385543  0.751513  1
  Pr  Pr5  1  0.379635  0.189142  0.250882  1
  Al  Al6  1  0.438127  0.873106  0.246228  1
  Al  Al7  1  0.122809  0.560091  0.250227  1
  Al  Al8  1  0.435843  0.565478  0.250355  1
  Al  Al9  1  0.562670  0.125494  0.753386  1
  Al  Al10  1  0.877666  0.440183  0.749690  1
  Al  Al11  1  0.564929  0.437077  0.749708  1
  Al  Al12  1  0.157582  0.830105  0.422749  1
  Al  Al13  1  0.157446  0.326213  0.425359  1
  Al  Al14  1  0.676510  0.837207  0.423715  1
  Al  Al15  1  0.841788  0.168016  0.579038  1
  Al  Al16  1  0.841850  0.675143  0.576693  1
  Al  Al17  1  0.323572  0.163031  0.579113  1
  Al  Al18  1  0.835823  0.163226  0.922507  1
  Al  Al19  1  0.841305  0.674380  0.924270  1
  Al  Al20  1  0.325049  0.157899  0.923595  1
  Al  Al21  1  0.163388  0.834438  0.075391  1
  Al  Al22  1  0.157961  0.326766  0.073760  1
  Al  Al23  1  0.675067  0.841962  0.073421  1
  Al  Al24  1  0.327751  0.664335  0.530765  1
  Al  Al25  1  0.673910  0.336448  0.473016  1
  Al  Al26  1  0.670568  0.330265  0.025818  1
  Al  Al27  1  0.331045  0.670108  0.970592  1
  Al  Al28  1  0.998258  0.995946  0.249880  1
  Al  Al29  1  0.996659  0.001010  0.750171  1
  Ru  Ru30  1  0.999958  0.000016  0.500411  1
  Ru  Ru31  1  0.999978  0.999937  0.999689  1
  Ru  Ru32  1  0.000611  0.500344  0.500541  1
  Ru  Ru33  1  0.500594  0.999114  0.998604  1
  Ru  Ru34  1  0.000529  0.500262  0.999380  1
  Pt  Pt35  1  0.501129  0.999186  0.501392  1
  Pt  Pt36  1  0.501264  0.502118  0.501435  1
  Pt  Pt37  1  0.501216  0.501921  0.998629  1
