# generated using pymatgen
data_TiNb2(GaRu2)3
_symmetry_space_group_name_H-M   'P 1'
_cell_length_a   4.36943000
_cell_length_b   6.19916600
_cell_length_c   13.08571200
_cell_angle_alpha   90.00000000
_cell_angle_beta   90.00115493
_cell_angle_gamma   90.00000000
_symmetry_Int_Tables_number   1
_chemical_formula_structural   TiNb2(GaRu2)3
_chemical_formula_sum   'Ti2 Nb4 Ga6 Ru12'
_cell_volume   354.45035028
_cell_formula_units_Z   2
loop_
 _symmetry_equiv_pos_site_id
 _symmetry_equiv_pos_as_xyz
  1  'x, y, z'
loop_
 _atom_site_type_symbol
 _atom_site_label
 _atom_site_symmetry_multiplicity
 _atom_site_fract_x
 _atom_site_fract_y
 _atom_site_fract_z
 _atom_site_occupancy
  Ti  Ti0  1  0.000216  0.000000  0.668914  1
  Ti  Ti1  1  0.500223  0.500001  0.831079  1
  Nb  Nb2  1  0.000001  0.000000  0.995986  1
  Nb  Nb3  1  0.499753  0.500001  0.165185  1
  Nb  Nb4  1  0.999751  0.000000  0.334851  1
  Nb  Nb5  1  0.499995  0.500001  0.504008  1
  Ga  Ga6  1  0.000003  0.500001  0.997045  1
  Ga  Ga7  1  0.499728  0.000000  0.165332  1
  Ga  Ga8  1  0.999728  0.500001  0.334683  1
  Ga  Ga9  1  0.499999  0.000000  0.502946  1
  Ga  Ga10  1  0.000239  0.500001  0.668273  1
  Ga  Ga11  1  0.500247  0.000000  0.831731  1
  Ru  Ru12  1  0.499981  0.251202  0.998451  1
  Ru  Ru13  1  0.499981  0.748798  0.998451  1
  Ru  Ru14  1  0.999808  0.250608  0.166294  1
  Ru  Ru15  1  0.999808  0.749392  0.166294  1
  Ru  Ru16  1  0.499819  0.249451  0.333674  1
  Ru  Ru17  1  0.499819  0.750549  0.333674  1
  Ru  Ru18  1  0.999994  0.248866  0.501545  1
  Ru  Ru19  1  0.999994  0.751134  0.501545  1
  Ru  Ru20  1  0.500230  0.248426  0.668021  1
  Ru  Ru21  1  0.500230  0.751574  0.668021  1
  Ru  Ru22  1  0.000222  0.251670  0.831998  1
  Ru  Ru23  1  0.000222  0.748330  0.831998  1
