# generated using pymatgen
data_NaU(OF)2
_symmetry_space_group_name_H-M   'P 1'
_cell_length_a   5.70895500
_cell_length_b   8.05353939
_cell_length_c   8.57645642
_cell_angle_alpha   78.44370259
_cell_angle_beta   90.00000000
_cell_angle_gamma   90.00000000
_symmetry_Int_Tables_number   1
_chemical_formula_structural   NaU(OF)2
_chemical_formula_sum   'Na4 U4 O8 F8'
_cell_volume   386.32869020
_cell_formula_units_Z   4
loop_
 _symmetry_equiv_pos_site_id
 _symmetry_equiv_pos_as_xyz
  1  'x, y, z'
loop_
 _atom_site_type_symbol
 _atom_site_label
 _atom_site_symmetry_multiplicity
 _atom_site_fract_x
 _atom_site_fract_y
 _atom_site_fract_z
 _atom_site_occupancy
  Na  Na0  1  0.782457  0.123916  0.635618  1
  Na  Na1  1  0.217543  0.876084  0.364382  1
  Na  Na2  1  0.717543  0.623916  0.635618  1
  Na  Na3  1  0.282457  0.376084  0.364382  1
  U  U4  1  0.742414  0.696855  0.167137  1
  U  U5  1  0.242414  0.803145  0.832863  1
  U  U6  1  0.257586  0.303145  0.832863  1
  U  U7  1  0.757586  0.196855  0.167137  1
  O  O8  1  0.439516  0.793631  0.042990  1
  O  O9  1  0.939516  0.706369  0.957010  1
  O  O10  1  0.860913  0.941452  0.186582  1
  O  O11  1  0.639087  0.441452  0.186582  1
  O  O12  1  0.560484  0.206369  0.957010  1
  O  O13  1  0.060484  0.293631  0.042990  1
  O  O14  1  0.139087  0.058548  0.813418  1
  O  O15  1  0.360913  0.558548  0.813418  1
  F  F16  1  0.458342  0.312038  0.610058  1
  F  F17  1  0.543007  0.888338  0.678121  1
  F  F18  1  0.958342  0.187962  0.389942  1
  F  F19  1  0.456993  0.111662  0.321879  1
  F  F20  1  0.043007  0.611662  0.321879  1
  F  F21  1  0.956993  0.388338  0.678121  1
  F  F22  1  0.541658  0.687962  0.389942  1
  F  F23  1  0.041658  0.812038  0.610058  1
