# generated using pymatgen
data_CeNi2(P6Ru)2
_symmetry_space_group_name_H-M   'P 1'
_cell_length_a   6.94000923
_cell_length_b   6.94000978
_cell_length_c   6.93398311
_cell_angle_alpha   109.32553024
_cell_angle_beta   109.27006829
_cell_angle_gamma   109.85359036
_symmetry_Int_Tables_number   1
_chemical_formula_structural   CeNi2(P6Ru)2
_chemical_formula_sum   'Ce1 Ni2 P12 Ru2'
_cell_volume   256.96865405
_cell_formula_units_Z   1
loop_
 _symmetry_equiv_pos_site_id
 _symmetry_equiv_pos_as_xyz
  1  'x, y, z'
loop_
 _atom_site_type_symbol
 _atom_site_label
 _atom_site_symmetry_multiplicity
 _atom_site_fract_x
 _atom_site_fract_y
 _atom_site_fract_z
 _atom_site_occupancy
  Ce  Ce0  1  0.000000  0.000000  0.000000  1
  Ni  Ni1  1  0.000000  0.500000  0.000000  1
  Ni  Ni2  1  0.500000  0.000000  0.000000  1
  P  P3  1  0.857712  0.638207  0.495919  1
  P  P4  1  0.856074  0.351319  0.207393  1
  P  P5  1  0.143926  0.648681  0.792607  1
  P  P6  1  0.354938  0.501263  0.141941  1
  P  P7  1  0.499621  0.141274  0.355892  1
  P  P8  1  0.142288  0.361793  0.504081  1
  P  P9  1  0.640678  0.787002  0.141941  1
  P  P10  1  0.214618  0.856271  0.355892  1
  P  P11  1  0.645062  0.498737  0.858059  1
  P  P12  1  0.785382  0.143729  0.644108  1
  P  P13  1  0.359322  0.212998  0.858059  1
  P  P14  1  0.500379  0.858726  0.644108  1
  Ru  Ru15  1  0.000000  0.000000  0.500000  1
  Ru  Ru16  1  0.500000  0.500000  0.500000  1
