# generated using pymatgen
data_HoTm3(LuPb)6
_symmetry_space_group_name_H-M   'P 1'
_cell_length_a   8.90051500
_cell_length_b   8.92266413
_cell_length_c   6.51058900
_cell_angle_alpha   90.00000000
_cell_angle_beta   90.00000000
_cell_angle_gamma   119.93690508
_symmetry_Int_Tables_number   1
_chemical_formula_structural   HoTm3(LuPb)6
_chemical_formula_sum   'Ho1 Tm3 Lu6 Pb6'
_cell_volume   448.06019246
_cell_formula_units_Z   1
loop_
 _symmetry_equiv_pos_site_id
 _symmetry_equiv_pos_as_xyz
  1  'x, y, z'
loop_
 _atom_site_type_symbol
 _atom_site_label
 _atom_site_symmetry_multiplicity
 _atom_site_fract_x
 _atom_site_fract_y
 _atom_site_fract_z
 _atom_site_occupancy
  Ho  Ho0  1  0.764674  0.999649  0.750000  1
  Tm  Tm1  1  0.235160  0.235701  0.750000  1
  Tm  Tm2  1  0.233715  0.000353  0.250000  1
  Tm  Tm3  1  0.764590  0.763513  0.250000  1
  Lu  Lu4  1  0.333891  0.667785  0.000054  1
  Lu  Lu5  1  0.666721  0.332290  0.000093  1
  Lu  Lu6  1  0.999149  0.764002  0.750000  1
  Lu  Lu7  1  0.001221  0.236623  0.250000  1
  Lu  Lu8  1  0.333891  0.667785  0.499946  1
  Lu  Lu9  1  0.666721  0.332290  0.499907  1
  Pb  Pb10  1  0.001583  0.398082  0.750000  1
  Pb  Pb11  1  0.394827  0.395304  0.250000  1
  Pb  Pb12  1  0.605311  0.000235  0.250000  1
  Pb  Pb13  1  0.604726  0.602827  0.750000  1
  Pb  Pb14  1  0.393932  0.999779  0.750000  1
  Pb  Pb15  1  0.999888  0.603783  0.250000  1
