# generated using pymatgen
data_Er4Ga20Tc5Ir
_symmetry_space_group_name_H-M   'P 1'
_cell_length_a   9.04586200
_cell_length_b   9.04586200
_cell_length_c   6.29114500
_cell_angle_alpha   90.00000000
_cell_angle_beta   90.00000000
_cell_angle_gamma   90.00000000
_symmetry_Int_Tables_number   1
_chemical_formula_structural   Er4Ga20Tc5Ir
_chemical_formula_sum   'Er4 Ga20 Tc5 Ir1'
_cell_volume   514.78941817
_cell_formula_units_Z   1
loop_
 _symmetry_equiv_pos_site_id
 _symmetry_equiv_pos_as_xyz
  1  'x, y, z'
loop_
 _atom_site_type_symbol
 _atom_site_label
 _atom_site_symmetry_multiplicity
 _atom_site_fract_x
 _atom_site_fract_y
 _atom_site_fract_z
 _atom_site_occupancy
  Er  Er0  1  0.681171  0.184475  0.000000  1
  Er  Er1  1  0.318829  0.815525  0.000000  1
  Er  Er2  1  0.815525  0.681171  0.000000  1
  Er  Er3  1  0.184475  0.318829  0.000000  1
  Ga  Ga4  1  0.939418  0.206752  0.291596  1
  Ga  Ga5  1  0.705271  0.440385  0.291549  1
  Ga  Ga6  1  0.500000  0.000000  0.286873  1
  Ga  Ga7  1  0.559615  0.705271  0.708451  1
  Ga  Ga8  1  0.294729  0.559615  0.708451  1
  Ga  Ga9  1  0.793248  0.939418  0.291596  1
  Ga  Ga10  1  0.939418  0.206752  0.708404  1
  Ga  Ga11  1  0.294729  0.559615  0.291549  1
  Ga  Ga12  1  0.060582  0.793248  0.291596  1
  Ga  Ga13  1  0.705271  0.440385  0.708451  1
  Ga  Ga14  1  0.440385  0.294729  0.708451  1
  Ga  Ga15  1  0.060582  0.793248  0.708404  1
  Ga  Ga16  1  0.206752  0.060582  0.708404  1
  Ga  Ga17  1  0.793248  0.939418  0.708404  1
  Ga  Ga18  1  0.206752  0.060582  0.291596  1
  Ga  Ga19  1  0.000000  0.500000  0.713127  1
  Ga  Ga20  1  0.000000  0.500000  0.286873  1
  Ga  Ga21  1  0.559615  0.705271  0.291549  1
  Ga  Ga22  1  0.440385  0.294729  0.291549  1
  Ga  Ga23  1  0.500000  0.000000  0.713127  1
  Tc  Tc24  1  0.681486  0.176981  0.500000  1
  Tc  Tc25  1  0.823019  0.681486  0.500000  1
  Tc  Tc26  1  0.176981  0.318514  0.500000  1
  Tc  Tc27  1  0.318514  0.823019  0.500000  1
  Tc  Tc28  1  0.500000  0.500000  0.000000  1
  Ir  Ir29  1  0.000000  0.000000  0.000000  1
