# generated using pymatgen
data_Sr4WBrN4Cl
_symmetry_space_group_name_H-M   'P 1'
_cell_length_a   6.01877500
_cell_length_b   8.07351700
_cell_length_c   10.64044871
_cell_angle_alpha   81.01753557
_cell_angle_beta   90.00000000
_cell_angle_gamma   90.00000000
_symmetry_Int_Tables_number   1
_chemical_formula_structural   Sr4WBrN4Cl
_chemical_formula_sum   'Sr8 W2 Br2 N8 Cl2'
_cell_volume   510.70695617
_cell_formula_units_Z   2
loop_
 _symmetry_equiv_pos_site_id
 _symmetry_equiv_pos_as_xyz
  1  'x, y, z'
loop_
 _atom_site_type_symbol
 _atom_site_label
 _atom_site_symmetry_multiplicity
 _atom_site_fract_x
 _atom_site_fract_y
 _atom_site_fract_z
 _atom_site_occupancy
  Sr  Sr0  1  0.750000  0.287485  0.304690  1
  Sr  Sr1  1  0.750000  0.002781  0.621172  1
  Sr  Sr2  1  0.750000  0.447128  0.617260  1
  Sr  Sr3  1  0.750000  0.825015  0.091896  1
  Sr  Sr4  1  0.250000  0.997219  0.378828  1
  Sr  Sr5  1  0.250000  0.552872  0.382740  1
  Sr  Sr6  1  0.250000  0.174985  0.908104  1
  Sr  Sr7  1  0.250000  0.712515  0.695310  1
  W  W8  1  0.750000  0.772454  0.392162  1
  W  W9  1  0.250000  0.227546  0.607838  1
  Br  Br10  1  0.250000  0.326769  0.163568  1
  Br  Br11  1  0.750000  0.673231  0.836432  1
  N  N12  1  0.250000  0.021990  0.717369  1
  N  N13  1  0.997699  0.247862  0.500557  1
  N  N14  1  0.497699  0.752138  0.499443  1
  N  N15  1  0.002301  0.752138  0.499443  1
  N  N16  1  0.750000  0.605922  0.286999  1
  N  N17  1  0.750000  0.978010  0.282631  1
  N  N18  1  0.502301  0.247862  0.500557  1
  N  N19  1  0.250000  0.394078  0.713001  1
  Cl  Cl20  1  0.250000  0.847453  0.101865  1
  Cl  Cl21  1  0.750000  0.152547  0.898135  1
