# generated using pymatgen
data_YFe7Tc5
_symmetry_space_group_name_H-M   'P 1'
_cell_length_a   4.74325148
_cell_length_b   6.56281270
_cell_length_c   6.56281238
_cell_angle_alpha   83.74985522
_cell_angle_beta   68.81543254
_cell_angle_gamma   68.81543401
_symmetry_Int_Tables_number   1
_chemical_formula_structural   YFe7Tc5
_chemical_formula_sum   'Y1 Fe7 Tc5'
_cell_volume   177.55987000
_cell_formula_units_Z   1
loop_
 _symmetry_equiv_pos_site_id
 _symmetry_equiv_pos_as_xyz
  1  'x, y, z'
loop_
 _atom_site_type_symbol
 _atom_site_label
 _atom_site_symmetry_multiplicity
 _atom_site_fract_x
 _atom_site_fract_y
 _atom_site_fract_z
 _atom_site_occupancy
  Y  Y0  1  0.991574  0.008426  0.008426  1
  Fe  Fe1  1  0.289753  0.210247  0.210247  1
  Fe  Fe2  1  0.502230  0.223976  0.771564  1
  Fe  Fe3  1  0.502230  0.771564  0.223976  1
  Fe  Fe4  1  0.003323  0.000641  0.493960  1
  Fe  Fe5  1  0.502076  0.000641  0.493960  1
  Fe  Fe6  1  0.502076  0.493960  0.000641  1
  Fe  Fe7  1  0.003323  0.493960  0.000641  1
  Tc  Tc8  1  0.005266  0.355438  0.634031  1
  Tc  Tc9  1  0.005266  0.634031  0.355438  1
  Tc  Tc10  1  0.638223  0.361777  0.361777  1
  Tc  Tc11  1  0.351403  0.648597  0.648597  1
  Tc  Tc12  1  0.703257  0.796743  0.796743  1
