# generated using pymatgen
data_Rb4NaP2Au
_symmetry_space_group_name_H-M   'P 1'
_cell_length_a   6.69590265
_cell_length_b   6.69590260
_cell_length_c   6.21451496
_cell_angle_alpha   92.19446738
_cell_angle_beta   92.19446578
_cell_angle_gamma   102.96757319
_symmetry_Int_Tables_number   1
_chemical_formula_structural   Rb4NaP2Au
_chemical_formula_sum   'Rb4 Na1 P2 Au1'
_cell_volume   271.00889085
_cell_formula_units_Z   1
loop_
 _symmetry_equiv_pos_site_id
 _symmetry_equiv_pos_as_xyz
  1  'x, y, z'
loop_
 _atom_site_type_symbol
 _atom_site_label
 _atom_site_symmetry_multiplicity
 _atom_site_fract_x
 _atom_site_fract_y
 _atom_site_fract_z
 _atom_site_occupancy
  Rb  Rb0  1  0.967696  0.309984  0.741277  1
  Rb  Rb1  1  0.309984  0.967696  0.741277  1
  Rb  Rb2  1  0.032304  0.690016  0.258723  1
  Rb  Rb3  1  0.690016  0.032304  0.258723  1
  Na  Na4  1  0.500000  0.500000  0.000000  1
  P  P5  1  0.750069  0.750069  0.726774  1
  P  P6  1  0.249931  0.249931  0.273226  1
  Au  Au7  1  0.500000  0.500000  0.500000  1
