# generated using pymatgen
data_DySc3Ti4(Fe4P3)4
_symmetry_space_group_name_H-M   'P 1'
_cell_length_a   3.63125900
_cell_length_b   10.29034070
_cell_length_c   12.14323701
_cell_angle_alpha   89.86009135
_cell_angle_beta   90.00000000
_cell_angle_gamma   90.00000000
_symmetry_Int_Tables_number   1
_chemical_formula_structural   DySc3Ti4(Fe4P3)4
_chemical_formula_sum   'Dy1 Sc3 Ti4 Fe16 P12'
_cell_volume   453.75367667
_cell_formula_units_Z   1
loop_
 _symmetry_equiv_pos_site_id
 _symmetry_equiv_pos_as_xyz
  1  'x, y, z'
loop_
 _atom_site_type_symbol
 _atom_site_label
 _atom_site_symmetry_multiplicity
 _atom_site_fract_x
 _atom_site_fract_y
 _atom_site_fract_z
 _atom_site_occupancy
  Dy  Dy0  1  0.750000  0.081902  0.787850  1
  Sc  Sc1  1  0.250000  0.580638  0.713307  1
  Sc  Sc2  1  0.250000  0.918120  0.213301  1
  Sc  Sc3  1  0.750000  0.419629  0.286957  1
  Ti  Ti4  1  0.250000  0.700607  0.993568  1
  Ti  Ti5  1  0.250000  0.797882  0.490286  1
  Ti  Ti6  1  0.750000  0.299605  0.010202  1
  Ti  Ti7  1  0.750000  0.202542  0.508031  1
  Fe  Fe8  1  0.250000  0.413660  0.489985  1
  Fe  Fe9  1  0.250000  0.084990  0.993096  1
  Fe  Fe10  1  0.750000  0.585561  0.509237  1
  Fe  Fe11  1  0.750000  0.912639  0.011370  1
  Fe  Fe12  1  0.250000  0.217591  0.173435  1
  Fe  Fe13  1  0.250000  0.284294  0.671467  1
  Fe  Fe14  1  0.750000  0.780911  0.826024  1
  Fe  Fe15  1  0.750000  0.717119  0.326665  1
  Fe  Fe16  1  0.250000  0.871636  0.698434  1
  Fe  Fe17  1  0.250000  0.624488  0.200343  1
  Fe  Fe18  1  0.750000  0.125263  0.299770  1
  Fe  Fe19  1  0.750000  0.379420  0.800556  1
  Fe  Fe20  1  0.250000  0.465281  0.932837  1
  Fe  Fe21  1  0.250000  0.037314  0.429132  1
  Fe  Fe22  1  0.750000  0.537876  0.069979  1
  Fe  Fe23  1  0.750000  0.960030  0.565943  1
  P  P24  1  0.250000  0.427447  0.115814  1
  P  P25  1  0.250000  0.071857  0.610555  1
  P  P26  1  0.750000  0.574323  0.885773  1
  P  P27  1  0.750000  0.926059  0.383558  1
  P  P28  1  0.250000  0.270336  0.860190  1
  P  P29  1  0.250000  0.237704  0.359346  1
  P  P30  1  0.750000  0.736770  0.141413  1
  P  P31  1  0.750000  0.761461  0.639632  1
  P  P32  1  0.250000  0.594148  0.379534  1
  P  P33  1  0.250000  0.900606  0.881044  1
  P  P34  1  0.750000  0.406385  0.620727  1
  P  P35  1  0.750000  0.093908  0.120642  1
