# generated using pymatgen
data_Nd9Lu(SnBi)4
_symmetry_space_group_name_H-M   'P 1'
_cell_length_a   8.38737700
_cell_length_b   8.42611500
_cell_length_c   16.06872900
_cell_angle_alpha   90.00000000
_cell_angle_beta   90.00000000
_cell_angle_gamma   90.00000000
_symmetry_Int_Tables_number   1
_chemical_formula_structural   Nd9Lu(SnBi)4
_chemical_formula_sum   'Nd18 Lu2 Sn8 Bi8'
_cell_volume   1135.62533524
_cell_formula_units_Z   2
loop_
 _symmetry_equiv_pos_site_id
 _symmetry_equiv_pos_as_xyz
  1  'x, y, z'
loop_
 _atom_site_type_symbol
 _atom_site_label
 _atom_site_symmetry_multiplicity
 _atom_site_fract_x
 _atom_site_fract_y
 _atom_site_fract_z
 _atom_site_occupancy
  Nd  Nd0  1  0.387578  0.838757  0.877416  1
  Nd  Nd1  1  0.887578  0.661243  0.622584  1
  Nd  Nd2  1  0.610705  0.162530  0.378921  1
  Nd  Nd3  1  0.110705  0.337470  0.121079  1
  Nd  Nd4  1  0.610705  0.162530  0.121079  1
  Nd  Nd5  1  0.110705  0.337470  0.378921  1
  Nd  Nd6  1  0.387578  0.838757  0.622584  1
  Nd  Nd7  1  0.887578  0.661243  0.877416  1
  Nd  Nd8  1  0.554408  0.328482  0.889670  1
  Nd  Nd9  1  0.054408  0.171518  0.610330  1
  Nd  Nd10  1  0.447114  0.673348  0.390669  1
  Nd  Nd11  1  0.947114  0.826652  0.109331  1
  Nd  Nd12  1  0.447114  0.673348  0.109331  1
  Nd  Nd13  1  0.947114  0.826652  0.390669  1
  Nd  Nd14  1  0.554408  0.328482  0.610330  1
  Nd  Nd15  1  0.054408  0.171518  0.889670  1
  Nd  Nd16  1  0.782362  0.503335  0.250000  1
  Nd  Nd17  1  0.282362  0.996665  0.250000  1
  Lu  Lu18  1  0.219914  0.496826  0.750000  1
  Lu  Lu19  1  0.719914  0.003174  0.750000  1
  Sn  Sn20  1  0.585483  0.625957  0.750000  1
  Sn  Sn21  1  0.085483  0.874043  0.750000  1
  Sn  Sn22  1  0.410463  0.376352  0.250000  1
  Sn  Sn23  1  0.910463  0.123648  0.250000  1
  Sn  Sn24  1  0.358082  0.145512  0.750000  1
  Sn  Sn25  1  0.858082  0.354488  0.750000  1
  Sn  Sn26  1  0.646195  0.859782  0.250000  1
  Sn  Sn27  1  0.146195  0.640218  0.250000  1
  Bi  Bi28  1  0.269043  0.019368  0.044977  1
  Bi  Bi29  1  0.769043  0.480632  0.455023  1
  Bi  Bi30  1  0.729904  0.981093  0.548830  1
  Bi  Bi31  1  0.229904  0.518907  0.951170  1
  Bi  Bi32  1  0.729904  0.981093  0.951170  1
  Bi  Bi33  1  0.229904  0.518907  0.548830  1
  Bi  Bi34  1  0.269043  0.019368  0.455023  1
  Bi  Bi35  1  0.769043  0.480632  0.044977  1
