# generated using pymatgen
data_La7Nd6ErPt6
_symmetry_space_group_name_H-M   'P 1'
_cell_length_a   6.55885502
_cell_length_b   10.25384699
_cell_length_c   10.25376570
_cell_angle_alpha   120.00736842
_cell_angle_beta   89.99907268
_cell_angle_gamma   89.99316575
_symmetry_Int_Tables_number   1
_chemical_formula_structural   La7Nd6ErPt6
_chemical_formula_sum   'La7 Nd6 Er1 Pt6'
_cell_volume   597.16814007
_cell_formula_units_Z   1
loop_
 _symmetry_equiv_pos_site_id
 _symmetry_equiv_pos_as_xyz
  1  'x, y, z'
loop_
 _atom_site_type_symbol
 _atom_site_label
 _atom_site_symmetry_multiplicity
 _atom_site_fract_x
 _atom_site_fract_y
 _atom_site_fract_z
 _atom_site_occupancy
  La  La0  1  0.959998  0.666606  0.333324  1
  La  La1  1  0.246342  0.130594  0.869470  1
  La  La2  1  0.246439  0.738642  0.869314  1
  La  La3  1  0.246384  0.130714  0.261339  1
  La  La4  1  0.742034  0.871029  0.128957  1
  La  La5  1  0.742137  0.258063  0.129004  1
  La  La6  1  0.742082  0.870883  0.741918  1
  Nd  Nd7  1  0.440013  0.536932  0.463061  1
  Nd  Nd8  1  0.440000  0.926201  0.463086  1
  Nd  Nd9  1  0.440025  0.536912  0.073790  1
  Nd  Nd10  1  0.943361  0.460160  0.539853  1
  Nd  Nd11  1  0.943332  0.079632  0.539846  1
  Nd  Nd12  1  0.943360  0.460151  0.920366  1
  Er  Er13  1  0.472147  0.333349  0.666651  1
  Pt  Pt14  1  0.191972  0.811709  0.188337  1
  Pt  Pt15  1  0.192031  0.376744  0.188320  1
  Pt  Pt16  1  0.192040  0.811725  0.623297  1
  Pt  Pt17  1  0.687365  0.190931  0.809102  1
  Pt  Pt18  1  0.687472  0.618076  0.809092  1
  Pt  Pt19  1  0.687464  0.190946  0.381874  1
