# generated using pymatgen
data_Nd6CoBr10
_symmetry_space_group_name_H-M   'P 1'
_cell_length_a   7.60506692
_cell_length_b   9.34768919
_cell_length_c   9.52386936
_cell_angle_alpha   108.51737580
_cell_angle_beta   97.26355068
_cell_angle_gamma   105.57601805
_symmetry_Int_Tables_number   1
_chemical_formula_structural   Nd6CoBr10
_chemical_formula_sum   'Nd6 Co1 Br10'
_cell_volume   601.57875165
_cell_formula_units_Z   1
loop_
 _symmetry_equiv_pos_site_id
 _symmetry_equiv_pos_as_xyz
  1  'x, y, z'
loop_
 _atom_site_type_symbol
 _atom_site_label
 _atom_site_symmetry_multiplicity
 _atom_site_fract_x
 _atom_site_fract_y
 _atom_site_fract_z
 _atom_site_occupancy
  Nd  Nd0  1  0.469541  0.789448  0.589476  1
  Nd  Nd1  1  0.530459  0.210552  0.410524  1
  Nd  Nd2  1  0.375223  0.453517  0.747498  1
  Nd  Nd3  1  0.624777  0.546483  0.252502  1
  Nd  Nd4  1  0.863934  0.637384  0.681480  1
  Nd  Nd5  1  0.136066  0.362616  0.318520  1
  Co  Co6  1  0.500000  0.500000  0.500000  1
  Br  Br7  1  0.413906  0.130160  0.672956  1
  Br  Br8  1  0.586094  0.869840  0.327044  1
  Br  Br9  1  0.047448  0.679150  0.415674  1
  Br  Br10  1  0.952552  0.320850  0.584326  1
  Br  Br11  1  0.291335  0.759822  0.848290  1
  Br  Br12  1  0.708665  0.240178  0.151710  1
  Br  Br13  1  0.245659  0.414217  0.042954  1
  Br  Br14  1  0.754341  0.585783  0.957046  1
  Br  Br15  1  0.853410  0.958047  0.773326  1
  Br  Br16  1  0.146590  0.041953  0.226674  1
