# generated using pymatgen
data_Tb7Tm13Rh12
_symmetry_space_group_name_H-M   'P 1'
_cell_length_a   10.83853902
_cell_length_b   10.83746636
_cell_length_c   6.31825500
_cell_angle_alpha   90.01264359
_cell_angle_beta   90.00289869
_cell_angle_gamma   89.99712825
_symmetry_Int_Tables_number   1
_chemical_formula_structural   Tb7Tm13Rh12
_chemical_formula_sum   'Tb7 Tm13 Rh12'
_cell_volume   742.15675780
_cell_formula_units_Z   1
loop_
 _symmetry_equiv_pos_site_id
 _symmetry_equiv_pos_as_xyz
  1  'x, y, z'
loop_
 _atom_site_type_symbol
 _atom_site_label
 _atom_site_symmetry_multiplicity
 _atom_site_fract_x
 _atom_site_fract_y
 _atom_site_fract_z
 _atom_site_occupancy
  Tb  Tb0  1  0.289077  0.090547  0.376277  1
  Tb  Tb1  1  0.288882  0.911081  0.876323  1
  Tb  Tb2  1  0.710655  0.090180  0.876168  1
  Tb  Tb3  1  0.710979  0.910432  0.376304  1
  Tb  Tb4  1  0.589655  0.788807  0.876189  1
  Tb  Tb5  1  0.589108  0.211493  0.376389  1
  Tb  Tb6  1  0.410233  0.788924  0.376253  1
  Tm  Tm7  1  0.410771  0.209692  0.877586  1
  Tm  Tm8  1  0.208841  0.412667  0.621688  1
  Tm  Tm9  1  0.208101  0.586364  0.121259  1
  Tm  Tm10  1  0.791796  0.413512  0.120722  1
  Tm  Tm11  1  0.791943  0.586403  0.620907  1
  Tm  Tm12  1  0.913586  0.708073  0.121150  1
  Tm  Tm13  1  0.913669  0.291943  0.621018  1
  Tm  Tm14  1  0.086604  0.707959  0.620906  1
  Tm  Tm15  1  0.086584  0.291936  0.120684  1
  Tm  Tm16  1  0.000193  0.000133  0.503078  1
  Tm  Tm17  1  0.999913  0.000262  0.002818  1
  Tm  Tm18  1  0.499519  0.499049  0.002363  1
  Tm  Tm19  1  0.499841  0.499884  0.502741  1
  Rh  Rh20  1  0.849823  0.155307  0.251271  1
  Rh  Rh21  1  0.849817  0.844585  0.751020  1
  Rh  Rh22  1  0.151869  0.155636  0.752093  1
  Rh  Rh23  1  0.150245  0.844732  0.251097  1
  Rh  Rh24  1  0.654045  0.349048  0.751964  1
  Rh  Rh25  1  0.655235  0.650185  0.251130  1
  Rh  Rh26  1  0.345097  0.348896  0.248348  1
  Rh  Rh27  1  0.344735  0.650256  0.750971  1
  Rh  Rh28  1  0.499537  0.001196  0.122472  1
  Rh  Rh29  1  0.499409  0.001184  0.624403  1
  Rh  Rh30  1  0.000185  0.499864  0.877102  1
  Rh  Rh31  1  0.000055  0.499770  0.377307  1
