# generated using pymatgen
data_Y2MnCo16
_symmetry_space_group_name_H-M   'P 1'
_cell_length_a   6.28580395
_cell_length_b   6.28580302
_cell_length_c   6.28580331
_cell_angle_alpha   83.10885792
_cell_angle_beta   83.10885513
_cell_angle_gamma   83.10885579
_symmetry_Int_Tables_number   1
_chemical_formula_structural   Y2MnCo16
_chemical_formula_sum   'Y2 Mn1 Co16'
_cell_volume   243.37629822
_cell_formula_units_Z   1
loop_
 _symmetry_equiv_pos_site_id
 _symmetry_equiv_pos_as_xyz
  1  'x, y, z'
loop_
 _atom_site_type_symbol
 _atom_site_label
 _atom_site_symmetry_multiplicity
 _atom_site_fract_x
 _atom_site_fract_y
 _atom_site_fract_z
 _atom_site_occupancy
  Y  Y0  1  0.655785  0.655785  0.655785  1
  Y  Y1  1  0.346654  0.346654  0.346654  1
  Mn  Mn2  1  0.097166  0.097166  0.097166  1
  Co  Co3  1  0.710983  0.288757  0.998758  1
  Co  Co4  1  0.998758  0.710983  0.288757  1
  Co  Co5  1  0.288757  0.998758  0.710983  1
  Co  Co6  1  0.998758  0.288757  0.710983  1
  Co  Co7  1  0.710983  0.998758  0.288757  1
  Co  Co8  1  0.288757  0.710983  0.998758  1
  Co  Co9  1  0.348327  0.348327  0.848852  1
  Co  Co10  1  0.848852  0.348327  0.348327  1
  Co  Co11  1  0.348327  0.848852  0.348327  1
  Co  Co12  1  0.654103  0.654103  0.151331  1
  Co  Co13  1  0.151331  0.654103  0.654103  1
  Co  Co14  1  0.654103  0.151331  0.654103  1
  Co  Co15  1  0.997506  0.997506  0.504499  1
  Co  Co16  1  0.504499  0.997506  0.997506  1
  Co  Co17  1  0.997506  0.504499  0.997506  1
  Co  Co18  1  0.898845  0.898845  0.898845  1
