# generated using pymatgen
data_Na5Li2TaP4
_symmetry_space_group_name_H-M   'P 1'
_cell_length_a   7.25307100
_cell_length_b   7.75114600
_cell_length_c   8.66973100
_cell_angle_alpha   90.00000000
_cell_angle_beta   90.00000000
_cell_angle_gamma   90.00000000
_symmetry_Int_Tables_number   1
_chemical_formula_structural   Na5Li2TaP4
_chemical_formula_sum   'Na10 Li4 Ta2 P8'
_cell_volume   487.40891530
_cell_formula_units_Z   2
loop_
 _symmetry_equiv_pos_site_id
 _symmetry_equiv_pos_as_xyz
  1  'x, y, z'
loop_
 _atom_site_type_symbol
 _atom_site_label
 _atom_site_symmetry_multiplicity
 _atom_site_fract_x
 _atom_site_fract_y
 _atom_site_fract_z
 _atom_site_occupancy
  Na  Na0  1  0.871263  0.416578  0.736670  1
  Na  Na1  1  0.371263  0.583422  0.763330  1
  Na  Na2  1  0.371263  0.583422  0.236670  1
  Na  Na3  1  0.871263  0.416578  0.263330  1
  Na  Na4  1  0.032347  0.661008  0.500000  1
  Na  Na5  1  0.532347  0.338992  0.000000  1
  Na  Na6  1  0.888858  0.085841  0.000000  1
  Na  Na7  1  0.388858  0.914159  0.500000  1
  Na  Na8  1  0.402550  0.940462  0.000000  1
  Na  Na9  1  0.902550  0.059538  0.500000  1
  Li  Li10  1  0.737324  0.822707  0.747744  1
  Li  Li11  1  0.237324  0.177293  0.752256  1
  Li  Li12  1  0.237324  0.177293  0.247744  1
  Li  Li13  1  0.737324  0.822707  0.252256  1
  Ta  Ta14  1  0.011631  0.689452  0.000000  1
  Ta  Ta15  1  0.511631  0.310548  0.500000  1
  P  P16  1  0.683565  0.673969  0.000000  1
  P  P17  1  0.183565  0.326031  0.500000  1
  P  P18  1  0.093551  0.855552  0.773979  1
  P  P19  1  0.593551  0.144448  0.726021  1
  P  P20  1  0.593551  0.144448  0.273979  1
  P  P21  1  0.093551  0.855552  0.226021  1
  P  P22  1  0.635124  0.603146  0.500000  1
  P  P23  1  0.135124  0.396854  0.000000  1
