# generated using pymatgen
data_Hf13Sc5Re6(NiW)2
_symmetry_space_group_name_H-M   'P 1'
_cell_length_a   8.69454348
_cell_length_b   8.66027871
_cell_length_c   8.38506700
_cell_angle_alpha   90.00000000
_cell_angle_beta   90.00000000
_cell_angle_gamma   119.86972337
_symmetry_Int_Tables_number   1
_chemical_formula_structural   Hf13Sc5Re6(NiW)2
_chemical_formula_sum   'Hf13 Sc5 Re6 Ni2 W2'
_cell_volume   547.50040869
_cell_formula_units_Z   1
loop_
 _symmetry_equiv_pos_site_id
 _symmetry_equiv_pos_as_xyz
  1  'x, y, z'
loop_
 _atom_site_type_symbol
 _atom_site_label
 _atom_site_symmetry_multiplicity
 _atom_site_fract_x
 _atom_site_fract_y
 _atom_site_fract_z
 _atom_site_occupancy
  Hf  Hf0  1  0.199026  0.800949  0.442839  1
  Hf  Hf1  1  0.199026  0.398076  0.442839  1
  Hf  Hf2  1  0.602235  0.801117  0.442693  1
  Hf  Hf3  1  0.800850  0.198689  0.557315  1
  Hf  Hf4  1  0.800850  0.602162  0.557315  1
  Hf  Hf5  1  0.397739  0.198870  0.557369  1
  Hf  Hf6  1  0.800850  0.198689  0.942685  1
  Hf  Hf7  1  0.800850  0.602162  0.942685  1
  Hf  Hf8  1  0.397739  0.198870  0.942631  1
  Hf  Hf9  1  0.199026  0.800949  0.057161  1
  Hf  Hf10  1  0.199026  0.398076  0.057161  1
  Hf  Hf11  1  0.602235  0.801117  0.057307  1
  Hf  Hf12  1  0.083460  0.541730  0.750000  1
  Sc  Sc13  1  0.541647  0.458307  0.250000  1
  Sc  Sc14  1  0.541647  0.083341  0.250000  1
  Sc  Sc15  1  0.916674  0.458337  0.250000  1
  Sc  Sc16  1  0.458066  0.541605  0.750000  1
  Sc  Sc17  1  0.458066  0.916460  0.750000  1
  Re  Re18  1  0.889533  0.110890  0.250000  1
  Re  Re19  1  0.889533  0.778641  0.250000  1
  Re  Re20  1  0.221312  0.110655  0.250000  1
  Re  Re21  1  0.110072  0.887781  0.750000  1
  Re  Re22  1  0.110072  0.222293  0.750000  1
  Re  Re23  1  0.779574  0.889788  0.750000  1
  Ni  Ni24  1  0.333442  0.666721  0.250000  1
  Ni  Ni25  1  0.667784  0.333891  0.750000  1
  W  W26  1  0.999833  0.999917  0.499152  1
  W  W27  1  0.999833  0.999917  0.000848  1
