# generated using pymatgen
data_TbEr3Al3ZnPt4
_symmetry_space_group_name_H-M   'P 1'
_cell_length_a   4.42168300
_cell_length_b   6.80148184
_cell_length_c   7.79518188
_cell_angle_alpha   90.09385290
_cell_angle_beta   90.00000000
_cell_angle_gamma   90.00000000
_symmetry_Int_Tables_number   1
_chemical_formula_structural   TbEr3Al3ZnPt4
_chemical_formula_sum   'Tb1 Er3 Al3 Zn1 Pt4'
_cell_volume   234.43195918
_cell_formula_units_Z   1
loop_
 _symmetry_equiv_pos_site_id
 _symmetry_equiv_pos_as_xyz
  1  'x, y, z'
loop_
 _atom_site_type_symbol
 _atom_site_label
 _atom_site_symmetry_multiplicity
 _atom_site_fract_x
 _atom_site_fract_y
 _atom_site_fract_z
 _atom_site_occupancy
  Tb  Tb0  1  0.750000  0.531585  0.820873  1
  Er  Er1  1  0.250000  0.472622  0.182968  1
  Er  Er2  1  0.750000  0.028344  0.682802  1
  Er  Er3  1  0.250000  0.972444  0.313475  1
  Al  Al4  1  0.750000  0.145721  0.063675  1
  Al  Al5  1  0.750000  0.644971  0.438861  1
  Al  Al6  1  0.250000  0.350266  0.562237  1
  Zn  Zn7  1  0.250000  0.849186  0.933637  1
  Pt  Pt8  1  0.250000  0.728085  0.606600  1
  Pt  Pt9  1  0.750000  0.270547  0.384151  1
  Pt  Pt10  1  0.750000  0.770306  0.125939  1
  Pt  Pt11  1  0.250000  0.235924  0.884782  1
