# generated using pymatgen
data_KAlGeS4
_symmetry_space_group_name_H-M   'P 1'
_cell_length_a   16.20481300
_cell_length_b   6.95791360
_cell_length_c   7.30111716
_cell_angle_alpha   69.65070025
_cell_angle_beta   90.00000000
_cell_angle_gamma   90.00000000
_symmetry_Int_Tables_number   1
_chemical_formula_structural   KAlGeS4
_chemical_formula_sum   'K4 Al4 Ge4 S16'
_cell_volume   771.83660518
_cell_formula_units_Z   4
loop_
 _symmetry_equiv_pos_site_id
 _symmetry_equiv_pos_as_xyz
  1  'x, y, z'
loop_
 _atom_site_type_symbol
 _atom_site_label
 _atom_site_symmetry_multiplicity
 _atom_site_fract_x
 _atom_site_fract_y
 _atom_site_fract_z
 _atom_site_occupancy
  K  K0  1  0.394724  0.970665  0.180525  1
  K  K1  1  0.894724  0.029335  0.819475  1
  K  K2  1  0.604674  0.517429  0.816848  1
  K  K3  1  0.104674  0.482571  0.183152  1
  Al  Al4  1  0.582864  0.166789  0.476337  1
  Al  Al5  1  0.082864  0.833211  0.523663  1
  Al  Al6  1  0.273606  0.594416  0.711631  1
  Al  Al7  1  0.773606  0.405584  0.288369  1
  Ge  Ge8  1  0.419865  0.333551  0.530518  1
  Ge  Ge9  1  0.919865  0.666449  0.469482  1
  Ge  Ge10  1  0.724156  0.910880  0.271115  1
  Ge  Ge11  1  0.224156  0.089120  0.728885  1
  S  S12  1  0.594728  0.888956  0.380997  1
  S  S13  1  0.094728  0.111044  0.619003  1
  S  S14  1  0.409161  0.605856  0.622873  1
  S  S15  1  0.909161  0.394144  0.377127  1
  S  S16  1  0.799677  0.780044  0.550076  1
  S  S17  1  0.299677  0.219956  0.449924  1
  S  S18  1  0.200419  0.724589  0.438609  1
  S  S19  1  0.700419  0.275411  0.561391  1
  S  S20  1  0.762999  0.225906  0.080470  1
  S  S21  1  0.262999  0.774094  0.919530  1
  S  S22  1  0.239536  0.274311  0.922323  1
  S  S23  1  0.739536  0.725689  0.077677  1
  S  S24  1  0.997237  0.908238  0.255726  1
  S  S25  1  0.497237  0.091762  0.744274  1
  S  S26  1  0.996352  0.601455  0.740134  1
  S  S27  1  0.496352  0.398545  0.259866  1
