# generated using pymatgen
data_ThAl3CuRh
_symmetry_space_group_name_H-M   'P 1'
_cell_length_a   5.40643800
_cell_length_b   5.40644003
_cell_length_c   4.19268000
_cell_angle_alpha   90.00000000
_cell_angle_beta   90.00000000
_cell_angle_gamma   119.99998756
_symmetry_Int_Tables_number   1
_chemical_formula_structural   ThAl3CuRh
_chemical_formula_sum   'Th1 Al3 Cu1 Rh1'
_cell_volume   106.13167542
_cell_formula_units_Z   1
loop_
 _symmetry_equiv_pos_site_id
 _symmetry_equiv_pos_as_xyz
  1  'x, y, z'
loop_
 _atom_site_type_symbol
 _atom_site_label
 _atom_site_symmetry_multiplicity
 _atom_site_fract_x
 _atom_site_fract_y
 _atom_site_fract_z
 _atom_site_occupancy
  Th  Th0  1  0.000000  0.000000  0.000000  1
  Al  Al1  1  0.499946  0.999892  0.500000  1
  Al  Al2  1  0.499946  0.500054  0.500000  1
  Al  Al3  1  0.000108  0.500054  0.500000  1
  Cu  Cu4  1  0.333333  0.666667  0.000000  1
  Rh  Rh5  1  0.666667  0.333333  0.000000  1
