# generated using pymatgen
data_Ho3PaV3ReB16
_symmetry_space_group_name_H-M   'P 1'
_cell_length_a   3.53910100
_cell_length_b   5.97091843
_cell_length_c   11.54908150
_cell_angle_alpha   90.12893086
_cell_angle_beta   90.00000000
_cell_angle_gamma   90.00000000
_symmetry_Int_Tables_number   1
_chemical_formula_structural   Ho3PaV3ReB16
_chemical_formula_sum   'Ho3 Pa1 V3 Re1 B16'
_cell_volume   244.05091571
_cell_formula_units_Z   1
loop_
 _symmetry_equiv_pos_site_id
 _symmetry_equiv_pos_as_xyz
  1  'x, y, z'
loop_
 _atom_site_type_symbol
 _atom_site_label
 _atom_site_symmetry_multiplicity
 _atom_site_fract_x
 _atom_site_fract_y
 _atom_site_fract_z
 _atom_site_occupancy
  Ho  Ho0  1  0.500000  0.874384  0.348860  1
  Ho  Ho1  1  0.500000  0.625371  0.849544  1
  Ho  Ho2  1  0.500000  0.374986  0.152352  1
  Pa  Pa3  1  0.500000  0.125560  0.648547  1
  V  V4  1  0.500000  0.870487  0.082140  1
  V  V5  1  0.500000  0.626766  0.584084  1
  V  V6  1  0.500000  0.373174  0.418972  1
  Re  Re7  1  0.500000  0.126914  0.915467  1
  B  B8  1  0.000000  0.474767  0.691668  1
  B  B9  1  0.000000  0.523331  0.307175  1
  B  B10  1  0.000000  0.975772  0.808150  1
  B  B11  1  0.000000  0.023519  0.192845  1
  B  B12  1  0.000000  0.284395  0.814604  1
  B  B13  1  0.000000  0.714866  0.185793  1
  B  B14  1  0.000000  0.784747  0.684845  1
  B  B15  1  0.000000  0.216251  0.313922  1
  B  B16  1  0.000000  0.365358  0.968424  1
  B  B17  1  0.000000  0.634678  0.032725  1
  B  B18  1  0.000000  0.864177  0.533090  1
  B  B19  1  0.000000  0.137155  0.466835  1
  B  B20  1  0.000000  0.388672  0.546209  1
  B  B21  1  0.000000  0.614652  0.452602  1
  B  B22  1  0.000000  0.885468  0.953393  1
  B  B23  1  0.000000  0.114552  0.047755  1
