# generated using pymatgen
data_Dy7CoSn23Os5
_symmetry_space_group_name_H-M   'P 1'
_cell_length_a   9.85556999
_cell_length_b   9.89376483
_cell_length_c   10.07876124
_cell_angle_alpha   90.00000032
_cell_angle_beta   89.96633669
_cell_angle_gamma   120.12828235
_symmetry_Int_Tables_number   1
_chemical_formula_structural   Dy7CoSn23Os5
_chemical_formula_sum   'Dy7 Co1 Sn23 Os5'
_cell_volume   849.99852395
_cell_formula_units_Z   1
loop_
 _symmetry_equiv_pos_site_id
 _symmetry_equiv_pos_as_xyz
  1  'x, y, z'
loop_
 _atom_site_type_symbol
 _atom_site_label
 _atom_site_symmetry_multiplicity
 _atom_site_fract_x
 _atom_site_fract_y
 _atom_site_fract_z
 _atom_site_occupancy
  Dy  Dy0  1  0.485547  0.514132  0.302651  1
  Dy  Dy1  1  0.513917  0.484315  0.695619  1
  Dy  Dy2  1  0.485547  0.971416  0.302651  1
  Dy  Dy3  1  0.513917  0.029601  0.695619  1
  Dy  Dy4  1  0.028086  0.514043  0.302262  1
  Dy  Dy5  1  0.968071  0.484035  0.696693  1
  Dy  Dy6  1  0.013637  0.006818  0.007288  1
  Co  Co7  1  0.657607  0.828803  0.798577  1
  Sn  Sn8  1  0.115532  0.882828  0.282263  1
  Sn  Sn9  1  0.878404  0.109529  0.724756  1
  Sn  Sn10  1  0.115532  0.232705  0.282263  1
  Sn  Sn11  1  0.878404  0.768876  0.724756  1
  Sn  Sn12  1  0.761395  0.880697  0.274490  1
  Sn  Sn13  1  0.236923  0.118462  0.723868  1
  Sn  Sn14  1  0.779383  0.221490  0.463804  1
  Sn  Sn15  1  0.220176  0.777095  0.536215  1
  Sn  Sn16  1  0.779383  0.557892  0.463804  1
  Sn  Sn17  1  0.220176  0.443081  0.536215  1
  Sn  Sn18  1  0.443274  0.221637  0.462839  1
  Sn  Sn19  1  0.560883  0.780442  0.541269  1
  Sn  Sn20  1  0.351778  0.998745  0.999799  1
  Sn  Sn21  1  0.653773  0.996760  0.994211  1
  Sn  Sn22  1  0.000620  0.349498  0.000040  1
  Sn  Sn23  1  0.000620  0.651123  0.000040  1
  Sn  Sn24  1  0.653773  0.657013  0.994211  1
  Sn  Sn25  1  0.351778  0.353033  0.999799  1
  Sn  Sn26  1  0.334336  0.667168  0.129217  1
  Sn  Sn27  1  0.665147  0.332573  0.869380  1
  Sn  Sn28  1  0.335088  0.667545  0.823360  1
  Sn  Sn29  1  0.666176  0.333087  0.172668  1
  Sn  Sn30  1  0.997510  0.998756  0.502399  1
  Os  Os31  1  0.828596  0.168574  0.201262  1
  Os  Os32  1  0.169393  0.830190  0.797178  1
  Os  Os33  1  0.828596  0.660023  0.201262  1
  Os  Os34  1  0.169393  0.339202  0.797178  1
  Os  Os35  1  0.337627  0.168814  0.200098  1
