# generated using pymatgen
data_La2SmThTe6
_symmetry_space_group_name_H-M   'P 1'
_cell_length_a   4.48031600
_cell_length_b   11.92423500
_cell_length_c   12.27783700
_cell_angle_alpha   90.00000000
_cell_angle_beta   90.00000000
_cell_angle_gamma   90.00000000
_symmetry_Int_Tables_number   1
_chemical_formula_structural   La2SmThTe6
_chemical_formula_sum   'La4 Sm2 Th2 Te12'
_cell_volume   655.93534889
_cell_formula_units_Z   2
loop_
 _symmetry_equiv_pos_site_id
 _symmetry_equiv_pos_as_xyz
  1  'x, y, z'
loop_
 _atom_site_type_symbol
 _atom_site_label
 _atom_site_symmetry_multiplicity
 _atom_site_fract_x
 _atom_site_fract_y
 _atom_site_fract_z
 _atom_site_occupancy
  La  La0  1  0.750000  0.505541  0.697574  1
  La  La1  1  0.750000  0.994459  0.197574  1
  La  La2  1  0.250000  0.501503  0.304256  1
  La  La3  1  0.250000  0.998497  0.804256  1
  Sm  Sm4  1  0.750000  0.810193  0.514726  1
  Sm  Sm5  1  0.750000  0.689807  0.014726  1
  Th  Th6  1  0.250000  0.188263  0.484985  1
  Th  Th7  1  0.250000  0.311737  0.984985  1
  Te  Te8  1  0.250000  0.627804  0.543403  1
  Te  Te9  1  0.250000  0.872196  0.043403  1
  Te  Te10  1  0.750000  0.373040  0.455101  1
  Te  Te11  1  0.750000  0.126960  0.955101  1
  Te  Te12  1  0.250000  0.296682  0.726815  1
  Te  Te13  1  0.250000  0.203318  0.226815  1
  Te  Te14  1  0.750000  0.704534  0.271597  1
  Te  Te15  1  0.750000  0.795466  0.771597  1
  Te  Te16  1  0.750000  0.055339  0.616932  1
  Te  Te17  1  0.750000  0.444661  0.116932  1
  Te  Te18  1  0.250000  0.943397  0.384610  1
  Te  Te19  1  0.250000  0.556603  0.884610  1
