# generated using pymatgen
data_Lu4AgPt2Au
_symmetry_space_group_name_H-M   'P 1'
_cell_length_a   4.52272900
_cell_length_b   5.51862426
_cell_length_c   6.97140400
_cell_angle_alpha   88.38496091
_cell_angle_beta   90.00000000
_cell_angle_gamma   90.00000000
_symmetry_Int_Tables_number   1
_chemical_formula_structural   Lu4AgPt2Au
_chemical_formula_sum   'Lu4 Ag1 Pt2 Au1'
_cell_volume   173.93183793
_cell_formula_units_Z   1
loop_
 _symmetry_equiv_pos_site_id
 _symmetry_equiv_pos_as_xyz
  1  'x, y, z'
loop_
 _atom_site_type_symbol
 _atom_site_label
 _atom_site_symmetry_multiplicity
 _atom_site_fract_x
 _atom_site_fract_y
 _atom_site_fract_z
 _atom_site_occupancy
  Lu  Lu0  1  0.250000  0.641401  0.197781  1
  Lu  Lu1  1  0.750000  0.364513  0.801323  1
  Lu  Lu2  1  0.750000  0.146095  0.333062  1
  Lu  Lu3  1  0.250000  0.847216  0.670520  1
  Ag  Ag4  1  0.250000  0.156396  0.031739  1
  Pt  Pt5  1  0.750000  0.660010  0.453346  1
  Pt  Pt6  1  0.250000  0.333105  0.546078  1
  Au  Au7  1  0.750000  0.851266  0.966151  1
