# generated using pymatgen
data_Pr8Sc12Ga15Sn
_symmetry_space_group_name_H-M   'P 1'
_cell_length_a   7.47934470
_cell_length_b   7.71752662
_cell_length_c   14.80512573
_cell_angle_alpha   90.03494093
_cell_angle_beta   89.75738652
_cell_angle_gamma   89.97742412
_symmetry_Int_Tables_number   1
_chemical_formula_structural   Pr8Sc12Ga15Sn
_chemical_formula_sum   'Pr8 Sc12 Ga15 Sn1'
_cell_volume   854.57419907
_cell_formula_units_Z   1
loop_
 _symmetry_equiv_pos_site_id
 _symmetry_equiv_pos_as_xyz
  1  'x, y, z'
loop_
 _atom_site_type_symbol
 _atom_site_label
 _atom_site_symmetry_multiplicity
 _atom_site_fract_x
 _atom_site_fract_y
 _atom_site_fract_z
 _atom_site_occupancy
  Pr  Pr0  1  0.007937  0.169504  0.400410  1
  Pr  Pr1  1  0.512617  0.323734  0.401371  1
  Pr  Pr2  1  0.487589  0.673612  0.904854  1
  Pr  Pr3  1  0.497396  0.681025  0.598948  1
  Pr  Pr4  1  0.986779  0.830800  0.597442  1
  Pr  Pr5  1  0.986831  0.825660  0.904835  1
  Pr  Pr6  1  0.512924  0.325301  0.095807  1
  Pr  Pr7  1  0.013430  0.175244  0.095926  1
  Sc  Sc8  1  0.338581  0.163770  0.628400  1
  Sc  Sc9  1  0.666198  0.827258  0.373936  1
  Sc  Sc10  1  0.663409  0.002823  0.752728  1
  Sc  Sc11  1  0.168665  0.680010  0.371825  1
  Sc  Sc12  1  0.830281  0.325613  0.876472  1
  Sc  Sc13  1  0.822070  0.323882  0.625709  1
  Sc  Sc14  1  0.838549  0.502221  0.248785  1
  Sc  Sc15  1  0.338612  0.998686  0.248869  1
  Sc  Sc16  1  0.329338  0.174418  0.875960  1
  Sc  Sc17  1  0.169926  0.674241  0.124114  1
  Sc  Sc18  1  0.669624  0.825292  0.123481  1
  Sc  Sc19  1  0.162244  0.498318  0.753620  1
  Ga  Ga20  1  0.286891  0.878707  0.751841  1
  Ga  Ga21  1  0.467178  0.623461  0.248937  1
  Ga  Ga22  1  0.032880  0.125257  0.750666  1
  Ga  Ga23  1  0.532197  0.377115  0.751836  1
  Ga  Ga24  1  0.965477  0.876002  0.247340  1
  Ga  Ga25  1  0.711571  0.116992  0.248416  1
  Ga  Ga26  1  0.844875  0.537026  0.040638  1
  Ga  Ga27  1  0.345004  0.961784  0.040377  1
  Ga  Ga28  1  0.155145  0.462452  0.960046  1
  Ga  Ga29  1  0.656309  0.040372  0.538387  1
  Ga  Ga30  1  0.343576  0.961267  0.459731  1
  Ga  Ga31  1  0.837257  0.540927  0.457954  1
  Ga  Ga32  1  0.790105  0.617991  0.750807  1
  Ga  Ga33  1  0.211150  0.382504  0.249875  1
  Ga  Ga34  1  0.654321  0.038433  0.959638  1
  Sn  Sn35  1  0.163062  0.458297  0.540015  1
