# generated using pymatgen
data_Sc8Ti9Nb3Si15P
_symmetry_space_group_name_H-M   'P 1'
_cell_length_a   6.69814872
_cell_length_b   6.83177929
_cell_length_c   13.03013600
_cell_angle_alpha   90.00000000
_cell_angle_beta   90.00000000
_cell_angle_gamma   89.98997740
_symmetry_Int_Tables_number   1
_chemical_formula_structural   Sc8Ti9Nb3Si15P
_chemical_formula_sum   'Sc8 Ti9 Nb3 Si15 P1'
_cell_volume   596.26258057
_cell_formula_units_Z   1
loop_
 _symmetry_equiv_pos_site_id
 _symmetry_equiv_pos_as_xyz
  1  'x, y, z'
loop_
 _atom_site_type_symbol
 _atom_site_label
 _atom_site_symmetry_multiplicity
 _atom_site_fract_x
 _atom_site_fract_y
 _atom_site_fract_z
 _atom_site_occupancy
  Sc  Sc0  1  0.500884  0.673204  0.597677  1
  Sc  Sc1  1  0.003362  0.826547  0.904335  1
  Sc  Sc2  1  0.498256  0.325016  0.096423  1
  Sc  Sc3  1  0.997506  0.174731  0.403288  1
  Sc  Sc4  1  0.498256  0.325016  0.403577  1
  Sc  Sc5  1  0.997506  0.174731  0.096712  1
  Sc  Sc6  1  0.500884  0.673204  0.902323  1
  Sc  Sc7  1  0.003362  0.826547  0.595665  1
  Ti  Ti8  1  0.658774  0.177713  0.627258  1
  Ti  Ti9  1  0.168807  0.324902  0.872547  1
  Ti  Ti10  1  0.337514  0.823535  0.125780  1
  Ti  Ti11  1  0.837172  0.675660  0.374597  1
  Ti  Ti12  1  0.337514  0.823535  0.374220  1
  Ti  Ti13  1  0.837172  0.675660  0.125403  1
  Ti  Ti14  1  0.658774  0.177713  0.872742  1
  Ti  Ti15  1  0.168807  0.324902  0.627453  1
  Ti  Ti16  1  0.832418  0.491492  0.750000  1
  Nb  Nb17  1  0.336610  0.007945  0.750000  1
  Nb  Nb18  1  0.164260  0.506859  0.250000  1
  Nb  Nb19  1  0.664140  0.993507  0.250000  1
  Si  Si20  1  0.665761  0.965868  0.461512  1
  Si  Si21  1  0.164861  0.533828  0.038525  1
  Si  Si22  1  0.334369  0.034334  0.961349  1
  Si  Si23  1  0.835200  0.465042  0.540329  1
  Si  Si24  1  0.334369  0.034334  0.538651  1
  Si  Si25  1  0.835200  0.465042  0.959671  1
  Si  Si26  1  0.665761  0.965868  0.038488  1
  Si  Si27  1  0.164861  0.533828  0.461475  1
  Si  Si28  1  0.957706  0.117775  0.750000  1
  Si  Si29  1  0.541652  0.616079  0.250000  1
  Si  Si30  1  0.041072  0.884021  0.250000  1
  Si  Si31  1  0.706428  0.863715  0.750000  1
  Si  Si32  1  0.199040  0.634739  0.750000  1
  Si  Si33  1  0.295485  0.134067  0.250000  1
  Si  Si34  1  0.795264  0.366549  0.250000  1
  P  P35  1  0.460990  0.382499  0.750000  1
