# generated using pymatgen
data_Y4Tm16Cd3Ru2Au3
_symmetry_space_group_name_H-M   'P 1'
_cell_length_a   9.46573640
_cell_length_b   9.46823212
_cell_length_c   9.51240804
_cell_angle_alpha   89.99999996
_cell_angle_beta   90.07953055
_cell_angle_gamma   120.00873905
_symmetry_Int_Tables_number   1
_chemical_formula_structural   Y4Tm16Cd3Ru2Au3
_chemical_formula_sum   'Y4 Tm16 Cd3 Ru2 Au3'
_cell_volume   738.25363953
_cell_formula_units_Z   1
loop_
 _symmetry_equiv_pos_site_id
 _symmetry_equiv_pos_as_xyz
  1  'x, y, z'
loop_
 _atom_site_type_symbol
 _atom_site_label
 _atom_site_symmetry_multiplicity
 _atom_site_fract_x
 _atom_site_fract_y
 _atom_site_fract_z
 _atom_site_occupancy
  Y  Y0  1  0.582534  0.791268  0.059609  1
  Y  Y1  1  0.459221  0.539718  0.748854  1
  Y  Y2  1  0.459221  0.919504  0.748854  1
  Y  Y3  1  0.081455  0.540728  0.749479  1
  Tm  Tm4  1  0.999916  0.999958  0.460464  1
  Tm  Tm5  1  0.001555  0.000778  0.038689  1
  Tm  Tm6  1  0.209034  0.790523  0.440492  1
  Tm  Tm7  1  0.209034  0.418511  0.440492  1
  Tm  Tm8  1  0.580612  0.790307  0.440960  1
  Tm  Tm9  1  0.791534  0.208898  0.556136  1
  Tm  Tm10  1  0.791534  0.582633  0.556136  1
  Tm  Tm11  1  0.417368  0.208683  0.556285  1
  Tm  Tm12  1  0.791769  0.209697  0.943324  1
  Tm  Tm13  1  0.791769  0.582071  0.943324  1
  Tm  Tm14  1  0.417454  0.208726  0.943414  1
  Tm  Tm15  1  0.208783  0.790193  0.060340  1
  Tm  Tm16  1  0.208783  0.418591  0.060340  1
  Tm  Tm17  1  0.539338  0.460054  0.250964  1
  Tm  Tm18  1  0.539338  0.079283  0.250964  1
  Tm  Tm19  1  0.922465  0.461232  0.250396  1
  Cd  Cd20  1  0.109577  0.890639  0.749943  1
  Cd  Cd21  1  0.109577  0.218937  0.749943  1
  Cd  Cd22  1  0.781183  0.890591  0.749249  1
  Ru  Ru23  1  0.330240  0.665120  0.251460  1
  Ru  Ru24  1  0.666408  0.333203  0.749816  1
  Au  Au25  1  0.869883  0.130188  0.249927  1
  Au  Au26  1  0.869883  0.739696  0.249927  1
  Au  Au27  1  0.260530  0.130265  0.250220  1
