# generated using pymatgen
data_Cs8K4Li3Si16Ag
_symmetry_space_group_name_H-M   'P 1'
_cell_length_a   8.03366676
_cell_length_b   10.04877893
_cell_length_c   13.07737097
_cell_angle_alpha   89.28092994
_cell_angle_beta   89.68306648
_cell_angle_gamma   90.55054402
_symmetry_Int_Tables_number   1
_chemical_formula_structural   Cs8K4Li3Si16Ag
_chemical_formula_sum   'Cs8 K4 Li3 Si16 Ag1'
_cell_volume   1055.56834461
_cell_formula_units_Z   1
loop_
 _symmetry_equiv_pos_site_id
 _symmetry_equiv_pos_as_xyz
  1  'x, y, z'
loop_
 _atom_site_type_symbol
 _atom_site_label
 _atom_site_symmetry_multiplicity
 _atom_site_fract_x
 _atom_site_fract_y
 _atom_site_fract_z
 _atom_site_occupancy
  Cs  Cs0  1  0.649820  0.257208  0.398685  1
  Cs  Cs1  1  0.144688  0.246209  0.106089  1
  Cs  Cs2  1  0.353538  0.754223  0.602338  1
  Cs  Cs3  1  0.855102  0.748360  0.896237  1
  Cs  Cs4  1  0.654972  0.441756  0.701395  1
  Cs  Cs5  1  0.159743  0.052382  0.804032  1
  Cs  Cs6  1  0.352177  0.954161  0.302388  1
  Cs  Cs7  1  0.838455  0.550344  0.196233  1
  K  K8  1  0.332764  0.563702  0.312836  1
  K  K9  1  0.841303  0.932160  0.188742  1
  K  K10  1  0.663561  0.054604  0.682665  1
  K  K11  1  0.153603  0.436633  0.814186  1
  Li  Li12  1  0.002896  0.008979  0.499639  1
  Li  Li13  1  0.503620  0.989130  0.000437  1
  Li  Li14  1  0.999864  0.509399  0.501398  1
  Si  Si15  1  0.363828  0.740403  0.906952  1
  Si  Si16  1  0.865858  0.763987  0.589686  1
  Si  Si17  1  0.649602  0.208982  0.093295  1
  Si  Si18  1  0.138897  0.269506  0.411380  1
  Si  Si19  1  0.725622  0.642235  0.454276  1
  Si  Si20  1  0.226519  0.852594  0.046398  1
  Si  Si21  1  0.275892  0.144267  0.547008  1
  Si  Si22  1  0.769048  0.364104  0.969599  1
  Si  Si23  1  0.011465  0.253772  0.582047  1
  Si  Si24  1  0.498145  0.247367  0.934156  1
  Si  Si25  1  0.990516  0.756847  0.418077  1
  Si  Si26  1  0.489261  0.742750  0.081201  1
  Si  Si27  1  0.228548  0.615721  0.054352  1
  Si  Si28  1  0.733688  0.879350  0.445064  1
  Si  Si29  1  0.762612  0.132978  0.927469  1
  Si  Si30  1  0.269245  0.381000  0.557462  1
  Ag  Ag31  1  0.495150  0.504886  0.974279  1
