# generated using pymatgen
data_LiDy2Ga4Ni9B2
_symmetry_space_group_name_H-M   'P 1'
_cell_length_a   5.12808400
_cell_length_b   5.12808485
_cell_length_c   10.62191900
_cell_angle_alpha   90.00000000
_cell_angle_beta   90.00000000
_cell_angle_gamma   119.99999451
_symmetry_Int_Tables_number   1
_chemical_formula_structural   LiDy2Ga4Ni9B2
_chemical_formula_sum   'Li1 Dy2 Ga4 Ni9 B2'
_cell_volume   241.90451489
_cell_formula_units_Z   1
loop_
 _symmetry_equiv_pos_site_id
 _symmetry_equiv_pos_as_xyz
  1  'x, y, z'
loop_
 _atom_site_type_symbol
 _atom_site_label
 _atom_site_symmetry_multiplicity
 _atom_site_fract_x
 _atom_site_fract_y
 _atom_site_fract_z
 _atom_site_occupancy
  Li  Li0  1  0.000000  0.000000  0.320595  1
  Dy  Dy1  1  0.000000  0.000000  0.001688  1
  Dy  Dy2  1  0.000000  0.000000  0.634053  1
  Ga  Ga3  1  0.333333  0.666667  0.319290  1
  Ga  Ga4  1  0.666667  0.333333  0.319290  1
  Ga  Ga5  1  0.666667  0.333333  0.689151  1
  Ga  Ga6  1  0.333333  0.666667  0.689151  1
  Ni  Ni7  1  0.500000  0.000000  0.502187  1
  Ni  Ni8  1  0.500000  0.500000  0.502187  1
  Ni  Ni9  1  0.000000  0.500000  0.502187  1
  Ni  Ni10  1  0.500000  0.000000  0.130863  1
  Ni  Ni11  1  0.500000  0.500000  0.130863  1
  Ni  Ni12  1  0.000000  0.500000  0.130863  1
  Ni  Ni13  1  0.500000  0.000000  0.874237  1
  Ni  Ni14  1  0.500000  0.500000  0.874237  1
  Ni  Ni15  1  0.000000  0.500000  0.874237  1
  B  B16  1  0.333333  0.666667  0.002459  1
  B  B17  1  0.666667  0.333333  0.002459  1
