# generated using pymatgen
data_Sc6Co15Si7Ru
_symmetry_space_group_name_H-M   'P 1'
_cell_length_a   8.07326648
_cell_length_b   8.07326589
_cell_length_c   8.10911152
_cell_angle_alpha   60.14611813
_cell_angle_beta   60.14611598
_cell_angle_gamma   60.00000125
_symmetry_Int_Tables_number   1
_chemical_formula_structural   Sc6Co15Si7Ru
_chemical_formula_sum   'Sc6 Co15 Si7 Ru1'
_cell_volume   374.55229770
_cell_formula_units_Z   1
loop_
 _symmetry_equiv_pos_site_id
 _symmetry_equiv_pos_as_xyz
  1  'x, y, z'
loop_
 _atom_site_type_symbol
 _atom_site_label
 _atom_site_symmetry_multiplicity
 _atom_site_fract_x
 _atom_site_fract_y
 _atom_site_fract_z
 _atom_site_occupancy
  Sc  Sc0  1  0.710621  0.710621  0.286422  1
  Sc  Sc1  1  0.292335  0.710621  0.286422  1
  Sc  Sc2  1  0.710621  0.292335  0.286422  1
  Sc  Sc3  1  0.287043  0.287043  0.714118  1
  Sc  Sc4  1  0.711796  0.287043  0.714118  1
  Sc  Sc5  1  0.287043  0.711796  0.714118  1
  Co  Co6  1  0.879291  0.361845  0.879573  1
  Co  Co7  1  0.361845  0.879291  0.879573  1
  Co  Co8  1  0.879291  0.879291  0.879573  1
  Co  Co9  1  0.120790  0.120790  0.637630  1
  Co  Co10  1  0.122366  0.638382  0.116887  1
  Co  Co11  1  0.638382  0.122366  0.116887  1
  Co  Co12  1  0.122366  0.122366  0.116887  1
  Co  Co13  1  0.673768  0.673768  0.978697  1
  Co  Co14  1  0.670674  0.980033  0.678619  1
  Co  Co15  1  0.980033  0.670674  0.678619  1
  Co  Co16  1  0.670674  0.670674  0.678619  1
  Co  Co17  1  0.326385  0.326385  0.020846  1
  Co  Co18  1  0.326831  0.020437  0.325900  1
  Co  Co19  1  0.020437  0.326831  0.325900  1
  Co  Co20  1  0.326831  0.326831  0.325900  1
  Si  Si21  1  0.003448  0.003448  0.989656  1
  Si  Si22  1  0.000449  0.000449  0.501932  1
  Si  Si23  1  0.497171  0.000449  0.501932  1
  Si  Si24  1  0.000449  0.497171  0.501932  1
  Si  Si25  1  0.498883  0.498883  0.001859  1
  Si  Si26  1  0.000376  0.498883  0.001859  1
  Si  Si27  1  0.498883  0.000376  0.001859  1
  Ru  Ru28  1  0.880920  0.880920  0.357239  1
