# generated using pymatgen
data_TbHo2Zn2Co9B4
_symmetry_space_group_name_H-M   'P 1'
_cell_length_a   5.11966686
_cell_length_b   5.11586700
_cell_length_c   9.73560800
_cell_angle_alpha   89.99995801
_cell_angle_beta   89.99997709
_cell_angle_gamma   119.96674825
_symmetry_Int_Tables_number   1
_chemical_formula_structural   TbHo2Zn2Co9B4
_chemical_formula_sum   'Tb1 Ho2 Zn2 Co9 B4'
_cell_volume   220.90221897
_cell_formula_units_Z   1
loop_
 _symmetry_equiv_pos_site_id
 _symmetry_equiv_pos_as_xyz
  1  'x, y, z'
loop_
 _atom_site_type_symbol
 _atom_site_label
 _atom_site_symmetry_multiplicity
 _atom_site_fract_x
 _atom_site_fract_y
 _atom_site_fract_z
 _atom_site_occupancy
  Tb  Tb0  1  0.999989  0.999998  0.000092  1
  Ho  Ho1  1  0.999995  0.000001  0.342417  1
  Ho  Ho2  1  0.000000  0.000001  0.657486  1
  Zn  Zn3  1  0.333318  0.666637  0.000052  1
  Zn  Zn4  1  0.666660  0.333362  0.000052  1
  Co  Co5  1  0.499998  0.000000  0.499957  1
  Co  Co6  1  0.499996  0.500001  0.499998  1
  Co  Co7  1  0.999997  0.500000  0.499963  1
  Co  Co8  1  0.499994  0.999999  0.211287  1
  Co  Co9  1  0.499995  0.500002  0.211193  1
  Co  Co10  1  0.999992  0.499999  0.211247  1
  Co  Co11  1  0.499999  0.000001  0.788785  1
  Co  Co12  1  0.499997  0.500001  0.788751  1
  Co  Co13  1  0.999996  0.499998  0.788783  1
  B  B14  1  0.333417  0.666580  0.351319  1
  B  B15  1  0.666568  0.333419  0.351319  1
  B  B16  1  0.666568  0.333202  0.648650  1
  B  B17  1  0.333424  0.666798  0.648651  1
