# generated using pymatgen
data_Ta4Ti4Co8Si13P
_symmetry_space_group_name_H-M   'P 1'
_cell_length_a   9.13066264
_cell_length_b   9.13059518
_cell_length_c   9.16089489
_cell_angle_alpha   94.22247942
_cell_angle_beta   94.22515072
_cell_angle_gamma   148.46326118
_symmetry_Int_Tables_number   1
_chemical_formula_structural   Ta4Ti4Co8Si13P
_chemical_formula_sum   'Ta4 Ti4 Co8 Si13 P1'
_cell_volume   384.51292403
_cell_formula_units_Z   1
loop_
 _symmetry_equiv_pos_site_id
 _symmetry_equiv_pos_as_xyz
  1  'x, y, z'
loop_
 _atom_site_type_symbol
 _atom_site_label
 _atom_site_symmetry_multiplicity
 _atom_site_fract_x
 _atom_site_fract_y
 _atom_site_fract_z
 _atom_site_occupancy
  Ta  Ta0  1  0.133249  0.133257  0.266523  1
  Ta  Ta1  1  0.866545  0.866559  0.733160  1
  Ta  Ta2  1  0.866820  0.133402  0.000223  1
  Ta  Ta3  1  0.133405  0.866794  0.000220  1
  Ti  Ti4  1  0.498706  0.691498  0.190184  1
  Ti  Ti5  1  0.497863  0.307938  0.805782  1
  Ti  Ti6  1  0.307941  0.497854  0.805812  1
  Ti  Ti7  1  0.691497  0.498677  0.190173  1
  Co  Co8  1  0.399320  0.899310  0.798698  1
  Co  Co9  1  0.100698  0.600685  0.201341  1
  Co  Co10  1  0.101447  0.905111  0.502196  1
  Co  Co11  1  0.400832  0.597123  0.502183  1
  Co  Co12  1  0.597113  0.400780  0.502193  1
  Co  Co13  1  0.905050  0.101381  0.502184  1
  Co  Co14  1  0.899375  0.399401  0.798732  1
  Co  Co15  1  0.600649  0.100678  0.201322  1
  Si  Si16  1  0.702589  0.702602  0.405431  1
  Si  Si17  1  0.705312  0.293979  0.999305  1
  Si  Si18  1  0.293985  0.705330  0.999300  1
  Si  Si19  1  0.000355  0.297463  0.297781  1
  Si  Si20  1  0.000160  0.703043  0.703359  1
  Si  Si21  1  0.703124  0.000225  0.703362  1
  Si  Si22  1  0.297534  0.000433  0.297796  1
  Si  Si23  1  0.501175  0.904721  0.405909  1
  Si  Si24  1  0.500327  0.093942  0.594098  1
  Si  Si25  1  0.093832  0.500253  0.594081  1
  Si  Si26  1  0.904645  0.501120  0.405904  1
  Si  Si27  1  0.747674  0.747668  0.999580  1
  Si  Si28  1  0.251910  0.251899  0.999564  1
  P  P29  1  0.296864  0.296876  0.593601  1
