# generated using pymatgen
data_HoTm7Re2(RuC4)2
_symmetry_space_group_name_H-M   'P 1'
_cell_length_a   5.03187500
_cell_length_b   6.46925203
_cell_length_c   9.72420155
_cell_angle_alpha   90.06473908
_cell_angle_beta   90.00000000
_cell_angle_gamma   90.00000000
_symmetry_Int_Tables_number   1
_chemical_formula_structural   HoTm7Re2(RuC4)2
_chemical_formula_sum   'Ho1 Tm7 Re2 Ru2 C8'
_cell_volume   316.54655360
_cell_formula_units_Z   1
loop_
 _symmetry_equiv_pos_site_id
 _symmetry_equiv_pos_as_xyz
  1  'x, y, z'
loop_
 _atom_site_type_symbol
 _atom_site_label
 _atom_site_symmetry_multiplicity
 _atom_site_fract_x
 _atom_site_fract_y
 _atom_site_fract_z
 _atom_site_occupancy
  Ho  Ho0  1  0.750000  0.181166  0.942839  1
  Tm  Tm1  1  0.250000  0.466854  0.782869  1
  Tm  Tm2  1  0.750000  0.032937  0.283715  1
  Tm  Tm3  1  0.250000  0.969092  0.716568  1
  Tm  Tm4  1  0.750000  0.531122  0.216961  1
  Tm  Tm5  1  0.250000  0.825411  0.055909  1
  Tm  Tm6  1  0.750000  0.674441  0.555621  1
  Tm  Tm7  1  0.250000  0.320523  0.441854  1
  Re  Re8  1  0.250000  0.781508  0.367567  1
  Re  Re9  1  0.750000  0.718476  0.867183  1
  Ru  Ru10  1  0.250000  0.281155  0.132195  1
  Ru  Ru11  1  0.750000  0.218710  0.631194  1
  C  C12  1  0.250000  0.173970  0.945937  1
  C  C13  1  0.750000  0.822966  0.055067  1
  C  C14  1  0.250000  0.675340  0.554776  1
  C  C15  1  0.750000  0.326221  0.445562  1
  C  C16  1  0.250000  0.046609  0.260328  1
  C  C17  1  0.750000  0.453984  0.759204  1
  C  C18  1  0.250000  0.548263  0.242645  1
  C  C19  1  0.750000  0.951251  0.742007  1
