# generated using pymatgen
data_DyYNi5C3
_symmetry_space_group_name_H-M   'P 1'
_cell_length_a   8.21979742
_cell_length_b   8.21979742
_cell_length_c   3.82335500
_cell_angle_alpha   90.00000000
_cell_angle_beta   90.00000000
_cell_angle_gamma   90.03674827
_symmetry_Int_Tables_number   1
_chemical_formula_structural   DyYNi5C3
_chemical_formula_sum   'Dy2 Y2 Ni10 C6'
_cell_volume   258.32519381
_cell_formula_units_Z   2
loop_
 _symmetry_equiv_pos_site_id
 _symmetry_equiv_pos_as_xyz
  1  'x, y, z'
loop_
 _atom_site_type_symbol
 _atom_site_label
 _atom_site_symmetry_multiplicity
 _atom_site_fract_x
 _atom_site_fract_y
 _atom_site_fract_z
 _atom_site_occupancy
  Dy  Dy0  1  0.343961  0.843961  0.000000  1
  Dy  Dy1  1  0.656039  0.156039  0.000000  1
  Y  Y2  1  0.155690  0.344310  0.000000  1
  Y  Y3  1  0.844310  0.655690  0.000000  1
  Ni  Ni4  1  0.577588  0.712313  0.500000  1
  Ni  Ni5  1  0.422412  0.287687  0.500000  1
  Ni  Ni6  1  0.921689  0.212127  0.500000  1
  Ni  Ni7  1  0.078311  0.787873  0.500000  1
  Ni  Ni8  1  0.712127  0.421689  0.500000  1
  Ni  Ni9  1  0.287873  0.578311  0.500000  1
  Ni  Ni10  1  0.212313  0.077588  0.500000  1
  Ni  Ni11  1  0.787687  0.922412  0.500000  1
  Ni  Ni12  1  0.500000  0.500000  0.000000  1
  Ni  Ni13  1  0.000000  0.000000  0.000000  1
  C  C14  1  0.500000  0.500000  0.500000  1
  C  C15  1  0.000000  0.000000  0.500000  1
  C  C16  1  0.058926  0.558926  0.500000  1
  C  C17  1  0.941074  0.441074  0.500000  1
  C  C18  1  0.441174  0.058826  0.500000  1
  C  C19  1  0.558826  0.941174  0.500000  1
