# generated using pymatgen
data_SmY4Ho15Pb16
_symmetry_space_group_name_H-M   'P 1'
_cell_length_a   8.19579242
_cell_length_b   8.27001229
_cell_length_c   15.61089817
_cell_angle_alpha   90.02738036
_cell_angle_beta   89.66301138
_cell_angle_gamma   89.86312340
_symmetry_Int_Tables_number   1
_chemical_formula_structural   SmY4Ho15Pb16
_chemical_formula_sum   'Sm1 Y4 Ho15 Pb16'
_cell_volume   1058.07436414
_cell_formula_units_Z   1
loop_
 _symmetry_equiv_pos_site_id
 _symmetry_equiv_pos_as_xyz
  1  'x, y, z'
loop_
 _atom_site_type_symbol
 _atom_site_label
 _atom_site_symmetry_multiplicity
 _atom_site_fract_x
 _atom_site_fract_y
 _atom_site_fract_z
 _atom_site_occupancy
  Sm  Sm0  1  0.969835  0.822445  0.597843  1
  Y  Y1  1  0.033058  0.177300  0.400858  1
  Y  Y2  1  0.531811  0.323872  0.401646  1
  Y  Y3  1  0.034844  0.175733  0.099573  1
  Y  Y4  1  0.465521  0.675081  0.901088  1
  Ho  Ho5  1  0.626972  0.158158  0.621850  1
  Ho  Ho6  1  0.125279  0.341920  0.879454  1
  Ho  Ho7  1  0.375810  0.842454  0.121410  1
  Ho  Ho8  1  0.873059  0.657905  0.378052  1
  Ho  Ho9  1  0.374685  0.842366  0.377935  1
  Ho  Ho10  1  0.876667  0.657892  0.120725  1
  Ho  Ho11  1  0.622609  0.157769  0.878825  1
  Ho  Ho12  1  0.125612  0.342384  0.621536  1
  Ho  Ho13  1  0.465720  0.675554  0.599505  1
  Ho  Ho14  1  0.962488  0.824437  0.899243  1
  Ho  Ho15  1  0.536574  0.324595  0.100244  1
  Ho  Ho16  1  0.792586  0.495644  0.750663  1
  Ho  Ho17  1  0.292690  0.004619  0.750330  1
  Ho  Ho18  1  0.207418  0.504350  0.250114  1
  Ho  Ho19  1  0.707279  0.995620  0.249234  1
  Pb  Pb20  1  0.714006  0.966021  0.456134  1
  Pb  Pb21  1  0.219238  0.533062  0.043720  1
  Pb  Pb22  1  0.280473  0.031592  0.956911  1
  Pb  Pb23  1  0.782291  0.464440  0.542702  1
  Pb  Pb24  1  0.287877  0.038064  0.542187  1
  Pb  Pb25  1  0.783375  0.463763  0.957806  1
  Pb  Pb26  1  0.716710  0.965281  0.042321  1
  Pb  Pb27  1  0.215289  0.538388  0.457865  1
  Pb  Pb28  1  0.430068  0.373934  0.749838  1
  Pb  Pb29  1  0.930433  0.126929  0.750490  1
  Pb  Pb30  1  0.570193  0.625272  0.249473  1
  Pb  Pb31  1  0.070026  0.873852  0.249812  1
  Pb  Pb32  1  0.652537  0.845477  0.749539  1
  Pb  Pb33  1  0.154668  0.652860  0.751217  1
  Pb  Pb34  1  0.346660  0.154523  0.249813  1
  Pb  Pb35  1  0.845640  0.346442  0.250042  1
