# generated using pymatgen
data_NdErAg2(Ir2O7)2
_symmetry_space_group_name_H-M   'P 1'
_cell_length_a   7.40160916
_cell_length_b   7.25446230
_cell_length_c   7.25446114
_cell_angle_alpha   59.34369334
_cell_angle_beta   59.34625996
_cell_angle_gamma   59.34626026
_symmetry_Int_Tables_number   1
_chemical_formula_structural   NdErAg2(Ir2O7)2
_chemical_formula_sum   'Nd1 Er1 Ag2 Ir4 O14'
_cell_volume   271.33220950
_cell_formula_units_Z   1
loop_
 _symmetry_equiv_pos_site_id
 _symmetry_equiv_pos_as_xyz
  1  'x, y, z'
loop_
 _atom_site_type_symbol
 _atom_site_label
 _atom_site_symmetry_multiplicity
 _atom_site_fract_x
 _atom_site_fract_y
 _atom_site_fract_z
 _atom_site_occupancy
  Nd  Nd0  1  0.125000  0.125000  0.125000  1
  Er  Er1  1  0.625000  0.125000  0.125000  1
  Ag  Ag2  1  0.125000  0.625000  0.125000  1
  Ag  Ag3  1  0.125000  0.125000  0.625000  1
  Ir  Ir4  1  0.125000  0.625000  0.625000  1
  Ir  Ir5  1  0.625000  0.125000  0.625000  1
  Ir  Ir6  1  0.625000  0.625000  0.125000  1
  Ir  Ir7  1  0.625000  0.625000  0.625000  1
  O  O8  1  0.688033  0.717376  0.295483  1
  O  O9  1  0.300986  0.294859  0.703195  1
  O  O10  1  0.688033  0.295483  0.717376  1
  O  O11  1  0.300986  0.703195  0.294859  1
  O  O12  1  0.309823  0.692063  0.692063  1
  O  O13  1  0.704424  0.288108  0.288108  1
  O  O14  1  0.561967  0.532624  0.954517  1
  O  O15  1  0.949014  0.955141  0.546805  1
  O  O16  1  0.561967  0.954517  0.532624  1
  O  O17  1  0.949014  0.546805  0.955141  1
  O  O18  1  0.940177  0.557937  0.557937  1
  O  O19  1  0.545576  0.961892  0.961892  1
  O  O20  1  0.252701  0.257813  0.257813  1
  O  O21  1  0.997299  0.992187  0.992187  1
