# generated using pymatgen
data_CeHo(CoI)2
_symmetry_space_group_name_H-M   'P 1'
_cell_length_a   4.01727500
_cell_length_b   4.01727457
_cell_length_c   12.24035400
_cell_angle_alpha   90.00000000
_cell_angle_beta   90.00000000
_cell_angle_gamma   119.99999528
_symmetry_Int_Tables_number   1
_chemical_formula_structural   CeHo(CoI)2
_chemical_formula_sum   'Ce1 Ho1 Co2 I2'
_cell_volume   171.07545689
_cell_formula_units_Z   1
loop_
 _symmetry_equiv_pos_site_id
 _symmetry_equiv_pos_as_xyz
  1  'x, y, z'
loop_
 _atom_site_type_symbol
 _atom_site_label
 _atom_site_symmetry_multiplicity
 _atom_site_fract_x
 _atom_site_fract_y
 _atom_site_fract_z
 _atom_site_occupancy
  Ce  Ce0  1  0.000000  0.000000  0.144299  1
  Ho  Ho1  1  0.000000  0.000000  0.849769  1
  Co  Co2  1  0.666667  0.333332  0.003594  1
  Co  Co3  1  0.333333  0.666667  0.996479  1
  I  I4  1  0.333333  0.666667  0.330560  1
  I  I5  1  0.666667  0.333332  0.675301  1
