# generated using pymatgen
data_Sc6Al12VMo3Os7
_symmetry_space_group_name_H-M   'P 1'
_cell_length_a   8.79144879
_cell_length_b   8.79144984
_cell_length_c   8.79145015
_cell_angle_alpha   59.93474978
_cell_angle_beta   59.93474619
_cell_angle_gamma   59.93474909
_symmetry_Int_Tables_number   1
_chemical_formula_structural   Sc6Al12VMo3Os7
_chemical_formula_sum   'Sc6 Al12 V1 Mo3 Os7'
_cell_volume   479.75911072
_cell_formula_units_Z   1
loop_
 _symmetry_equiv_pos_site_id
 _symmetry_equiv_pos_as_xyz
  1  'x, y, z'
loop_
 _atom_site_type_symbol
 _atom_site_label
 _atom_site_symmetry_multiplicity
 _atom_site_fract_x
 _atom_site_fract_y
 _atom_site_fract_z
 _atom_site_occupancy
  Sc  Sc0  1  0.709013  0.709013  0.289498  1
  Sc  Sc1  1  0.291204  0.708213  0.291204  1
  Sc  Sc2  1  0.708213  0.291204  0.291204  1
  Sc  Sc3  1  0.291204  0.291204  0.708213  1
  Sc  Sc4  1  0.709013  0.289498  0.709013  1
  Sc  Sc5  1  0.289498  0.709013  0.709013  1
  Al  Al6  1  0.119701  0.119701  0.637804  1
  Al  Al7  1  0.119701  0.637804  0.119701  1
  Al  Al8  1  0.637804  0.119701  0.119701  1
  Al  Al9  1  0.121293  0.121293  0.121293  1
  Al  Al10  1  0.663277  0.663277  0.014044  1
  Al  Al11  1  0.663277  0.014044  0.663277  1
  Al  Al12  1  0.014044  0.663277  0.663277  1
  Al  Al13  1  0.658436  0.658436  0.658436  1
  Al  Al14  1  0.335516  0.335516  0.995204  1
  Al  Al15  1  0.335516  0.995204  0.335516  1
  Al  Al16  1  0.995204  0.335516  0.335516  1
  Al  Al17  1  0.335219  0.335219  0.335219  1
  V  V18  1  0.879998  0.879998  0.879998  1
  Mo  Mo19  1  0.879121  0.879121  0.362002  1
  Mo  Mo20  1  0.879121  0.362002  0.879121  1
  Mo  Mo21  1  0.362002  0.879121  0.879121  1
  Os  Os22  1  0.000056  0.000056  0.000056  1
  Os  Os23  1  0.997625  0.997625  0.503469  1
  Os  Os24  1  0.503319  0.997213  0.503319  1
  Os  Os25  1  0.997213  0.503319  0.503319  1
  Os  Os26  1  0.503319  0.503319  0.997213  1
  Os  Os27  1  0.997625  0.503469  0.997625  1
  Os  Os28  1  0.503469  0.997625  0.997625  1
