# generated using pymatgen
data_Lu10Al3CoTe4
_symmetry_space_group_name_H-M   'P 1'
_cell_length_a   8.51094095
_cell_length_b   8.51094141
_cell_length_c   7.76960285
_cell_angle_alpha   90.49641642
_cell_angle_beta   90.49641623
_cell_angle_gamma   125.69830974
_symmetry_Int_Tables_number   1
_chemical_formula_structural   Lu10Al3CoTe4
_chemical_formula_sum   'Lu10 Al3 Co1 Te4'
_cell_volume   456.96781816
_cell_formula_units_Z   1
loop_
 _symmetry_equiv_pos_site_id
 _symmetry_equiv_pos_as_xyz
  1  'x, y, z'
loop_
 _atom_site_type_symbol
 _atom_site_label
 _atom_site_symmetry_multiplicity
 _atom_site_fract_x
 _atom_site_fract_y
 _atom_site_fract_z
 _atom_site_occupancy
  Lu  Lu0  1  0.997518  0.997518  0.004837  1
  Lu  Lu1  1  0.505665  0.505665  0.496559  1
  Lu  Lu2  1  0.815701  0.571311  0.189581  1
  Lu  Lu3  1  0.462827  0.205778  0.832133  1
  Lu  Lu4  1  0.954193  0.711515  0.647725  1
  Lu  Lu5  1  0.265051  0.025005  0.336689  1
  Lu  Lu6  1  0.205778  0.462827  0.832133  1
  Lu  Lu7  1  0.571311  0.815701  0.189581  1
  Lu  Lu8  1  0.025005  0.265051  0.336689  1
  Lu  Lu9  1  0.711515  0.954193  0.647725  1
  Al  Al10  1  0.126678  0.126678  0.628842  1
  Al  Al11  1  0.624721  0.624721  0.877643  1
  Al  Al12  1  0.374370  0.374370  0.121644  1
  Co  Co13  1  0.873293  0.873293  0.380740  1
  Te  Te14  1  0.217310  0.799456  0.993932  1
  Te  Te15  1  0.690338  0.279271  0.494808  1
  Te  Te16  1  0.799456  0.217310  0.993932  1
  Te  Te17  1  0.279271  0.690338  0.494808  1
