# generated using pymatgen
data_Lu(GaNi)6
_symmetry_space_group_name_H-M   'P 1'
_cell_length_a   4.99973665
_cell_length_b   6.48848709
_cell_length_c   6.48848626
_cell_angle_alpha   79.03529128
_cell_angle_beta   67.33902265
_cell_angle_gamma   67.33903052
_symmetry_Int_Tables_number   1
_chemical_formula_structural   Lu(GaNi)6
_chemical_formula_sum   'Lu1 Ga6 Ni6'
_cell_volume   179.03042755
_cell_formula_units_Z   1
loop_
 _symmetry_equiv_pos_site_id
 _symmetry_equiv_pos_as_xyz
  1  'x, y, z'
loop_
 _atom_site_type_symbol
 _atom_site_label
 _atom_site_symmetry_multiplicity
 _atom_site_fract_x
 _atom_site_fract_y
 _atom_site_fract_z
 _atom_site_occupancy
  Lu  Lu0  1  0.000000  0.000000  0.000000  1
  Ga  Ga1  1  0.000000  0.659639  0.340361  1
  Ga  Ga2  1  0.000000  0.340361  0.659639  1
  Ga  Ga3  1  0.343700  0.656300  0.656300  1
  Ga  Ga4  1  0.656300  0.343700  0.343700  1
  Ga  Ga5  1  0.317597  0.182403  0.182403  1
  Ga  Ga6  1  0.682403  0.817597  0.817597  1
  Ni  Ni7  1  0.500000  0.237834  0.762166  1
  Ni  Ni8  1  0.500000  0.762166  0.237834  1
  Ni  Ni9  1  0.000000  0.500000  0.000000  1
  Ni  Ni10  1  0.500000  0.500000  0.000000  1
  Ni  Ni11  1  0.000000  0.000000  0.500000  1
  Ni  Ni12  1  0.500000  0.000000  0.500000  1
