# generated using pymatgen
data_Tb2TmCo9(SiB2)2
_symmetry_space_group_name_H-M   'P 1'
_cell_length_a   5.10842000
_cell_length_b   5.11028694
_cell_length_c   9.33515600
_cell_angle_alpha   89.99985445
_cell_angle_beta   90.00017248
_cell_angle_gamma   119.97046171
_symmetry_Int_Tables_number   1
_chemical_formula_structural   Tb2TmCo9(SiB2)2
_chemical_formula_sum   'Tb2 Tm1 Co9 Si2 B4'
_cell_volume   211.11217673
_cell_formula_units_Z   1
loop_
 _symmetry_equiv_pos_site_id
 _symmetry_equiv_pos_as_xyz
  1  'x, y, z'
loop_
 _atom_site_type_symbol
 _atom_site_label
 _atom_site_symmetry_multiplicity
 _atom_site_fract_x
 _atom_site_fract_y
 _atom_site_fract_z
 _atom_site_occupancy
  Tb  Tb0  1  0.999990  0.999999  0.000416  1
  Tb  Tb1  1  0.999998  0.000001  0.661013  1
  Tm  Tm2  1  0.000000  0.000003  0.338248  1
  Co  Co3  1  0.499995  0.999999  0.499148  1
  Co  Co4  1  0.499995  0.499998  0.499156  1
  Co  Co5  1  0.999995  0.500000  0.499142  1
  Co  Co6  1  0.499993  0.000001  0.197203  1
  Co  Co7  1  0.499992  0.500001  0.197192  1
  Co  Co8  1  0.999992  0.499999  0.197197  1
  Co  Co9  1  0.499998  0.000002  0.803801  1
  Co  Co10  1  0.499995  0.499999  0.803801  1
  Co  Co11  1  0.999994  0.499999  0.803813  1
  Si  Si12  1  0.333329  0.666735  0.000047  1
  Si  Si13  1  0.666654  0.333264  0.000047  1
  B  B14  1  0.333349  0.666596  0.345493  1
  B  B15  1  0.666636  0.333403  0.345494  1
  B  B16  1  0.666697  0.333373  0.654396  1
  B  B17  1  0.333298  0.666627  0.654395  1
