# generated using pymatgen
data_Ba4Ru2O9
_symmetry_space_group_name_H-M   'P 1'
_cell_length_a   6.04362600
_cell_length_b   6.04362531
_cell_length_c   16.74418300
_cell_angle_alpha   90.00000000
_cell_angle_beta   90.00000000
_cell_angle_gamma   119.99998191
_symmetry_Int_Tables_number   1
_chemical_formula_structural   Ba4Ru2O9
_chemical_formula_sum   'Ba8 Ru4 O18'
_cell_volume   529.65098539
_cell_formula_units_Z   2
loop_
 _symmetry_equiv_pos_site_id
 _symmetry_equiv_pos_as_xyz
  1  'x, y, z'
loop_
 _atom_site_type_symbol
 _atom_site_label
 _atom_site_symmetry_multiplicity
 _atom_site_fract_x
 _atom_site_fract_y
 _atom_site_fract_z
 _atom_site_occupancy
  Ba  Ba0  1  0.000000  0.000000  0.750000  1
  Ba  Ba1  1  0.000000  0.000000  0.250000  1
  Ba  Ba2  1  0.666667  0.333333  0.631623  1
  Ba  Ba3  1  0.333333  0.666667  0.131623  1
  Ba  Ba4  1  0.333333  0.666667  0.368377  1
  Ba  Ba5  1  0.666667  0.333333  0.868377  1
  Ba  Ba6  1  0.000000  0.000000  0.500000  1
  Ba  Ba7  1  0.000000  0.000000  0.000000  1
  Ru  Ru8  1  0.666667  0.333333  0.334476  1
  Ru  Ru9  1  0.333333  0.666667  0.834476  1
  Ru  Ru10  1  0.333333  0.666667  0.665524  1
  Ru  Ru11  1  0.666667  0.333333  0.165524  1
  O  O12  1  0.522955  0.964984  0.750000  1
  O  O13  1  0.035016  0.557971  0.750000  1
  O  O14  1  0.442029  0.477045  0.750000  1
  O  O15  1  0.477045  0.035016  0.250000  1
  O  O16  1  0.964984  0.442029  0.250000  1
  O  O17  1  0.557971  0.522955  0.250000  1
  O  O18  1  0.128564  0.356915  0.608740  1
  O  O19  1  0.643085  0.771650  0.608740  1
  O  O20  1  0.228350  0.871436  0.608740  1
  O  O21  1  0.871436  0.643085  0.108740  1
  O  O22  1  0.356915  0.228350  0.108740  1
  O  O23  1  0.771650  0.128564  0.108740  1
  O  O24  1  0.871436  0.643085  0.391260  1
  O  O25  1  0.356915  0.228350  0.391260  1
  O  O26  1  0.771650  0.128564  0.391260  1
  O  O27  1  0.128564  0.356915  0.891260  1
  O  O28  1  0.643085  0.771650  0.891260  1
  O  O29  1  0.228350  0.871436  0.891260  1
