# generated using pymatgen
data_Tm12InGa5
_symmetry_space_group_name_H-M   'P 1'
_cell_length_a   8.47832650
_cell_length_b   8.47832694
_cell_length_c   8.47832600
_cell_angle_alpha   111.92864628
_cell_angle_beta   112.51937008
_cell_angle_gamma   104.09630801
_symmetry_Int_Tables_number   1
_chemical_formula_structural   Tm12InGa5
_chemical_formula_sum   'Tm12 In1 Ga5'
_cell_volume   466.07539860
_cell_formula_units_Z   1
loop_
 _symmetry_equiv_pos_site_id
 _symmetry_equiv_pos_as_xyz
  1  'x, y, z'
loop_
 _atom_site_type_symbol
 _atom_site_label
 _atom_site_symmetry_multiplicity
 _atom_site_fract_x
 _atom_site_fract_y
 _atom_site_fract_z
 _atom_site_occupancy
  Tm  Tm0  1  0.432861  0.235860  0.197001  1
  Tm  Tm1  1  0.567139  0.764140  0.802999  1
  Tm  Tm2  1  0.038859  0.235860  0.802999  1
  Tm  Tm3  1  0.961141  0.764140  0.197001  1
  Tm  Tm4  1  0.180605  0.273801  0.454406  1
  Tm  Tm5  1  0.819395  0.726199  0.545594  1
  Tm  Tm6  1  0.180605  0.726199  0.906804  1
  Tm  Tm7  1  0.819395  0.273801  0.093196  1
  Tm  Tm8  1  0.319480  0.615946  0.296465  1
  Tm  Tm9  1  0.680520  0.384054  0.703535  1
  Tm  Tm10  1  0.319480  0.023016  0.703535  1
  Tm  Tm11  1  0.680520  0.976984  0.296465  1
  In  In12  1  0.500000  0.500000  0.000000  1
  Ga  Ga13  1  0.000000  0.000000  0.000000  1
  Ga  Ga14  1  0.353132  0.000000  0.353132  1
  Ga  Ga15  1  0.646868  0.000000  0.646868  1
  Ga  Ga16  1  0.121385  0.621385  0.500000  1
  Ga  Ga17  1  0.878615  0.378615  0.500000  1
