# generated using pymatgen
data_LiPr8Al2Si12Pd
_symmetry_space_group_name_H-M   'P 1'
_cell_length_a   8.29573000
_cell_length_b   8.29573057
_cell_length_c   8.58795700
_cell_angle_alpha   90.00000000
_cell_angle_beta   90.00000000
_cell_angle_gamma   120.00000572
_symmetry_Int_Tables_number   1
_chemical_formula_structural   LiPr8Al2Si12Pd
_chemical_formula_sum   'Li1 Pr8 Al2 Si12 Pd1'
_cell_volume   511.83468739
_cell_formula_units_Z   1
loop_
 _symmetry_equiv_pos_site_id
 _symmetry_equiv_pos_as_xyz
  1  'x, y, z'
loop_
 _atom_site_type_symbol
 _atom_site_label
 _atom_site_symmetry_multiplicity
 _atom_site_fract_x
 _atom_site_fract_y
 _atom_site_fract_z
 _atom_site_occupancy
  Li  Li0  1  0.666667  0.333333  0.997603  1
  Pr  Pr1  1  0.498680  0.501320  0.750793  1
  Pr  Pr2  1  0.499222  0.500778  0.249264  1
  Pr  Pr3  1  0.002639  0.501320  0.750793  1
  Pr  Pr4  1  0.001555  0.500778  0.249264  1
  Pr  Pr5  1  0.498680  0.997361  0.750793  1
  Pr  Pr6  1  0.499222  0.998445  0.249264  1
  Pr  Pr7  1  0.000000  0.000000  0.750316  1
  Pr  Pr8  1  0.000000  0.000000  0.249763  1
  Al  Al9  1  0.333333  0.666667  0.001650  1
  Al  Al10  1  0.333333  0.666667  0.499315  1
  Si  Si11  1  0.831924  0.168076  0.000527  1
  Si  Si12  1  0.163364  0.836636  0.999571  1
  Si  Si13  1  0.336152  0.168076  0.000527  1
  Si  Si14  1  0.162424  0.837576  0.499725  1
  Si  Si15  1  0.673273  0.836636  0.999571  1
  Si  Si16  1  0.832083  0.167917  0.500443  1
  Si  Si17  1  0.831924  0.663848  0.000527  1
  Si  Si18  1  0.675153  0.837576  0.499725  1
  Si  Si19  1  0.163364  0.326727  0.999571  1
  Si  Si20  1  0.335835  0.167917  0.500443  1
  Si  Si21  1  0.162424  0.324847  0.499725  1
  Si  Si22  1  0.832083  0.664165  0.500443  1
  Pd  Pd23  1  0.666667  0.333333  0.500387  1
