# generated using pymatgen
data_Tb4Ho3Lu13Sb12
_symmetry_space_group_name_H-M   'P 1'
_cell_length_a   7.96912600
_cell_length_b   9.14756900
_cell_length_c   11.61147000
_cell_angle_alpha   90.00000000
_cell_angle_beta   90.02870855
_cell_angle_gamma   90.00000000
_symmetry_Int_Tables_number   1
_chemical_formula_structural   Tb4Ho3Lu13Sb12
_chemical_formula_sum   'Tb4 Ho3 Lu13 Sb12'
_cell_volume   846.45434281
_cell_formula_units_Z   1
loop_
 _symmetry_equiv_pos_site_id
 _symmetry_equiv_pos_as_xyz
  1  'x, y, z'
loop_
 _atom_site_type_symbol
 _atom_site_label
 _atom_site_symmetry_multiplicity
 _atom_site_fract_x
 _atom_site_fract_y
 _atom_site_fract_z
 _atom_site_occupancy
  Tb  Tb0  1  0.314891  0.250000  0.219750  1
  Tb  Tb1  1  0.815532  0.250000  0.280790  1
  Tb  Tb2  1  0.685171  0.750000  0.780406  1
  Tb  Tb3  1  0.185028  0.750000  0.719471  1
  Ho  Ho4  1  0.352078  0.750000  0.215919  1
  Ho  Ho5  1  0.852262  0.750000  0.283957  1
  Ho  Ho6  1  0.647385  0.250000  0.784057  1
  Lu  Lu7  1  0.147762  0.250000  0.716906  1
  Lu  Lu8  1  0.691927  0.562913  0.059581  1
  Lu  Lu9  1  0.191865  0.936898  0.440243  1
  Lu  Lu10  1  0.308068  0.063204  0.939807  1
  Lu  Lu11  1  0.808098  0.437059  0.559862  1
  Lu  Lu12  1  0.308068  0.436796  0.939807  1
  Lu  Lu13  1  0.808098  0.062941  0.559862  1
  Lu  Lu14  1  0.691927  0.937087  0.059581  1
  Lu  Lu15  1  0.191865  0.563102  0.440243  1
  Lu  Lu16  1  0.474801  0.250000  0.488999  1
  Lu  Lu17  1  0.974816  0.250000  0.010383  1
  Lu  Lu18  1  0.525333  0.750000  0.510988  1
  Lu  Lu19  1  0.025423  0.750000  0.988708  1
  Sb  Sb20  1  0.406729  0.750000  0.959444  1
  Sb  Sb21  1  0.906663  0.750000  0.540451  1
  Sb  Sb22  1  0.593252  0.250000  0.040790  1
  Sb  Sb23  1  0.093666  0.250000  0.461771  1
  Sb  Sb24  1  0.565602  0.994871  0.328501  1
  Sb  Sb25  1  0.065504  0.505083  0.171508  1
  Sb  Sb26  1  0.433196  0.494280  0.671428  1
  Sb  Sb27  1  0.935343  0.006040  0.827676  1
  Sb  Sb28  1  0.433196  0.005720  0.671428  1
  Sb  Sb29  1  0.935343  0.493960  0.827676  1
  Sb  Sb30  1  0.565602  0.505129  0.328501  1
  Sb  Sb31  1  0.065504  0.994917  0.171508  1
