# generated using pymatgen
data_Ac3Yb(ZnRh)4
_symmetry_space_group_name_H-M   'P 1'
_cell_length_a   4.25410900
_cell_length_b   7.27552009
_cell_length_c   8.42245667
_cell_angle_alpha   89.24255369
_cell_angle_beta   90.00000000
_cell_angle_gamma   90.00000000
_symmetry_Int_Tables_number   1
_chemical_formula_structural   Ac3Yb(ZnRh)4
_chemical_formula_sum   'Ac3 Yb1 Zn4 Rh4'
_cell_volume   260.65946028
_cell_formula_units_Z   1
loop_
 _symmetry_equiv_pos_site_id
 _symmetry_equiv_pos_as_xyz
  1  'x, y, z'
loop_
 _atom_site_type_symbol
 _atom_site_label
 _atom_site_symmetry_multiplicity
 _atom_site_fract_x
 _atom_site_fract_y
 _atom_site_fract_z
 _atom_site_occupancy
  Ac  Ac0  1  0.250000  0.530003  0.191868  1
  Ac  Ac1  1  0.750000  0.468356  0.811880  1
  Ac  Ac2  1  0.750000  0.971663  0.678891  1
  Yb  Yb3  1  0.250000  0.029950  0.310051  1
  Zn  Zn4  1  0.250000  0.646353  0.555376  1
  Zn  Zn5  1  0.750000  0.348066  0.434117  1
  Zn  Zn6  1  0.750000  0.871007  0.070155  1
  Zn  Zn7  1  0.250000  0.132362  0.951287  1
  Rh  Rh8  1  0.250000  0.770390  0.879592  1
  Rh  Rh9  1  0.750000  0.227177  0.126534  1
  Rh  Rh10  1  0.750000  0.733524  0.376305  1
  Rh  Rh11  1  0.250000  0.271147  0.613944  1
