# generated using pymatgen
data_Pr3NdTc4F28
_symmetry_space_group_name_H-M   'P 1'
_cell_length_a   5.74378428
_cell_length_b   9.23987996
_cell_length_c   12.40762468
_cell_angle_alpha   62.10975838
_cell_angle_beta   90.01427952
_cell_angle_gamma   90.03561649
_symmetry_Int_Tables_number   1
_chemical_formula_structural   Pr3NdTc4F28
_chemical_formula_sum   'Pr3 Nd1 Tc4 F28'
_cell_volume   582.00843164
_cell_formula_units_Z   1
loop_
 _symmetry_equiv_pos_site_id
 _symmetry_equiv_pos_as_xyz
  1  'x, y, z'
loop_
 _atom_site_type_symbol
 _atom_site_label
 _atom_site_symmetry_multiplicity
 _atom_site_fract_x
 _atom_site_fract_y
 _atom_site_fract_z
 _atom_site_occupancy
  Pr  Pr0  1  0.259030  0.188441  0.735567  1
  Pr  Pr1  1  0.241079  0.189187  0.235354  1
  Pr  Pr2  1  0.740677  0.810809  0.264426  1
  Nd  Nd3  1  0.759128  0.810596  0.764423  1
  Tc  Tc4  1  0.756215  0.274774  0.957104  1
  Tc  Tc5  1  0.256641  0.726516  0.543375  1
  Tc  Tc6  1  0.243919  0.726408  0.041448  1
  Tc  Tc7  1  0.744069  0.272736  0.458058  1
  F  F8  1  0.442086  0.709773  0.918937  1
  F  F9  1  0.940335  0.290282  0.580848  1
  F  F10  1  0.559438  0.290774  0.080397  1
  F  F11  1  0.058751  0.709773  0.420707  1
  F  F12  1  0.458698  0.281834  0.543156  1
  F  F13  1  0.958986  0.718543  0.955332  1
  F  F14  1  0.540572  0.717957  0.457148  1
  F  F15  1  0.041422  0.282707  0.042805  1
  F  F16  1  0.766185  0.514825  0.861512  1
  F  F17  1  0.266874  0.486564  0.638763  1
  F  F18  1  0.232942  0.486463  0.137174  1
  F  F19  1  0.733885  0.512903  0.362359  1
  F  F20  1  0.759357  0.035344  0.050931  1
  F  F21  1  0.259530  0.965918  0.449004  1
  F  F22  1  0.241346  0.965940  0.948656  1
  F  F23  1  0.741094  0.033354  0.552020  1
  F  F24  1  0.979937  0.730592  0.635122  1
  F  F25  1  0.478868  0.270130  0.866112  1
  F  F26  1  0.022255  0.269382  0.367112  1
  F  F27  1  0.521049  0.729945  0.133165  1
  F  F28  1  0.050395  0.742491  0.166755  1
  F  F29  1  0.551704  0.256639  0.332431  1
  F  F30  1  0.948352  0.258194  0.831826  1
  F  F31  1  0.451331  0.743162  0.668121  1
  F  F32  1  0.406671  0.966551  0.230028  1
  F  F33  1  0.907300  0.033038  0.269802  1
  F  F34  1  0.590837  0.030495  0.769532  1
  F  F35  1  0.089040  0.966959  0.730490  1
