# generated using pymatgen
data_HoLu3Al18(OsPd2)2
_symmetry_space_group_name_H-M   'P 1'
_cell_length_a   7.57577139
_cell_length_b   7.57441559
_cell_length_c   9.42746200
_cell_angle_alpha   90.00000000
_cell_angle_beta   90.00000000
_cell_angle_gamma   119.28298334
_symmetry_Int_Tables_number   1
_chemical_formula_structural   HoLu3Al18(OsPd2)2
_chemical_formula_sum   'Ho1 Lu3 Al18 Os2 Pd4'
_cell_volume   471.83931292
_cell_formula_units_Z   1
loop_
 _symmetry_equiv_pos_site_id
 _symmetry_equiv_pos_as_xyz
  1  'x, y, z'
loop_
 _atom_site_type_symbol
 _atom_site_label
 _atom_site_symmetry_multiplicity
 _atom_site_fract_x
 _atom_site_fract_y
 _atom_site_fract_z
 _atom_site_occupancy
  Ho  Ho0  1  0.326487  0.005403  0.750000  1
  Lu  Lu1  1  0.994330  0.674445  0.250000  1
  Lu  Lu2  1  0.004870  0.325638  0.750000  1
  Lu  Lu3  1  0.674795  0.994374  0.250000  1
  Al  Al4  1  0.127285  0.127229  0.250000  1
  Al  Al5  1  0.872079  0.872698  0.750000  1
  Al  Al6  1  0.999390  0.331716  0.077499  1
  Al  Al7  1  0.999928  0.667432  0.923191  1
  Al  Al8  1  0.999928  0.667432  0.576809  1
  Al  Al9  1  0.331810  0.999413  0.421979  1
  Al  Al10  1  0.999390  0.331716  0.422501  1
  Al  Al11  1  0.668854  0.000881  0.576615  1
  Al  Al12  1  0.668854  0.000881  0.923385  1
  Al  Al13  1  0.331810  0.999413  0.078021  1
  Al  Al14  1  0.328462  0.329303  0.554887  1
  Al  Al15  1  0.671148  0.671151  0.444707  1
  Al  Al16  1  0.671148  0.671151  0.055293  1
  Al  Al17  1  0.328462  0.329303  0.945113  1
  Al  Al18  1  0.342794  0.550163  0.250000  1
  Al  Al19  1  0.658034  0.450204  0.750000  1
  Al  Al20  1  0.550812  0.342816  0.250000  1
  Al  Al21  1  0.448906  0.657034  0.750000  1
  Os  Os22  1  0.999702  0.999970  0.000455  1
  Os  Os23  1  0.999702  0.999970  0.499545  1
  Pd  Pd24  1  0.673542  0.327779  0.000666  1
  Pd  Pd25  1  0.326966  0.672354  0.000841  1
  Pd  Pd26  1  0.326966  0.672354  0.499159  1
  Pd  Pd27  1  0.673542  0.327779  0.499334  1
