# generated using pymatgen
data_Ca12Tm3Ti9Ge3Mo5O48
_symmetry_space_group_name_H-M   'P 1'
_cell_length_a   11.07055619
_cell_length_b   11.07182823
_cell_length_c   11.07291500
_cell_angle_alpha   109.45651449
_cell_angle_beta   109.47976577
_cell_angle_gamma   109.46328379
_symmetry_Int_Tables_number   1
_chemical_formula_structural   Ca12Tm3Ti9Ge3Mo5O48
_chemical_formula_sum   'Ca12 Tm3 Ti9 Ge3 Mo5 O48'
_cell_volume   1044.97134059
_cell_formula_units_Z   1
loop_
 _symmetry_equiv_pos_site_id
 _symmetry_equiv_pos_as_xyz
  1  'x, y, z'
loop_
 _atom_site_type_symbol
 _atom_site_label
 _atom_site_symmetry_multiplicity
 _atom_site_fract_x
 _atom_site_fract_y
 _atom_site_fract_z
 _atom_site_occupancy
  Ca  Ca0  1  0.249426  0.875659  0.625951  1
  Ca  Ca1  1  0.751263  0.625206  0.876880  1
  Ca  Ca2  1  0.626318  0.877955  0.754803  1
  Ca  Ca3  1  0.872850  0.625939  0.249043  1
  Ca  Ca4  1  0.624720  0.252394  0.877086  1
  Ca  Ca5  1  0.876565  0.754834  0.626707  1
  Ca  Ca6  1  0.750255  0.123678  0.373985  1
  Ca  Ca7  1  0.248608  0.374685  0.123599  1
  Ca  Ca8  1  0.373132  0.121864  0.245501  1
  Ca  Ca9  1  0.127879  0.374659  0.751260  1
  Ca  Ca10  1  0.375388  0.747740  0.122422  1
  Ca  Ca11  1  0.124132  0.245114  0.373086  1
  Tm  Tm12  1  0.499127  0.500093  0.500456  1
  Tm  Tm13  1  0.500007  0.000017  0.500052  1
  Tm  Tm14  1  0.001366  0.500884  0.500988  1
  Ti  Ti15  1  0.125720  0.752615  0.877434  1
  Ti  Ti16  1  0.874092  0.247029  0.122718  1
  Ti  Ti17  1  0.621480  0.373052  0.245249  1
  Ti  Ti18  1  0.750077  0.874702  0.125199  1
  Ti  Ti19  1  0.877601  0.125624  0.752340  1
  Ti  Ti20  1  0.247817  0.624757  0.372843  1
  Ti  Ti21  1  0.752360  0.375691  0.627269  1
  Ti  Ti22  1  0.250423  0.125535  0.874663  1
  Ti  Ti23  1  0.122408  0.874349  0.247654  1
  Ge  Ge24  1  0.378598  0.627134  0.754892  1
  Ge  Ge25  1  0.627907  0.751037  0.373006  1
  Ge  Ge26  1  0.371685  0.248684  0.626588  1
  Mo  Mo27  1  0.500271  0.500543  0.998703  1
  Mo  Mo28  1  0.999932  0.999980  0.499974  1
  Mo  Mo29  1  0.000021  0.499945  0.000054  1
  Mo  Mo30  1  0.499608  0.998234  0.999829  1
  Mo  Mo31  1  0.000024  0.999959  0.999895  1
  O  O32  1  0.409395  0.807367  0.789695  1
  O  O33  1  0.878375  0.399403  0.088912  1
  O  O34  1  0.099801  0.978092  0.687735  1
  O  O35  1  0.522804  0.626883  0.716977  1
  O  O36  1  0.692106  0.090607  0.715955  1
  O  O37  1  0.623416  0.713987  0.516725  1
  O  O38  1  0.621632  0.410500  0.095819  1
  O  O39  1  0.717111  0.526431  0.627444  1
  O  O40  1  0.806493  0.521711  0.397267  1
  O  O41  1  0.977728  0.790220  0.880346  1
  O  O42  1  0.790660  0.879134  0.978962  1
  O  O43  1  0.710403  0.686901  0.086409  1
  O  O44  1  0.408372  0.103525  0.624947  1
  O  O45  1  0.398918  0.809281  0.525418  1
  O  O46  1  0.089165  0.716661  0.691490  1
  O  O47  1  0.098435  0.626001  0.408035  1
  O  O48  1  0.517489  0.397759  0.806863  1
  O  O49  1  0.087392  0.878049  0.399221  1
  O  O50  1  0.974963  0.686734  0.098448  1
  O  O51  1  0.198251  0.483619  0.606920  1
  O  O52  1  0.686259  0.097757  0.975389  1
  O  O53  1  0.787567  0.409853  0.812903  1
  O  O54  1  0.399684  0.086717  0.878157  1
  O  O55  1  0.878466  0.976493  0.789635  1
  O  O56  1  0.589468  0.188084  0.209035  1
  O  O57  1  0.121539  0.600121  0.911164  1
  O  O58  1  0.900427  0.022158  0.312315  1
  O  O59  1  0.472285  0.371358  0.283538  1
  O  O60  1  0.307854  0.909364  0.284116  1
  O  O61  1  0.376060  0.285428  0.482827  1
  O  O62  1  0.378581  0.591748  0.901180  1
  O  O63  1  0.281753  0.473651  0.372788  1
  O  O64  1  0.121422  0.023489  0.210347  1
  O  O65  1  0.600215  0.911748  0.122153  1
  O  O66  1  0.212615  0.590216  0.187052  1
  O  O67  1  0.189860  0.211812  0.591013  1
  O  O68  1  0.313289  0.901506  0.024919  1
  O  O69  1  0.025055  0.313226  0.901495  1
  O  O70  1  0.912683  0.122042  0.600822  1
  O  O71  1  0.482828  0.602204  0.191879  1
  O  O72  1  0.901719  0.374345  0.591771  1
  O  O73  1  0.911998  0.284453  0.309590  1
  O  O74  1  0.601323  0.191223  0.474986  1
  O  O75  1  0.591387  0.896391  0.375082  1
  O  O76  1  0.290527  0.313732  0.913418  1
  O  O77  1  0.209288  0.120630  0.020358  1
  O  O78  1  0.022094  0.209570  0.119609  1
  O  O79  1  0.809780  0.788222  0.408741  1
