# generated using pymatgen
data_Li2NdHo5Rh16
_symmetry_space_group_name_H-M   'P 1'
_cell_length_a   5.30230500
_cell_length_b   5.30230403
_cell_length_c   17.17968600
_cell_angle_alpha   90.00000000
_cell_angle_beta   90.00000000
_cell_angle_gamma   119.99999980
_symmetry_Int_Tables_number   1
_chemical_formula_structural   Li2NdHo5Rh16
_chemical_formula_sum   'Li2 Nd1 Ho5 Rh16'
_cell_volume   418.28778898
_cell_formula_units_Z   1
loop_
 _symmetry_equiv_pos_site_id
 _symmetry_equiv_pos_as_xyz
  1  'x, y, z'
loop_
 _atom_site_type_symbol
 _atom_site_label
 _atom_site_symmetry_multiplicity
 _atom_site_fract_x
 _atom_site_fract_y
 _atom_site_fract_z
 _atom_site_occupancy
  Li  Li0  1  0.000000  0.000000  0.250000  1
  Li  Li1  1  0.000000  0.000000  0.750000  1
  Nd  Nd2  1  0.666667  0.333333  0.250000  1
  Ho  Ho3  1  0.333333  0.666667  0.540150  1
  Ho  Ho4  1  0.666667  0.333333  0.038462  1
  Ho  Ho5  1  0.666667  0.333333  0.461538  1
  Ho  Ho6  1  0.333333  0.666667  0.959850  1
  Ho  Ho7  1  0.333333  0.666667  0.750000  1
  Rh  Rh8  1  0.167714  0.335427  0.124147  1
  Rh  Rh9  1  0.832457  0.664915  0.625819  1
  Rh  Rh10  1  0.664573  0.832286  0.124147  1
  Rh  Rh11  1  0.167714  0.832286  0.124147  1
  Rh  Rh12  1  0.832457  0.167543  0.625819  1
  Rh  Rh13  1  0.335085  0.167543  0.625819  1
  Rh  Rh14  1  0.832457  0.664915  0.874181  1
  Rh  Rh15  1  0.832457  0.167543  0.874181  1
  Rh  Rh16  1  0.335085  0.167543  0.874181  1
  Rh  Rh17  1  0.664573  0.832286  0.375853  1
  Rh  Rh18  1  0.167714  0.832286  0.375853  1
  Rh  Rh19  1  0.167714  0.335427  0.375853  1
  Rh  Rh20  1  0.333333  0.666667  0.250000  1
  Rh  Rh21  1  0.666667  0.333333  0.750000  1
  Rh  Rh22  1  0.000000  0.000000  0.999217  1
  Rh  Rh23  1  0.000000  0.000000  0.500783  1
