# generated using pymatgen
data_Pr12CdNi6
_symmetry_space_group_name_H-M   'P 1'
_cell_length_a   8.79453373
_cell_length_b   8.79453437
_cell_length_c   8.79453400
_cell_angle_alpha   109.47121749
_cell_angle_beta   109.47121896
_cell_angle_gamma   109.47122735
_symmetry_Int_Tables_number   1
_chemical_formula_structural   Pr12CdNi6
_chemical_formula_sum   'Pr12 Cd1 Ni6'
_cell_volume   523.62045110
_cell_formula_units_Z   1
loop_
 _symmetry_equiv_pos_site_id
 _symmetry_equiv_pos_as_xyz
  1  'x, y, z'
loop_
 _atom_site_type_symbol
 _atom_site_label
 _atom_site_symmetry_multiplicity
 _atom_site_fract_x
 _atom_site_fract_y
 _atom_site_fract_z
 _atom_site_occupancy
  Pr  Pr0  1  0.814527  0.692669  0.507196  1
  Pr  Pr1  1  0.185473  0.307331  0.492804  1
  Pr  Pr2  1  0.185473  0.692669  0.878143  1
  Pr  Pr3  1  0.814527  0.307331  0.121857  1
  Pr  Pr4  1  0.692669  0.507196  0.814527  1
  Pr  Pr5  1  0.307331  0.492804  0.185473  1
  Pr  Pr6  1  0.692669  0.878143  0.185473  1
  Pr  Pr7  1  0.307331  0.121857  0.814527  1
  Pr  Pr8  1  0.507196  0.814527  0.692669  1
  Pr  Pr9  1  0.492804  0.185473  0.307331  1
  Pr  Pr10  1  0.121857  0.814527  0.307331  1
  Pr  Pr11  1  0.878143  0.185473  0.692669  1
  Cd  Cd12  1  0.000000  0.000000  0.000000  1
  Ni  Ni13  1  0.879339  0.379339  0.500000  1
  Ni  Ni14  1  0.120661  0.620661  0.500000  1
  Ni  Ni15  1  0.379339  0.500000  0.879339  1
  Ni  Ni16  1  0.620661  0.500000  0.120661  1
  Ni  Ni17  1  0.500000  0.879339  0.379339  1
  Ni  Ni18  1  0.500000  0.120661  0.620661  1
