# generated using pymatgen
data_Er3TmSc6Ga7Si
_symmetry_space_group_name_H-M   'P 1'
_cell_length_a   7.22653639
_cell_length_b   7.45671830
_cell_length_c   14.43838508
_cell_angle_alpha   89.98817860
_cell_angle_beta   89.99993451
_cell_angle_gamma   90.24911971
_symmetry_Int_Tables_number   1
_chemical_formula_structural   Er3TmSc6Ga7Si
_chemical_formula_sum   'Er6 Tm2 Sc12 Ga14 Si2'
_cell_volume   778.02300115
_cell_formula_units_Z   2
loop_
 _symmetry_equiv_pos_site_id
 _symmetry_equiv_pos_as_xyz
  1  'x, y, z'
loop_
 _atom_site_type_symbol
 _atom_site_label
 _atom_site_symmetry_multiplicity
 _atom_site_fract_x
 _atom_site_fract_y
 _atom_site_fract_z
 _atom_site_occupancy
  Er  Er0  1  0.012923  0.178978  0.096386  1
  Er  Er1  1  0.987077  0.821022  0.903614  1
  Er  Er2  1  0.489391  0.677995  0.904431  1
  Er  Er3  1  0.987057  0.821000  0.596365  1
  Er  Er4  1  0.510609  0.322005  0.095569  1
  Er  Er5  1  0.012943  0.179000  0.403635  1
  Tm  Tm6  1  0.510644  0.321945  0.404433  1
  Tm  Tm7  1  0.489356  0.678055  0.595567  1
  Sc  Sc8  1  0.160840  0.504165  0.749959  1
  Sc  Sc9  1  0.839160  0.495835  0.250041  1
  Sc  Sc10  1  0.337012  0.006238  0.250025  1
  Sc  Sc11  1  0.662988  0.993762  0.749975  1
  Sc  Sc12  1  0.331251  0.174405  0.622931  1
  Sc  Sc13  1  0.668749  0.825595  0.377069  1
  Sc  Sc14  1  0.170689  0.671521  0.376186  1
  Sc  Sc15  1  0.668809  0.825668  0.122983  1
  Sc  Sc16  1  0.829311  0.328479  0.623814  1
  Sc  Sc17  1  0.331191  0.174332  0.877017  1
  Sc  Sc18  1  0.829404  0.328478  0.876151  1
  Sc  Sc19  1  0.170596  0.671522  0.123849  1
  Ga  Ga20  1  0.032529  0.117369  0.750007  1
  Ga  Ga21  1  0.967471  0.882631  0.249993  1
  Ga  Ga22  1  0.467343  0.612083  0.250033  1
  Ga  Ga23  1  0.532657  0.387917  0.749967  1
  Ga  Ga24  1  0.285671  0.870715  0.749962  1
  Ga  Ga25  1  0.714329  0.129285  0.250038  1
  Ga  Ga26  1  0.159954  0.465785  0.540452  1
  Ga  Ga27  1  0.840046  0.534215  0.459548  1
  Ga  Ga28  1  0.338669  0.965230  0.459284  1
  Ga  Ga29  1  0.840252  0.534307  0.040426  1
  Ga  Ga30  1  0.661331  0.034770  0.540716  1
  Ga  Ga31  1  0.159748  0.465693  0.959574  1
  Ga  Ga32  1  0.661442  0.034867  0.959278  1
  Ga  Ga33  1  0.338558  0.965133  0.040722  1
  Si  Si34  1  0.215150  0.373143  0.250053  1
  Si  Si35  1  0.784850  0.626857  0.749947  1
