# generated using pymatgen
data_Nd4Br6N
_symmetry_space_group_name_H-M   'P 1'
_cell_length_a   4.01122400
_cell_length_b   13.28687700
_cell_length_c   13.86057200
_cell_angle_alpha   90.00000000
_cell_angle_beta   90.00000000
_cell_angle_gamma   90.00000000
_symmetry_Int_Tables_number   1
_chemical_formula_structural   Nd4Br6N
_chemical_formula_sum   'Nd8 Br12 N2'
_cell_volume   738.72191480
_cell_formula_units_Z   2
loop_
 _symmetry_equiv_pos_site_id
 _symmetry_equiv_pos_as_xyz
  1  'x, y, z'
loop_
 _atom_site_type_symbol
 _atom_site_label
 _atom_site_symmetry_multiplicity
 _atom_site_fract_x
 _atom_site_fract_y
 _atom_site_fract_z
 _atom_site_occupancy
  Nd  Nd0  1  0.000000  0.100239  0.076852  1
  Nd  Nd1  1  0.000000  0.899761  0.923148  1
  Nd  Nd2  1  0.000000  0.600239  0.423148  1
  Nd  Nd3  1  0.000000  0.399761  0.576852  1
  Nd  Nd4  1  0.500000  0.118016  0.857990  1
  Nd  Nd5  1  0.500000  0.881984  0.142010  1
  Nd  Nd6  1  0.500000  0.618016  0.642010  1
  Nd  Nd7  1  0.500000  0.381984  0.357990  1
  Br  Br8  1  0.500000  0.265077  0.677929  1
  Br  Br9  1  0.500000  0.734923  0.322071  1
  Br  Br10  1  0.500000  0.765077  0.822071  1
  Br  Br11  1  0.500000  0.234923  0.177929  1
  Br  Br12  1  0.000000  0.263630  0.929875  1
  Br  Br13  1  0.000000  0.736370  0.070125  1
  Br  Br14  1  0.000000  0.486730  0.237439  1
  Br  Br15  1  0.000000  0.513270  0.762561  1
  Br  Br16  1  0.000000  0.986730  0.262561  1
  Br  Br17  1  0.000000  0.013270  0.737439  1
  Br  Br18  1  0.000000  0.236370  0.429875  1
  Br  Br19  1  0.000000  0.763630  0.570125  1
  N  N20  1  0.500000  0.000000  0.000000  1
  N  N21  1  0.500000  0.500000  0.500000  1
