# generated using pymatgen
data_Ce6ScUH24
_symmetry_space_group_name_H-M   'P 1'
_cell_length_a   6.71576200
_cell_length_b   6.71576200
_cell_length_c   6.71576200
_cell_angle_alpha   90.00000000
_cell_angle_beta   90.00000000
_cell_angle_gamma   90.00000000
_symmetry_Int_Tables_number   1
_chemical_formula_structural   Ce6ScUH24
_chemical_formula_sum   'Ce6 Sc1 U1 H24'
_cell_volume   302.89066611
_cell_formula_units_Z   1
loop_
 _symmetry_equiv_pos_site_id
 _symmetry_equiv_pos_as_xyz
  1  'x, y, z'
loop_
 _atom_site_type_symbol
 _atom_site_label
 _atom_site_symmetry_multiplicity
 _atom_site_fract_x
 _atom_site_fract_y
 _atom_site_fract_z
 _atom_site_occupancy
  Ce  Ce0  1  0.245894  0.000000  0.500000  1
  Ce  Ce1  1  0.754106  0.000000  0.500000  1
  Ce  Ce2  1  0.000000  0.500000  0.245894  1
  Ce  Ce3  1  0.000000  0.500000  0.754106  1
  Ce  Ce4  1  0.500000  0.754106  0.000000  1
  Ce  Ce5  1  0.500000  0.245894  0.000000  1
  Sc  Sc6  1  0.000000  0.000000  0.000000  1
  U  U7  1  0.500000  0.500000  0.500000  1
  H  H8  1  0.000000  0.150028  0.292244  1
  H  H9  1  0.500000  0.201440  0.653481  1
  H  H10  1  0.500000  0.798560  0.346519  1
  H  H11  1  0.798560  0.653481  0.500000  1
  H  H12  1  0.201440  0.653481  0.500000  1
  H  H13  1  0.346519  0.500000  0.798560  1
  H  H14  1  0.653481  0.500000  0.798560  1
  H  H15  1  0.292244  0.000000  0.150028  1
  H  H16  1  0.150028  0.292244  0.000000  1
  H  H17  1  0.849972  0.707756  0.000000  1
  H  H18  1  0.292244  0.000000  0.849972  1
  H  H19  1  0.849972  0.292244  0.000000  1
  H  H20  1  0.707756  0.000000  0.150028  1
  H  H21  1  0.707756  0.000000  0.849972  1
  H  H22  1  0.150028  0.707756  0.000000  1
  H  H23  1  0.000000  0.849972  0.707756  1
  H  H24  1  0.000000  0.150028  0.707756  1
  H  H25  1  0.000000  0.849972  0.292244  1
  H  H26  1  0.653481  0.500000  0.201440  1
  H  H27  1  0.346519  0.500000  0.201440  1
  H  H28  1  0.798560  0.346519  0.500000  1
  H  H29  1  0.201440  0.346519  0.500000  1
  H  H30  1  0.500000  0.798560  0.653481  1
  H  H31  1  0.500000  0.201440  0.346519  1
