# generated using pymatgen
data_Dy3Er13Cd3AgIr4
_symmetry_space_group_name_H-M   'P 1'
_cell_length_a   9.56989672
_cell_length_b   9.56708266
_cell_length_c   9.56434764
_cell_angle_alpha   59.83006308
_cell_angle_beta   59.80890207
_cell_angle_gamma   59.80920656
_symmetry_Int_Tables_number   1
_chemical_formula_structural   Dy3Er13Cd3AgIr4
_chemical_formula_sum   'Dy3 Er13 Cd3 Ag1 Ir4'
_cell_volume   616.60921798
_cell_formula_units_Z   1
loop_
 _symmetry_equiv_pos_site_id
 _symmetry_equiv_pos_as_xyz
  1  'x, y, z'
loop_
 _atom_site_type_symbol
 _atom_site_label
 _atom_site_symmetry_multiplicity
 _atom_site_fract_x
 _atom_site_fract_y
 _atom_site_fract_z
 _atom_site_occupancy
  Dy  Dy0  1  0.187164  0.811335  0.187190  1
  Dy  Dy1  1  0.811699  0.812229  0.185508  1
  Dy  Dy2  1  0.186637  0.187214  0.811414  1
  Er  Er3  1  0.599093  0.599042  0.599151  1
  Er  Er4  1  0.600051  0.599653  0.202236  1
  Er  Er5  1  0.599851  0.201919  0.600057  1
  Er  Er6  1  0.201922  0.599693  0.600306  1
  Er  Er7  1  0.060498  0.438826  0.439333  1
  Er  Er8  1  0.438176  0.060662  0.060486  1
  Er  Er9  1  0.439267  0.060590  0.439088  1
  Er  Er10  1  0.060562  0.437753  0.060576  1
  Er  Er11  1  0.439691  0.438992  0.060233  1
  Er  Er12  1  0.060377  0.060597  0.438166  1
  Er  Er13  1  0.186061  0.811604  0.811151  1
  Er  Er14  1  0.810816  0.187805  0.187305  1
  Er  Er15  1  0.811641  0.186106  0.811673  1
  Cd  Cd16  1  0.831068  0.831388  0.508949  1
  Cd  Cd17  1  0.831021  0.508796  0.831278  1
  Cd  Cd18  1  0.509132  0.831006  0.830964  1
  Ag  Ag19  1  0.833456  0.833346  0.832629  1
  Ir  Ir20  1  0.392107  0.391674  0.391760  1
  Ir  Ir21  1  0.392606  0.392587  0.825075  1
  Ir  Ir22  1  0.392145  0.825110  0.392789  1
  Ir  Ir23  1  0.824958  0.392074  0.392682  1
