# generated using pymatgen
data_Nd4Al18HgIr5
_symmetry_space_group_name_H-M   'P 1'
_cell_length_a   7.67583736
_cell_length_b   7.67583699
_cell_length_c   9.61845977
_cell_angle_alpha   89.80362069
_cell_angle_beta   89.80362163
_cell_angle_gamma   119.44690844
_symmetry_Int_Tables_number   1
_chemical_formula_structural   Nd4Al18HgIr5
_chemical_formula_sum   'Nd4 Al18 Hg1 Ir5'
_cell_volume   493.48188665
_cell_formula_units_Z   1
loop_
 _symmetry_equiv_pos_site_id
 _symmetry_equiv_pos_as_xyz
  1  'x, y, z'
loop_
 _atom_site_type_symbol
 _atom_site_label
 _atom_site_symmetry_multiplicity
 _atom_site_fract_x
 _atom_site_fract_y
 _atom_site_fract_z
 _atom_site_occupancy
  Nd  Nd0  1  0.996056  0.676673  0.250186  1
  Nd  Nd1  1  0.003944  0.323327  0.749814  1
  Nd  Nd2  1  0.676673  0.996056  0.250186  1
  Nd  Nd3  1  0.323327  0.003944  0.749814  1
  Al  Al4  1  0.142887  0.142887  0.263365  1
  Al  Al5  1  0.857113  0.857113  0.736635  1
  Al  Al6  1  0.004177  0.351681  0.079663  1
  Al  Al7  1  0.995823  0.648319  0.920337  1
  Al  Al8  1  0.999977  0.663199  0.569511  1
  Al  Al9  1  0.336801  0.000023  0.430489  1
  Al  Al10  1  0.000023  0.336801  0.430489  1
  Al  Al11  1  0.663199  0.999977  0.569511  1
  Al  Al12  1  0.648319  0.995823  0.920337  1
  Al  Al13  1  0.351681  0.004177  0.079663  1
  Al  Al14  1  0.334115  0.334115  0.547432  1
  Al  Al15  1  0.665885  0.665885  0.452568  1
  Al  Al16  1  0.649854  0.649854  0.061292  1
  Al  Al17  1  0.350146  0.350146  0.938708  1
  Al  Al18  1  0.338702  0.550246  0.252540  1
  Al  Al19  1  0.661298  0.449754  0.747460  1
  Al  Al20  1  0.550246  0.338702  0.252540  1
  Al  Al21  1  0.449754  0.661298  0.747460  1
  Hg  Hg22  1  0.000000  0.000000  0.000000  1
  Ir  Ir23  1  0.670930  0.329070  0.000000  1
  Ir  Ir24  1  0.329070  0.670930  0.000000  1
  Ir  Ir25  1  0.329295  0.670705  0.500000  1
  Ir  Ir26  1  0.670705  0.329295  0.500000  1
  Ir  Ir27  1  0.000000  0.000000  0.500000  1
