# generated using pymatgen
data_LiDy9Er7Ni4Hg3
_symmetry_space_group_name_H-M   'P 1'
_cell_length_a   9.46514714
_cell_length_b   9.45277509
_cell_length_c   9.45277500
_cell_angle_alpha   59.99999681
_cell_angle_beta   60.04322648
_cell_angle_gamma   60.04321503
_symmetry_Int_Tables_number   1
_chemical_formula_structural   LiDy9Er7Ni4Hg3
_chemical_formula_sum   'Li1 Dy9 Er7 Ni4 Hg3'
_cell_volume   598.43145741
_cell_formula_units_Z   1
loop_
 _symmetry_equiv_pos_site_id
 _symmetry_equiv_pos_as_xyz
  1  'x, y, z'
loop_
 _atom_site_type_symbol
 _atom_site_label
 _atom_site_symmetry_multiplicity
 _atom_site_fract_x
 _atom_site_fract_y
 _atom_site_fract_z
 _atom_site_occupancy
  Li  Li0  1  0.547539  0.817487  0.817487  1
  Dy  Dy1  1  0.185210  0.814466  0.814466  1
  Dy  Dy2  1  0.812711  0.186280  0.186280  1
  Dy  Dy3  1  0.812711  0.186280  0.814730  1
  Dy  Dy4  1  0.185210  0.814466  0.185859  1
  Dy  Dy5  1  0.812711  0.814730  0.186280  1
  Dy  Dy6  1  0.185210  0.185859  0.814466  1
  Dy  Dy7  1  0.598902  0.597880  0.597880  1
  Dy  Dy8  1  0.598902  0.597880  0.205339  1
  Dy  Dy9  1  0.598902  0.205339  0.597880  1
  Er  Er10  1  0.196874  0.601042  0.601042  1
  Er  Er11  1  0.059427  0.439363  0.439363  1
  Er  Er12  1  0.434614  0.064793  0.064793  1
  Er  Er13  1  0.434614  0.064793  0.435802  1
  Er  Er14  1  0.059427  0.439363  0.061847  1
  Er  Er15  1  0.434614  0.435802  0.064793  1
  Er  Er16  1  0.059427  0.061847  0.439363  1
  Ni  Ni17  1  0.388248  0.393710  0.393710  1
  Ni  Ni18  1  0.388248  0.393710  0.824333  1
  Ni  Ni19  1  0.388248  0.824333  0.393710  1
  Ni  Ni20  1  0.823881  0.392039  0.392039  1
  Hg  Hg21  1  0.831458  0.836398  0.836398  1
  Hg  Hg22  1  0.831458  0.836398  0.495744  1
  Hg  Hg23  1  0.831458  0.495744  0.836398  1
