# generated using pymatgen
data_Ti5Nb7Ga8(CuC)4
_symmetry_space_group_name_H-M   'P 1'
_cell_length_a   8.23715107
_cell_length_b   8.26161287
_cell_length_c   8.25212798
_cell_angle_alpha   59.94511004
_cell_angle_beta   60.09533956
_cell_angle_gamma   59.92527995
_symmetry_Int_Tables_number   1
_chemical_formula_structural   Ti5Nb7Ga8(CuC)4
_chemical_formula_sum   'Ti5 Nb7 Ga8 Cu4 C4'
_cell_volume   396.98859751
_cell_formula_units_Z   1
loop_
 _symmetry_equiv_pos_site_id
 _symmetry_equiv_pos_as_xyz
  1  'x, y, z'
loop_
 _atom_site_type_symbol
 _atom_site_label
 _atom_site_symmetry_multiplicity
 _atom_site_fract_x
 _atom_site_fract_y
 _atom_site_fract_z
 _atom_site_occupancy
  Ti  Ti0  1  0.566675  0.931890  0.933574  1
  Ti  Ti1  1  0.933450  0.569395  0.565663  1
  Ti  Ti2  1  0.933772  0.566780  0.933374  1
  Ti  Ti3  1  0.316680  0.319578  0.683093  1
  Ti  Ti4  1  0.566890  0.568475  0.933410  1
  Nb  Nb5  1  0.933494  0.932166  0.566251  1
  Nb  Nb6  1  0.685320  0.318104  0.314480  1
  Nb  Nb7  1  0.315419  0.682466  0.684050  1
  Nb  Nb8  1  0.684034  0.682250  0.315201  1
  Nb  Nb9  1  0.684633  0.315748  0.684015  1
  Nb  Nb10  1  0.316023  0.684781  0.315437  1
  Nb  Nb11  1  0.565436  0.935302  0.564632  1
  Ga  Ga12  1  0.912332  0.262039  0.912991  1
  Ga  Ga13  1  0.333970  0.333759  0.995175  1
  Ga  Ga14  1  0.998710  0.333727  0.333894  1
  Ga  Ga15  1  0.334590  0.334293  0.338275  1
  Ga  Ga16  1  0.258004  0.911868  0.916514  1
  Ga  Ga17  1  0.912274  0.912087  0.916217  1
  Ga  Ga18  1  0.916189  0.912903  0.254278  1
  Ga  Ga19  1  0.334652  0.996764  0.334593  1
  Cu  Cu20  1  0.126178  0.624101  0.124805  1
  Cu  Cu21  1  0.124069  0.124151  0.628706  1
  Cu  Cu22  1  0.625461  0.126552  0.124291  1
  Cu  Cu23  1  0.125154  0.124721  0.123092  1
  C  C24  1  0.617793  0.126633  0.630375  1
  C  C25  1  0.628518  0.628285  0.113848  1
  C  C26  1  0.121798  0.617868  0.630142  1
  C  C27  1  0.628482  0.623315  0.629624  1
