# generated using pymatgen
data_AcTh(Co3Si2)2
_symmetry_space_group_name_H-M   'P 1'
_cell_length_a   6.43781742
_cell_length_b   6.43781732
_cell_length_c   6.43781654
_cell_angle_alpha   130.08014794
_cell_angle_beta   115.57549855
_cell_angle_gamma   85.66667254
_symmetry_Int_Tables_number   1
_chemical_formula_structural   AcTh(Co3Si2)2
_chemical_formula_sum   'Ac1 Th1 Co6 Si4'
_cell_volume   176.05486477
_cell_formula_units_Z   1
loop_
 _symmetry_equiv_pos_site_id
 _symmetry_equiv_pos_as_xyz
  1  'x, y, z'
loop_
 _atom_site_type_symbol
 _atom_site_label
 _atom_site_symmetry_multiplicity
 _atom_site_fract_x
 _atom_site_fract_y
 _atom_site_fract_z
 _atom_site_occupancy
  Ac  Ac0  1  0.750000  0.460136  0.710136  1
  Th  Th1  1  0.250000  0.552287  0.302287  1
  Co  Co2  1  0.002397  0.996505  0.498902  1
  Co  Co3  1  0.497603  0.996505  0.994109  1
  Co  Co4  1  0.714295  0.993233  0.714927  1
  Co  Co5  1  0.221694  0.500631  0.714927  1
  Co  Co6  1  0.278306  0.993233  0.278938  1
  Co  Co7  1  0.785705  0.500631  0.278938  1
  Si  Si8  1  0.081234  0.884213  0.802979  1
  Si  Si9  1  0.922994  0.123434  0.200439  1
  Si  Si10  1  0.577006  0.777446  0.200439  1
  Si  Si11  1  0.418766  0.221745  0.802979  1
