# generated using pymatgen
data_La2PrNd(Zn5Ge)2
_symmetry_space_group_name_H-M   'P 1'
_cell_length_a   8.45522300
_cell_length_b   8.45522330
_cell_length_c   8.93524400
_cell_angle_alpha   90.00000000
_cell_angle_beta   90.00000000
_cell_angle_gamma   149.31892068
_symmetry_Int_Tables_number   1
_chemical_formula_structural   La2PrNd(Zn5Ge)2
_chemical_formula_sum   'La2 Pr1 Nd1 Zn10 Ge2'
_cell_volume   325.94715092
_cell_formula_units_Z   1
loop_
 _symmetry_equiv_pos_site_id
 _symmetry_equiv_pos_as_xyz
  1  'x, y, z'
loop_
 _atom_site_type_symbol
 _atom_site_label
 _atom_site_symmetry_multiplicity
 _atom_site_fract_x
 _atom_site_fract_y
 _atom_site_fract_z
 _atom_site_occupancy
  La  La0  1  0.999877  0.000123  0.500224  1
  La  La1  1  0.999877  0.000123  0.999776  1
  Pr  Pr2  1  0.203530  0.796470  0.250000  1
  Nd  Nd3  1  0.796398  0.203602  0.750000  1
  Zn  Zn4  1  0.813834  0.186166  0.392189  1
  Zn  Zn5  1  0.186447  0.813553  0.608530  1
  Zn  Zn6  1  0.813834  0.186166  0.107811  1
  Zn  Zn7  1  0.186447  0.813553  0.891470  1
  Zn  Zn8  1  0.653029  0.346971  0.480062  1
  Zn  Zn9  1  0.346922  0.653078  0.520892  1
  Zn  Zn10  1  0.653029  0.346971  0.019938  1
  Zn  Zn11  1  0.346922  0.653078  0.979108  1
  Zn  Zn12  1  0.402820  0.597180  0.250000  1
  Zn  Zn13  1  0.597196  0.402804  0.750000  1
  Ge  Ge14  1  0.558571  0.441429  0.250000  1
  Ge  Ge15  1  0.441266  0.558734  0.750000  1
