# generated using pymatgen
data_ErTm7Sc12Si15Hg
_symmetry_space_group_name_H-M   'P 1'
_cell_length_a   7.08605322
_cell_length_b   7.35367638
_cell_length_c   14.00170056
_cell_angle_alpha   89.93271519
_cell_angle_beta   89.55790753
_cell_angle_gamma   90.14103820
_symmetry_Int_Tables_number   1
_chemical_formula_structural   ErTm7Sc12Si15Hg
_chemical_formula_sum   'Er1 Tm7 Sc12 Si15 Hg1'
_cell_volume   729.58375494
_cell_formula_units_Z   1
loop_
 _symmetry_equiv_pos_site_id
 _symmetry_equiv_pos_as_xyz
  1  'x, y, z'
loop_
 _atom_site_type_symbol
 _atom_site_label
 _atom_site_symmetry_multiplicity
 _atom_site_fract_x
 _atom_site_fract_y
 _atom_site_fract_z
 _atom_site_occupancy
  Er  Er0  1  0.012422  0.176160  0.097016  1
  Tm  Tm1  1  0.987314  0.824213  0.904566  1
  Tm  Tm2  1  0.487235  0.677708  0.904084  1
  Tm  Tm3  1  0.988248  0.830261  0.597938  1
  Tm  Tm4  1  0.512105  0.322782  0.096465  1
  Tm  Tm5  1  0.007955  0.172121  0.398518  1
  Tm  Tm6  1  0.511271  0.321788  0.399345  1
  Tm  Tm7  1  0.496174  0.682026  0.599726  1
  Sc  Sc8  1  0.162197  0.502226  0.754058  1
  Sc  Sc9  1  0.837204  0.497692  0.250252  1
  Sc  Sc10  1  0.337829  0.002056  0.248948  1
  Sc  Sc11  1  0.664433  0.995394  0.751437  1
  Sc  Sc12  1  0.341193  0.168123  0.628824  1
  Sc  Sc13  1  0.664868  0.824721  0.372758  1
  Sc  Sc14  1  0.166970  0.678059  0.370780  1
  Sc  Sc15  1  0.669698  0.823680  0.124562  1
  Sc  Sc16  1  0.825840  0.324855  0.626086  1
  Sc  Sc17  1  0.328984  0.175162  0.876148  1
  Sc  Sc18  1  0.829904  0.322633  0.876200  1
  Sc  Sc19  1  0.169205  0.676958  0.125073  1
  Si  Si20  1  0.034505  0.118183  0.751456  1
  Si  Si21  1  0.965480  0.885977  0.248061  1
  Si  Si22  1  0.466885  0.613377  0.247966  1
  Si  Si23  1  0.532928  0.387690  0.752002  1
  Si  Si24  1  0.284258  0.870091  0.751667  1
  Si  Si25  1  0.713178  0.129979  0.248055  1
  Si  Si26  1  0.213779  0.369390  0.248193  1
  Si  Si27  1  0.788064  0.630071  0.752615  1
  Si  Si28  1  0.831240  0.537559  0.459028  1
  Si  Si29  1  0.337916  0.963478  0.459688  1
  Si  Si30  1  0.842170  0.535169  0.038890  1
  Si  Si31  1  0.660784  0.036523  0.537582  1
  Si  Si32  1  0.157831  0.464551  0.962255  1
  Si  Si33  1  0.657230  0.034315  0.960767  1
  Si  Si34  1  0.342463  0.965439  0.039941  1
  Hg  Hg35  1  0.170238  0.459590  0.539048  1
