# generated using pymatgen
data_TaNb5Al2(IrN)2
_symmetry_space_group_name_H-M   'P 1'
_cell_length_a   7.03027137
_cell_length_b   7.03639937
_cell_length_c   7.03244200
_cell_angle_alpha   90.00000000
_cell_angle_beta   90.00000000
_cell_angle_gamma   90.03698429
_symmetry_Int_Tables_number   1
_chemical_formula_structural   TaNb5Al2(IrN)2
_chemical_formula_sum   'Ta2 Nb10 Al4 Ir4 N4'
_cell_volume   347.87934070
_cell_formula_units_Z   2
loop_
 _symmetry_equiv_pos_site_id
 _symmetry_equiv_pos_as_xyz
  1  'x, y, z'
loop_
 _atom_site_type_symbol
 _atom_site_label
 _atom_site_symmetry_multiplicity
 _atom_site_fract_x
 _atom_site_fract_y
 _atom_site_fract_z
 _atom_site_occupancy
  Ta  Ta0  1  0.795135  0.956192  0.376089  1
  Ta  Ta1  1  0.704865  0.043808  0.876089  1
  Nb  Nb2  1  0.205248  0.455286  0.124249  1
  Nb  Nb3  1  0.294752  0.544714  0.624249  1
  Nb  Nb4  1  0.955707  0.375850  0.793271  1
  Nb  Nb5  1  0.045407  0.875765  0.706729  1
  Nb  Nb6  1  0.454593  0.124235  0.206729  1
  Nb  Nb7  1  0.544293  0.624150  0.293271  1
  Nb  Nb8  1  0.376399  0.793502  0.956089  1
  Nb  Nb9  1  0.876570  0.704095  0.044319  1
  Nb  Nb10  1  0.123601  0.206498  0.456089  1
  Nb  Nb11  1  0.623430  0.295905  0.544319  1
  Al  Al12  1  0.571282  0.430001  0.928879  1
  Al  Al13  1  0.428950  0.929503  0.569968  1
  Al  Al14  1  0.928718  0.569999  0.428879  1
  Al  Al15  1  0.071050  0.070497  0.069968  1
  Ir  Ir16  1  0.175334  0.823085  0.322857  1
  Ir  Ir17  1  0.324666  0.176915  0.822857  1
  Ir  Ir18  1  0.821842  0.319441  0.177079  1
  Ir  Ir19  1  0.678158  0.680559  0.677079  1
  N  N20  1  0.871844  0.122781  0.625669  1
  N  N21  1  0.628156  0.877219  0.125669  1
  N  N22  1  0.125382  0.625040  0.874800  1
  N  N23  1  0.374618  0.374960  0.374800  1
