# generated using pymatgen
data_Ti10Sn3B2Sb3
_symmetry_space_group_name_H-M   'P 1'
_cell_length_a   8.09868200
_cell_length_b   8.09868170
_cell_length_c   5.42887800
_cell_angle_alpha   90.00000000
_cell_angle_beta   90.00000000
_cell_angle_gamma   120.00000124
_symmetry_Int_Tables_number   1
_chemical_formula_structural   Ti10Sn3B2Sb3
_chemical_formula_sum   'Ti10 Sn3 B2 Sb3'
_cell_volume   308.36805753
_cell_formula_units_Z   1
loop_
 _symmetry_equiv_pos_site_id
 _symmetry_equiv_pos_as_xyz
  1  'x, y, z'
loop_
 _atom_site_type_symbol
 _atom_site_label
 _atom_site_symmetry_multiplicity
 _atom_site_fract_x
 _atom_site_fract_y
 _atom_site_fract_z
 _atom_site_occupancy
  Ti  Ti0  1  0.666667  0.333333  0.998912  1
  Ti  Ti1  1  0.333333  0.666667  0.998912  1
  Ti  Ti2  1  0.333333  0.666667  0.501088  1
  Ti  Ti3  1  0.666667  0.333333  0.501088  1
  Ti  Ti4  1  0.775876  0.775876  0.750000  1
  Ti  Ti5  1  0.224124  0.000000  0.750000  1
  Ti  Ti6  1  0.000000  0.224124  0.750000  1
  Ti  Ti7  1  0.229513  0.229513  0.250000  1
  Ti  Ti8  1  0.770487  0.000000  0.250000  1
  Ti  Ti9  1  0.000000  0.770487  0.250000  1
  Sn  Sn10  1  0.604054  0.604054  0.250000  1
  Sn  Sn11  1  0.395946  0.000000  0.250000  1
  Sn  Sn12  1  0.000000  0.395946  0.250000  1
  B  B13  1  0.000000  0.000000  0.006655  1
  B  B14  1  0.000000  0.000000  0.493345  1
  Sb  Sb15  1  0.399444  0.399444  0.750000  1
  Sb  Sb16  1  0.600556  0.000000  0.750000  1
  Sb  Sb17  1  0.000000  0.600556  0.750000  1
