# generated using pymatgen
data_Tm5B(OsC3)2
_symmetry_space_group_name_H-M   'P 1'
_cell_length_a   8.08872599
_cell_length_b   8.08872568
_cell_length_c   3.45324200
_cell_angle_alpha   90.00000000
_cell_angle_beta   90.00000000
_cell_angle_gamma   121.35932722
_symmetry_Int_Tables_number   1
_chemical_formula_structural   Tm5B(OsC3)2
_chemical_formula_sum   'Tm5 B1 Os2 C6'
_cell_volume   192.93217091
_cell_formula_units_Z   1
loop_
 _symmetry_equiv_pos_site_id
 _symmetry_equiv_pos_as_xyz
  1  'x, y, z'
loop_
 _atom_site_type_symbol
 _atom_site_label
 _atom_site_symmetry_multiplicity
 _atom_site_fract_x
 _atom_site_fract_y
 _atom_site_fract_z
 _atom_site_occupancy
  Tm  Tm0  1  0.500000  0.500000  0.000000  1
  Tm  Tm1  1  0.080251  0.333672  0.500000  1
  Tm  Tm2  1  0.919749  0.666328  0.500000  1
  Tm  Tm3  1  0.666328  0.919749  0.500000  1
  Tm  Tm4  1  0.333672  0.080251  0.500000  1
  B  B5  1  0.000000  0.000000  0.000000  1
  Os  Os6  1  0.714213  0.285787  0.000000  1
  Os  Os7  1  0.285787  0.714213  0.000000  1
  C  C8  1  0.630179  0.369821  0.500000  1
  C  C9  1  0.369821  0.630179  0.500000  1
  C  C10  1  0.185000  0.185000  0.000000  1
  C  C11  1  0.815000  0.815000  0.000000  1
  C  C12  1  0.000000  0.500000  0.000000  1
  C  C13  1  0.500000  0.000000  0.000000  1
