# generated using pymatgen
data_Hf(Sc3Tc)3
_symmetry_space_group_name_H-M   'P 1'
_cell_length_a   8.90512300
_cell_length_b   8.90512297
_cell_length_c   8.09424100
_cell_angle_alpha   90.00000000
_cell_angle_beta   90.00000000
_cell_angle_gamma   119.99999638
_symmetry_Int_Tables_number   1
_chemical_formula_structural   Hf(Sc3Tc)3
_chemical_formula_sum   'Hf2 Sc18 Tc6'
_cell_volume   555.88713366
_cell_formula_units_Z   2
loop_
 _symmetry_equiv_pos_site_id
 _symmetry_equiv_pos_as_xyz
  1  'x, y, z'
loop_
 _atom_site_type_symbol
 _atom_site_label
 _atom_site_symmetry_multiplicity
 _atom_site_fract_x
 _atom_site_fract_y
 _atom_site_fract_z
 _atom_site_occupancy
  Hf  Hf0  1  0.000000  0.000000  0.000000  1
  Hf  Hf1  1  0.000000  0.000000  0.500000  1
  Sc  Sc2  1  0.404138  0.202069  0.054630  1
  Sc  Sc3  1  0.797931  0.202069  0.054630  1
  Sc  Sc4  1  0.797930  0.595861  0.054630  1
  Sc  Sc5  1  0.094675  0.547338  0.250000  1
  Sc  Sc6  1  0.452662  0.547338  0.250000  1
  Sc  Sc7  1  0.452662  0.905326  0.250000  1
  Sc  Sc8  1  0.404138  0.202069  0.445370  1
  Sc  Sc9  1  0.797931  0.202069  0.445370  1
  Sc  Sc10  1  0.797930  0.595861  0.445370  1
  Sc  Sc11  1  0.202069  0.404139  0.554631  1
  Sc  Sc12  1  0.202068  0.797931  0.554631  1
  Sc  Sc13  1  0.595862  0.797931  0.554631  1
  Sc  Sc14  1  0.547337  0.094674  0.750001  1
  Sc  Sc15  1  0.547338  0.452662  0.750001  1
  Sc  Sc16  1  0.905326  0.452662  0.750001  1
  Sc  Sc17  1  0.202069  0.404139  0.945369  1
  Sc  Sc18  1  0.202068  0.797931  0.945369  1
  Sc  Sc19  1  0.595862  0.797931  0.945369  1
  Tc  Tc20  1  0.119255  0.238511  0.250000  1
  Tc  Tc21  1  0.119254  0.880745  0.250000  1
  Tc  Tc22  1  0.761490  0.880745  0.250000  1
  Tc  Tc23  1  0.238511  0.119255  0.750001  1
  Tc  Tc24  1  0.880745  0.119255  0.750001  1
  Tc  Tc25  1  0.880744  0.761489  0.750001  1
