# generated using pymatgen
data_CeY7Be3Si12Pd
_symmetry_space_group_name_H-M   'P 1'
_cell_length_a   7.95408900
_cell_length_b   7.95408913
_cell_length_c   8.17737800
_cell_angle_alpha   90.00000000
_cell_angle_beta   90.00000000
_cell_angle_gamma   120.00000362
_symmetry_Int_Tables_number   1
_chemical_formula_structural   CeY7Be3Si12Pd
_chemical_formula_sum   'Ce1 Y7 Be3 Si12 Pd1'
_cell_volume   448.04907875
_cell_formula_units_Z   1
loop_
 _symmetry_equiv_pos_site_id
 _symmetry_equiv_pos_as_xyz
  1  'x, y, z'
loop_
 _atom_site_type_symbol
 _atom_site_label
 _atom_site_symmetry_multiplicity
 _atom_site_fract_x
 _atom_site_fract_y
 _atom_site_fract_z
 _atom_site_occupancy
  Ce  Ce0  1  0.000000  0.000000  0.750836  1
  Y  Y1  1  0.501457  0.002914  0.247823  1
  Y  Y2  1  0.502109  0.004221  0.752151  1
  Y  Y3  1  0.997086  0.498543  0.247823  1
  Y  Y4  1  0.995779  0.497891  0.752151  1
  Y  Y5  1  0.501457  0.498543  0.247823  1
  Y  Y6  1  0.502109  0.497891  0.752151  1
  Y  Y7  1  0.000000  0.000000  0.249393  1
  Be  Be8  1  0.333333  0.666667  0.001674  1
  Be  Be9  1  0.666667  0.333333  0.001858  1
  Be  Be10  1  0.666667  0.333333  0.497449  1
  Si  Si11  1  0.172314  0.344626  0.999502  1
  Si  Si12  1  0.827042  0.654084  0.000644  1
  Si  Si13  1  0.655374  0.827686  0.999502  1
  Si  Si14  1  0.828136  0.656274  0.499470  1
  Si  Si15  1  0.345916  0.172958  0.000644  1
  Si  Si16  1  0.165926  0.331850  0.499545  1
  Si  Si17  1  0.172314  0.827686  0.999502  1
  Si  Si18  1  0.343726  0.171864  0.499470  1
  Si  Si19  1  0.827042  0.172958  0.000644  1
  Si  Si20  1  0.668150  0.834074  0.499545  1
  Si  Si21  1  0.828136  0.171864  0.499470  1
  Si  Si22  1  0.165926  0.834074  0.499545  1
  Pd  Pd23  1  0.333333  0.666667  0.501384  1
