# generated using pymatgen
data_Y6PC2Cl5
_symmetry_space_group_name_H-M   'P 1'
_cell_length_a   3.74198702
_cell_length_b   8.58817533
_cell_length_c   10.23137900
_cell_angle_alpha   86.61287540
_cell_angle_beta   79.45689226
_cell_angle_gamma   77.19854013
_symmetry_Int_Tables_number   1
_chemical_formula_structural   Y6PC2Cl5
_chemical_formula_sum   'Y6 P1 C2 Cl5'
_cell_volume   315.15934257
_cell_formula_units_Z   1
loop_
 _symmetry_equiv_pos_site_id
 _symmetry_equiv_pos_as_xyz
  1  'x, y, z'
loop_
 _atom_site_type_symbol
 _atom_site_label
 _atom_site_symmetry_multiplicity
 _atom_site_fract_x
 _atom_site_fract_y
 _atom_site_fract_z
 _atom_site_occupancy
  Y  Y0  1  0.578661  0.065933  0.780908  1
  Y  Y1  1  0.958995  0.406679  0.677960  1
  Y  Y2  1  0.690601  0.164880  0.456208  1
  Y  Y3  1  0.046360  0.590966  0.320554  1
  Y  Y4  1  0.314723  0.832806  0.542237  1
  Y  Y5  1  0.426677  0.931726  0.217517  1
  P  P6  1  0.502710  0.498837  0.499260  1
  C  C7  1  0.127590  0.118800  0.629592  1
  C  C8  1  0.877622  0.878868  0.368862  1
  Cl  Cl9  1  0.755095  0.745607  0.749681  1
  Cl  Cl10  1  0.378361  0.367175  0.878970  1
  Cl  Cl11  1  0.250162  0.252083  0.248795  1
  Cl  Cl12  1  0.626922  0.630437  0.119558  1
  Cl  Cl13  1  0.002743  0.998791  0.999210  1
