# generated using pymatgen
data_Lu(HfRe6)4
_symmetry_space_group_name_H-M   'P 1'
_cell_length_a   8.48819079
_cell_length_b   8.48819042
_cell_length_c   8.48819100
_cell_angle_alpha   109.47122201
_cell_angle_beta   109.47122113
_cell_angle_gamma   109.47122439
_symmetry_Int_Tables_number   1
_chemical_formula_structural   Lu(HfRe6)4
_chemical_formula_sum   'Lu1 Hf4 Re24'
_cell_volume   470.78592383
_cell_formula_units_Z   1
loop_
 _symmetry_equiv_pos_site_id
 _symmetry_equiv_pos_as_xyz
  1  'x, y, z'
loop_
 _atom_site_type_symbol
 _atom_site_label
 _atom_site_symmetry_multiplicity
 _atom_site_fract_x
 _atom_site_fract_y
 _atom_site_fract_z
 _atom_site_occupancy
  Lu  Lu0  1  0.000000  0.000000  0.000000  1
  Hf  Hf1  1  0.628852  0.000000  0.000000  1
  Hf  Hf2  1  0.000000  0.628852  0.000000  1
  Hf  Hf3  1  0.000000  0.000000  0.628852  1
  Hf  Hf4  1  0.371148  0.371148  0.371148  1
  Re  Re5  1  0.396344  0.676628  0.000000  1
  Re  Re6  1  0.719717  0.323372  0.323372  1
  Re  Re7  1  0.396344  0.000000  0.676628  1
  Re  Re8  1  0.676628  0.396344  0.000000  1
  Re  Re9  1  0.000000  0.396344  0.676628  1
  Re  Re10  1  0.323372  0.719717  0.323372  1
  Re  Re11  1  0.323372  0.323372  0.719717  1
  Re  Re12  1  0.000000  0.676628  0.396344  1
  Re  Re13  1  0.676628  0.000000  0.396344  1
  Re  Re14  1  0.603656  0.603656  0.280283  1
  Re  Re15  1  0.280283  0.603656  0.603656  1
  Re  Re16  1  0.603656  0.280283  0.603656  1
  Re  Re17  1  0.377253  0.194504  0.000000  1
  Re  Re18  1  0.182749  0.805496  0.805496  1
  Re  Re19  1  0.377253  0.000000  0.194504  1
  Re  Re20  1  0.194504  0.377253  0.000000  1
  Re  Re21  1  0.000000  0.377253  0.194504  1
  Re  Re22  1  0.805496  0.182749  0.805496  1
  Re  Re23  1  0.805496  0.805496  0.182749  1
  Re  Re24  1  0.000000  0.194504  0.377253  1
  Re  Re25  1  0.194504  0.000000  0.377253  1
  Re  Re26  1  0.622747  0.622747  0.817251  1
  Re  Re27  1  0.817251  0.622747  0.622747  1
  Re  Re28  1  0.622747  0.817251  0.622747  1
