# generated using pymatgen
data_Ag2Br13Cl
_symmetry_space_group_name_H-M   'P 1'
_cell_length_a   8.95589455
_cell_length_b   9.56034512
_cell_length_c   18.53975400
_cell_angle_alpha   90.00000000
_cell_angle_beta   90.00000000
_cell_angle_gamma   74.30074799
_symmetry_Int_Tables_number   1
_chemical_formula_structural   Ag2Br13Cl
_chemical_formula_sum   'Ag4 Br26 Cl2'
_cell_volume   1528.18295438
_cell_formula_units_Z   2
loop_
 _symmetry_equiv_pos_site_id
 _symmetry_equiv_pos_as_xyz
  1  'x, y, z'
loop_
 _atom_site_type_symbol
 _atom_site_label
 _atom_site_symmetry_multiplicity
 _atom_site_fract_x
 _atom_site_fract_y
 _atom_site_fract_z
 _atom_site_occupancy
  Ag  Ag0  1  0.557565  0.960515  0.235498  1
  Ag  Ag1  1  0.574804  0.454099  0.269386  1
  Ag  Ag2  1  0.442435  0.539485  0.735498  1
  Ag  Ag3  1  0.425196  0.045901  0.769386  1
  Br  Br4  1  0.256289  0.311767  0.140340  1
  Br  Br5  1  0.717617  0.908002  0.774385  1
  Br  Br6  1  0.762402  0.854047  0.334373  1
  Br  Br7  1  0.282383  0.591998  0.274385  1
  Br  Br8  1  0.237598  0.645953  0.834373  1
  Br  Br9  1  0.256135  0.040266  0.434646  1
  Br  Br10  1  0.727824  0.612300  0.369580  1
  Br  Br11  1  0.306740  0.148781  0.909442  1
  Br  Br12  1  0.272176  0.887700  0.869580  1
  Br  Br13  1  0.769739  0.345355  0.165742  1
  Br  Br14  1  0.693260  0.351219  0.409442  1
  Br  Br15  1  0.743711  0.188233  0.640340  1
  Br  Br16  1  0.270703  0.809663  0.351755  1
  Br  Br17  1  0.983252  0.191697  0.420330  1
  Br  Br18  1  0.765845  0.950689  0.560648  1
  Br  Br19  1  0.966701  0.699043  0.082304  1
  Br  Br20  1  0.268404  0.090131  0.214614  1
  Br  Br21  1  0.729382  0.105776  0.134982  1
  Br  Br22  1  0.729297  0.690337  0.851755  1
  Br  Br23  1  0.731596  0.409869  0.714614  1
  Br  Br24  1  0.234155  0.549311  0.060648  1
  Br  Br25  1  0.033299  0.800957  0.582304  1
  Br  Br26  1  0.743865  0.459734  0.934646  1
  Br  Br27  1  0.270618  0.394224  0.634982  1
  Br  Br28  1  0.230261  0.154645  0.665742  1
  Br  Br29  1  0.016748  0.308303  0.920330  1
  Cl  Cl30  1  0.691497  0.855051  0.101975  1
  Cl  Cl31  1  0.308503  0.644949  0.601975  1
