# generated using pymatgen
data_Tm8Nb9Si16W3
_symmetry_space_group_name_H-M   'P 1'
_cell_length_a   6.77040247
_cell_length_b   7.00757241
_cell_length_c   13.27277300
_cell_angle_alpha   90.00000000
_cell_angle_beta   90.00000000
_cell_angle_gamma   90.02803995
_symmetry_Int_Tables_number   1
_chemical_formula_structural   Tm8Nb9Si16W3
_chemical_formula_sum   'Tm8 Nb9 Si16 W3'
_cell_volume   629.71450230
_cell_formula_units_Z   1
loop_
 _symmetry_equiv_pos_site_id
 _symmetry_equiv_pos_as_xyz
  1  'x, y, z'
loop_
 _atom_site_type_symbol
 _atom_site_label
 _atom_site_symmetry_multiplicity
 _atom_site_fract_x
 _atom_site_fract_y
 _atom_site_fract_z
 _atom_site_occupancy
  Tm  Tm0  1  0.003675  0.172892  0.094995  1
  Tm  Tm1  1  0.995521  0.826995  0.905258  1
  Tm  Tm2  1  0.496374  0.672764  0.904961  1
  Tm  Tm3  1  0.995521  0.826995  0.594742  1
  Tm  Tm4  1  0.502997  0.327429  0.095024  1
  Tm  Tm5  1  0.003675  0.172892  0.405005  1
  Tm  Tm6  1  0.502997  0.327429  0.404976  1
  Tm  Tm7  1  0.496374  0.672764  0.595039  1
  Nb  Nb8  1  0.658187  0.007061  0.750000  1
  Nb  Nb9  1  0.331134  0.171125  0.625180  1
  Nb  Nb10  1  0.669308  0.830029  0.373319  1
  Nb  Nb11  1  0.168000  0.669246  0.373604  1
  Nb  Nb12  1  0.669308  0.830029  0.126681  1
  Nb  Nb13  1  0.832755  0.330328  0.625602  1
  Nb  Nb14  1  0.331134  0.171125  0.874820  1
  Nb  Nb15  1  0.832755  0.330328  0.874398  1
  Nb  Nb16  1  0.168000  0.669246  0.126396  1
  Si  Si17  1  0.034765  0.120299  0.750000  1
  Si  Si18  1  0.969433  0.881367  0.250000  1
  Si  Si19  1  0.468496  0.620159  0.250000  1
  Si  Si20  1  0.530785  0.381269  0.750000  1
  Si  Si21  1  0.289964  0.863810  0.750000  1
  Si  Si22  1  0.705144  0.135547  0.250000  1
  Si  Si23  1  0.205067  0.364815  0.250000  1
  Si  Si24  1  0.795098  0.631533  0.750000  1
  Si  Si25  1  0.163547  0.462740  0.542992  1
  Si  Si26  1  0.836578  0.537420  0.456926  1
  Si  Si27  1  0.337293  0.962142  0.456670  1
  Si  Si28  1  0.836578  0.537420  0.043074  1
  Si  Si29  1  0.663315  0.037604  0.541314  1
  Si  Si30  1  0.163547  0.462740  0.957008  1
  Si  Si31  1  0.663315  0.037604  0.958686  1
  Si  Si32  1  0.337293  0.962142  0.043330  1
  W  W33  1  0.157842  0.492389  0.750000  1
  W  W34  1  0.842244  0.507405  0.250000  1
  W  W35  1  0.341975  0.992916  0.250000  1
