# generated using pymatgen
data_Yb4PrIr2
_symmetry_space_group_name_H-M   'P 1'
_cell_length_a   8.60699084
_cell_length_b   8.60699167
_cell_length_c   7.45759534
_cell_angle_alpha   83.06515268
_cell_angle_beta   83.06515026
_cell_angle_gamma   44.89060621
_symmetry_Int_Tables_number   1
_chemical_formula_structural   Yb4PrIr2
_chemical_formula_sum   'Yb8 Pr2 Ir4'
_cell_volume   386.56090582
_cell_formula_units_Z   2
loop_
 _symmetry_equiv_pos_site_id
 _symmetry_equiv_pos_as_xyz
  1  'x, y, z'
loop_
 _atom_site_type_symbol
 _atom_site_label
 _atom_site_symmetry_multiplicity
 _atom_site_fract_x
 _atom_site_fract_y
 _atom_site_fract_z
 _atom_site_occupancy
  Yb  Yb0  1  0.018365  0.804356  0.917487  1
  Yb  Yb1  1  0.195644  0.981635  0.582513  1
  Yb  Yb2  1  0.981635  0.195644  0.082513  1
  Yb  Yb3  1  0.804356  0.018365  0.417487  1
  Yb  Yb4  1  0.356795  0.205483  0.820281  1
  Yb  Yb5  1  0.794517  0.643205  0.679719  1
  Yb  Yb6  1  0.643205  0.794517  0.179719  1
  Yb  Yb7  1  0.205483  0.356795  0.320281  1
  Pr  Pr8  1  0.568560  0.431440  0.750000  1
  Pr  Pr9  1  0.431440  0.568560  0.250000  1
  Ir  Ir10  1  0.178101  0.602663  0.577954  1
  Ir  Ir11  1  0.397337  0.821899  0.922046  1
  Ir  Ir12  1  0.821899  0.397337  0.422046  1
  Ir  Ir13  1  0.602663  0.178101  0.077954  1
