# generated using pymatgen
data_Na4InGa3I16
_symmetry_space_group_name_H-M   'P 1'
_cell_length_a   8.03625559
_cell_length_b   8.59272262
_cell_length_c   15.79850363
_cell_angle_alpha   86.86901513
_cell_angle_beta   90.18604625
_cell_angle_gamma   89.95480877
_symmetry_Int_Tables_number   1
_chemical_formula_structural   Na4InGa3I16
_chemical_formula_sum   'Na4 In1 Ga3 I16'
_cell_volume   1089.30432999
_cell_formula_units_Z   1
loop_
 _symmetry_equiv_pos_site_id
 _symmetry_equiv_pos_as_xyz
  1  'x, y, z'
loop_
 _atom_site_type_symbol
 _atom_site_label
 _atom_site_symmetry_multiplicity
 _atom_site_fract_x
 _atom_site_fract_y
 _atom_site_fract_z
 _atom_site_occupancy
  Na  Na0  1  0.993642  0.848593  0.376106  1
  Na  Na1  1  0.495235  0.150713  0.124257  1
  Na  Na2  1  0.006080  0.151432  0.624244  1
  Na  Na3  1  0.506414  0.848498  0.875400  1
  In  In4  1  0.310441  0.703042  0.100885  1
  Ga  Ga5  1  0.187822  0.705296  0.600571  1
  Ga  Ga6  1  0.687843  0.294396  0.899300  1
  Ga  Ga7  1  0.812171  0.294414  0.399613  1
  I  I8  1  0.322029  0.685223  0.453511  1
  I  I9  1  0.822116  0.315457  0.046743  1
  I  I10  1  0.677854  0.314719  0.546574  1
  I  I11  1  0.172007  0.685106  0.942935  1
  I  I12  1  0.119768  0.198295  0.424185  1
  I  I13  1  0.635877  0.809070  0.074741  1
  I  I14  1  0.879830  0.801324  0.577047  1
  I  I15  1  0.379975  0.198524  0.923081  1
  I  I16  1  0.333638  0.929664  0.679900  1
  I  I17  1  0.833225  0.070685  0.819727  1
  I  I18  1  0.666643  0.070162  0.320209  1
  I  I19  1  0.159571  0.943194  0.184559  1
  I  I20  1  0.205338  0.449833  0.693331  1
  I  I21  1  0.704385  0.549486  0.806280  1
  I  I22  1  0.794922  0.549865  0.306502  1
  I  I23  1  0.293172  0.433008  0.200300  1
