# generated using pymatgen
data_ErGe3AsRh6
_symmetry_space_group_name_H-M   'P 1'
_cell_length_a   7.20656600
_cell_length_b   7.26355445
_cell_length_c   3.82199300
_cell_angle_alpha   90.00000000
_cell_angle_beta   90.00000000
_cell_angle_gamma   119.74080039
_symmetry_Int_Tables_number   1
_chemical_formula_structural   ErGe3AsRh6
_chemical_formula_sum   'Er1 Ge3 As1 Rh6'
_cell_volume   173.71066718
_cell_formula_units_Z   1
loop_
 _symmetry_equiv_pos_site_id
 _symmetry_equiv_pos_as_xyz
  1  'x, y, z'
loop_
 _atom_site_type_symbol
 _atom_site_label
 _atom_site_symmetry_multiplicity
 _atom_site_fract_x
 _atom_site_fract_y
 _atom_site_fract_z
 _atom_site_occupancy
  Er  Er0  1  0.001055  0.002109  0.000000  1
  Ge  Ge1  1  0.804472  0.192457  0.500000  1
  Ge  Ge2  1  0.387985  0.192457  0.500000  1
  Ge  Ge3  1  0.333994  0.667987  0.000000  1
  As  As4  1  0.806598  0.613196  0.500000  1
  Rh  Rh5  1  0.196591  0.801510  0.500000  1
  Rh  Rh6  1  0.198041  0.396082  0.500000  1
  Rh  Rh7  1  0.534426  0.068854  0.000000  1
  Rh  Rh8  1  0.931438  0.465253  0.000000  1
  Rh  Rh9  1  0.533815  0.465253  0.000000  1
  Rh  Rh10  1  0.604919  0.801510  0.500000  1
