# generated using pymatgen
data_Tb5B2(Rh4Pb)3
_symmetry_space_group_name_H-M   'P 1'
_cell_length_a   5.84572700
_cell_length_b   5.84572668
_cell_length_c   14.03251900
_cell_angle_alpha   90.00000000
_cell_angle_beta   90.00000000
_cell_angle_gamma   119.99999618
_symmetry_Int_Tables_number   1
_chemical_formula_structural   Tb5B2(Rh4Pb)3
_chemical_formula_sum   'Tb5 B2 Rh12 Pb3'
_cell_volume   415.28220563
_cell_formula_units_Z   1
loop_
 _symmetry_equiv_pos_site_id
 _symmetry_equiv_pos_as_xyz
  1  'x, y, z'
loop_
 _atom_site_type_symbol
 _atom_site_label
 _atom_site_symmetry_multiplicity
 _atom_site_fract_x
 _atom_site_fract_y
 _atom_site_fract_z
 _atom_site_occupancy
  Tb  Tb0  1  0.000000  0.000000  0.750000  1
  Tb  Tb1  1  0.333333  0.666667  0.415598  1
  Tb  Tb2  1  0.666667  0.333333  0.915005  1
  Tb  Tb3  1  0.666667  0.333333  0.584995  1
  Tb  Tb4  1  0.333333  0.666667  0.084402  1
  B  B5  1  0.000000  0.000000  0.500534  1
  B  B6  1  0.000000  0.000000  0.999466  1
  Rh  Rh7  1  0.339096  0.169549  0.412206  1
  Rh  Rh8  1  0.830451  0.169549  0.412206  1
  Rh  Rh9  1  0.830451  0.660904  0.412206  1
  Rh  Rh10  1  0.170772  0.341543  0.914677  1
  Rh  Rh11  1  0.658457  0.829228  0.585323  1
  Rh  Rh12  1  0.658457  0.829228  0.914677  1
  Rh  Rh13  1  0.339096  0.169549  0.087794  1
  Rh  Rh14  1  0.170772  0.341543  0.585323  1
  Rh  Rh15  1  0.170772  0.829228  0.585323  1
  Rh  Rh16  1  0.830451  0.169549  0.087794  1
  Rh  Rh17  1  0.830451  0.660904  0.087794  1
  Rh  Rh18  1  0.170772  0.829228  0.914677  1
  Pb  Pb19  1  0.000000  0.000000  0.250000  1
  Pb  Pb20  1  0.333333  0.666667  0.750000  1
  Pb  Pb21  1  0.666667  0.333333  0.250000  1
