# generated using pymatgen
data_Dy6Ho2Ti11Si16Ag
_symmetry_space_group_name_H-M   'P 1'
_cell_length_a   7.07025380
_cell_length_b   7.06976552
_cell_length_c   12.91409517
_cell_angle_alpha   90.06390871
_cell_angle_beta   89.92856187
_cell_angle_gamma   89.65450617
_symmetry_Int_Tables_number   1
_chemical_formula_structural   Dy6Ho2Ti11Si16Ag
_chemical_formula_sum   'Dy6 Ho2 Ti11 Si16 Ag1'
_cell_volume   645.49887428
_cell_formula_units_Z   1
loop_
 _symmetry_equiv_pos_site_id
 _symmetry_equiv_pos_as_xyz
  1  'x, y, z'
loop_
 _atom_site_type_symbol
 _atom_site_label
 _atom_site_symmetry_multiplicity
 _atom_site_fract_x
 _atom_site_fract_y
 _atom_site_fract_z
 _atom_site_occupancy
  Dy  Dy0  1  0.340753  0.002573  0.466659  1
  Dy  Dy1  1  0.497479  0.840090  0.716699  1
  Dy  Dy2  1  0.501000  0.158364  0.214496  1
  Dy  Dy3  1  0.840213  0.497563  0.283327  1
  Dy  Dy4  1  0.158349  0.501063  0.785515  1
  Dy  Dy5  1  0.656387  0.000521  0.968353  1
  Ho  Ho6  1  0.002355  0.341000  0.533355  1
  Ho  Ho7  1  0.000694  0.656438  0.031683  1
  Ti  Ti8  1  0.173903  0.826544  0.250036  1
  Ti  Ti9  1  0.826691  0.173931  0.749905  1
  Ti  Ti10  1  0.673001  0.672839  0.500016  1
  Ti  Ti11  1  0.148257  0.007874  0.876964  1
  Ti  Ti12  1  0.495023  0.650668  0.123533  1
  Ti  Ti13  1  0.507785  0.350204  0.625189  1
  Ti  Ti14  1  0.650765  0.495100  0.876496  1
  Ti  Ti15  1  0.350105  0.507764  0.374799  1
  Ti  Ti16  1  0.849592  0.992230  0.374646  1
  Ti  Ti17  1  0.007907  0.148209  0.123070  1
  Ti  Ti18  1  0.992249  0.849517  0.625357  1
  Si  Si19  1  0.202121  0.132160  0.684268  1
  Si  Si20  1  0.373549  0.718685  0.929414  1
  Si  Si21  1  0.631211  0.294617  0.432863  1
  Si  Si22  1  0.718922  0.374016  0.070559  1
  Si  Si23  1  0.294375  0.630886  0.567183  1
  Si  Si24  1  0.797595  0.867913  0.182764  1
  Si  Si25  1  0.132074  0.202333  0.315718  1
  Si  Si26  1  0.868230  0.797364  0.817208  1
  Si  Si27  1  0.285743  0.937951  0.066212  1
  Si  Si28  1  0.546527  0.791259  0.314535  1
  Si  Si29  1  0.455424  0.207675  0.808812  1
  Si  Si30  1  0.791439  0.546507  0.685362  1
  Si  Si31  1  0.207532  0.455722  0.191127  1
  Si  Si32  1  0.709110  0.047740  0.564386  1
  Si  Si33  1  0.938335  0.286174  0.933815  1
  Si  Si34  1  0.047659  0.708715  0.435676  1
  Ag  Ag35  1  0.327644  0.327791  0.999996  1
