# generated using pymatgen
data_Ho8Ga12CoPd3
_symmetry_space_group_name_H-M   'P 1'
_cell_length_a   7.00609000
_cell_length_b   8.86015585
_cell_length_c   8.86015600
_cell_angle_alpha   120.00000057
_cell_angle_beta   90.00000000
_cell_angle_gamma   90.00000000
_symmetry_Int_Tables_number   1
_chemical_formula_structural   Ho8Ga12CoPd3
_chemical_formula_sum   'Ho8 Ga12 Co1 Pd3'
_cell_volume   476.30931034
_cell_formula_units_Z   1
loop_
 _symmetry_equiv_pos_site_id
 _symmetry_equiv_pos_as_xyz
  1  'x, y, z'
loop_
 _atom_site_type_symbol
 _atom_site_label
 _atom_site_symmetry_multiplicity
 _atom_site_fract_x
 _atom_site_fract_y
 _atom_site_fract_z
 _atom_site_occupancy
  Ho  Ho0  1  0.743476  0.000000  0.000000  1
  Ho  Ho1  1  0.247473  0.000000  0.000000  1
  Ho  Ho2  1  0.751045  0.481242  0.518758  1
  Ho  Ho3  1  0.255633  0.524086  0.475914  1
  Ho  Ho4  1  0.751045  0.037517  0.518758  1
  Ho  Ho5  1  0.255633  0.951828  0.475914  1
  Ho  Ho6  1  0.751045  0.481242  0.962483  1
  Ho  Ho7  1  0.255633  0.524086  0.048172  1
  Ga  Ga8  1  0.954722  0.833786  0.166214  1
  Ga  Ga9  1  0.047670  0.167636  0.832364  1
  Ga  Ga10  1  0.954722  0.332430  0.166214  1
  Ga  Ga11  1  0.454253  0.166733  0.833267  1
  Ga  Ga12  1  0.047670  0.664728  0.832364  1
  Ga  Ga13  1  0.547054  0.826614  0.173386  1
  Ga  Ga14  1  0.954722  0.833786  0.667570  1
  Ga  Ga15  1  0.454253  0.666533  0.833267  1
  Ga  Ga16  1  0.047670  0.167636  0.335272  1
  Ga  Ga17  1  0.547054  0.346774  0.173386  1
  Ga  Ga18  1  0.454253  0.166733  0.333467  1
  Ga  Ga19  1  0.547054  0.826614  0.653226  1
  Co  Co20  1  0.517214  0.666667  0.333333  1
  Pd  Pd21  1  0.959260  0.666667  0.333333  1
  Pd  Pd22  1  0.033184  0.333333  0.666667  1
  Pd  Pd23  1  0.468266  0.333333  0.666667  1
