# generated using pymatgen
data_Er2MnNiIr2
_symmetry_space_group_name_H-M   'P 1'
_cell_length_a   5.04198896
_cell_length_b   5.19404572
_cell_length_c   5.19404493
_cell_angle_alpha   63.54889342
_cell_angle_beta   62.33815806
_cell_angle_gamma   62.33816519
_symmetry_Int_Tables_number   1
_chemical_formula_structural   Er2MnNiIr2
_chemical_formula_sum   'Er2 Mn1 Ni1 Ir2'
_cell_volume   102.02086131
_cell_formula_units_Z   1
loop_
 _symmetry_equiv_pos_site_id
 _symmetry_equiv_pos_as_xyz
  1  'x, y, z'
loop_
 _atom_site_type_symbol
 _atom_site_label
 _atom_site_symmetry_multiplicity
 _atom_site_fract_x
 _atom_site_fract_y
 _atom_site_fract_z
 _atom_site_occupancy
  Er  Er0  1  0.249102  0.252724  0.252724  1
  Er  Er1  1  0.000898  0.997276  0.997276  1
  Mn  Mn2  1  0.625000  0.625000  0.625000  1
  Ni  Ni3  1  0.125000  0.625000  0.625000  1
  Ir  Ir4  1  0.625000  0.625000  0.125000  1
  Ir  Ir5  1  0.625000  0.125000  0.625000  1
