# generated using pymatgen
data_PSF34
_symmetry_space_group_name_H-M   'P 1'
_cell_length_a   8.65628350
_cell_length_b   8.42792831
_cell_length_c   10.06177580
_cell_angle_alpha   81.57058747
_cell_angle_beta   88.14338858
_cell_angle_gamma   66.19730945
_symmetry_Int_Tables_number   1
_chemical_formula_structural   PSF34
_chemical_formula_sum   'P1 S1 F34'
_cell_volume   664.06838445
_cell_formula_units_Z   1
loop_
 _symmetry_equiv_pos_site_id
 _symmetry_equiv_pos_as_xyz
  1  'x, y, z'
loop_
 _atom_site_type_symbol
 _atom_site_label
 _atom_site_symmetry_multiplicity
 _atom_site_fract_x
 _atom_site_fract_y
 _atom_site_fract_z
 _atom_site_occupancy
  P  P0  1  0.138975  0.748216  0.240586  1
  S  S1  1  0.862892  0.248420  0.762461  1
  F  F2  1  0.614506  0.201047  0.483721  1
  F  F3  1  0.389518  0.789686  0.513461  1
  F  F4  1  0.829647  0.706188  0.716418  1
  F  F5  1  0.161556  0.316711  0.304373  1
  F  F6  1  0.098599  0.747335  0.868500  1
  F  F7  1  0.915039  0.232703  0.141327  1
  F  F8  1  0.555603  0.147780  0.374365  1
  F  F9  1  0.442552  0.853978  0.619339  1
  F  F10  1  0.671898  0.317049  0.707400  1
  F  F11  1  0.332322  0.680403  0.299308  1
  F  F12  1  0.918245  0.091482  0.675446  1
  F  F13  1  0.076927  0.907913  0.331395  1
  F  F14  1  0.900695  0.368434  0.638851  1
  F  F15  1  0.098416  0.626339  0.367982  1
  F  F16  1  0.866505  0.805009  0.602539  1
  F  F17  1  0.152122  0.166013  0.381273  1
  F  F18  1  0.807411  0.406254  0.849169  1
  F  F19  1  0.198151  0.584623  0.154684  1
  F  F20  1  0.212261  0.691559  0.762910  1
  F  F21  1  0.781006  0.318845  0.225298  1
  F  F22  1  0.946556  0.815012  0.181443  1
  F  F23  1  0.052707  0.180689  0.818134  1
  F  F24  1  0.823884  0.128543  0.885461  1
  F  F25  1  0.179073  0.871907  0.116739  1
  F  F26  1  0.493690  0.592992  0.982315  1
  F  F27  1  0.504465  0.418705  0.012970  1
  F  F28  1  0.450404  0.093404  0.867715  1
  F  F29  1  0.531550  0.923664  0.136247  1
  F  F30  1  0.285933  0.246900  0.605974  1
  F  F31  1  0.711445  0.749223  0.388259  1
  F  F32  1  0.255301  0.396247  0.670115  1
  F  F33  1  0.745694  0.601343  0.321705  1
  F  F34  1  0.556608  0.924906  0.835491  1
  F  F35  1  0.437843  0.100480  0.156628  1
