# generated using pymatgen
data_Ho3Lu9In2Tc3
_symmetry_space_group_name_H-M   'P 1'
_cell_length_a   8.32329956
_cell_length_b   8.32330017
_cell_length_c   8.33368979
_cell_angle_alpha   108.82012463
_cell_angle_beta   108.82012724
_cell_angle_gamma   110.73206027
_symmetry_Int_Tables_number   1
_chemical_formula_structural   Ho3Lu9In2Tc3
_chemical_formula_sum   'Ho3 Lu9 In2 Tc3'
_cell_volume   444.53542587
_cell_formula_units_Z   1
loop_
 _symmetry_equiv_pos_site_id
 _symmetry_equiv_pos_as_xyz
  1  'x, y, z'
loop_
 _atom_site_type_symbol
 _atom_site_label
 _atom_site_symmetry_multiplicity
 _atom_site_fract_x
 _atom_site_fract_y
 _atom_site_fract_z
 _atom_site_occupancy
  Ho  Ho0  1  0.303990  0.304547  0.608539  1
  Ho  Ho1  1  0.695453  0.696010  0.391461  1
  Ho  Ho2  1  0.695772  0.304228  0.000000  1
  Lu  Lu3  1  0.305026  0.694974  0.000000  1
  Lu  Lu4  1  0.189155  0.428304  0.238436  1
  Lu  Lu5  1  0.811458  0.572292  0.761317  1
  Lu  Lu6  1  0.189025  0.949858  0.761317  1
  Lu  Lu7  1  0.950718  0.189868  0.761564  1
  Lu  Lu8  1  0.810132  0.049282  0.238436  1
  Lu  Lu9  1  0.050142  0.810975  0.238683  1
  Lu  Lu10  1  0.427708  0.188542  0.238683  1
  Lu  Lu11  1  0.571696  0.810845  0.761564  1
  In  In12  1  0.999989  0.499967  0.499956  1
  In  In13  1  0.500033  0.000011  0.500044  1
  Tc  Tc14  1  0.370255  0.370427  0.000000  1
  Tc  Tc15  1  0.629573  0.629745  0.000000  1
  Tc  Tc16  1  0.999875  0.000125  0.000000  1
