# generated using pymatgen
data_Y9Ho8Lu3Pt16
_symmetry_space_group_name_H-M   'P 1'
_cell_length_a   7.46599614
_cell_length_b   7.54836911
_cell_length_c   14.70708102
_cell_angle_alpha   89.98816146
_cell_angle_beta   90.00759552
_cell_angle_gamma   89.99658824
_symmetry_Int_Tables_number   1
_chemical_formula_structural   Y9Ho8Lu3Pt16
_chemical_formula_sum   'Y9 Ho8 Lu3 Pt16'
_cell_volume   828.83362320
_cell_formula_units_Z   1
loop_
 _symmetry_equiv_pos_site_id
 _symmetry_equiv_pos_as_xyz
  1  'x, y, z'
loop_
 _atom_site_type_symbol
 _atom_site_label
 _atom_site_symmetry_multiplicity
 _atom_site_fract_x
 _atom_site_fract_y
 _atom_site_fract_z
 _atom_site_occupancy
  Y  Y0  1  0.656467  0.831935  0.877974  1
  Y  Y1  1  0.997918  0.820067  0.406492  1
  Y  Y2  1  0.497662  0.679948  0.093692  1
  Y  Y3  1  0.502328  0.320396  0.593091  1
  Y  Y4  1  0.002024  0.180413  0.906873  1
  Y  Y5  1  0.001844  0.180012  0.593135  1
  Y  Y6  1  0.502300  0.320399  0.906883  1
  Y  Y7  1  0.497825  0.679944  0.406492  1
  Y  Y8  1  0.997925  0.819994  0.093459  1
  Ho  Ho9  1  0.318580  0.011757  0.749866  1
  Ho  Ho10  1  0.656542  0.832021  0.622250  1
  Ho  Ho11  1  0.156180  0.667494  0.877711  1
  Ho  Ho12  1  0.843907  0.332121  0.377509  1
  Ho  Ho13  1  0.343812  0.167836  0.122510  1
  Ho  Ho14  1  0.343785  0.167811  0.377514  1
  Ho  Ho15  1  0.843983  0.332179  0.122665  1
  Ho  Ho16  1  0.156010  0.667498  0.622169  1
  Lu  Lu17  1  0.681540  0.988296  0.249999  1
  Lu  Lu18  1  0.181530  0.511704  0.250005  1
  Lu  Lu19  1  0.818492  0.487982  0.749822  1
  Pt  Pt20  1  0.816917  0.642765  0.250034  1
  Pt  Pt21  1  0.317021  0.857131  0.250034  1
  Pt  Pt22  1  0.684529  0.144134  0.749490  1
  Pt  Pt23  1  0.182091  0.358615  0.749954  1
  Pt  Pt24  1  0.545696  0.385623  0.250053  1
  Pt  Pt25  1  0.045839  0.114317  0.250070  1
  Pt  Pt26  1  0.953681  0.885594  0.749368  1
  Pt  Pt27  1  0.454066  0.612460  0.749451  1
  Pt  Pt28  1  0.817451  0.532707  0.542332  1
  Pt  Pt29  1  0.316077  0.967827  0.958348  1
  Pt  Pt30  1  0.682500  0.032538  0.457508  1
  Pt  Pt31  1  0.182639  0.467334  0.042501  1
  Pt  Pt32  1  0.182477  0.467416  0.457450  1
  Pt  Pt33  1  0.682372  0.033320  0.043388  1
  Pt  Pt34  1  0.317467  0.967313  0.541957  1
  Pt  Pt35  1  0.818525  0.531104  0.957951  1
