# generated using pymatgen
data_Rb4Na2CaSnBi4
_symmetry_space_group_name_H-M   'P 1'
_cell_length_a   10.22647863
_cell_length_b   10.22647937
_cell_length_c   10.22647991
_cell_angle_alpha   136.50792260
_cell_angle_beta   62.77272014
_cell_angle_gamma   137.05868104
_symmetry_Int_Tables_number   1
_chemical_formula_structural   Rb4Na2CaSnBi4
_chemical_formula_sum   'Rb4 Na2 Ca1 Sn1 Bi4'
_cell_volume   495.24667963
_cell_formula_units_Z   1
loop_
 _symmetry_equiv_pos_site_id
 _symmetry_equiv_pos_as_xyz
  1  'x, y, z'
loop_
 _atom_site_type_symbol
 _atom_site_label
 _atom_site_symmetry_multiplicity
 _atom_site_fract_x
 _atom_site_fract_y
 _atom_site_fract_z
 _atom_site_occupancy
  Rb  Rb0  1  0.323179  0.734844  0.065015  1
  Rb  Rb1  1  0.176821  0.241836  0.411665  1
  Rb  Rb2  1  0.830171  0.765157  0.588335  1
  Rb  Rb3  1  0.669829  0.258165  0.934986  1
  Na  Na4  1  0.249999  0.249999  0.000000  1
  Na  Na5  1  0.750000  0.750000  0.000000  1
  Ca  Ca6  1  0.749999  0.249999  0.500000  1
  Sn  Sn7  1  0.249999  0.750000  0.500001  1
  Bi  Bi8  1  0.913139  0.292362  0.171548  1
  Bi  Bi9  1  0.586861  0.758410  0.379224  1
  Bi  Bi10  1  0.379186  0.207638  0.620777  1
  Bi  Bi11  1  0.120814  0.741590  0.828451  1
