# generated using pymatgen
data_AcSb5(BrO4)2
_symmetry_space_group_name_H-M   'P 1'
_cell_length_a   5.75027200
_cell_length_b   5.68601800
_cell_length_c   18.94874000
_cell_angle_alpha   90.00000000
_cell_angle_beta   90.00000000
_cell_angle_gamma   90.00000000
_symmetry_Int_Tables_number   1
_chemical_formula_structural   AcSb5(BrO4)2
_chemical_formula_sum   'Ac2 Sb10 Br4 O16'
_cell_volume   619.55084719
_cell_formula_units_Z   2
loop_
 _symmetry_equiv_pos_site_id
 _symmetry_equiv_pos_as_xyz
  1  'x, y, z'
loop_
 _atom_site_type_symbol
 _atom_site_label
 _atom_site_symmetry_multiplicity
 _atom_site_fract_x
 _atom_site_fract_y
 _atom_site_fract_z
 _atom_site_occupancy
  Ac  Ac0  1  0.250000  0.250858  0.500000  1
  Ac  Ac1  1  0.250000  0.249142  0.000000  1
  Sb  Sb2  1  0.333789  0.697327  0.644005  1
  Sb  Sb3  1  0.821268  0.306866  0.645451  1
  Sb  Sb4  1  0.678732  0.193134  0.145451  1
  Sb  Sb5  1  0.821268  0.193134  0.854549  1
  Sb  Sb6  1  0.678732  0.306866  0.354549  1
  Sb  Sb7  1  0.166211  0.697327  0.355995  1
  Sb  Sb8  1  0.333789  0.802673  0.855995  1
  Sb  Sb9  1  0.166211  0.802673  0.144005  1
  Sb  Sb10  1  0.750000  0.836339  0.500000  1
  Sb  Sb11  1  0.750000  0.663661  0.000000  1
  Br  Br12  1  0.698833  0.750000  0.250000  1
  Br  Br13  1  0.303700  0.250000  0.750000  1
  Br  Br14  1  0.801167  0.750000  0.750000  1
  Br  Br15  1  0.196300  0.250000  0.250000  1
  O  O16  1  0.075599  0.907382  0.435697  1
  O  O17  1  0.424401  0.907382  0.564303  1
  O  O18  1  0.075599  0.592618  0.064303  1
  O  O19  1  0.424401  0.592618  0.935697  1
  O  O20  1  0.896117  0.086167  0.563792  1
  O  O21  1  0.603883  0.086167  0.436208  1
  O  O22  1  0.896117  0.413833  0.936208  1
  O  O23  1  0.603883  0.413833  0.063792  1
  O  O24  1  0.956394  0.450702  0.404106  1
  O  O25  1  0.441872  0.975126  0.095197  1
  O  O26  1  0.956394  0.049298  0.095894  1
  O  O27  1  0.543606  0.049298  0.904106  1
  O  O28  1  0.058128  0.524874  0.595197  1
  O  O29  1  0.441872  0.524874  0.404803  1
  O  O30  1  0.058128  0.975126  0.904803  1
  O  O31  1  0.543606  0.450702  0.595894  1
