# generated using pymatgen
data_Tc4Bi3SbF28
_symmetry_space_group_name_H-M   'P 1'
_cell_length_a   5.70400463
_cell_length_b   9.23290982
_cell_length_c   12.32681900
_cell_angle_alpha   61.89891118
_cell_angle_beta   90.12977937
_cell_angle_gamma   89.89468962
_symmetry_Int_Tables_number   1
_chemical_formula_structural   Tc4Bi3SbF28
_chemical_formula_sum   'Tc4 Bi3 Sb1 F28'
_cell_volume   572.65447097
_cell_formula_units_Z   1
loop_
 _symmetry_equiv_pos_site_id
 _symmetry_equiv_pos_as_xyz
  1  'x, y, z'
loop_
 _atom_site_type_symbol
 _atom_site_label
 _atom_site_symmetry_multiplicity
 _atom_site_fract_x
 _atom_site_fract_y
 _atom_site_fract_z
 _atom_site_occupancy
  Tc  Tc0  1  0.756856  0.271284  0.960100  1
  Tc  Tc1  1  0.259829  0.727858  0.539798  1
  Tc  Tc2  1  0.240966  0.728153  0.042537  1
  Tc  Tc3  1  0.741301  0.272136  0.458672  1
  Bi  Bi4  1  0.760516  0.815988  0.760390  1
  Bi  Bi5  1  0.260772  0.184039  0.738035  1
  Bi  Bi6  1  0.240651  0.190267  0.239499  1
  Sb  Sb7  1  0.731362  0.831368  0.254862  1
  F  F8  1  0.439078  0.709594  0.919319  1
  F  F9  1  0.938931  0.289750  0.581755  1
  F  F10  1  0.560896  0.289572  0.083784  1
  F  F11  1  0.064786  0.709677  0.417946  1
  F  F12  1  0.452376  0.277380  0.544806  1
  F  F13  1  0.953695  0.720845  0.954824  1
  F  F14  1  0.547944  0.726039  0.451350  1
  F  F15  1  0.045557  0.276336  0.047120  1
  F  F16  1  0.769412  0.508104  0.863059  1
  F  F17  1  0.272912  0.488690  0.638109  1
  F  F18  1  0.230612  0.486619  0.140215  1
  F  F19  1  0.729940  0.506120  0.362145  1
  F  F20  1  0.757447  0.024860  0.059053  1
  F  F21  1  0.257600  0.971812  0.443025  1
  F  F22  1  0.240197  0.970743  0.945758  1
  F  F23  1  0.740243  0.027947  0.554971  1
  F  F24  1  0.981256  0.732116  0.633499  1
  F  F25  1  0.476861  0.265685  0.869344  1
  F  F26  1  0.020737  0.265837  0.365717  1
  F  F27  1  0.519673  0.735119  0.134034  1
  F  F28  1  0.048561  0.749528  0.166404  1
  F  F29  1  0.549934  0.252722  0.330362  1
  F  F30  1  0.947796  0.250585  0.834769  1
  F  F31  1  0.452137  0.747055  0.667769  1
  F  F32  1  0.425679  0.972067  0.228592  1
  F  F33  1  0.900506  0.022415  0.269238  1
  F  F34  1  0.591449  0.030072  0.770523  1
  F  F35  1  0.091534  0.971621  0.728622  1
