# generated using pymatgen
data_TbEr(FeOs)2
_symmetry_space_group_name_H-M   'P 1'
_cell_length_a   5.21699167
_cell_length_b   5.27433886
_cell_length_c   5.27433804
_cell_angle_alpha   59.81425117
_cell_angle_beta   60.35902395
_cell_angle_gamma   60.35902070
_symmetry_Int_Tables_number   1
_chemical_formula_structural   TbEr(FeOs)2
_chemical_formula_sum   'Tb1 Er1 Fe2 Os2'
_cell_volume   103.02836866
_cell_formula_units_Z   1
loop_
 _symmetry_equiv_pos_site_id
 _symmetry_equiv_pos_as_xyz
  1  'x, y, z'
loop_
 _atom_site_type_symbol
 _atom_site_label
 _atom_site_symmetry_multiplicity
 _atom_site_fract_x
 _atom_site_fract_y
 _atom_site_fract_z
 _atom_site_occupancy
  Tb  Tb0  1  0.997819  0.002181  0.002181  1
  Er  Er1  1  0.252268  0.247732  0.247732  1
  Fe  Fe2  1  0.125402  0.624951  0.624951  1
  Fe  Fe3  1  0.624694  0.624951  0.624951  1
  Os  Os4  1  0.624908  0.625164  0.125017  1
  Os  Os5  1  0.624908  0.125017  0.625164  1
