# generated using pymatgen
data_Tb3YbSm2(CoSn6)2
_symmetry_space_group_name_H-M   'P 1'
_cell_length_a   8.50027237
_cell_length_b   8.50027340
_cell_length_c   13.19159801
_cell_angle_alpha   90.01391723
_cell_angle_beta   89.98608242
_cell_angle_gamma   148.50366006
_symmetry_Int_Tables_number   1
_chemical_formula_structural   Tb3YbSm2(CoSn6)2
_chemical_formula_sum   'Tb3 Yb1 Sm2 Co2 Sn12'
_cell_volume   497.96974531
_cell_formula_units_Z   1
loop_
 _symmetry_equiv_pos_site_id
 _symmetry_equiv_pos_as_xyz
  1  'x, y, z'
loop_
 _atom_site_type_symbol
 _atom_site_label
 _atom_site_symmetry_multiplicity
 _atom_site_fract_x
 _atom_site_fract_y
 _atom_site_fract_z
 _atom_site_occupancy
  Tb  Tb0  1  0.900717  0.099283  0.751858  1
  Tb  Tb1  1  0.100644  0.899356  0.906757  1
  Tb  Tb2  1  0.099752  0.900248  0.249740  1
  Yb  Yb3  1  0.899227  0.100773  0.403705  1
  Sm  Sm4  1  0.899014  0.100986  0.093789  1
  Sm  Sm5  1  0.100770  0.899230  0.594234  1
  Co  Co6  1  0.298591  0.701409  0.250232  1
  Co  Co7  1  0.700633  0.299367  0.749891  1
  Sn  Sn8  1  0.757037  0.242963  0.571864  1
  Sn  Sn9  1  0.428501  0.571499  0.576620  1
  Sn  Sn10  1  0.572559  0.427441  0.423162  1
  Sn  Sn11  1  0.734247  0.265753  0.249101  1
  Sn  Sn12  1  0.265444  0.734556  0.750534  1
  Sn  Sn13  1  0.243353  0.756647  0.071395  1
  Sn  Sn14  1  0.244645  0.755355  0.428541  1
  Sn  Sn15  1  0.571651  0.428349  0.075813  1
  Sn  Sn16  1  0.453981  0.546019  0.249248  1
  Sn  Sn17  1  0.546119  0.453881  0.751171  1
  Sn  Sn18  1  0.755555  0.244445  0.928013  1
  Sn  Sn19  1  0.427561  0.572439  0.924333  1
