# generated using pymatgen
data_Y3Th(AlRu2)2
_symmetry_space_group_name_H-M   'P 1'
_cell_length_a   5.69684125
_cell_length_b   5.69684168
_cell_length_c   7.08157645
_cell_angle_alpha   88.50475699
_cell_angle_beta   91.49524533
_cell_angle_gamma   116.22890620
_symmetry_Int_Tables_number   1
_chemical_formula_structural   Y3Th(AlRu2)2
_chemical_formula_sum   'Y3 Th1 Al2 Ru4'
_cell_volume   206.06426318
_cell_formula_units_Z   1
loop_
 _symmetry_equiv_pos_site_id
 _symmetry_equiv_pos_as_xyz
  1  'x, y, z'
loop_
 _atom_site_type_symbol
 _atom_site_label
 _atom_site_symmetry_multiplicity
 _atom_site_fract_x
 _atom_site_fract_y
 _atom_site_fract_z
 _atom_site_occupancy
  Y  Y0  1  0.340304  0.659696  0.085604  1
  Y  Y1  1  0.658097  0.341903  0.910997  1
  Y  Y2  1  0.164702  0.835298  0.600556  1
  Th  Th3  1  0.832681  0.167319  0.409472  1
  Al  Al4  1  0.003304  0.996696  0.001744  1
  Al  Al5  1  0.495773  0.504227  0.500814  1
  Ru  Ru6  1  0.849734  0.645712  0.255756  1
  Ru  Ru7  1  0.660739  0.859622  0.739651  1
  Ru  Ru8  1  0.140378  0.339261  0.739651  1
  Ru  Ru9  1  0.354288  0.150266  0.255756  1
