# generated using pymatgen
data_KMn5S3F5
_symmetry_space_group_name_H-M   'P 1'
_cell_length_a   7.03670803
_cell_length_b   7.03671856
_cell_length_c   7.03675700
_cell_angle_alpha   64.06899660
_cell_angle_beta   64.06934422
_cell_angle_gamma   64.07487205
_symmetry_Int_Tables_number   1
_chemical_formula_structural   KMn5S3F5
_chemical_formula_sum   'K1 Mn5 S3 F5'
_cell_volume   268.45239914
_cell_formula_units_Z   1
loop_
 _symmetry_equiv_pos_site_id
 _symmetry_equiv_pos_as_xyz
  1  'x, y, z'
loop_
 _atom_site_type_symbol
 _atom_site_label
 _atom_site_symmetry_multiplicity
 _atom_site_fract_x
 _atom_site_fract_y
 _atom_site_fract_z
 _atom_site_occupancy
  K  K0  1  0.230955  0.230933  0.230943  1
  Mn  Mn1  1  0.995450  0.995453  0.995476  1
  Mn  Mn2  1  0.613298  0.613308  0.145464  1
  Mn  Mn3  1  0.145597  0.613229  0.613241  1
  Mn  Mn4  1  0.628577  0.628589  0.628598  1
  Mn  Mn5  1  0.613236  0.145598  0.613255  1
  S  S6  1  0.878497  0.878492  0.396807  1
  S  S7  1  0.396721  0.878507  0.878469  1
  S  S8  1  0.878512  0.396735  0.878463  1
  F  F9  1  0.396654  0.396643  0.396624  1
  F  F10  1  0.409214  0.781877  0.409166  1
  F  F11  1  0.409179  0.409168  0.781945  1
  F  F12  1  0.781875  0.409210  0.409168  1
  F  F13  1  0.872234  0.872255  0.872379  1
