# generated using pymatgen
data_ZrPaZnCo2
_symmetry_space_group_name_H-M   'P 1'
_cell_length_a   7.11480800
_cell_length_b   7.00928100
_cell_length_c   3.41530400
_cell_angle_alpha   90.00000000
_cell_angle_beta   90.00000000
_cell_angle_gamma   90.00000000
_symmetry_Int_Tables_number   1
_chemical_formula_structural   ZrPaZnCo2
_chemical_formula_sum   'Zr2 Pa2 Zn2 Co4'
_cell_volume   170.32014673
_cell_formula_units_Z   2
loop_
 _symmetry_equiv_pos_site_id
 _symmetry_equiv_pos_as_xyz
  1  'x, y, z'
loop_
 _atom_site_type_symbol
 _atom_site_label
 _atom_site_symmetry_multiplicity
 _atom_site_fract_x
 _atom_site_fract_y
 _atom_site_fract_z
 _atom_site_occupancy
  Zr  Zr0  1  0.824772  0.676844  0.500000  1
  Zr  Zr1  1  0.324772  0.823156  0.500000  1
  Pa  Pa2  1  0.692211  0.170891  0.500000  1
  Pa  Pa3  1  0.192211  0.329109  0.500000  1
  Zn  Zn4  1  0.011115  0.966092  0.000000  1
  Zn  Zn5  1  0.511115  0.533908  0.000000  1
  Co  Co6  1  0.338354  0.125032  0.000000  1
  Co  Co7  1  0.133547  0.587515  0.000000  1
  Co  Co8  1  0.633547  0.912485  0.000000  1
  Co  Co9  1  0.838354  0.374968  0.000000  1
