# generated using pymatgen
data_HoEr3Pd3Pt
_symmetry_space_group_name_H-M   'P 1'
_cell_length_a   4.54168400
_cell_length_b   5.56418666
_cell_length_c   6.93441703
_cell_angle_alpha   89.92654917
_cell_angle_beta   90.00000000
_cell_angle_gamma   90.00000000
_symmetry_Int_Tables_number   1
_chemical_formula_structural   HoEr3Pd3Pt
_chemical_formula_sum   'Ho1 Er3 Pd3 Pt1'
_cell_volume   175.23796623
_cell_formula_units_Z   1
loop_
 _symmetry_equiv_pos_site_id
 _symmetry_equiv_pos_as_xyz
  1  'x, y, z'
loop_
 _atom_site_type_symbol
 _atom_site_label
 _atom_site_symmetry_multiplicity
 _atom_site_fract_x
 _atom_site_fract_y
 _atom_site_fract_z
 _atom_site_occupancy
  Ho  Ho0  1  0.250000  0.641811  0.182963  1
  Er  Er1  1  0.750000  0.352672  0.813207  1
  Er  Er2  1  0.750000  0.148127  0.319824  1
  Er  Er3  1  0.250000  0.856386  0.682217  1
  Pd  Pd4  1  0.250000  0.152093  0.041965  1
  Pd  Pd5  1  0.750000  0.844473  0.958573  1
  Pd  Pd6  1  0.750000  0.659956  0.457288  1
  Pt  Pt7  1  0.250000  0.344482  0.543961  1
