# generated using pymatgen
data_Eu2Mn2Co10As7
_symmetry_space_group_name_H-M   'P 1'
_cell_length_a   3.79112100
_cell_length_b   9.48382429
_cell_length_c   9.52963689
_cell_angle_alpha   119.83241864
_cell_angle_beta   90.00000000
_cell_angle_gamma   90.00000000
_symmetry_Int_Tables_number   1
_chemical_formula_structural   Eu2Mn2Co10As7
_chemical_formula_sum   'Eu2 Mn2 Co10 As7'
_cell_volume   297.22752948
_cell_formula_units_Z   1
loop_
 _symmetry_equiv_pos_site_id
 _symmetry_equiv_pos_as_xyz
  1  'x, y, z'
loop_
 _atom_site_type_symbol
 _atom_site_label
 _atom_site_symmetry_multiplicity
 _atom_site_fract_x
 _atom_site_fract_y
 _atom_site_fract_z
 _atom_site_occupancy
  Eu  Eu0  1  0.000000  0.669650  0.334624  1
  Eu  Eu1  1  0.500000  0.331343  0.667719  1
  Mn  Mn2  1  0.500000  0.781935  0.893855  1
  Mn  Mn3  1  0.500000  0.117306  0.218672  1
  Co  Co4  1  0.000000  0.571387  0.945493  1
  Co  Co5  1  0.000000  0.371711  0.427838  1
  Co  Co6  1  0.000000  0.053900  0.629022  1
  Co  Co7  1  0.500000  0.095187  0.880581  1
  Co  Co8  1  0.000000  0.884383  0.154343  1
  Co  Co9  1  0.000000  0.278546  0.120812  1
  Co  Co10  1  0.000000  0.843853  0.724944  1
  Co  Co11  1  0.500000  0.950444  0.382292  1
  Co  Co12  1  0.500000  0.429596  0.047858  1
  Co  Co13  1  0.500000  0.617359  0.569110  1
  As  As14  1  0.000000  0.003820  0.997326  1
  As  As15  1  0.500000  0.708473  0.113516  1
  As  As16  1  0.500000  0.409350  0.292780  1
  As  As17  1  0.500000  0.888749  0.598885  1
  As  As18  1  0.000000  0.586237  0.699710  1
  As  As19  1  0.000000  0.111602  0.412993  1
  As  As20  1  0.000000  0.295167  0.887627  1
