# generated using pymatgen
data_PrUInIr2
_symmetry_space_group_name_H-M   'P 1'
_cell_length_a   7.83815800
_cell_length_b   7.84381700
_cell_length_c   3.65976000
_cell_angle_alpha   90.00000000
_cell_angle_beta   90.00000000
_cell_angle_gamma   90.00000000
_symmetry_Int_Tables_number   1
_chemical_formula_structural   PrUInIr2
_chemical_formula_sum   'Pr2 U2 In2 Ir4'
_cell_volume   225.00598625
_cell_formula_units_Z   2
loop_
 _symmetry_equiv_pos_site_id
 _symmetry_equiv_pos_as_xyz
  1  'x, y, z'
loop_
 _atom_site_type_symbol
 _atom_site_label
 _atom_site_symmetry_multiplicity
 _atom_site_fract_x
 _atom_site_fract_y
 _atom_site_fract_z
 _atom_site_occupancy
  Pr  Pr0  1  0.171860  0.327236  0.500000  1
  Pr  Pr1  1  0.671860  0.172764  0.500000  1
  U  U2  1  0.325250  0.832359  0.500000  1
  U  U3  1  0.825250  0.667641  0.500000  1
  In  In4  1  0.492812  0.502432  0.000000  1
  In  In5  1  0.992812  0.997568  0.000000  1
  Ir  Ir6  1  0.368120  0.080238  0.000000  1
  Ir  Ir7  1  0.641956  0.837592  0.000000  1
  Ir  Ir8  1  0.868120  0.419762  0.000000  1
  Ir  Ir9  1  0.141956  0.662408  0.000000  1
