# generated using pymatgen
data_TbHo3Al18OsPd5
_symmetry_space_group_name_H-M   'P 1'
_cell_length_a   7.62837445
_cell_length_b   7.62579017
_cell_length_c   9.47455184
_cell_angle_alpha   90.04467262
_cell_angle_beta   90.04258137
_cell_angle_gamma   119.68154156
_symmetry_Int_Tables_number   1
_chemical_formula_structural   TbHo3Al18OsPd5
_chemical_formula_sum   'Tb1 Ho3 Al18 Os1 Pd5'
_cell_volume   478.83996255
_cell_formula_units_Z   1
loop_
 _symmetry_equiv_pos_site_id
 _symmetry_equiv_pos_as_xyz
  1  'x, y, z'
loop_
 _atom_site_type_symbol
 _atom_site_label
 _atom_site_symmetry_multiplicity
 _atom_site_fract_x
 _atom_site_fract_y
 _atom_site_fract_z
 _atom_site_occupancy
  Tb  Tb0  1  0.329888  0.004486  0.750985  1
  Ho  Ho1  1  0.994792  0.669916  0.248712  1
  Ho  Ho2  1  0.005937  0.329907  0.751279  1
  Ho  Ho3  1  0.670731  0.994551  0.248772  1
  Al  Al4  1  0.128368  0.130669  0.249150  1
  Al  Al5  1  0.869124  0.871096  0.750881  1
  Al  Al6  1  0.995963  0.334072  0.075752  1
  Al  Al7  1  0.995832  0.659648  0.925305  1
  Al  Al8  1  0.998395  0.665151  0.577525  1
  Al  Al9  1  0.334232  0.000628  0.420890  1
  Al  Al10  1  0.000658  0.335055  0.422621  1
  Al  Al11  1  0.665666  0.999332  0.576443  1
  Al  Al12  1  0.666639  0.004318  0.925177  1
  Al  Al13  1  0.340083  0.003613  0.076050  1
  Al  Al14  1  0.333757  0.334647  0.559913  1
  Al  Al15  1  0.665592  0.666361  0.438719  1
  Al  Al16  1  0.667980  0.662740  0.053800  1
  Al  Al17  1  0.337537  0.332166  0.947439  1
  Al  Al18  1  0.337170  0.547907  0.249227  1
  Al  Al19  1  0.660344  0.452071  0.753790  1
  Al  Al20  1  0.548087  0.340237  0.246537  1
  Al  Al21  1  0.453224  0.662246  0.750766  1
  Os  Os22  1  0.672325  0.327849  0.000460  1
  Pd  Pd23  1  0.328183  0.671589  0.999935  1
  Pd  Pd24  1  0.327164  0.672426  0.500058  1
  Pd  Pd25  1  0.671636  0.328064  0.499788  1
  Pd  Pd26  1  0.000917  0.999108  0.000251  1
  Pd  Pd27  1  0.999775  0.000151  0.499775  1
