# generated using pymatgen
data_Rb4La2(MoH9)3
_symmetry_space_group_name_H-M   'P 1'
_cell_length_a   9.43429200
_cell_length_b   9.02208423
_cell_length_c   5.44666200
_cell_angle_alpha   90.00000000
_cell_angle_beta   90.00000000
_cell_angle_gamma   121.52324818
_symmetry_Int_Tables_number   1
_chemical_formula_structural   Rb4La2(MoH9)3
_chemical_formula_sum   'Rb4 La2 Mo3 H27'
_cell_volume   395.18856325
_cell_formula_units_Z   1
loop_
 _symmetry_equiv_pos_site_id
 _symmetry_equiv_pos_as_xyz
  1  'x, y, z'
loop_
 _atom_site_type_symbol
 _atom_site_label
 _atom_site_symmetry_multiplicity
 _atom_site_fract_x
 _atom_site_fract_y
 _atom_site_fract_z
 _atom_site_occupancy
  Rb  Rb0  1  0.260897  0.000000  0.500000  1
  Rb  Rb1  1  0.029319  0.617392  0.000000  1
  Rb  Rb2  1  0.411928  0.382608  0.000000  1
  Rb  Rb3  1  0.578068  0.000000  0.000000  1
  La  La4  1  0.987626  0.264657  0.500000  1
  La  La5  1  0.722970  0.735343  0.500000  1
  Mo  Mo6  1  0.699871  0.362579  0.500000  1
  Mo  Mo7  1  0.337290  0.637421  0.500000  1
  Mo  Mo8  1  0.965412  0.000000  0.000000  1
  H  H9  1  0.814372  0.335169  0.736043  1
  H  H10  1  0.719545  0.505213  0.739826  1
  H  H11  1  0.551951  0.233050  0.719182  1
  H  H12  1  0.214331  0.494787  0.260174  1
  H  H13  1  0.551951  0.233050  0.280818  1
  H  H14  1  0.814372  0.335169  0.263957  1
  H  H15  1  0.719545  0.505213  0.260174  1
  H  H16  1  0.318900  0.766950  0.719182  1
  H  H17  1  0.479204  0.664831  0.736043  1
  H  H18  1  0.146508  0.000000  0.000000  1
  H  H19  1  0.766316  0.802633  0.000000  1
  H  H20  1  0.963683  0.197367  0.000000  1
  H  H21  1  0.842370  0.000000  0.260933  1
  H  H22  1  0.107053  0.144478  0.779059  1
  H  H23  1  0.962575  0.855522  0.779059  1
  H  H24  1  0.962575  0.855522  0.220941  1
  H  H25  1  0.107053  0.144478  0.220941  1
  H  H26  1  0.842370  0.000000  0.739067  1
  H  H27  1  0.140997  0.607157  0.500000  1
  H  H28  1  0.515792  0.846235  0.500000  1
  H  H29  1  0.349891  0.450457  0.500000  1
  H  H30  1  0.533840  0.392843  0.500000  1
  H  H31  1  0.899434  0.549543  0.500000  1
  H  H32  1  0.669555  0.153765  0.500000  1
  H  H33  1  0.214331  0.494787  0.739826  1
  H  H34  1  0.318900  0.766950  0.280818  1
  H  H35  1  0.479204  0.664831  0.263957  1
