# generated using pymatgen
data_Os5RuO12
_symmetry_space_group_name_H-M   'P 1'
_cell_length_a   4.52866991
_cell_length_b   4.52866985
_cell_length_c   9.61893300
_cell_angle_alpha   90.00000000
_cell_angle_beta   90.00000000
_cell_angle_gamma   90.08943803
_symmetry_Int_Tables_number   1
_chemical_formula_structural   Os5RuO12
_chemical_formula_sum   'Os5 Ru1 O12'
_cell_volume   197.27302210
_cell_formula_units_Z   1
loop_
 _symmetry_equiv_pos_site_id
 _symmetry_equiv_pos_as_xyz
  1  'x, y, z'
loop_
 _atom_site_type_symbol
 _atom_site_label
 _atom_site_symmetry_multiplicity
 _atom_site_fract_x
 _atom_site_fract_y
 _atom_site_fract_z
 _atom_site_occupancy
  Os  Os0  1  0.000000  0.000000  0.332208  1
  Os  Os1  1  0.000000  0.000000  0.667792  1
  Os  Os2  1  0.500000  0.500000  0.165042  1
  Os  Os3  1  0.500000  0.500000  0.500000  1
  Os  Os4  1  0.500000  0.500000  0.834958  1
  Ru  Ru5  1  0.000000  0.000000  0.000000  1
  O  O6  1  0.190158  0.190158  0.500000  1
  O  O7  1  0.195071  0.195071  0.169287  1
  O  O8  1  0.195071  0.195071  0.830713  1
  O  O9  1  0.691745  0.308255  0.333535  1
  O  O10  1  0.691745  0.308255  0.666465  1
  O  O11  1  0.688799  0.311201  0.000000  1
  O  O12  1  0.311201  0.688799  0.000000  1
  O  O13  1  0.308255  0.691745  0.333535  1
  O  O14  1  0.308255  0.691745  0.666465  1
  O  O15  1  0.804929  0.804929  0.169287  1
  O  O16  1  0.804929  0.804929  0.830713  1
  O  O17  1  0.809842  0.809842  0.500000  1
