# generated using pymatgen
data_HoCo2O5
_symmetry_space_group_name_H-M   'P 1'
_cell_length_a   7.17552501
_cell_length_b   8.35796004
_cell_length_c   5.69046703
_cell_angle_alpha   90.01116464
_cell_angle_beta   90.00494209
_cell_angle_gamma   90.00133545
_symmetry_Int_Tables_number   1
_chemical_formula_structural   HoCo2O5
_chemical_formula_sum   'Ho4 Co8 O20'
_cell_volume   341.27295614
_cell_formula_units_Z   4
loop_
 _symmetry_equiv_pos_site_id
 _symmetry_equiv_pos_as_xyz
  1  'x, y, z'
loop_
 _atom_site_type_symbol
 _atom_site_label
 _atom_site_symmetry_multiplicity
 _atom_site_fract_x
 _atom_site_fract_y
 _atom_site_fract_z
 _atom_site_occupancy
  Ho  Ho0  1  0.136645  0.171873  0.000022  1
  Ho  Ho1  1  0.636634  0.328132  0.000030  1
  Ho  Ho2  1  0.363360  0.671854  0.999975  1
  Ho  Ho3  1  0.863350  0.828141  0.999979  1
  Co  Co4  1  0.500033  0.999979  0.254965  1
  Co  Co5  1  0.000017  0.500019  0.254948  1
  Co  Co6  1  0.908968  0.151450  0.499992  1
  Co  Co7  1  0.408997  0.348546  0.500064  1
  Co  Co8  1  0.591020  0.651438  0.499938  1
  Co  Co9  1  0.091032  0.848564  0.500008  1
  Co  Co10  1  0.499977  0.000011  0.745037  1
  Co  Co11  1  0.999986  0.499987  0.745051  1
  O  O12  1  0.663485  0.054941  0.999954  1
  O  O13  1  0.163497  0.445055  0.999994  1
  O  O14  1  0.836538  0.554925  0.000010  1
  O  O15  1  0.336537  0.945070  0.000044  1
  O  O16  1  0.394779  0.206615  0.243296  1
  O  O17  1  0.894758  0.293395  0.243273  1
  O  O18  1  0.105243  0.706590  0.243269  1
  O  O19  1  0.605278  0.793430  0.243235  1
  O  O20  1  0.999995  0.999995  0.274268  1
  O  O21  1  0.499962  0.500073  0.274247  1
  O  O22  1  0.651878  0.069370  0.499950  1
  O  O23  1  0.151871  0.430634  0.499920  1
  O  O24  1  0.848092  0.569385  0.500076  1
  O  O25  1  0.348098  0.930618  0.500051  1
  O  O26  1  0.999993  0.000008  0.725733  1
  O  O27  1  0.500029  0.499929  0.725753  1
  O  O28  1  0.394722  0.206574  0.756762  1
  O  O29  1  0.894756  0.293402  0.756726  1
  O  O30  1  0.105243  0.706599  0.756732  1
  O  O31  1  0.605222  0.793391  0.756704  1
