# generated using pymatgen
data_Tb5Ho5Si5Pb
_symmetry_space_group_name_H-M   'P 1'
_cell_length_a   8.52343695
_cell_length_b   8.55686982
_cell_length_c   6.40689200
_cell_angle_alpha   90.00000000
_cell_angle_beta   90.00000000
_cell_angle_gamma   119.81687079
_symmetry_Int_Tables_number   1
_chemical_formula_structural   Tb5Ho5Si5Pb
_chemical_formula_sum   'Tb5 Ho5 Si5 Pb1'
_cell_volume   405.42093929
_cell_formula_units_Z   1
loop_
 _symmetry_equiv_pos_site_id
 _symmetry_equiv_pos_as_xyz
  1  'x, y, z'
loop_
 _atom_site_type_symbol
 _atom_site_label
 _atom_site_symmetry_multiplicity
 _atom_site_fract_x
 _atom_site_fract_y
 _atom_site_fract_z
 _atom_site_occupancy
  Tb  Tb0  1  0.987872  0.746774  0.750000  1
  Tb  Tb1  1  0.998508  0.243264  0.250000  1
  Tb  Tb2  1  0.754463  0.756248  0.250000  1
  Tb  Tb3  1  0.766659  0.000186  0.750000  1
  Tb  Tb4  1  0.241154  0.000312  0.250000  1
  Ho  Ho5  1  0.241441  0.253754  0.750000  1
  Ho  Ho6  1  0.330958  0.655662  0.496342  1
  Ho  Ho7  1  0.674983  0.344112  0.003739  1
  Ho  Ho8  1  0.674983  0.344112  0.496261  1
  Ho  Ho9  1  0.330958  0.655662  0.003658  1
  Si  Si10  1  0.394432  0.392771  0.250000  1
  Si  Si11  1  0.001825  0.607587  0.250000  1
  Si  Si12  1  0.999050  0.394667  0.750000  1
  Si  Si13  1  0.602416  0.604269  0.750000  1
  Si  Si14  1  0.605054  0.000176  0.250000  1
  Pb  Pb15  1  0.395246  0.000444  0.750000  1
