# generated using pymatgen
data_NaAcP2O7
_symmetry_space_group_name_H-M   'P 1'
_cell_length_a   5.36296100
_cell_length_b   8.75816800
_cell_length_c   12.82287800
_cell_angle_alpha   90.00000000
_cell_angle_beta   90.00000000
_cell_angle_gamma   90.00000000
_symmetry_Int_Tables_number   1
_chemical_formula_structural   NaAcP2O7
_chemical_formula_sum   'Na4 Ac4 P8 O28'
_cell_volume   602.28690482
_cell_formula_units_Z   4
loop_
 _symmetry_equiv_pos_site_id
 _symmetry_equiv_pos_as_xyz
  1  'x, y, z'
loop_
 _atom_site_type_symbol
 _atom_site_label
 _atom_site_symmetry_multiplicity
 _atom_site_fract_x
 _atom_site_fract_y
 _atom_site_fract_z
 _atom_site_occupancy
  Na  Na0  1  0.750000  0.378444  0.417565  1
  Na  Na1  1  0.250000  0.121556  0.917565  1
  Na  Na2  1  0.250000  0.621556  0.582435  1
  Na  Na3  1  0.750000  0.878444  0.082435  1
  Ac  Ac4  1  0.750000  0.831999  0.764244  1
  Ac  Ac5  1  0.750000  0.331999  0.735756  1
  Ac  Ac6  1  0.250000  0.168001  0.235756  1
  Ac  Ac7  1  0.250000  0.668001  0.264244  1
  P  P8  1  0.750000  0.473586  0.172475  1
  P  P9  1  0.250000  0.526414  0.827525  1
  P  P10  1  0.750000  0.720867  0.471563  1
  P  P11  1  0.250000  0.779133  0.971563  1
  P  P12  1  0.750000  0.973586  0.327525  1
  P  P13  1  0.250000  0.279133  0.528437  1
  P  P14  1  0.750000  0.220867  0.028437  1
  P  P15  1  0.250000  0.026414  0.672475  1
  O  O16  1  0.250000  0.853492  0.665862  1
  O  O17  1  0.250000  0.285915  0.410469  1
  O  O18  1  0.750000  0.146508  0.334138  1
  O  O19  1  0.987886  0.917522  0.272620  1
  O  O20  1  0.012114  0.082478  0.727380  1
  O  O21  1  0.012114  0.582478  0.772620  1
  O  O22  1  0.484657  0.850453  0.924772  1
  O  O23  1  0.512114  0.917522  0.272620  1
  O  O24  1  0.512114  0.417522  0.227380  1
  O  O25  1  0.987886  0.417522  0.227380  1
  O  O26  1  0.750000  0.646508  0.165862  1
  O  O27  1  0.015343  0.350453  0.575228  1
  O  O28  1  0.015343  0.850453  0.924772  1
  O  O29  1  0.750000  0.903767  0.444161  1
  O  O30  1  0.515343  0.649547  0.424772  1
  O  O31  1  0.250000  0.596233  0.944161  1
  O  O32  1  0.984657  0.149547  0.075228  1
  O  O33  1  0.750000  0.403767  0.055839  1
  O  O34  1  0.487886  0.082478  0.727380  1
  O  O35  1  0.515343  0.149547  0.075228  1
  O  O36  1  0.750000  0.714085  0.589531  1
  O  O37  1  0.484657  0.350453  0.575228  1
  O  O38  1  0.250000  0.096233  0.555839  1
  O  O39  1  0.250000  0.785915  0.089531  1
  O  O40  1  0.250000  0.353492  0.834138  1
  O  O41  1  0.487886  0.582478  0.772620  1
  O  O42  1  0.750000  0.214085  0.910469  1
  O  O43  1  0.984657  0.649547  0.424772  1
