# generated using pymatgen
data_La4Nd4Cd2IrRu
_symmetry_space_group_name_H-M   'P 1'
_cell_length_a   10.00603122
_cell_length_b   10.00603144
_cell_length_c   10.07213100
_cell_angle_alpha   59.78123126
_cell_angle_beta   59.78123050
_cell_angle_gamma   60.16237388
_symmetry_Int_Tables_number   1
_chemical_formula_structural   La4Nd4Cd2IrRu
_chemical_formula_sum   'La8 Nd8 Cd4 Ir2 Ru2'
_cell_volume   711.56176423
_cell_formula_units_Z   2
loop_
 _symmetry_equiv_pos_site_id
 _symmetry_equiv_pos_as_xyz
  1  'x, y, z'
loop_
 _atom_site_type_symbol
 _atom_site_label
 _atom_site_symmetry_multiplicity
 _atom_site_fract_x
 _atom_site_fract_y
 _atom_site_fract_z
 _atom_site_occupancy
  La  La0  1  0.345082  0.345082  0.350553  1
  La  La1  1  0.345082  0.345082  0.959283  1
  La  La2  1  0.346118  0.960052  0.346915  1
  La  La3  1  0.960052  0.346118  0.346915  1
  La  La4  1  0.814252  0.189594  0.188797  1
  La  La5  1  0.189594  0.814252  0.807357  1
  La  La6  1  0.189594  0.814252  0.188797  1
  La  La7  1  0.814252  0.189594  0.807357  1
  Nd  Nd8  1  0.192792  0.192792  0.807208  1
  Nd  Nd9  1  0.806813  0.806813  0.193187  1
  Nd  Nd10  1  0.936441  0.563254  0.563808  1
  Nd  Nd11  1  0.563254  0.936441  0.936497  1
  Nd  Nd12  1  0.563254  0.936441  0.563808  1
  Nd  Nd13  1  0.936441  0.563254  0.936497  1
  Nd  Nd14  1  0.563338  0.563338  0.936662  1
  Nd  Nd15  1  0.937934  0.937934  0.562066  1
  Cd  Cd16  1  0.580845  0.580845  0.578740  1
  Cd  Cd17  1  0.580845  0.580845  0.259569  1
  Cd  Cd18  1  0.578779  0.258448  0.581386  1
  Cd  Cd19  1  0.258448  0.578779  0.581386  1
  Ir  Ir20  1  0.145285  0.579678  0.137518  1
  Ir  Ir21  1  0.579678  0.145285  0.137518  1
  Ru  Ru22  1  0.135913  0.135913  0.143235  1
  Ru  Ru23  1  0.135913  0.135913  0.584939  1
