# generated using pymatgen
data_Ho11Zn8InNi4
_symmetry_space_group_name_H-M   'P 1'
_cell_length_a   12.42316863
_cell_length_b   12.42316940
_cell_length_c   3.53553300
_cell_angle_alpha   90.00000000
_cell_angle_beta   90.00000000
_cell_angle_gamma   112.62276104
_symmetry_Int_Tables_number   1
_chemical_formula_structural   Ho11Zn8InNi4
_chemical_formula_sum   'Ho11 Zn8 In1 Ni4'
_cell_volume   503.67271995
_cell_formula_units_Z   1
loop_
 _symmetry_equiv_pos_site_id
 _symmetry_equiv_pos_as_xyz
  1  'x, y, z'
loop_
 _atom_site_type_symbol
 _atom_site_label
 _atom_site_symmetry_multiplicity
 _atom_site_fract_x
 _atom_site_fract_y
 _atom_site_fract_z
 _atom_site_occupancy
  Ho  Ho0  1  0.074378  0.413857  0.000000  1
  Ho  Ho1  1  0.925622  0.586143  0.000000  1
  Ho  Ho2  1  0.413857  0.074378  0.000000  1
  Ho  Ho3  1  0.586143  0.925622  0.000000  1
  Ho  Ho4  1  0.633377  0.366623  0.000000  1
  Ho  Ho5  1  0.366623  0.633377  0.000000  1
  Ho  Ho6  1  0.833536  0.166464  0.000000  1
  Ho  Ho7  1  0.166464  0.833536  0.000000  1
  Ho  Ho8  1  0.000000  0.000000  0.000000  1
  Ho  Ho9  1  0.298122  0.298122  0.000000  1
  Ho  Ho10  1  0.701878  0.701878  0.000000  1
  Zn  Zn11  1  0.839224  0.367380  0.500000  1
  Zn  Zn12  1  0.160776  0.632620  0.500000  1
  Zn  Zn13  1  0.367380  0.839224  0.500000  1
  Zn  Zn14  1  0.632620  0.160776  0.500000  1
  Zn  Zn15  1  0.074392  0.216849  0.500000  1
  Zn  Zn16  1  0.925608  0.783151  0.500000  1
  Zn  Zn17  1  0.216849  0.074392  0.500000  1
  Zn  Zn18  1  0.783151  0.925608  0.500000  1
  In  In19  1  0.500000  0.500000  0.500000  1
  Ni  Ni20  1  0.247251  0.450219  0.500000  1
  Ni  Ni21  1  0.752749  0.549781  0.500000  1
  Ni  Ni22  1  0.450219  0.247251  0.500000  1
  Ni  Ni23  1  0.549781  0.752749  0.500000  1
