# generated using pymatgen
data_Ho2Lu3GePb3
_symmetry_space_group_name_H-M   'P 1'
_cell_length_a   9.21722432
_cell_length_b   9.21722467
_cell_length_c   6.48007800
_cell_angle_alpha   90.00000000
_cell_angle_beta   90.00000000
_cell_angle_gamma   120.11098928
_symmetry_Int_Tables_number   1
_chemical_formula_structural   Ho2Lu3GePb3
_chemical_formula_sum   'Ho4 Lu6 Ge2 Pb6'
_cell_volume   476.23838087
_cell_formula_units_Z   2
loop_
 _symmetry_equiv_pos_site_id
 _symmetry_equiv_pos_as_xyz
  1  'x, y, z'
loop_
 _atom_site_type_symbol
 _atom_site_label
 _atom_site_symmetry_multiplicity
 _atom_site_fract_x
 _atom_site_fract_y
 _atom_site_fract_z
 _atom_site_occupancy
  Ho  Ho0  1  0.252736  0.000149  0.750000  1
  Ho  Ho1  1  0.747264  0.999851  0.250000  1
  Ho  Ho2  1  0.000149  0.252736  0.750000  1
  Ho  Ho3  1  0.999851  0.747264  0.250000  1
  Lu  Lu4  1  0.748421  0.748421  0.750000  1
  Lu  Lu5  1  0.251579  0.251579  0.250000  1
  Lu  Lu6  1  0.333424  0.666576  0.500000  1
  Lu  Lu7  1  0.666576  0.333424  0.500000  1
  Lu  Lu8  1  0.666576  0.333424  0.000000  1
  Lu  Lu9  1  0.333424  0.666576  0.000000  1
  Ge  Ge10  1  0.000000  0.000000  0.500000  1
  Ge  Ge11  1  0.000000  0.000000  0.000000  1
  Pb  Pb12  1  0.606207  0.999122  0.750000  1
  Pb  Pb13  1  0.393793  0.000878  0.250000  1
  Pb  Pb14  1  0.999122  0.606207  0.750000  1
  Pb  Pb15  1  0.000878  0.393793  0.250000  1
  Pb  Pb16  1  0.396049  0.396049  0.750000  1
  Pb  Pb17  1  0.603951  0.603951  0.250000  1
