# generated using pymatgen
data_Ce5(MnB3)2
_symmetry_space_group_name_H-M   'P 1'
_cell_length_a   5.35525995
_cell_length_b   5.35526180
_cell_length_c   8.17886780
_cell_angle_alpha   70.88992419
_cell_angle_beta   70.88992794
_cell_angle_gamma   59.99999594
_symmetry_Int_Tables_number   1
_chemical_formula_structural   Ce5(MnB3)2
_chemical_formula_sum   'Ce5 Mn2 B6'
_cell_volume   188.06112191
_cell_formula_units_Z   1
loop_
 _symmetry_equiv_pos_site_id
 _symmetry_equiv_pos_as_xyz
  1  'x, y, z'
loop_
 _atom_site_type_symbol
 _atom_site_label
 _atom_site_symmetry_multiplicity
 _atom_site_fract_x
 _atom_site_fract_y
 _atom_site_fract_z
 _atom_site_occupancy
  Ce  Ce0  1  0.000000  0.000000  0.000000  1
  Ce  Ce1  1  0.744519  0.744519  0.766444  1
  Ce  Ce2  1  0.255481  0.255481  0.233556  1
  Ce  Ce3  1  0.588497  0.588497  0.234508  1
  Ce  Ce4  1  0.411503  0.411503  0.765492  1
  Mn  Mn5  1  0.890538  0.890538  0.328389  1
  Mn  Mn6  1  0.109462  0.109462  0.671612  1
  B  B7  1  0.500000  0.166952  0.500000  1
  B  B8  1  0.833048  0.500000  0.500000  1
  B  B9  1  0.166952  0.833048  0.500000  1
  B  B10  1  0.166952  0.500000  0.500000  1
  B  B11  1  0.833048  0.166952  0.500000  1
  B  B12  1  0.500000  0.833048  0.500000  1
