# generated using pymatgen
data_Li4As6Ir2Pd5
_symmetry_space_group_name_H-M   'P 1'
_cell_length_a   7.06264217
_cell_length_b   7.06264324
_cell_length_c   7.06264311
_cell_angle_alpha   109.16251574
_cell_angle_beta   109.16251177
_cell_angle_gamma   110.09041693
_symmetry_Int_Tables_number   1
_chemical_formula_structural   Li4As6Ir2Pd5
_chemical_formula_sum   'Li4 As6 Ir2 Pd5'
_cell_volume   271.17006050
_cell_formula_units_Z   1
loop_
 _symmetry_equiv_pos_site_id
 _symmetry_equiv_pos_as_xyz
  1  'x, y, z'
loop_
 _atom_site_type_symbol
 _atom_site_label
 _atom_site_symmetry_multiplicity
 _atom_site_fract_x
 _atom_site_fract_y
 _atom_site_fract_z
 _atom_site_occupancy
  Li  Li0  1  0.000816  0.999184  0.500000  1
  Li  Li1  1  0.499184  0.999184  0.998369  1
  Li  Li2  1  0.000816  0.500816  0.001631  1
  Li  Li3  1  0.499184  0.500816  0.500000  1
  As  As4  1  0.691618  0.691618  0.000000  1
  As  As5  1  0.308382  0.308382  0.000000  1
  As  As6  1  0.005510  0.695856  0.690346  1
  As  As7  1  0.005510  0.315163  0.309654  1
  As  As8  1  0.684837  0.994490  0.690346  1
  As  As9  1  0.304144  0.994490  0.309654  1
  Ir  Ir10  1  0.000000  0.000000  0.000000  1
  Ir  Ir11  1  0.250000  0.750000  0.500000  1
  Pd  Pd12  1  0.251920  0.500934  0.750985  1
  Pd  Pd13  1  0.750000  0.250000  0.500000  1
  Pd  Pd14  1  0.499066  0.250051  0.750985  1
  Pd  Pd15  1  0.499066  0.748080  0.249015  1
  Pd  Pd16  1  0.749949  0.500934  0.249015  1
