# generated using pymatgen
data_Na4YPaS6
_symmetry_space_group_name_H-M   'P 1'
_cell_length_a   6.91005790
_cell_length_b   6.91005828
_cell_length_c   6.96178800
_cell_angle_alpha   80.37651808
_cell_angle_beta   80.37652595
_cell_angle_gamma   120.07368989
_symmetry_Int_Tables_number   1
_chemical_formula_structural   Na4YPaS6
_chemical_formula_sum   'Na4 Y1 Pa1 S6'
_cell_volume   271.07498148
_cell_formula_units_Z   1
loop_
 _symmetry_equiv_pos_site_id
 _symmetry_equiv_pos_as_xyz
  1  'x, y, z'
loop_
 _atom_site_type_symbol
 _atom_site_label
 _atom_site_symmetry_multiplicity
 _atom_site_fract_x
 _atom_site_fract_y
 _atom_site_fract_z
 _atom_site_occupancy
  Na  Na0  1  0.000114  0.999886  0.000000  1
  Na  Na1  1  0.500285  0.499715  0.500000  1
  Na  Na2  1  0.839617  0.160383  0.500000  1
  Na  Na3  1  0.159704  0.840296  0.500000  1
  Y  Y4  1  0.667324  0.332676  0.000000  1
  Pa  Pa5  1  0.332726  0.667274  0.000000  1
  S  S6  1  0.272590  0.280784  0.231405  1
  S  S7  1  0.427523  0.068907  0.769119  1
  S  S8  1  0.086219  0.436409  0.771007  1
  S  S9  1  0.719216  0.727410  0.768595  1
  S  S10  1  0.563591  0.913781  0.228993  1
  S  S11  1  0.931093  0.572477  0.230881  1
