# generated using pymatgen
data_Tb3YMn3VB16
_symmetry_space_group_name_H-M   'P 1'
_cell_length_a   3.43791500
_cell_length_b   5.94105203
_cell_length_c   11.48582546
_cell_angle_alpha   90.03124808
_cell_angle_beta   90.00000000
_cell_angle_gamma   90.00000000
_symmetry_Int_Tables_number   1
_chemical_formula_structural   Tb3YMn3VB16
_chemical_formula_sum   'Tb3 Y1 Mn3 V1 B16'
_cell_volume   234.59601929
_cell_formula_units_Z   1
loop_
 _symmetry_equiv_pos_site_id
 _symmetry_equiv_pos_as_xyz
  1  'x, y, z'
loop_
 _atom_site_type_symbol
 _atom_site_label
 _atom_site_symmetry_multiplicity
 _atom_site_fract_x
 _atom_site_fract_y
 _atom_site_fract_z
 _atom_site_occupancy
  Tb  Tb0  1  0.000000  0.625927  0.350845  1
  Tb  Tb1  1  0.000000  0.374119  0.650179  1
  Tb  Tb2  1  0.000000  0.124931  0.151457  1
  Y  Y3  1  0.000000  0.876471  0.848073  1
  Mn  Mn4  1  0.000000  0.376950  0.917839  1
  Mn  Mn5  1  0.000000  0.127418  0.417838  1
  Mn  Mn6  1  0.000000  0.872562  0.584173  1
  V  V7  1  0.000000  0.624000  0.080827  1
  B  B8  1  0.500000  0.783785  0.186011  1
  B  B9  1  0.500000  0.220656  0.816540  1
  B  B10  1  0.500000  0.279322  0.317450  1
  B  B11  1  0.500000  0.719703  0.683312  1
  B  B12  1  0.500000  0.864785  0.031082  1
  B  B13  1  0.500000  0.138552  0.965834  1
  B  B14  1  0.500000  0.361125  0.468164  1
  B  B15  1  0.500000  0.638716  0.532592  1
  B  B16  1  0.500000  0.888000  0.454450  1
  B  B17  1  0.500000  0.111741  0.546707  1
  B  B18  1  0.500000  0.384042  0.044187  1
  B  B19  1  0.500000  0.610170  0.950998  1
  B  B20  1  0.500000  0.975747  0.310268  1
  B  B21  1  0.500000  0.025174  0.690723  1
  B  B22  1  0.500000  0.472943  0.192025  1
  B  B23  1  0.500000  0.523161  0.808426  1
