# generated using pymatgen
data_TbTm4ThRh18
_symmetry_space_group_name_H-M   'P 1'
_cell_length_a   5.26662200
_cell_length_b   5.26662062
_cell_length_c   17.54898700
_cell_angle_alpha   90.00000000
_cell_angle_beta   90.00000000
_cell_angle_gamma   119.99998357
_symmetry_Int_Tables_number   1
_chemical_formula_structural   TbTm4ThRh18
_chemical_formula_sum   'Tb1 Tm4 Th1 Rh18'
_cell_volume   421.54790916
_cell_formula_units_Z   1
loop_
 _symmetry_equiv_pos_site_id
 _symmetry_equiv_pos_as_xyz
  1  'x, y, z'
loop_
 _atom_site_type_symbol
 _atom_site_label
 _atom_site_symmetry_multiplicity
 _atom_site_fract_x
 _atom_site_fract_y
 _atom_site_fract_z
 _atom_site_occupancy
  Tb  Tb0  1  0.333333  0.666667  0.750000  1
  Tm  Tm1  1  0.333333  0.666667  0.542660  1
  Tm  Tm2  1  0.666667  0.333333  0.038661  1
  Tm  Tm3  1  0.666667  0.333333  0.461339  1
  Tm  Tm4  1  0.333333  0.666667  0.957340  1
  Th  Th5  1  0.666667  0.333333  0.250000  1
  Rh  Rh6  1  0.167386  0.334772  0.123675  1
  Rh  Rh7  1  0.832508  0.665017  0.625396  1
  Rh  Rh8  1  0.665228  0.832614  0.123675  1
  Rh  Rh9  1  0.167386  0.832614  0.123675  1
  Rh  Rh10  1  0.832508  0.167492  0.625396  1
  Rh  Rh11  1  0.334983  0.167492  0.625396  1
  Rh  Rh12  1  0.832508  0.665017  0.874604  1
  Rh  Rh13  1  0.832508  0.167492  0.874604  1
  Rh  Rh14  1  0.334983  0.167492  0.874604  1
  Rh  Rh15  1  0.665228  0.832614  0.376325  1
  Rh  Rh16  1  0.167386  0.832614  0.376325  1
  Rh  Rh17  1  0.167386  0.334772  0.376325  1
  Rh  Rh18  1  0.000000  0.000000  0.250000  1
  Rh  Rh19  1  0.000000  0.000000  0.750000  1
  Rh  Rh20  1  0.333333  0.666667  0.250000  1
  Rh  Rh21  1  0.666667  0.333333  0.750000  1
  Rh  Rh22  1  0.000000  0.000000  0.999308  1
  Rh  Rh23  1  0.000000  0.000000  0.500692  1
