# generated using pymatgen
data_Tm4LuZnNiSb
_symmetry_space_group_name_H-M   'P 1'
_cell_length_a   8.34271927
_cell_length_b   8.34272087
_cell_length_c   8.48735936
_cell_angle_alpha   124.64121624
_cell_angle_beta   124.64122281
_cell_angle_gamma   80.99144761
_symmetry_Int_Tables_number   1
_chemical_formula_structural   Tm4LuZnNiSb
_chemical_formula_sum   'Tm8 Lu2 Zn2 Ni2 Sb2'
_cell_volume   387.56152718
_cell_formula_units_Z   2
loop_
 _symmetry_equiv_pos_site_id
 _symmetry_equiv_pos_as_xyz
  1  'x, y, z'
loop_
 _atom_site_type_symbol
 _atom_site_label
 _atom_site_symmetry_multiplicity
 _atom_site_fract_x
 _atom_site_fract_y
 _atom_site_fract_z
 _atom_site_occupancy
  Tm  Tm0  1  0.786738  0.286738  0.793363  1
  Tm  Tm1  1  0.213262  0.713262  0.206637  1
  Tm  Tm2  1  0.493375  0.993375  0.206637  1
  Tm  Tm3  1  0.308157  0.466181  0.500000  1
  Tm  Tm4  1  0.033819  0.191843  0.500000  1
  Tm  Tm5  1  0.506625  0.006625  0.793363  1
  Tm  Tm6  1  0.691843  0.533819  0.500000  1
  Tm  Tm7  1  0.966181  0.808157  0.500000  1
  Lu  Lu8  1  0.000000  0.000000  0.000000  1
  Lu  Lu9  1  0.500000  0.500000  0.000000  1
  Zn  Zn10  1  0.135992  0.635992  0.771984  1
  Zn  Zn11  1  0.864008  0.364008  0.228016  1
  Ni  Ni12  1  0.629300  0.870700  0.500000  1
  Ni  Ni13  1  0.370700  0.129300  0.500000  1
  Sb  Sb14  1  0.250000  0.250000  0.000000  1
  Sb  Sb15  1  0.750000  0.750000  0.000000  1
