# generated using pymatgen
data_La4Y5LuSn8
_symmetry_space_group_name_H-M   'P 1'
_cell_length_a   8.18591100
_cell_length_b   8.39200200
_cell_length_c   15.88953600
_cell_angle_alpha   90.00000000
_cell_angle_beta   90.00000000
_cell_angle_gamma   90.00000000
_symmetry_Int_Tables_number   1
_chemical_formula_structural   La4Y5LuSn8
_chemical_formula_sum   'La8 Y10 Lu2 Sn16'
_cell_volume   1091.55044875
_cell_formula_units_Z   2
loop_
 _symmetry_equiv_pos_site_id
 _symmetry_equiv_pos_as_xyz
  1  'x, y, z'
loop_
 _atom_site_type_symbol
 _atom_site_label
 _atom_site_symmetry_multiplicity
 _atom_site_fract_x
 _atom_site_fract_y
 _atom_site_fract_z
 _atom_site_occupancy
  La  La0  1  0.507757  0.322233  0.904408  1
  La  La1  1  0.007757  0.177767  0.595592  1
  La  La2  1  0.492002  0.677616  0.403218  1
  La  La3  1  0.992002  0.822384  0.096782  1
  La  La4  1  0.492002  0.677616  0.096782  1
  La  La5  1  0.992002  0.822384  0.403218  1
  La  La6  1  0.507757  0.322233  0.595592  1
  La  La7  1  0.007757  0.177767  0.904408  1
  Y  Y8  1  0.348806  0.835979  0.876439  1
  Y  Y9  1  0.848806  0.664021  0.623561  1
  Y  Y10  1  0.651595  0.163742  0.375279  1
  Y  Y11  1  0.151595  0.336258  0.124721  1
  Y  Y12  1  0.651595  0.163742  0.124721  1
  Y  Y13  1  0.151595  0.336258  0.375279  1
  Y  Y14  1  0.348806  0.835979  0.623561  1
  Y  Y15  1  0.848806  0.664021  0.876439  1
  Y  Y16  1  0.182497  0.502113  0.750000  1
  Y  Y17  1  0.682497  0.997887  0.750000  1
  Lu  Lu18  1  0.817501  0.497462  0.250000  1
  Lu  Lu19  1  0.317501  0.002538  0.250000  1
  Sn  Sn20  1  0.312954  0.040305  0.043687  1
  Sn  Sn21  1  0.812954  0.459695  0.456313  1
  Sn  Sn22  1  0.686592  0.959252  0.541928  1
  Sn  Sn23  1  0.186592  0.540748  0.958072  1
  Sn  Sn24  1  0.686592  0.959252  0.958072  1
  Sn  Sn25  1  0.186592  0.540748  0.541928  1
  Sn  Sn26  1  0.312954  0.040305  0.456313  1
  Sn  Sn27  1  0.812954  0.459695  0.043687  1
  Sn  Sn28  1  0.546001  0.626282  0.750000  1
  Sn  Sn29  1  0.046001  0.873718  0.750000  1
  Sn  Sn30  1  0.455883  0.374654  0.250000  1
  Sn  Sn31  1  0.955883  0.125346  0.250000  1
  Sn  Sn32  1  0.313915  0.142022  0.750000  1
  Sn  Sn33  1  0.813915  0.357978  0.750000  1
  Sn  Sn34  1  0.684794  0.855804  0.250000  1
  Sn  Sn35  1  0.184794  0.644196  0.250000  1
