# generated using pymatgen
data_Ti8Nb4CdSn9
_symmetry_space_group_name_H-M   'P 1'
_cell_length_a   9.36299160
_cell_length_b   9.36299249
_cell_length_c   5.71808442
_cell_angle_alpha   89.72895182
_cell_angle_beta   90.27104671
_cell_angle_gamma   119.90124282
_symmetry_Int_Tables_number   1
_chemical_formula_structural   Ti8Nb4CdSn9
_chemical_formula_sum   'Ti8 Nb4 Cd1 Sn9'
_cell_volume   434.54558556
_cell_formula_units_Z   1
loop_
 _symmetry_equiv_pos_site_id
 _symmetry_equiv_pos_as_xyz
  1  'x, y, z'
loop_
 _atom_site_type_symbol
 _atom_site_label
 _atom_site_symmetry_multiplicity
 _atom_site_fract_x
 _atom_site_fract_y
 _atom_site_fract_z
 _atom_site_occupancy
  Ti  Ti0  1  0.839542  0.681995  0.763457  1
  Ti  Ti1  1  0.158582  0.841418  0.229820  1
  Ti  Ti2  1  0.681995  0.839542  0.236543  1
  Ti  Ti3  1  0.318005  0.160458  0.763457  1
  Ti  Ti4  1  0.841418  0.158582  0.770180  1
  Ti  Ti5  1  0.160458  0.318005  0.236543  1
  Ti  Ti6  1  0.500000  0.000000  0.500000  1
  Ti  Ti7  1  0.000000  0.500000  0.500000  1
  Nb  Nb8  1  0.500000  0.500000  0.000000  1
  Nb  Nb9  1  0.000000  0.500000  0.000000  1
  Nb  Nb10  1  0.500000  0.000000  0.000000  1
  Nb  Nb11  1  0.500000  0.500000  0.500000  1
  Cd  Cd12  1  0.000000  0.000000  0.500000  1
  Sn  Sn13  1  0.198397  0.400393  0.740992  1
  Sn  Sn14  1  0.799274  0.200726  0.264718  1
  Sn  Sn15  1  0.400393  0.198397  0.259008  1
  Sn  Sn16  1  0.599607  0.801603  0.740992  1
  Sn  Sn17  1  0.200726  0.799274  0.735282  1
  Sn  Sn18  1  0.801603  0.599607  0.259008  1
  Sn  Sn19  1  0.667397  0.332603  0.756064  1
  Sn  Sn20  1  0.332603  0.667397  0.243936  1
  Sn  Sn21  1  0.000000  0.000000  0.000000  1
