# generated using pymatgen
data_La2(FeN)3
_symmetry_space_group_name_H-M   'P 1'
_cell_length_a   6.46629615
_cell_length_b   6.46629630
_cell_length_c   6.30139200
_cell_angle_alpha   87.59281108
_cell_angle_beta   87.59279328
_cell_angle_gamma   117.90240895
_symmetry_Int_Tables_number   1
_chemical_formula_structural   La2(FeN)3
_chemical_formula_sum   'La4 Fe6 N6'
_cell_volume   232.07604418
_cell_formula_units_Z   2
loop_
 _symmetry_equiv_pos_site_id
 _symmetry_equiv_pos_as_xyz
  1  'x, y, z'
loop_
 _atom_site_type_symbol
 _atom_site_label
 _atom_site_symmetry_multiplicity
 _atom_site_fract_x
 _atom_site_fract_y
 _atom_site_fract_z
 _atom_site_occupancy
  La  La0  1  0.826108  0.669665  0.900199  1
  La  La1  1  0.330335  0.173892  0.599801  1
  La  La2  1  0.173892  0.330335  0.099801  1
  La  La3  1  0.669665  0.826108  0.400199  1
  Fe  Fe4  1  0.812197  0.187803  0.750000  1
  Fe  Fe5  1  0.187803  0.812197  0.250000  1
  Fe  Fe6  1  0.566556  0.162493  0.105401  1
  Fe  Fe7  1  0.433444  0.837507  0.894599  1
  Fe  Fe8  1  0.837507  0.433444  0.394599  1
  Fe  Fe9  1  0.162493  0.566556  0.605401  1
  N  N10  1  0.421480  0.578520  0.750000  1
  N  N11  1  0.578520  0.421480  0.250000  1
  N  N12  1  0.007175  0.736298  0.507228  1
  N  N13  1  0.736298  0.007175  0.007228  1
  N  N14  1  0.992825  0.263702  0.492772  1
  N  N15  1  0.263702  0.992825  0.992772  1
