# generated using pymatgen
data_Rb4ZrTe4
_symmetry_space_group_name_H-M   'P 1'
_cell_length_a   9.47132300
_cell_length_b   11.21470000
_cell_length_c   16.53771700
_cell_angle_alpha   90.00000000
_cell_angle_beta   90.00000000
_cell_angle_gamma   90.00000000
_symmetry_Int_Tables_number   1
_chemical_formula_structural   Rb4ZrTe4
_chemical_formula_sum   'Rb16 Zr4 Te16'
_cell_volume   1756.60398584
_cell_formula_units_Z   4
loop_
 _symmetry_equiv_pos_site_id
 _symmetry_equiv_pos_as_xyz
  1  'x, y, z'
loop_
 _atom_site_type_symbol
 _atom_site_label
 _atom_site_symmetry_multiplicity
 _atom_site_fract_x
 _atom_site_fract_y
 _atom_site_fract_z
 _atom_site_occupancy
  Rb  Rb0  1  0.500000  0.500000  0.500000  1
  Rb  Rb1  1  0.150093  0.449212  0.275270  1
  Rb  Rb2  1  0.150093  0.050788  0.275270  1
  Rb  Rb3  1  0.009924  0.750000  0.430101  1
  Rb  Rb4  1  0.990076  0.250000  0.569899  1
  Rb  Rb5  1  0.650093  0.949212  0.224730  1
  Rb  Rb6  1  0.349907  0.050788  0.775270  1
  Rb  Rb7  1  0.849907  0.949212  0.724730  1
  Rb  Rb8  1  0.349907  0.449212  0.775270  1
  Rb  Rb9  1  0.000000  0.500000  0.000000  1
  Rb  Rb10  1  0.509924  0.250000  0.069899  1
  Rb  Rb11  1  0.650093  0.550788  0.224730  1
  Rb  Rb12  1  0.490076  0.750000  0.930101  1
  Rb  Rb13  1  0.000000  0.000000  0.000000  1
  Rb  Rb14  1  0.849907  0.550788  0.724730  1
  Rb  Rb15  1  0.500000  0.000000  0.500000  1
  Zr  Zr16  1  0.748931  0.250000  0.832542  1
  Zr  Zr17  1  0.751069  0.250000  0.332542  1
  Zr  Zr18  1  0.248931  0.750000  0.667458  1
  Zr  Zr19  1  0.251069  0.750000  0.167458  1
  Te  Te20  1  0.540527  0.750000  0.675235  1
  Te  Te21  1  0.459473  0.250000  0.324765  1
  Te  Te22  1  0.364206  0.750000  0.322312  1
  Te  Te23  1  0.135794  0.750000  0.822312  1
  Te  Te24  1  0.040527  0.250000  0.824765  1
  Te  Te25  1  0.959473  0.750000  0.175235  1
  Te  Te26  1  0.635794  0.250000  0.677688  1
  Te  Te27  1  0.864206  0.250000  0.177688  1
  Te  Te28  1  0.843256  0.452170  0.410817  1
  Te  Te29  1  0.656744  0.047830  0.910817  1
  Te  Te30  1  0.343256  0.952170  0.089183  1
  Te  Te31  1  0.343256  0.547830  0.089183  1
  Te  Te32  1  0.156744  0.547830  0.589183  1
  Te  Te33  1  0.843256  0.047830  0.410817  1
  Te  Te34  1  0.156744  0.952170  0.589183  1
  Te  Te35  1  0.656744  0.452170  0.910817  1
