# generated using pymatgen
data_La5Ho13(ThSn8)2
_symmetry_space_group_name_H-M   'P 1'
_cell_length_a   8.05858418
_cell_length_b   8.33195721
_cell_length_c   15.73747300
_cell_angle_alpha   90.20996459
_cell_angle_beta   90.81095456
_cell_angle_gamma   89.42642569
_symmetry_Int_Tables_number   1
_chemical_formula_structural   La5Ho13(ThSn8)2
_chemical_formula_sum   'La5 Ho13 Th2 Sn16'
_cell_volume   1056.50806152
_cell_formula_units_Z   1
loop_
 _symmetry_equiv_pos_site_id
 _symmetry_equiv_pos_as_xyz
  1  'x, y, z'
loop_
 _atom_site_type_symbol
 _atom_site_label
 _atom_site_symmetry_multiplicity
 _atom_site_fract_x
 _atom_site_fract_y
 _atom_site_fract_z
 _atom_site_occupancy
  La  La0  1  0.008390  0.178855  0.598298  1
  La  La1  1  0.491483  0.676140  0.405054  1
  La  La2  1  0.990816  0.822084  0.093960  1
  La  La3  1  0.490469  0.676672  0.094229  1
  La  La4  1  0.994029  0.822855  0.405260  1
  Ho  Ho5  1  0.352627  0.835299  0.874970  1
  Ho  Ho6  1  0.846573  0.666460  0.625948  1
  Ho  Ho7  1  0.651331  0.166358  0.375041  1
  Ho  Ho8  1  0.145063  0.336636  0.121560  1
  Ho  Ho9  1  0.647615  0.161696  0.122825  1
  Ho  Ho10  1  0.153856  0.336627  0.377109  1
  Ho  Ho11  1  0.346278  0.835926  0.627548  1
  Ho  Ho12  1  0.850821  0.661226  0.876689  1
  Ho  Ho13  1  0.516925  0.319745  0.901262  1
  Ho  Ho14  1  0.181425  0.499726  0.752111  1
  Ho  Ho15  1  0.680734  0.999783  0.751423  1
  Ho  Ho16  1  0.816048  0.498486  0.249524  1
  Ho  Ho17  1  0.317946  0.002464  0.247501  1
  Th  Th18  1  0.508255  0.324828  0.597580  1
  Th  Th19  1  0.011653  0.180078  0.901924  1
  Sn  Sn20  1  0.306636  0.044811  0.037973  1
  Sn  Sn21  1  0.810306  0.455471  0.461560  1
  Sn  Sn22  1  0.681315  0.963868  0.543941  1
  Sn  Sn23  1  0.199804  0.531877  0.953842  1
  Sn  Sn24  1  0.693033  0.965461  0.954795  1
  Sn  Sn25  1  0.187420  0.541181  0.544272  1
  Sn  Sn26  1  0.319514  0.044163  0.461100  1
  Sn  Sn27  1  0.803204  0.450156  0.037606  1
  Sn  Sn28  1  0.546270  0.620616  0.749505  1
  Sn  Sn29  1  0.044594  0.875365  0.753109  1
  Sn  Sn30  1  0.450834  0.374338  0.248309  1
  Sn  Sn31  1  0.953909  0.128142  0.250109  1
  Sn  Sn32  1  0.319537  0.147675  0.752507  1
  Sn  Sn33  1  0.812075  0.356058  0.751005  1
  Sn  Sn34  1  0.685051  0.856637  0.250399  1
  Sn  Sn35  1  0.184156  0.642241  0.250151  1
