# generated using pymatgen
data_Ca10Bi2PtRh3
_symmetry_space_group_name_H-M   'P 1'
_cell_length_a   9.32573318
_cell_length_b   9.32573274
_cell_length_c   9.29799059
_cell_angle_alpha   129.90404710
_cell_angle_beta   129.90404966
_cell_angle_gamma   73.78807694
_symmetry_Int_Tables_number   1
_chemical_formula_structural   Ca10Bi2PtRh3
_chemical_formula_sum   'Ca10 Bi2 Pt1 Rh3'
_cell_volume   463.67387812
_cell_formula_units_Z   1
loop_
 _symmetry_equiv_pos_site_id
 _symmetry_equiv_pos_as_xyz
  1  'x, y, z'
loop_
 _atom_site_type_symbol
 _atom_site_label
 _atom_site_symmetry_multiplicity
 _atom_site_fract_x
 _atom_site_fract_y
 _atom_site_fract_z
 _atom_site_occupancy
  Ca  Ca0  1  0.000454  0.999282  0.999736  1
  Ca  Ca1  1  0.500718  0.499546  0.000264  1
  Ca  Ca2  1  0.803910  0.299009  0.845178  1
  Ca  Ca3  1  0.200991  0.696090  0.154822  1
  Ca  Ca4  1  0.458732  0.953831  0.154822  1
  Ca  Ca5  1  0.296382  0.460745  0.500000  1
  Ca  Ca6  1  0.039255  0.203618  0.500000  1
  Ca  Ca7  1  0.546169  0.041268  0.845178  1
  Ca  Ca8  1  0.699782  0.543372  0.500000  1
  Ca  Ca9  1  0.956628  0.800218  0.500000  1
  Bi  Bi10  1  0.251121  0.248879  0.000000  1
  Bi  Bi11  1  0.751121  0.748879  0.000000  1
  Pt  Pt12  1  0.376496  0.123504  0.500000  1
  Rh  Rh13  1  0.120207  0.621671  0.741877  1
  Rh  Rh14  1  0.878329  0.379793  0.258123  1
  Rh  Rh15  1  0.619705  0.880295  0.500000  1
