# generated using pymatgen
data_Sc8Si15Tc12As
_symmetry_space_group_name_H-M   'P 1'
_cell_length_a   6.65630661
_cell_length_b   6.65928254
_cell_length_c   12.36539625
_cell_angle_alpha   89.81173375
_cell_angle_beta   90.18618193
_cell_angle_gamma   90.31597739
_symmetry_Int_Tables_number   1
_chemical_formula_structural   Sc8Si15Tc12As
_chemical_formula_sum   'Sc8 Si15 Tc12 As1'
_cell_volume   548.09719781
_cell_formula_units_Z   1
loop_
 _symmetry_equiv_pos_site_id
 _symmetry_equiv_pos_as_xyz
  1  'x, y, z'
loop_
 _atom_site_type_symbol
 _atom_site_label
 _atom_site_symmetry_multiplicity
 _atom_site_fract_x
 _atom_site_fract_y
 _atom_site_fract_z
 _atom_site_occupancy
  Sc  Sc0  1  0.003175  0.659201  0.029904  1
  Sc  Sc1  1  0.840003  0.503522  0.280408  1
  Sc  Sc2  1  0.156742  0.495121  0.779818  1
  Sc  Sc3  1  0.503678  0.841196  0.719378  1
  Sc  Sc4  1  0.498265  0.159910  0.220789  1
  Sc  Sc5  1  0.997061  0.341173  0.530662  1
  Sc  Sc6  1  0.658396  0.001685  0.968100  1
  Sc  Sc7  1  0.341529  0.996903  0.469761  1
  Si  Si8  1  0.529142  0.781486  0.315452  1
  Si  Si9  1  0.473524  0.219616  0.813480  1
  Si  Si10  1  0.781408  0.528456  0.684415  1
  Si  Si11  1  0.218208  0.472694  0.186610  1
  Si  Si12  1  0.718983  0.028751  0.565235  1
  Si  Si13  1  0.970804  0.274049  0.936237  1
  Si  Si14  1  0.027990  0.718388  0.434975  1
  Si  Si15  1  0.691080  0.380985  0.066076  1
  Si  Si16  1  0.122507  0.194771  0.318365  1
  Si  Si17  1  0.880218  0.806668  0.816352  1
  Si  Si18  1  0.193427  0.122461  0.682606  1
  Si  Si19  1  0.806506  0.878956  0.183647  1
  Si  Si20  1  0.307143  0.622630  0.566501  1
  Si  Si21  1  0.382881  0.685488  0.930243  1
  Si  Si22  1  0.622706  0.307692  0.434170  1
  Tc  Tc23  1  0.325835  0.332911  0.998694  1
  Tc  Tc24  1  0.167508  0.829099  0.251168  1
  Tc  Tc25  1  0.830828  0.167507  0.750017  1
  Tc  Tc26  1  0.669260  0.669607  0.499940  1
  Tc  Tc27  1  0.969026  0.190200  0.133863  1
  Tc  Tc28  1  0.321847  0.479432  0.380137  1
  Tc  Tc29  1  0.683586  0.518082  0.878443  1
  Tc  Tc30  1  0.478860  0.321726  0.620489  1
  Tc  Tc31  1  0.521118  0.678648  0.121299  1
  Tc  Tc32  1  0.022881  0.820930  0.628277  1
  Tc  Tc33  1  0.188628  0.971063  0.867011  1
  Tc  Tc34  1  0.820727  0.024140  0.371870  1
  As  As35  1  0.274517  0.974850  0.065605  1
