# generated using pymatgen
data_Lu4GaMo2Os5
_symmetry_space_group_name_H-M   'P 1'
_cell_length_a   5.22818373
_cell_length_b   5.40499496
_cell_length_c   8.85576200
_cell_angle_alpha   90.00000000
_cell_angle_beta   90.00000000
_cell_angle_gamma   119.90100969
_symmetry_Int_Tables_number   1
_chemical_formula_structural   Lu4GaMo2Os5
_chemical_formula_sum   'Lu4 Ga1 Mo2 Os5'
_cell_volume   216.93770637
_cell_formula_units_Z   1
loop_
 _symmetry_equiv_pos_site_id
 _symmetry_equiv_pos_as_xyz
  1  'x, y, z'
loop_
 _atom_site_type_symbol
 _atom_site_label
 _atom_site_symmetry_multiplicity
 _atom_site_fract_x
 _atom_site_fract_y
 _atom_site_fract_z
 _atom_site_occupancy
  Lu  Lu0  1  0.342635  0.673478  0.434635  1
  Lu  Lu1  1  0.663893  0.328347  0.558321  1
  Lu  Lu2  1  0.663893  0.328347  0.941679  1
  Lu  Lu3  1  0.342635  0.673478  0.065365  1
  Ga  Ga4  1  0.165901  0.342649  0.750000  1
  Mo  Mo5  1  0.166888  0.835409  0.750000  1
  Mo  Mo6  1  0.333858  0.170335  0.250000  1
  Os  Os7  1  0.833589  0.659135  0.250000  1
  Os  Os8  1  0.648739  0.832811  0.750000  1
  Os  Os9  1  0.003789  0.989447  0.997947  1
  Os  Os10  1  0.830391  0.177115  0.250000  1
  Os  Os11  1  0.003789  0.989447  0.502053  1
