# generated using pymatgen
data_Ca2Sc3Co17(P6Ru)2
_symmetry_space_group_name_H-M   'P 1'
_cell_length_a   11.93977797
_cell_length_b   11.91051005
_cell_length_c   3.64570500
_cell_angle_alpha   90.00000000
_cell_angle_beta   90.00000000
_cell_angle_gamma   119.91893652
_symmetry_Int_Tables_number   1
_chemical_formula_structural   Ca2Sc3Co17(P6Ru)2
_chemical_formula_sum   'Ca2 Sc3 Co17 P12 Ru2'
_cell_volume   449.35847839
_cell_formula_units_Z   1
loop_
 _symmetry_equiv_pos_site_id
 _symmetry_equiv_pos_as_xyz
  1  'x, y, z'
loop_
 _atom_site_type_symbol
 _atom_site_label
 _atom_site_symmetry_multiplicity
 _atom_site_fract_x
 _atom_site_fract_y
 _atom_site_fract_z
 _atom_site_occupancy
  Ca  Ca0  1  0.666250  0.332819  0.000000  1
  Ca  Ca1  1  0.333750  0.666569  0.000000  1
  Sc  Sc2  1  0.179558  0.179873  0.500000  1
  Sc  Sc3  1  0.820442  0.000314  0.500000  1
  Sc  Sc4  1  0.000000  0.816698  0.500000  1
  Co  Co5  1  0.000000  0.448532  0.000000  1
  Co  Co6  1  0.823790  0.196090  0.000000  1
  Co  Co7  1  0.807452  0.630442  0.000000  1
  Co  Co8  1  0.369010  0.176603  0.000000  1
  Co  Co9  1  0.192548  0.822990  0.000000  1
  Co  Co10  1  0.630990  0.807592  0.000000  1
  Co  Co11  1  0.176210  0.372300  0.000000  1
  Co  Co12  1  0.646299  0.123952  0.500000  1
  Co  Co13  1  0.875215  0.520497  0.500000  1
  Co  Co14  1  0.478443  0.353188  0.500000  1
  Co  Co15  1  0.124785  0.645282  0.500000  1
  Co  Co16  1  0.521557  0.874746  0.500000  1
  Co  Co17  1  0.353701  0.477654  0.500000  1
  Co  Co18  1  0.720552  0.720557  0.500000  1
  Co  Co19  1  0.279448  0.000006  0.500000  1
  Co  Co20  1  0.000000  0.281771  0.500000  1
  Co  Co21  1  0.000000  0.001265  0.000000  1
  P  P22  1  0.357148  0.358284  0.000000  1
  P  P23  1  0.642852  0.001136  0.000000  1
  P  P24  1  0.000000  0.635836  0.000000  1
  P  P25  1  0.837542  0.317036  0.500000  1
  P  P26  1  0.685746  0.521084  0.500000  1
  P  P27  1  0.478764  0.163271  0.500000  1
  P  P28  1  0.314254  0.835338  0.500000  1
  P  P29  1  0.521236  0.684507  0.500000  1
  P  P30  1  0.162458  0.479493  0.500000  1
  P  P31  1  0.825630  0.825172  0.000000  1
  P  P32  1  0.174370  0.999541  0.000000  1
  P  P33  1  0.000000  0.177311  0.000000  1
  Ru  Ru34  1  0.551709  0.551979  0.000000  1
  Ru  Ru35  1  0.448291  0.000270  0.000000  1
