# generated using pymatgen
data_GaMo6Ir(RhN)2
_symmetry_space_group_name_H-M   'P 1'
_cell_length_a   6.84683000
_cell_length_b   6.85014486
_cell_length_c   6.83642343
_cell_angle_alpha   89.11287246
_cell_angle_beta   90.00000000
_cell_angle_gamma   90.00000000
_symmetry_Int_Tables_number   1
_chemical_formula_structural   GaMo6Ir(RhN)2
_chemical_formula_sum   'Ga2 Mo12 Ir2 Rh4 N4'
_cell_volume   320.60197651
_cell_formula_units_Z   2
loop_
 _symmetry_equiv_pos_site_id
 _symmetry_equiv_pos_as_xyz
  1  'x, y, z'
loop_
 _atom_site_type_symbol
 _atom_site_label
 _atom_site_symmetry_multiplicity
 _atom_site_fract_x
 _atom_site_fract_y
 _atom_site_fract_z
 _atom_site_occupancy
  Ga  Ga0  1  0.685593  0.179234  0.934649  1
  Ga  Ga1  1  0.185593  0.820766  0.065351  1
  Mo  Mo2  1  0.622080  0.045111  0.547114  1
  Mo  Mo3  1  0.122080  0.954889  0.452886  1
  Mo  Mo4  1  0.869775  0.543628  0.947016  1
  Mo  Mo5  1  0.369775  0.456372  0.052984  1
  Mo  Mo6  1  0.200514  0.624772  0.696471  1
  Mo  Mo7  1  0.298977  0.122720  0.788335  1
  Mo  Mo8  1  0.798977  0.877280  0.211665  1
  Mo  Mo9  1  0.700514  0.375228  0.303529  1
  Mo  Mo10  1  0.050829  0.211909  0.131480  1
  Mo  Mo11  1  0.959502  0.305005  0.623018  1
  Mo  Mo12  1  0.550829  0.788091  0.868520  1
  Mo  Mo13  1  0.459502  0.694995  0.376982  1
  Ir  Ir14  1  0.812131  0.688945  0.566231  1
  Ir  Ir15  1  0.312131  0.311055  0.433769  1
  Rh  Rh16  1  0.059880  0.568334  0.303324  1
  Rh  Rh17  1  0.437204  0.061461  0.178004  1
  Rh  Rh18  1  0.559880  0.431666  0.696676  1
  Rh  Rh19  1  0.937204  0.938539  0.821996  1
  N  N20  1  0.374856  0.872292  0.619921  1
  N  N21  1  0.874856  0.127708  0.380079  1
  N  N22  1  0.128661  0.375219  0.873036  1
  N  N23  1  0.628661  0.624781  0.126964  1
