# generated using pymatgen
data_Tb7ThSiPd24
_symmetry_space_group_name_H-M   'P 1'
_cell_length_a   8.36495227
_cell_length_b   8.36495227
_cell_length_c   8.36495227
_cell_angle_alpha   89.97931263
_cell_angle_beta   89.97931263
_cell_angle_gamma   89.97931263
_symmetry_Int_Tables_number   1
_chemical_formula_structural   Tb7ThSiPd24
_chemical_formula_sum   'Tb7 Th1 Si1 Pd24'
_cell_volume   585.31589383
_cell_formula_units_Z   1
loop_
 _symmetry_equiv_pos_site_id
 _symmetry_equiv_pos_as_xyz
  1  'x, y, z'
loop_
 _atom_site_type_symbol
 _atom_site_label
 _atom_site_symmetry_multiplicity
 _atom_site_fract_x
 _atom_site_fract_y
 _atom_site_fract_z
 _atom_site_occupancy
  Tb  Tb0  1  0.745431  0.745431  0.745431  1
  Tb  Tb1  1  0.745748  0.745748  0.254553  1
  Tb  Tb2  1  0.745748  0.254553  0.745748  1
  Tb  Tb3  1  0.254154  0.254154  0.746641  1
  Tb  Tb4  1  0.254154  0.746641  0.254154  1
  Tb  Tb5  1  0.254553  0.745748  0.745748  1
  Tb  Tb6  1  0.746641  0.254154  0.254154  1
  Th  Th7  1  0.255711  0.255711  0.255711  1
  Si  Si8  1  0.998858  0.998858  0.998858  1
  Pd  Pd9  1  0.256440  0.500078  0.000094  1
  Pd  Pd10  1  0.743365  0.500197  0.999939  1
  Pd  Pd11  1  0.000094  0.256440  0.500078  1
  Pd  Pd12  1  0.500078  0.256440  0.000094  1
  Pd  Pd13  1  0.999939  0.743365  0.500197  1
  Pd  Pd14  1  0.500197  0.743365  0.999939  1
  Pd  Pd15  1  0.500078  0.000094  0.256440  1
  Pd  Pd16  1  0.256440  0.000094  0.500078  1
  Pd  Pd17  1  0.500197  0.999939  0.743365  1
  Pd  Pd18  1  0.743365  0.999939  0.500197  1
  Pd  Pd19  1  0.000094  0.500078  0.256440  1
  Pd  Pd20  1  0.999939  0.500197  0.743365  1
  Pd  Pd21  1  0.251802  0.500870  0.500870  1
  Pd  Pd22  1  0.748518  0.500009  0.500009  1
  Pd  Pd23  1  0.500870  0.251802  0.500870  1
  Pd  Pd24  1  0.500009  0.748518  0.500009  1
  Pd  Pd25  1  0.500870  0.500870  0.251802  1
  Pd  Pd26  1  0.500009  0.500009  0.748518  1
  Pd  Pd27  1  0.278974  0.998826  0.998826  1
  Pd  Pd28  1  0.720537  0.999769  0.999769  1
  Pd  Pd29  1  0.998826  0.278974  0.998826  1
  Pd  Pd30  1  0.999769  0.720537  0.999769  1
  Pd  Pd31  1  0.998826  0.998826  0.278974  1
  Pd  Pd32  1  0.999769  0.999769  0.720537  1
