# generated using pymatgen
data_Ho8MgSc11Si15Hg
_symmetry_space_group_name_H-M   'P 1'
_cell_length_a   7.08645695
_cell_length_b   7.37452701
_cell_length_c   14.08016525
_cell_angle_alpha   89.93182233
_cell_angle_beta   89.47285087
_cell_angle_gamma   90.12199396
_symmetry_Int_Tables_number   1
_chemical_formula_structural   Ho8MgSc11Si15Hg
_chemical_formula_sum   'Ho8 Mg1 Sc11 Si15 Hg1'
_cell_volume   735.78578288
_cell_formula_units_Z   1
loop_
 _symmetry_equiv_pos_site_id
 _symmetry_equiv_pos_as_xyz
  1  'x, y, z'
loop_
 _atom_site_type_symbol
 _atom_site_label
 _atom_site_symmetry_multiplicity
 _atom_site_fract_x
 _atom_site_fract_y
 _atom_site_fract_z
 _atom_site_occupancy
  Ho  Ho0  1  0.011672  0.175961  0.097147  1
  Ho  Ho1  1  0.989108  0.820678  0.903352  1
  Ho  Ho2  1  0.485413  0.674867  0.903417  1
  Ho  Ho3  1  0.991372  0.827555  0.598451  1
  Ho  Ho4  1  0.509827  0.324328  0.096436  1
  Ho  Ho5  1  0.006278  0.170879  0.398373  1
  Ho  Ho6  1  0.510256  0.321676  0.399374  1
  Ho  Ho7  1  0.495857  0.681415  0.600509  1
  Mg  Mg8  1  0.161322  0.504268  0.751522  1
  Sc  Sc9  1  0.836458  0.498378  0.250206  1
  Sc  Sc10  1  0.336846  0.001647  0.248735  1
  Sc  Sc11  1  0.663651  0.996767  0.751757  1
  Sc  Sc12  1  0.342304  0.170802  0.629078  1
  Sc  Sc13  1  0.663478  0.824899  0.372380  1
  Sc  Sc14  1  0.165142  0.679004  0.369958  1
  Sc  Sc15  1  0.669185  0.823680  0.124853  1
  Sc  Sc16  1  0.829324  0.326134  0.626076  1
  Sc  Sc17  1  0.327898  0.179642  0.876312  1
  Sc  Sc18  1  0.833287  0.323961  0.876392  1
  Sc  Sc19  1  0.170654  0.677159  0.125093  1
  Si  Si20  1  0.034381  0.108653  0.751706  1
  Si  Si21  1  0.964879  0.885768  0.247017  1
  Si  Si22  1  0.465788  0.614110  0.248120  1
  Si  Si23  1  0.540104  0.384857  0.752607  1
  Si  Si24  1  0.289066  0.880263  0.752414  1
  Si  Si25  1  0.710430  0.128999  0.247713  1
  Si  Si26  1  0.210561  0.370765  0.248440  1
  Si  Si27  1  0.781099  0.629151  0.752518  1
  Si  Si28  1  0.830429  0.539405  0.460181  1
  Si  Si29  1  0.338055  0.961810  0.461158  1
  Si  Si30  1  0.843261  0.536054  0.038144  1
  Si  Si31  1  0.661433  0.036739  0.537264  1
  Si  Si32  1  0.158384  0.461864  0.966816  1
  Si  Si33  1  0.656649  0.033427  0.960232  1
  Si  Si34  1  0.344574  0.966344  0.039332  1
  Hg  Hg35  1  0.171577  0.458086  0.536921  1
