# generated using pymatgen
data_Ho8Mg3Sc9Si15Sn
_symmetry_space_group_name_H-M   'P 1'
_cell_length_a   7.02059646
_cell_length_b   7.44935335
_cell_length_c   14.00263904
_cell_angle_alpha   90.01599818
_cell_angle_beta   89.67572870
_cell_angle_gamma   89.91744155
_symmetry_Int_Tables_number   1
_chemical_formula_structural   Ho8Mg3Sc9Si15Sn
_chemical_formula_sum   'Ho8 Mg3 Sc9 Si15 Sn1'
_cell_volume   732.31015257
_cell_formula_units_Z   1
loop_
 _symmetry_equiv_pos_site_id
 _symmetry_equiv_pos_as_xyz
  1  'x, y, z'
loop_
 _atom_site_type_symbol
 _atom_site_label
 _atom_site_symmetry_multiplicity
 _atom_site_fract_x
 _atom_site_fract_y
 _atom_site_fract_z
 _atom_site_occupancy
  Ho  Ho0  1  0.012325  0.180215  0.096911  1
  Ho  Ho1  1  0.991304  0.819053  0.905350  1
  Ho  Ho2  1  0.488194  0.674242  0.905557  1
  Ho  Ho3  1  0.990312  0.826112  0.596997  1
  Ho  Ho4  1  0.511342  0.322340  0.096664  1
  Ho  Ho5  1  0.007598  0.171434  0.398690  1
  Ho  Ho6  1  0.514936  0.316937  0.398935  1
  Ho  Ho7  1  0.499815  0.684365  0.599031  1
  Mg  Mg8  1  0.162403  0.507927  0.753656  1
  Mg  Mg9  1  0.839285  0.495032  0.248684  1
  Mg  Mg10  1  0.339058  0.008344  0.247727  1
  Sc  Sc11  1  0.662106  0.995840  0.752255  1
  Sc  Sc12  1  0.337813  0.168467  0.631312  1
  Sc  Sc13  1  0.664141  0.822235  0.372424  1
  Sc  Sc14  1  0.164839  0.689500  0.369443  1
  Sc  Sc15  1  0.667466  0.819457  0.124279  1
  Sc  Sc16  1  0.826308  0.322101  0.626780  1
  Sc  Sc17  1  0.325228  0.181465  0.875576  1
  Sc  Sc18  1  0.836135  0.322326  0.875311  1
  Sc  Sc19  1  0.169117  0.680810  0.124663  1
  Si  Si20  1  0.030043  0.099813  0.751782  1
  Si  Si21  1  0.961095  0.895865  0.246906  1
  Si  Si22  1  0.462586  0.606438  0.248813  1
  Si  Si23  1  0.537595  0.385584  0.752501  1
  Si  Si24  1  0.290571  0.877997  0.752593  1
  Si  Si25  1  0.715161  0.120358  0.247138  1
  Si  Si26  1  0.215876  0.379985  0.249382  1
  Si  Si27  1  0.781733  0.628217  0.751806  1
  Si  Si28  1  0.826930  0.540500  0.463410  1
  Si  Si29  1  0.337017  0.963868  0.466417  1
  Si  Si30  1  0.837769  0.536467  0.034199  1
  Si  Si31  1  0.660724  0.035913  0.536315  1
  Si  Si32  1  0.160570  0.462458  0.967669  1
  Si  Si33  1  0.657600  0.033596  0.961990  1
  Si  Si34  1  0.340975  0.966041  0.035282  1
  Sn  Sn35  1  0.174030  0.458698  0.533551  1
