# generated using pymatgen
data_LaNd2In5
_symmetry_space_group_name_H-M   'P 1'
_cell_length_a   6.66989400
_cell_length_b   6.66989479
_cell_length_c   10.60511900
_cell_angle_alpha   90.00000000
_cell_angle_beta   90.00000000
_cell_angle_gamma   102.45111464
_symmetry_Int_Tables_number   1
_chemical_formula_structural   LaNd2In5
_chemical_formula_sum   'La2 Nd4 In10'
_cell_volume   460.69866801
_cell_formula_units_Z   2
loop_
 _symmetry_equiv_pos_site_id
 _symmetry_equiv_pos_as_xyz
  1  'x, y, z'
loop_
 _atom_site_type_symbol
 _atom_site_label
 _atom_site_symmetry_multiplicity
 _atom_site_fract_x
 _atom_site_fract_y
 _atom_site_fract_z
 _atom_site_occupancy
  La  La0  1  0.206104  0.793896  0.500000  1
  La  La1  1  0.206104  0.793896  0.000000  1
  Nd  Nd2  1  0.626841  0.627250  0.250000  1
  Nd  Nd3  1  0.372750  0.373159  0.750000  1
  Nd  Nd4  1  0.794543  0.205457  0.500000  1
  Nd  Nd5  1  0.794543  0.205457  0.000000  1
  In  In6  1  0.007732  0.009119  0.250000  1
  In  In7  1  0.990881  0.992268  0.750000  1
  In  In8  1  0.305041  0.304541  0.051029  1
  In  In9  1  0.695459  0.694959  0.948971  1
  In  In10  1  0.305041  0.304541  0.448971  1
  In  In11  1  0.695459  0.694959  0.551029  1
  In  In12  1  0.498576  0.070946  0.250000  1
  In  In13  1  0.929054  0.501424  0.750000  1
  In  In14  1  0.507589  0.935715  0.750000  1
  In  In15  1  0.064285  0.492411  0.250000  1
