# generated using pymatgen
data_DyTm7Ti11Si16Tc
_symmetry_space_group_name_H-M   'P 1'
_cell_length_a   6.99129876
_cell_length_b   6.97927757
_cell_length_c   12.84528528
_cell_angle_alpha   90.12437851
_cell_angle_beta   90.09347686
_cell_angle_gamma   90.00593910
_symmetry_Int_Tables_number   1
_chemical_formula_structural   DyTm7Ti11Si16Tc
_chemical_formula_sum   'Dy1 Tm7 Ti11 Si16 Tc1'
_cell_volume   626.77329229
_cell_formula_units_Z   1
loop_
 _symmetry_equiv_pos_site_id
 _symmetry_equiv_pos_as_xyz
  1  'x, y, z'
loop_
 _atom_site_type_symbol
 _atom_site_label
 _atom_site_symmetry_multiplicity
 _atom_site_fract_x
 _atom_site_fract_y
 _atom_site_fract_z
 _atom_site_occupancy
  Dy  Dy0  1  0.340472  0.002529  0.466769  1
  Tm  Tm1  1  0.998628  0.658346  0.034885  1
  Tm  Tm2  1  0.001549  0.341604  0.531024  1
  Tm  Tm3  1  0.660509  0.996677  0.967168  1
  Tm  Tm4  1  0.158271  0.501187  0.783479  1
  Tm  Tm5  1  0.841677  0.496654  0.283051  1
  Tm  Tm6  1  0.501109  0.160397  0.218370  1
  Tm  Tm7  1  0.497540  0.839222  0.715653  1
  Ti  Ti8  1  0.846076  0.991854  0.375849  1
  Ti  Ti9  1  0.009187  0.154959  0.126851  1
  Ti  Ti10  1  0.994891  0.844506  0.622070  1
  Ti  Ti11  1  0.507484  0.346944  0.625924  1
  Ti  Ti12  1  0.151675  0.007593  0.875153  1
  Ti  Ti13  1  0.669208  0.670072  0.498339  1
  Ti  Ti14  1  0.826654  0.172924  0.750096  1
  Ti  Ti15  1  0.176774  0.824098  0.250893  1
  Ti  Ti16  1  0.328207  0.328262  0.000928  1
  Ti  Ti17  1  0.495916  0.653320  0.124216  1
  Ti  Ti18  1  0.652683  0.493663  0.875083  1
  Si  Si19  1  0.046993  0.707767  0.434870  1
  Si  Si20  1  0.954425  0.292245  0.936010  1
  Si  Si21  1  0.708662  0.047227  0.564962  1
  Si  Si22  1  0.209291  0.455772  0.187304  1
  Si  Si23  1  0.791744  0.546060  0.684916  1
  Si  Si24  1  0.454513  0.207253  0.815304  1
  Si  Si25  1  0.544346  0.788682  0.313147  1
  Si  Si26  1  0.293302  0.953355  0.064665  1
  Si  Si27  1  0.797334  0.869168  0.183497  1
  Si  Si28  1  0.298040  0.629736  0.564426  1
  Si  Si29  1  0.702615  0.367056  0.067236  1
  Si  Si30  1  0.627566  0.301858  0.432987  1
  Si  Si31  1  0.367976  0.702948  0.933161  1
  Si  Si32  1  0.130281  0.207137  0.317710  1
  Si  Si33  1  0.201679  0.131631  0.683036  1
  Si  Si34  1  0.868354  0.797022  0.816006  1
  Tc  Tc35  1  0.344369  0.510270  0.374967  1
