# generated using pymatgen
data_La2Dy3Y(RuO7)2
_symmetry_space_group_name_H-M   'P 1'
_cell_length_a   6.48163885
_cell_length_b   6.48529196
_cell_length_c   7.55092100
_cell_angle_alpha   90.00000000
_cell_angle_beta   90.00000000
_cell_angle_gamma   109.94738680
_symmetry_Int_Tables_number   1
_chemical_formula_structural   La2Dy3Y(RuO7)2
_chemical_formula_sum   'La2 Dy3 Y1 Ru2 O14'
_cell_volume   298.36305746
_cell_formula_units_Z   1
loop_
 _symmetry_equiv_pos_site_id
 _symmetry_equiv_pos_as_xyz
  1  'x, y, z'
loop_
 _atom_site_type_symbol
 _atom_site_label
 _atom_site_symmetry_multiplicity
 _atom_site_fract_x
 _atom_site_fract_y
 _atom_site_fract_z
 _atom_site_occupancy
  La  La0  1  0.999779  0.999784  0.499799  1
  La  La1  1  0.999779  0.999784  0.000201  1
  Dy  Dy2  1  0.518338  0.070371  0.250000  1
  Dy  Dy3  1  0.929739  0.481545  0.750000  1
  Dy  Dy4  1  0.070337  0.518417  0.250000  1
  Y  Y5  1  0.481435  0.930285  0.750000  1
  Ru  Ru6  1  0.500002  0.500127  0.499786  1
  Ru  Ru7  1  0.500002  0.500127  0.000214  1
  O  O8  1  0.589376  0.588376  0.750000  1
  O  O9  1  0.410768  0.411186  0.250000  1
  O  O10  1  0.837325  0.117912  0.750000  1
  O  O11  1  0.163229  0.881990  0.250000  1
  O  O12  1  0.117644  0.836372  0.750000  1
  O  O13  1  0.882243  0.163448  0.250000  1
  O  O14  1  0.443163  0.183613  0.963943  1
  O  O15  1  0.556720  0.816425  0.462458  1
  O  O16  1  0.183428  0.443752  0.963087  1
  O  O17  1  0.816691  0.556348  0.463042  1
  O  O18  1  0.443163  0.183613  0.536057  1
  O  O19  1  0.556720  0.816425  0.037542  1
  O  O20  1  0.816691  0.556348  0.036958  1
  O  O21  1  0.183428  0.443752  0.536913  1
