# generated using pymatgen
data_Tb12Nd8Si15Hg
_symmetry_space_group_name_H-M   'P 1'
_cell_length_a   7.79576602
_cell_length_b   7.81479405
_cell_length_c   14.59957077
_cell_angle_alpha   89.80019015
_cell_angle_beta   89.94863861
_cell_angle_gamma   90.11916752
_symmetry_Int_Tables_number   1
_chemical_formula_structural   Tb12Nd8Si15Hg
_chemical_formula_sum   'Tb12 Nd8 Si15 Hg1'
_cell_volume   889.43182057
_cell_formula_units_Z   1
loop_
 _symmetry_equiv_pos_site_id
 _symmetry_equiv_pos_as_xyz
  1  'x, y, z'
loop_
 _atom_site_type_symbol
 _atom_site_label
 _atom_site_symmetry_multiplicity
 _atom_site_fract_x
 _atom_site_fract_y
 _atom_site_fract_z
 _atom_site_occupancy
  Tb  Tb0  1  0.487272  0.362512  0.124043  1
  Tb  Tb1  1  0.978787  0.144859  0.630763  1
  Tb  Tb2  1  0.864262  0.011293  0.875390  1
  Tb  Tb3  1  0.133709  0.986106  0.371206  1
  Tb  Tb4  1  0.513552  0.629214  0.625566  1
  Tb  Tb5  1  0.366034  0.488231  0.877259  1
  Tb  Tb6  1  0.638793  0.508251  0.372993  1
  Tb  Tb7  1  0.011197  0.865883  0.124234  1
  Tb  Tb8  1  0.310281  0.320827  0.499375  1
  Tb  Tb9  1  0.187892  0.817140  0.753449  1
  Tb  Tb10  1  0.815035  0.185647  0.249527  1
  Tb  Tb11  1  0.684989  0.687041  0.000589  1
  Nd  Nd12  1  0.643185  0.990929  0.453236  1
  Nd  Nd13  1  0.366794  0.009112  0.955973  1
  Nd  Nd14  1  0.984338  0.629481  0.543261  1
  Nd  Nd15  1  0.491536  0.863508  0.204857  1
  Nd  Nd16  1  0.516611  0.145215  0.711478  1
  Nd  Nd17  1  0.864679  0.492200  0.797063  1
  Nd  Nd18  1  0.135130  0.505443  0.292468  1
  Nd  Nd19  1  0.009879  0.363795  0.044781  1
  Si  Si20  1  0.711611  0.067960  0.061313  1
  Si  Si21  1  0.933743  0.287988  0.437870  1
  Si  Si22  1  0.431195  0.211605  0.310432  1
  Si  Si23  1  0.568730  0.787313  0.810954  1
  Si  Si24  1  0.210754  0.432959  0.691027  1
  Si  Si25  1  0.787721  0.568143  0.187553  1
  Si  Si26  1  0.068291  0.710659  0.940108  1
  Si  Si27  1  0.799439  0.840652  0.693908  1
  Si  Si28  1  0.200183  0.157247  0.191656  1
  Si  Si29  1  0.841754  0.798287  0.304379  1
  Si  Si30  1  0.345124  0.694930  0.435369  1
  Si  Si31  1  0.658619  0.299452  0.943686  1
  Si  Si32  1  0.696524  0.340108  0.554473  1
  Si  Si33  1  0.300054  0.658097  0.057013  1
  Si  Si34  1  0.158027  0.203215  0.808756  1
  Hg  Hg35  1  0.284276  0.934698  0.563990  1
