# generated using pymatgen
data_Ba6TmSc(BO3)6
_symmetry_space_group_name_H-M   'P 1'
_cell_length_a   8.15113436
_cell_length_b   8.15113298
_cell_length_c   8.15113386
_cell_angle_alpha   105.77851274
_cell_angle_beta   105.77850974
_cell_angle_gamma   105.77851516
_symmetry_Int_Tables_number   1
_chemical_formula_structural   Ba6TmSc(BO3)6
_chemical_formula_sum   'Ba6 Tm1 Sc1 B6 O18'
_cell_volume   465.23548924
_cell_formula_units_Z   1
loop_
 _symmetry_equiv_pos_site_id
 _symmetry_equiv_pos_as_xyz
  1  'x, y, z'
loop_
 _atom_site_type_symbol
 _atom_site_label
 _atom_site_symmetry_multiplicity
 _atom_site_fract_x
 _atom_site_fract_y
 _atom_site_fract_z
 _atom_site_occupancy
  Ba  Ba0  1  0.347288  0.734053  0.835988  1
  Ba  Ba1  1  0.835988  0.347288  0.734053  1
  Ba  Ba2  1  0.734053  0.835988  0.347288  1
  Ba  Ba3  1  0.652712  0.265947  0.164012  1
  Ba  Ba4  1  0.164012  0.652712  0.265947  1
  Ba  Ba5  1  0.265947  0.164012  0.652712  1
  Tm  Tm6  1  0.000000  0.000000  0.000000  1
  Sc  Sc7  1  0.500000  0.500000  0.500000  1
  B  B8  1  0.373315  0.050690  0.291458  1
  B  B9  1  0.291458  0.373315  0.050690  1
  B  B10  1  0.050690  0.291458  0.373315  1
  B  B11  1  0.708542  0.626685  0.949310  1
  B  B12  1  0.949310  0.708542  0.626685  1
  B  B13  1  0.626685  0.949310  0.708542  1
  O  O14  1  0.426718  0.487731  0.224835  1
  O  O15  1  0.224835  0.426718  0.487731  1
  O  O16  1  0.814904  0.011830  0.742917  1
  O  O17  1  0.011830  0.742917  0.814904  1
  O  O18  1  0.742917  0.814904  0.011830  1
  O  O19  1  0.257083  0.185096  0.988170  1
  O  O20  1  0.185096  0.988170  0.257083  1
  O  O21  1  0.988170  0.257083  0.185096  1
  O  O22  1  0.551370  0.059816  0.798087  1
  O  O23  1  0.059816  0.798087  0.551370  1
  O  O24  1  0.798087  0.551370  0.059816  1
  O  O25  1  0.448630  0.940184  0.201913  1
  O  O26  1  0.940184  0.201913  0.448630  1
  O  O27  1  0.201913  0.448630  0.940184  1
  O  O28  1  0.512269  0.775165  0.573282  1
  O  O29  1  0.775165  0.573282  0.512269  1
  O  O30  1  0.573282  0.512269  0.775165  1
  O  O31  1  0.487731  0.224835  0.426718  1
