# generated using pymatgen
data_CsK9Rb2(AlSe3)4
_symmetry_space_group_name_H-M   'P 1'
_cell_length_a   13.73990606
_cell_length_b   8.23512188
_cell_length_c   10.53297209
_cell_angle_alpha   52.98653072
_cell_angle_beta   89.39793105
_cell_angle_gamma   89.57758992
_symmetry_Int_Tables_number   1
_chemical_formula_structural   CsK9Rb2(AlSe3)4
_chemical_formula_sum   'Cs1 K9 Rb2 Al4 Se12'
_cell_volume   951.59475689
_cell_formula_units_Z   1
loop_
 _symmetry_equiv_pos_site_id
 _symmetry_equiv_pos_as_xyz
  1  'x, y, z'
loop_
 _atom_site_type_symbol
 _atom_site_label
 _atom_site_symmetry_multiplicity
 _atom_site_fract_x
 _atom_site_fract_y
 _atom_site_fract_z
 _atom_site_occupancy
  Cs  Cs0  1  0.312375  0.170459  0.055448  1
  K  K1  1  0.901490  0.317070  0.402844  1
  K  K2  1  0.620296  0.370210  0.476045  1
  K  K3  1  0.113851  0.624657  0.024432  1
  K  K4  1  0.383101  0.632954  0.524500  1
  K  K5  1  0.884545  0.369564  0.974429  1
  K  K6  1  0.610177  0.311182  0.906063  1
  K  K7  1  0.103562  0.684747  0.596211  1
  K  K8  1  0.396383  0.689444  0.094126  1
  K  K9  1  0.184178  0.159381  0.567444  1
  Rb  Rb10  1  0.687208  0.833708  0.940186  1
  Rb  Rb11  1  0.813660  0.836688  0.441292  1
  Al  Al12  1  0.061107  0.939065  0.156679  1
  Al  Al13  1  0.564402  0.051350  0.346300  1
  Al  Al14  1  0.436156  0.961447  0.652410  1
  Al  Al15  1  0.935070  0.048004  0.843962  1
  Se  Se16  1  0.411101  0.194018  0.362579  1
  Se  Se17  1  0.904824  0.816234  0.134509  1
  Se  Se18  1  0.589714  0.817077  0.637504  1
  Se  Se19  1  0.091033  0.173355  0.864726  1
  Se  Se20  1  0.689659  0.305217  0.209951  1
  Se  Se21  1  0.180683  0.672452  0.298457  1
  Se  Se22  1  0.306207  0.717820  0.780428  1
  Se  Se23  1  0.812766  0.307433  0.708277  1
  Se  Se24  1  0.549275  0.863312  0.242492  1
  Se  Se25  1  0.047765  0.128178  0.259995  1
  Se  Se26  1  0.457234  0.139821  0.762918  1
  Se  Se27  1  0.952180  0.865152  0.735791  1
