# generated using pymatgen
data_TbCrCo4As3
_symmetry_space_group_name_H-M   'P 1'
_cell_length_a   3.79167200
_cell_length_b   10.78907500
_cell_length_c   12.31149200
_cell_angle_alpha   90.00000000
_cell_angle_beta   90.00000000
_cell_angle_gamma   90.00000000
_symmetry_Int_Tables_number   1
_chemical_formula_structural   TbCrCo4As3
_chemical_formula_sum   'Tb4 Cr4 Co16 As12'
_cell_volume   503.64631509
_cell_formula_units_Z   4
loop_
 _symmetry_equiv_pos_site_id
 _symmetry_equiv_pos_as_xyz
  1  'x, y, z'
loop_
 _atom_site_type_symbol
 _atom_site_label
 _atom_site_symmetry_multiplicity
 _atom_site_fract_x
 _atom_site_fract_y
 _atom_site_fract_z
 _atom_site_occupancy
  Tb  Tb0  1  0.250000  0.581290  0.705233  1
  Tb  Tb1  1  0.250000  0.918710  0.205233  1
  Tb  Tb2  1  0.750000  0.418710  0.294767  1
  Tb  Tb3  1  0.750000  0.081290  0.794767  1
  Cr  Cr4  1  0.250000  0.704689  0.990747  1
  Cr  Cr5  1  0.250000  0.795311  0.490747  1
  Cr  Cr6  1  0.750000  0.295311  0.009253  1
  Cr  Cr7  1  0.750000  0.204689  0.509253  1
  Co  Co8  1  0.250000  0.404858  0.489319  1
  Co  Co9  1  0.250000  0.095142  0.989319  1
  Co  Co10  1  0.750000  0.595142  0.510681  1
  Co  Co11  1  0.750000  0.904858  0.010681  1
  Co  Co12  1  0.250000  0.218236  0.174453  1
  Co  Co13  1  0.250000  0.281764  0.674453  1
  Co  Co14  1  0.750000  0.781764  0.825547  1
  Co  Co15  1  0.750000  0.718236  0.325547  1
  Co  Co16  1  0.250000  0.883248  0.699355  1
  Co  Co17  1  0.250000  0.616752  0.199355  1
  Co  Co18  1  0.750000  0.116752  0.300645  1
  Co  Co19  1  0.750000  0.383248  0.800645  1
  Co  Co20  1  0.250000  0.464754  0.931851  1
  Co  Co21  1  0.250000  0.035246  0.431851  1
  Co  Co22  1  0.750000  0.535246  0.068149  1
  Co  Co23  1  0.750000  0.964754  0.568149  1
  As  As24  1  0.250000  0.419126  0.114160  1
  As  As25  1  0.250000  0.080874  0.614160  1
  As  As26  1  0.750000  0.580874  0.885840  1
  As  As27  1  0.750000  0.919126  0.385840  1
  As  As28  1  0.250000  0.268079  0.865562  1
  As  As29  1  0.250000  0.231921  0.365562  1
  As  As30  1  0.750000  0.731921  0.134438  1
  As  As31  1  0.750000  0.768079  0.634438  1
  As  As32  1  0.250000  0.596232  0.390570  1
  As  As33  1  0.250000  0.903768  0.890570  1
  As  As34  1  0.750000  0.403768  0.609430  1
  As  As35  1  0.750000  0.096232  0.109430  1
