# generated using pymatgen
data_Li2ZrScPt2
_symmetry_space_group_name_H-M   'P 1'
_cell_length_a   5.14028129
_cell_length_b   5.14028140
_cell_length_c   5.17748100
_cell_angle_alpha   90.00000000
_cell_angle_beta   90.00000000
_cell_angle_gamma   130.43850418
_symmetry_Int_Tables_number   1
_chemical_formula_structural   Li2ZrScPt2
_chemical_formula_sum   'Li2 Zr1 Sc1 Pt2'
_cell_volume   104.12031893
_cell_formula_units_Z   1
loop_
 _symmetry_equiv_pos_site_id
 _symmetry_equiv_pos_as_xyz
  1  'x, y, z'
loop_
 _atom_site_type_symbol
 _atom_site_label
 _atom_site_symmetry_multiplicity
 _atom_site_fract_x
 _atom_site_fract_y
 _atom_site_fract_z
 _atom_site_occupancy
  Li  Li0  1  0.001493  0.998507  0.499500  1
  Li  Li1  1  0.001493  0.998507  0.000500  1
  Zr  Zr2  1  0.710506  0.289494  0.250000  1
  Sc  Sc3  1  0.289249  0.710751  0.750000  1
  Pt  Pt4  1  0.397562  0.602438  0.250000  1
  Pt  Pt5  1  0.599697  0.400303  0.750000  1
