# generated using pymatgen
data_Ho8InAgRh2
_symmetry_space_group_name_H-M   'P 1'
_cell_length_a   9.54425153
_cell_length_b   9.54425128
_cell_length_c   9.56132600
_cell_angle_alpha   59.94080944
_cell_angle_beta   59.94081031
_cell_angle_gamma   60.04026772
_symmetry_Int_Tables_number   1
_chemical_formula_structural   Ho8InAgRh2
_chemical_formula_sum   'Ho16 In2 Ag2 Rh4'
_cell_volume   615.50204271
_cell_formula_units_Z   2
loop_
 _symmetry_equiv_pos_site_id
 _symmetry_equiv_pos_as_xyz
  1  'x, y, z'
loop_
 _atom_site_type_symbol
 _atom_site_label
 _atom_site_symmetry_multiplicity
 _atom_site_fract_x
 _atom_site_fract_y
 _atom_site_fract_z
 _atom_site_occupancy
  Ho  Ho0  1  0.186111  0.186111  0.813889  1
  Ho  Ho1  1  0.600369  0.600369  0.198934  1
  Ho  Ho2  1  0.439133  0.060090  0.440478  1
  Ho  Ho3  1  0.441215  0.441215  0.058785  1
  Ho  Ho4  1  0.812719  0.183224  0.814259  1
  Ho  Ho5  1  0.183224  0.812719  0.189798  1
  Ho  Ho6  1  0.439133  0.060090  0.060299  1
  Ho  Ho7  1  0.183224  0.812719  0.814259  1
  Ho  Ho8  1  0.060090  0.439133  0.060299  1
  Ho  Ho9  1  0.811828  0.811828  0.188172  1
  Ho  Ho10  1  0.197959  0.601583  0.600229  1
  Ho  Ho11  1  0.060090  0.439133  0.440478  1
  Ho  Ho12  1  0.061256  0.061256  0.438744  1
  Ho  Ho13  1  0.812719  0.183224  0.189798  1
  Ho  Ho14  1  0.601583  0.197959  0.600229  1
  Ho  Ho15  1  0.600369  0.600369  0.600328  1
  In  In16  1  0.507095  0.833212  0.829847  1
  In  In17  1  0.833212  0.507095  0.829847  1
  Ag  Ag18  1  0.833649  0.833649  0.831885  1
  Ag  Ag19  1  0.833649  0.833649  0.500819  1
  Rh  Rh20  1  0.392887  0.822561  0.392276  1
  Rh  Rh21  1  0.392963  0.392963  0.391872  1
  Rh  Rh22  1  0.822561  0.392887  0.392276  1
  Rh  Rh23  1  0.392963  0.392963  0.822202  1
