# generated using pymatgen
data_Zr8Co9Si16Ni3
_symmetry_space_group_name_H-M   'P 1'
_cell_length_a   5.22745570
_cell_length_b   6.79129133
_cell_length_c   13.79900523
_cell_angle_alpha   90.10163568
_cell_angle_beta   89.88775942
_cell_angle_gamma   89.97048695
_symmetry_Int_Tables_number   1
_chemical_formula_structural   Zr8Co9Si16Ni3
_chemical_formula_sum   'Zr8 Co9 Si16 Ni3'
_cell_volume   489.87911707
_cell_formula_units_Z   1
loop_
 _symmetry_equiv_pos_site_id
 _symmetry_equiv_pos_as_xyz
  1  'x, y, z'
loop_
 _atom_site_type_symbol
 _atom_site_label
 _atom_site_symmetry_multiplicity
 _atom_site_fract_x
 _atom_site_fract_y
 _atom_site_fract_z
 _atom_site_occupancy
  Zr  Zr0  1  0.233111  0.400726  0.146393  1
  Zr  Zr1  1  0.733681  0.100137  0.146573  1
  Zr  Zr2  1  0.267468  0.098884  0.646039  1
  Zr  Zr3  1  0.768453  0.398838  0.645993  1
  Zr  Zr4  1  0.232404  0.603152  0.352850  1
  Zr  Zr5  1  0.731542  0.899605  0.353136  1
  Zr  Zr6  1  0.268126  0.897567  0.852372  1
  Zr  Zr7  1  0.767042  0.602332  0.852473  1
  Co  Co8  1  0.774005  0.000914  0.749681  1
  Co  Co9  1  0.726414  0.500257  0.250213  1
  Co  Co10  1  0.495241  0.769946  0.519179  1
  Co  Co11  1  0.007211  0.276173  0.481187  1
  Co  Co12  1  0.003787  0.731174  0.019233  1
  Co  Co13  1  0.225869  0.000380  0.250786  1
  Co  Co14  1  0.272759  0.498805  0.750387  1
  Co  Co15  1  0.503960  0.769473  0.019292  1
  Co  Co16  1  0.994794  0.724522  0.519570  1
  Si  Si17  1  0.224025  0.015978  0.071655  1
  Si  Si18  1  0.723656  0.521711  0.430229  1
  Si  Si19  1  0.781687  0.015739  0.568535  1
  Si  Si20  1  0.481474  0.754172  0.187528  1
  Si  Si21  1  0.018249  0.252854  0.812135  1
  Si  Si22  1  0.518471  0.246766  0.812118  1
  Si  Si23  1  0.216830  0.978698  0.433063  1
  Si  Si24  1  0.276249  0.523001  0.930774  1
  Si  Si25  1  0.981257  0.746718  0.187367  1
  Si  Si26  1  0.723662  0.484495  0.071269  1
  Si  Si27  1  0.277965  0.482503  0.570546  1
  Si  Si28  1  0.480553  0.247295  0.311708  1
  Si  Si29  1  0.018657  0.745854  0.687324  1
  Si  Si30  1  0.776528  0.977081  0.930567  1
  Si  Si31  1  0.519222  0.752783  0.687104  1
  Si  Si32  1  0.981808  0.254528  0.313256  1
  Ni  Ni33  1  0.993053  0.272194  0.979997  1
  Ni  Ni34  1  0.507830  0.227163  0.479383  1
  Ni  Ni35  1  0.492959  0.227581  0.980087  1
