# generated using pymatgen
data_DyHfSbRh5
_symmetry_space_group_name_H-M   'P 1'
_cell_length_a   4.18502500
_cell_length_b   5.71734234
_cell_length_c   11.23837676
_cell_angle_alpha   89.76314564
_cell_angle_beta   90.00000000
_cell_angle_gamma   90.00000000
_symmetry_Int_Tables_number   1
_chemical_formula_structural   DyHfSbRh5
_chemical_formula_sum   'Dy2 Hf2 Sb2 Rh10'
_cell_volume   268.90082253
_cell_formula_units_Z   2
loop_
 _symmetry_equiv_pos_site_id
 _symmetry_equiv_pos_as_xyz
  1  'x, y, z'
loop_
 _atom_site_type_symbol
 _atom_site_label
 _atom_site_symmetry_multiplicity
 _atom_site_fract_x
 _atom_site_fract_y
 _atom_site_fract_z
 _atom_site_occupancy
  Dy  Dy0  1  0.500000  0.178609  0.643339  1
  Dy  Dy1  1  0.500000  0.821391  0.356661  1
  Hf  Hf2  1  0.500000  0.672900  0.857378  1
  Hf  Hf3  1  0.500000  0.327100  0.142622  1
  Sb  Sb4  1  0.000000  0.500000  0.500000  1
  Sb  Sb5  1  0.000000  0.000000  0.000000  1
  Rh  Rh6  1  0.500000  0.200952  0.897068  1
  Rh  Rh7  1  0.500000  0.799048  0.102932  1
  Rh  Rh8  1  0.500000  0.691911  0.618761  1
  Rh  Rh9  1  0.500000  0.308089  0.381239  1
  Rh  Rh10  1  0.000000  0.440407  0.754280  1
  Rh  Rh11  1  0.000000  0.559593  0.245720  1
  Rh  Rh12  1  0.000000  0.000000  0.500000  1
  Rh  Rh13  1  0.000000  0.500000  0.000000  1
  Rh  Rh14  1  0.000000  0.070583  0.238087  1
  Rh  Rh15  1  0.000000  0.929417  0.761913  1
