# generated using pymatgen
data_Eu3Tm2(Ni2Sn5)2
_symmetry_space_group_name_H-M   'P 1'
_cell_length_a   14.04676000
_cell_length_b   14.04676000
_cell_length_c   4.50262900
_cell_angle_alpha   90.00000000
_cell_angle_beta   90.00000000
_cell_angle_gamma   90.00000000
_symmetry_Int_Tables_number   1
_chemical_formula_structural   Eu3Tm2(Ni2Sn5)2
_chemical_formula_sum   'Eu6 Tm4 Ni8 Sn20'
_cell_volume   888.42033108
_cell_formula_units_Z   2
loop_
 _symmetry_equiv_pos_site_id
 _symmetry_equiv_pos_as_xyz
  1  'x, y, z'
loop_
 _atom_site_type_symbol
 _atom_site_label
 _atom_site_symmetry_multiplicity
 _atom_site_fract_x
 _atom_site_fract_y
 _atom_site_fract_z
 _atom_site_occupancy
  Eu  Eu0  1  0.000000  0.000000  0.000000  1
  Eu  Eu1  1  0.500000  0.500000  0.000000  1
  Eu  Eu2  1  0.891346  0.608654  0.500000  1
  Eu  Eu3  1  0.108654  0.391346  0.500000  1
  Eu  Eu4  1  0.391346  0.891346  0.500000  1
  Eu  Eu5  1  0.608654  0.108654  0.500000  1
  Tm  Tm6  1  0.179439  0.679439  0.500000  1
  Tm  Tm7  1  0.820561  0.320561  0.500000  1
  Tm  Tm8  1  0.679439  0.820561  0.500000  1
  Tm  Tm9  1  0.320561  0.179439  0.500000  1
  Ni  Ni10  1  0.254181  0.536892  0.000000  1
  Ni  Ni11  1  0.745819  0.463108  0.000000  1
  Ni  Ni12  1  0.754181  0.963108  0.000000  1
  Ni  Ni13  1  0.245819  0.036892  0.000000  1
  Ni  Ni14  1  0.463108  0.254181  0.000000  1
  Ni  Ni15  1  0.536892  0.745819  0.000000  1
  Ni  Ni16  1  0.036892  0.754181  0.000000  1
  Ni  Ni17  1  0.963108  0.245819  0.000000  1
  Sn  Sn18  1  0.351196  0.700002  0.000000  1
  Sn  Sn19  1  0.648804  0.299998  0.000000  1
  Sn  Sn20  1  0.851196  0.799998  0.000000  1
  Sn  Sn21  1  0.148804  0.200002  0.000000  1
  Sn  Sn22  1  0.299998  0.351196  0.000000  1
  Sn  Sn23  1  0.700002  0.648804  0.000000  1
  Sn  Sn24  1  0.200002  0.851196  0.000000  1
  Sn  Sn25  1  0.799998  0.148804  0.000000  1
  Sn  Sn26  1  0.334523  0.513371  0.500000  1
  Sn  Sn27  1  0.665477  0.486629  0.500000  1
  Sn  Sn28  1  0.834523  0.986629  0.500000  1
  Sn  Sn29  1  0.165477  0.013371  0.500000  1
  Sn  Sn30  1  0.486629  0.334523  0.500000  1
  Sn  Sn31  1  0.513371  0.665477  0.500000  1
  Sn  Sn32  1  0.013371  0.834523  0.500000  1
  Sn  Sn33  1  0.986629  0.165477  0.500000  1
  Sn  Sn34  1  0.072563  0.572563  0.000000  1
  Sn  Sn35  1  0.927437  0.427437  0.000000  1
  Sn  Sn36  1  0.572563  0.927437  0.000000  1
  Sn  Sn37  1  0.427437  0.072563  0.000000  1
