# generated using pymatgen
data_HoTm2(Al3Os)4
_symmetry_space_group_name_H-M   'P 1'
_cell_length_a   8.79721000
_cell_length_b   8.80092002
_cell_length_c   9.57978600
_cell_angle_alpha   90.00000000
_cell_angle_beta   90.00000000
_cell_angle_gamma   119.98605626
_symmetry_Int_Tables_number   1
_chemical_formula_structural   HoTm2(Al3Os)4
_chemical_formula_sum   'Ho2 Tm4 Al24 Os8'
_cell_volume   642.42210583
_cell_formula_units_Z   2
loop_
 _symmetry_equiv_pos_site_id
 _symmetry_equiv_pos_as_xyz
  1  'x, y, z'
loop_
 _atom_site_type_symbol
 _atom_site_label
 _atom_site_symmetry_multiplicity
 _atom_site_fract_x
 _atom_site_fract_y
 _atom_site_fract_z
 _atom_site_occupancy
  Ho  Ho0  1  0.193951  0.387902  0.250000  1
  Ho  Ho1  1  0.806049  0.612098  0.750000  1
  Tm  Tm2  1  0.610330  0.805393  0.250000  1
  Tm  Tm3  1  0.389670  0.194607  0.750000  1
  Tm  Tm4  1  0.195063  0.805393  0.250000  1
  Tm  Tm5  1  0.804937  0.194607  0.750000  1
  Al  Al6  1  0.333415  0.666831  0.018666  1
  Al  Al7  1  0.666585  0.333169  0.981334  1
  Al  Al8  1  0.666585  0.333169  0.518666  1
  Al  Al9  1  0.333415  0.666831  0.481334  1
  Al  Al10  1  0.163515  0.327031  0.575765  1
  Al  Al11  1  0.836485  0.672969  0.424235  1
  Al  Al12  1  0.672819  0.836235  0.574657  1
  Al  Al13  1  0.836485  0.672969  0.075765  1
  Al  Al14  1  0.327181  0.163765  0.425343  1
  Al  Al15  1  0.163515  0.327031  0.924235  1
  Al  Al16  1  0.163415  0.836235  0.574657  1
  Al  Al17  1  0.327181  0.163765  0.074657  1
  Al  Al18  1  0.836585  0.163765  0.425343  1
  Al  Al19  1  0.672819  0.836235  0.925343  1
  Al  Al20  1  0.836585  0.163765  0.074657  1
  Al  Al21  1  0.163415  0.836235  0.925343  1
  Al  Al22  1  0.561263  0.122526  0.250000  1
  Al  Al23  1  0.438737  0.877474  0.750000  1
  Al  Al24  1  0.877374  0.439197  0.250000  1
  Al  Al25  1  0.122626  0.560803  0.750000  1
  Al  Al26  1  0.561822  0.439197  0.250000  1
  Al  Al27  1  0.438178  0.560803  0.750000  1
  Al  Al28  1  0.999628  0.999256  0.250000  1
  Al  Al29  1  0.000372  0.000744  0.750000  1
  Os  Os30  1  0.500000  0.000000  0.000000  1
  Os  Os31  1  0.000000  0.500000  0.000000  1
  Os  Os32  1  0.500000  0.000000  0.500000  1
  Os  Os33  1  0.500000  0.500000  0.000000  1
  Os  Os34  1  0.000000  0.500000  0.500000  1
  Os  Os35  1  0.500000  0.500000  0.500000  1
  Os  Os36  1  0.000000  0.000000  0.000000  1
  Os  Os37  1  0.000000  0.000000  0.500000  1
