# generated using pymatgen
data_Ti2MnCo3Si2
_symmetry_space_group_name_H-M   'P 1'
_cell_length_a   4.06235600
_cell_length_b   5.75518524
_cell_length_c   12.15124076
_cell_angle_alpha   90.10123745
_cell_angle_beta   90.00258009
_cell_angle_gamma   90.00013908
_symmetry_Int_Tables_number   1
_chemical_formula_structural   Ti2MnCo3Si2
_chemical_formula_sum   'Ti6 Mn3 Co9 Si6'
_cell_volume   284.09084193
_cell_formula_units_Z   3
loop_
 _symmetry_equiv_pos_site_id
 _symmetry_equiv_pos_as_xyz
  1  'x, y, z'
loop_
 _atom_site_type_symbol
 _atom_site_label
 _atom_site_symmetry_multiplicity
 _atom_site_fract_x
 _atom_site_fract_y
 _atom_site_fract_z
 _atom_site_occupancy
  Ti  Ti0  1  0.000010  0.001604  0.000477  1
  Ti  Ti1  1  0.500139  0.497371  0.164136  1
  Ti  Ti2  1  0.000164  0.000955  0.331415  1
  Ti  Ti3  1  0.499990  0.500026  0.499787  1
  Ti  Ti4  1  0.999829  0.999933  0.667699  1
  Ti  Ti5  1  0.499863  0.500822  0.836341  1
  Mn  Mn6  1  0.500015  0.251392  0.998340  1
  Mn  Mn7  1  0.500004  0.748446  0.998382  1
  Mn  Mn8  1  0.000144  0.249374  0.170052  1
  Co  Co9  1  0.000151  0.752168  0.167461  1
  Co  Co10  1  0.500179  0.249687  0.334494  1
  Co  Co11  1  0.500180  0.749808  0.334840  1
  Co  Co12  1  0.999984  0.250795  0.500565  1
  Co  Co13  1  0.999995  0.747294  0.500069  1
  Co  Co14  1  0.499812  0.247587  0.666741  1
  Co  Co15  1  0.499809  0.752460  0.666635  1
  Co  Co16  1  0.999864  0.250086  0.831227  1
  Co  Co17  1  0.999862  0.749973  0.831356  1
  Si  Si18  1  0.000008  0.497524  0.001712  1
  Si  Si19  1  0.500145  0.004101  0.162769  1
  Si  Si20  1  0.000156  0.498503  0.331838  1
  Si  Si21  1  0.499992  0.000042  0.500120  1
  Si  Si22  1  0.999840  0.499805  0.666765  1
  Si  Si23  1  0.499869  0.000245  0.836777  1
