# generated using pymatgen
data_Sm(ReO4)3
_symmetry_space_group_name_H-M   'P 1'
_cell_length_a   10.33695500
_cell_length_b   10.33695151
_cell_length_c   6.32553600
_cell_angle_alpha   90.00000000
_cell_angle_beta   90.00000000
_cell_angle_gamma   120.00006768
_symmetry_Int_Tables_number   1
_chemical_formula_structural   Sm(ReO4)3
_chemical_formula_sum   'Sm2 Re6 O24'
_cell_volume   585.34615771
_cell_formula_units_Z   2
loop_
 _symmetry_equiv_pos_site_id
 _symmetry_equiv_pos_as_xyz
  1  'x, y, z'
loop_
 _atom_site_type_symbol
 _atom_site_label
 _atom_site_symmetry_multiplicity
 _atom_site_fract_x
 _atom_site_fract_y
 _atom_site_fract_z
 _atom_site_occupancy
  Sm  Sm0  1  0.666666  0.333333  0.750000  1
  Sm  Sm1  1  0.333334  0.666667  0.250000  1
  Re  Re2  1  0.089782  0.395414  0.750000  1
  Re  Re3  1  0.395415  0.305633  0.250000  1
  Re  Re4  1  0.604585  0.694367  0.750000  1
  Re  Re5  1  0.910218  0.604586  0.250000  1
  Re  Re6  1  0.305634  0.910221  0.750000  1
  Re  Re7  1  0.694366  0.089779  0.250000  1
  O  O8  1  0.490256  0.648793  0.523702  1
  O  O9  1  0.351206  0.841463  0.523704  1
  O  O10  1  0.848028  0.731544  0.250000  1
  O  O11  1  0.116486  0.848029  0.750000  1
  O  O12  1  0.268456  0.116486  0.250000  1
  O  O13  1  0.151972  0.268456  0.750000  1
  O  O14  1  0.509744  0.351207  0.023702  1
  O  O15  1  0.883514  0.151971  0.250000  1
  O  O16  1  0.106515  0.698255  0.250000  1
  O  O17  1  0.158537  0.509743  0.976296  1
  O  O18  1  0.158537  0.509743  0.523704  1
  O  O19  1  0.893485  0.301745  0.750000  1
  O  O20  1  0.301745  0.408260  0.250000  1
  O  O21  1  0.698255  0.591740  0.750000  1
  O  O22  1  0.841463  0.490257  0.476296  1
  O  O23  1  0.408260  0.106517  0.750000  1
  O  O24  1  0.648794  0.158537  0.023704  1
  O  O25  1  0.490256  0.648793  0.976298  1
  O  O26  1  0.351206  0.841463  0.976296  1
  O  O27  1  0.648794  0.158537  0.476296  1
  O  O28  1  0.509744  0.351207  0.476298  1
  O  O29  1  0.841463  0.490257  0.023704  1
  O  O30  1  0.731544  0.883514  0.750000  1
  O  O31  1  0.591740  0.893483  0.250000  1
