# generated using pymatgen
data_Eu10NiHg3
_symmetry_space_group_name_H-M   'P 1'
_cell_length_a   10.44655700
_cell_length_b   10.44655697
_cell_length_c   10.25742600
_cell_angle_alpha   90.00000000
_cell_angle_beta   90.00000000
_cell_angle_gamma   119.99999692
_symmetry_Int_Tables_number   1
_chemical_formula_structural   Eu10NiHg3
_chemical_formula_sum   'Eu20 Ni2 Hg6'
_cell_volume   969.42762888
_cell_formula_units_Z   2
loop_
 _symmetry_equiv_pos_site_id
 _symmetry_equiv_pos_as_xyz
  1  'x, y, z'
loop_
 _atom_site_type_symbol
 _atom_site_label
 _atom_site_symmetry_multiplicity
 _atom_site_fract_x
 _atom_site_fract_y
 _atom_site_fract_z
 _atom_site_occupancy
  Eu  Eu0  1  0.000000  0.000000  0.500000  1
  Eu  Eu1  1  0.000000  0.000000  0.000000  1
  Eu  Eu2  1  0.543264  0.456736  0.250000  1
  Eu  Eu3  1  0.543264  0.086529  0.250000  1
  Eu  Eu4  1  0.913471  0.456736  0.250000  1
  Eu  Eu5  1  0.456736  0.543264  0.750000  1
  Eu  Eu6  1  0.456736  0.913471  0.750000  1
  Eu  Eu7  1  0.086529  0.543264  0.750000  1
  Eu  Eu8  1  0.209498  0.790502  0.435775  1
  Eu  Eu9  1  0.209498  0.418997  0.435775  1
  Eu  Eu10  1  0.581003  0.790502  0.435775  1
  Eu  Eu11  1  0.790502  0.209498  0.564225  1
  Eu  Eu12  1  0.790502  0.581003  0.564225  1
  Eu  Eu13  1  0.418997  0.209498  0.564225  1
  Eu  Eu14  1  0.790502  0.209498  0.935775  1
  Eu  Eu15  1  0.790502  0.581003  0.935775  1
  Eu  Eu16  1  0.418997  0.209498  0.935775  1
  Eu  Eu17  1  0.209498  0.790502  0.064225  1
  Eu  Eu18  1  0.209498  0.418997  0.064225  1
  Eu  Eu19  1  0.581003  0.790502  0.064225  1
  Ni  Ni20  1  0.333333  0.666667  0.250000  1
  Ni  Ni21  1  0.666667  0.333333  0.750000  1
  Hg  Hg22  1  0.878873  0.121127  0.250000  1
  Hg  Hg23  1  0.878873  0.757746  0.250000  1
  Hg  Hg24  1  0.242254  0.121127  0.250000  1
  Hg  Hg25  1  0.121127  0.878873  0.750000  1
  Hg  Hg26  1  0.121127  0.242254  0.750000  1
  Hg  Hg27  1  0.757746  0.878873  0.750000  1
