# generated using pymatgen
data_Ho2U2Ga12Tc
_symmetry_space_group_name_H-M   'P 1'
_cell_length_a   7.48959428
_cell_length_b   7.48959391
_cell_length_c   7.45873829
_cell_angle_alpha   109.36701656
_cell_angle_beta   109.36701861
_cell_angle_gamma   109.84618140
_symmetry_Int_Tables_number   1
_chemical_formula_structural   Ho2U2Ga12Tc
_chemical_formula_sum   'Ho2 U2 Ga12 Tc1'
_cell_volume   321.40788348
_cell_formula_units_Z   1
loop_
 _symmetry_equiv_pos_site_id
 _symmetry_equiv_pos_as_xyz
  1  'x, y, z'
loop_
 _atom_site_type_symbol
 _atom_site_label
 _atom_site_symmetry_multiplicity
 _atom_site_fract_x
 _atom_site_fract_y
 _atom_site_fract_z
 _atom_site_occupancy
  Ho  Ho0  1  0.000000  0.500000  0.000000  1
  Ho  Ho1  1  0.500000  0.000000  0.000000  1
  U  U2  1  0.500000  0.500000  0.500000  1
  U  U3  1  0.000000  0.000000  0.500000  1
  Ga  Ga4  1  0.750000  0.250000  0.500000  1
  Ga  Ga5  1  0.997972  0.708831  0.706803  1
  Ga  Ga6  1  0.291169  0.002028  0.293197  1
  Ga  Ga7  1  0.498909  0.250285  0.749194  1
  Ga  Ga8  1  0.749715  0.501091  0.250806  1
  Ga  Ga9  1  0.250000  0.750000  0.500000  1
  Ga  Ga10  1  0.250285  0.498909  0.749194  1
  Ga  Ga11  1  0.708831  0.997972  0.706803  1
  Ga  Ga12  1  0.501091  0.749715  0.250806  1
  Ga  Ga13  1  0.708018  0.708018  0.000000  1
  Ga  Ga14  1  0.291982  0.291982  0.000000  1
  Ga  Ga15  1  0.002028  0.291169  0.293197  1
  Tc  Tc16  1  0.000000  0.000000  0.000000  1
