# generated using pymatgen
data_Lu2Mn3Fe6Ni3P7
_symmetry_space_group_name_H-M   'P 1'
_cell_length_a   9.06511000
_cell_length_b   9.06510956
_cell_length_c   3.58625500
_cell_angle_alpha   90.00000000
_cell_angle_beta   90.00000000
_cell_angle_gamma   120.00000213
_symmetry_Int_Tables_number   1
_chemical_formula_structural   Lu2Mn3Fe6Ni3P7
_chemical_formula_sum   'Lu2 Mn3 Fe6 Ni3 P7'
_cell_volume   255.22189262
_cell_formula_units_Z   1
loop_
 _symmetry_equiv_pos_site_id
 _symmetry_equiv_pos_as_xyz
  1  'x, y, z'
loop_
 _atom_site_type_symbol
 _atom_site_label
 _atom_site_symmetry_multiplicity
 _atom_site_fract_x
 _atom_site_fract_y
 _atom_site_fract_z
 _atom_site_occupancy
  Lu  Lu0  1  0.666667  0.333333  0.000000  1
  Lu  Lu1  1  0.000000  0.000000  0.500000  1
  Mn  Mn2  1  0.556497  0.769083  0.500000  1
  Mn  Mn3  1  0.230917  0.787415  0.500000  1
  Mn  Mn4  1  0.212585  0.443503  0.500000  1
  Fe  Fe5  1  0.489920  0.942345  0.000000  1
  Fe  Fe6  1  0.057655  0.547574  0.000000  1
  Fe  Fe7  1  0.452426  0.510080  0.000000  1
  Fe  Fe8  1  0.724852  0.106130  0.500000  1
  Fe  Fe9  1  0.893870  0.618723  0.500000  1
  Fe  Fe10  1  0.381277  0.275148  0.500000  1
  Ni  Ni11  1  0.763733  0.733469  0.000000  1
  Ni  Ni12  1  0.266531  0.030265  0.000000  1
  Ni  Ni13  1  0.969735  0.236267  0.000000  1
  P  P14  1  0.461198  0.076735  0.500000  1
  P  P15  1  0.923265  0.384463  0.500000  1
  P  P16  1  0.615537  0.538802  0.500000  1
  P  P17  1  0.744744  0.971526  0.000000  1
  P  P18  1  0.028474  0.773219  0.000000  1
  P  P19  1  0.226781  0.255256  0.000000  1
  P  P20  1  0.333333  0.666667  0.000000  1
