# generated using pymatgen
data_Tm4Ti3Nb3Ge8
_symmetry_space_group_name_H-M   'P 1'
_cell_length_a   7.13113007
_cell_length_b   7.13224309
_cell_length_c   13.10803415
_cell_angle_alpha   90.09299068
_cell_angle_beta   90.03181263
_cell_angle_gamma   90.00568285
_symmetry_Int_Tables_number   1
_chemical_formula_structural   Tm4Ti3Nb3Ge8
_chemical_formula_sum   'Tm8 Ti6 Nb6 Ge16'
_cell_volume   666.68612738
_cell_formula_units_Z   2
loop_
 _symmetry_equiv_pos_site_id
 _symmetry_equiv_pos_as_xyz
  1  'x, y, z'
loop_
 _atom_site_type_symbol
 _atom_site_label
 _atom_site_symmetry_multiplicity
 _atom_site_fract_x
 _atom_site_fract_y
 _atom_site_fract_z
 _atom_site_occupancy
  Tm  Tm0  1  0.341438  0.999032  0.468125  1
  Tm  Tm1  1  0.499861  0.842253  0.718196  1
  Tm  Tm2  1  0.499499  0.157399  0.218742  1
  Tm  Tm3  1  0.839382  0.502022  0.281476  1
  Tm  Tm4  1  0.159179  0.498860  0.780834  1
  Tm  Tm5  1  0.657177  0.999601  0.968689  1
  Tm  Tm6  1  0.998534  0.341193  0.531219  1
  Tm  Tm7  1  0.001740  0.661369  0.031024  1
  Ti  Ti8  1  0.508360  0.344858  0.623395  1
  Ti  Ti9  1  0.655993  0.491980  0.876707  1
  Ti  Ti10  1  0.345297  0.507906  0.376809  1
  Ti  Ti11  1  0.844984  0.991601  0.373298  1
  Ti  Ti12  1  0.007647  0.154682  0.126629  1
  Ti  Ti13  1  0.992019  0.844307  0.627092  1
  Nb  Nb14  1  0.329226  0.329685  0.000434  1
  Nb  Nb15  1  0.171790  0.828353  0.250351  1
  Nb  Nb16  1  0.830738  0.170316  0.750146  1
  Nb  Nb17  1  0.670843  0.670427  0.500173  1
  Nb  Nb18  1  0.154627  0.007869  0.873205  1
  Nb  Nb19  1  0.491943  0.654790  0.122850  1
  Ge  Ge20  1  0.201974  0.130121  0.676517  1
  Ge  Ge21  1  0.370987  0.700181  0.926504  1
  Ge  Ge22  1  0.629229  0.299344  0.428289  1
  Ge  Ge23  1  0.703359  0.365856  0.072514  1
  Ge  Ge24  1  0.299058  0.629391  0.571756  1
  Ge  Ge25  1  0.801066  0.871835  0.178631  1
  Ge  Ge26  1  0.129082  0.200944  0.322459  1
  Ge  Ge27  1  0.865932  0.796904  0.821934  1
  Ge  Ge28  1  0.292809  0.961343  0.066857  1
  Ge  Ge29  1  0.540829  0.794074  0.317467  1
  Ge  Ge30  1  0.461399  0.209056  0.815395  1
  Ge  Ge31  1  0.793526  0.539456  0.683396  1
  Ge  Ge32  1  0.203550  0.457774  0.184691  1
  Ge  Ge33  1  0.707712  0.040178  0.566090  1
  Ge  Ge34  1  0.958902  0.297724  0.933975  1
  Ge  Ge35  1  0.040313  0.707316  0.434131  1
