# generated using pymatgen
data_La2SbAs(RhO)2
_symmetry_space_group_name_H-M   'P 1'
_cell_length_a   4.21029600
_cell_length_b   4.21029600
_cell_length_c   8.84274900
_cell_angle_alpha   90.00000000
_cell_angle_beta   90.00000000
_cell_angle_gamma   90.00000000
_symmetry_Int_Tables_number   1
_chemical_formula_structural   La2SbAs(RhO)2
_chemical_formula_sum   'La2 Sb1 As1 Rh2 O2'
_cell_volume   156.75180729
_cell_formula_units_Z   1
loop_
 _symmetry_equiv_pos_site_id
 _symmetry_equiv_pos_as_xyz
  1  'x, y, z'
loop_
 _atom_site_type_symbol
 _atom_site_label
 _atom_site_symmetry_multiplicity
 _atom_site_fract_x
 _atom_site_fract_y
 _atom_site_fract_z
 _atom_site_occupancy
  La  La0  1  0.499999  0.000000  0.120917  1
  La  La1  1  0.000000  0.499999  0.857677  1
  Sb  Sb2  1  0.000000  0.499999  0.341827  1
  As  As3  1  0.499999  0.000000  0.659121  1
  Rh  Rh4  1  0.000000  0.000000  0.518444  1
  Rh  Rh5  1  0.499999  0.499999  0.518444  1
  O  O6  1  0.000000  0.000000  0.991785  1
  O  O7  1  0.499999  0.499999  0.991785  1
