# generated using pymatgen
data_Y6Cd21SiAg2
_symmetry_space_group_name_H-M   'P 1'
_cell_length_a   9.96777206
_cell_length_b   9.95934284
_cell_length_c   9.95934400
_cell_angle_alpha   60.00000279
_cell_angle_beta   60.02797264
_cell_angle_gamma   60.02797988
_symmetry_Int_Tables_number   1
_chemical_formula_structural   Y6Cd21SiAg2
_chemical_formula_sum   'Y6 Cd21 Si1 Ag2'
_cell_volume   699.40388836
_cell_formula_units_Z   1
loop_
 _symmetry_equiv_pos_site_id
 _symmetry_equiv_pos_as_xyz
  1  'x, y, z'
loop_
 _atom_site_type_symbol
 _atom_site_label
 _atom_site_symmetry_multiplicity
 _atom_site_fract_x
 _atom_site_fract_y
 _atom_site_fract_z
 _atom_site_occupancy
  Y  Y0  1  0.701461  0.296113  0.296113  1
  Y  Y1  1  0.701461  0.296113  0.706313  1
  Y  Y2  1  0.701461  0.706313  0.296113  1
  Y  Y3  1  0.296606  0.702899  0.702899  1
  Y  Y4  1  0.296606  0.702899  0.297595  1
  Y  Y5  1  0.296606  0.297595  0.702899  1
  Cd  Cd6  1  0.118959  0.643123  0.118960  1
  Cd  Cd7  1  0.118959  0.118960  0.643123  1
  Cd  Cd8  1  0.118959  0.118960  0.118960  1
  Cd  Cd9  1  0.358144  0.880618  0.880618  1
  Cd  Cd10  1  0.878142  0.352349  0.884754  1
  Cd  Cd11  1  0.878142  0.884754  0.352349  1
  Cd  Cd12  1  0.878142  0.884754  0.884754  1
  Cd  Cd13  1  0.502120  0.000657  0.000657  1
  Cd  Cd14  1  0.502120  0.000657  0.496566  1
  Cd  Cd15  1  0.502120  0.496566  0.000657  1
  Cd  Cd16  1  0.000546  0.500269  0.500269  1
  Cd  Cd17  1  0.000546  0.500269  0.998917  1
  Cd  Cd18  1  0.000546  0.998917  0.500269  1
  Cd  Cd19  1  0.985783  0.338072  0.338072  1
  Cd  Cd20  1  0.338263  0.989465  0.336136  1
  Cd  Cd21  1  0.338263  0.336136  0.989465  1
  Cd  Cd22  1  0.338263  0.336136  0.336136  1
  Cd  Cd23  1  0.011597  0.662802  0.662802  1
  Cd  Cd24  1  0.662614  0.013551  0.661918  1
  Cd  Cd25  1  0.662614  0.661918  0.013551  1
  Cd  Cd26  1  0.662614  0.661918  0.661918  1
  Si  Si27  1  0.500277  0.499908  0.499908  1
  Ag  Ag28  1  0.643916  0.118695  0.118695  1
  Ag  Ag29  1  0.004157  0.998614  0.998614  1
