# generated using pymatgen
data_Er7Sc(Si4W3)4
_symmetry_space_group_name_H-M   'P 1'
_cell_length_a   6.73274974
_cell_length_b   6.90504425
_cell_length_c   12.85713735
_cell_angle_alpha   90.07897349
_cell_angle_beta   89.97599393
_cell_angle_gamma   90.04815309
_symmetry_Int_Tables_number   1
_chemical_formula_structural   Er7Sc(Si4W3)4
_chemical_formula_sum   'Er7 Sc1 Si16 W12'
_cell_volume   597.72664643
_cell_formula_units_Z   1
loop_
 _symmetry_equiv_pos_site_id
 _symmetry_equiv_pos_as_xyz
  1  'x, y, z'
loop_
 _atom_site_type_symbol
 _atom_site_label
 _atom_site_symmetry_multiplicity
 _atom_site_fract_x
 _atom_site_fract_y
 _atom_site_fract_z
 _atom_site_occupancy
  Er  Er0  1  0.494737  0.668446  0.592832  1
  Er  Er1  1  0.995105  0.831915  0.907092  1
  Er  Er2  1  0.505028  0.332007  0.093342  1
  Er  Er3  1  0.004697  0.167661  0.408278  1
  Er  Er4  1  0.504619  0.331486  0.407890  1
  Er  Er5  1  0.004911  0.168102  0.093329  1
  Er  Er6  1  0.494890  0.668633  0.905484  1
  Sc  Sc7  1  0.992602  0.830394  0.594632  1
  Si  Si8  1  0.664278  0.958179  0.454982  1
  Si  Si9  1  0.162997  0.541140  0.046377  1
  Si  Si10  1  0.337900  0.041967  0.952840  1
  Si  Si11  1  0.838984  0.462337  0.547144  1
  Si  Si12  1  0.331523  0.038198  0.547039  1
  Si  Si13  1  0.836914  0.458129  0.953079  1
  Si  Si14  1  0.662549  0.958295  0.046490  1
  Si  Si15  1  0.162270  0.544128  0.455056  1
  Si  Si16  1  0.463966  0.372172  0.749800  1
  Si  Si17  1  0.964715  0.124600  0.748001  1
  Si  Si18  1  0.536789  0.627787  0.250389  1
  Si  Si19  1  0.036346  0.872568  0.250281  1
  Si  Si20  1  0.700520  0.863846  0.748218  1
  Si  Si21  1  0.194285  0.638016  0.747808  1
  Si  Si22  1  0.302757  0.135789  0.250495  1
  Si  Si23  1  0.803330  0.364961  0.250816  1
  W  W24  1  0.668241  0.162921  0.624916  1
  W  W25  1  0.166949  0.335816  0.873613  1
  W  W26  1  0.332275  0.836752  0.125080  1
  W  W27  1  0.833163  0.664800  0.375828  1
  W  W28  1  0.332459  0.836356  0.374731  1
  W  W29  1  0.832515  0.663970  0.125543  1
  W  W30  1  0.669019  0.162447  0.874175  1
  W  W31  1  0.168254  0.336375  0.625044  1
  W  W32  1  0.833322  0.501245  0.749368  1
  W  W33  1  0.333161  0.998288  0.748797  1
  W  W34  1  0.167127  0.499684  0.250341  1
  W  W35  1  0.666804  0.000591  0.250868  1
