# generated using pymatgen
data_Er10In8IrPdPt2
_symmetry_space_group_name_H-M   'P 1'
_cell_length_a   3.59285400
_cell_length_b   8.11883200
_cell_length_c   18.19520630
_cell_angle_alpha   90.02008245
_cell_angle_beta   90.00000000
_cell_angle_gamma   90.00000000
_symmetry_Int_Tables_number   1
_chemical_formula_structural   Er10In8IrPdPt2
_chemical_formula_sum   'Er10 In8 Ir1 Pd1 Pt2'
_cell_volume   530.75009659
_cell_formula_units_Z   1
loop_
 _symmetry_equiv_pos_site_id
 _symmetry_equiv_pos_as_xyz
  1  'x, y, z'
loop_
 _atom_site_type_symbol
 _atom_site_label
 _atom_site_symmetry_multiplicity
 _atom_site_fract_x
 _atom_site_fract_y
 _atom_site_fract_z
 _atom_site_occupancy
  Er  Er0  1  0.000000  0.500178  0.500179  1
  Er  Er1  1  0.000000  0.000522  0.000462  1
  Er  Er2  1  0.000000  0.729661  0.277551  1
  Er  Er3  1  0.000000  0.259360  0.720345  1
  Er  Er4  1  0.000000  0.758937  0.778909  1
  Er  Er5  1  0.000000  0.254644  0.220281  1
  Er  Er6  1  0.000000  0.615292  0.087203  1
  Er  Er7  1  0.000000  0.383340  0.915181  1
  Er  Er8  1  0.000000  0.883417  0.584394  1
  Er  Er9  1  0.000000  0.116608  0.415147  1
  In  In10  1  0.500000  0.709261  0.933102  1
  In  In11  1  0.500000  0.291947  0.067943  1
  In  In12  1  0.500000  0.791420  0.431827  1
  In  In13  1  0.500000  0.208204  0.566699  1
  In  In14  1  0.500000  0.578094  0.648723  1
  In  In15  1  0.500000  0.421987  0.351704  1
  In  In16  1  0.500000  0.924620  0.150040  1
  In  In17  1  0.500000  0.077755  0.850916  1
  Ir  Ir18  1  0.500000  0.521009  0.195794  1
  Pd  Pd19  1  0.500000  0.021191  0.303936  1
  Pt  Pt20  1  0.500000  0.476036  0.803984  1
  Pt  Pt21  1  0.500000  0.976517  0.695680  1
