# generated using pymatgen
data_Pr2Mo3P7Ir9
_symmetry_space_group_name_H-M   'P 1'
_cell_length_a   9.60582500
_cell_length_b   9.60582571
_cell_length_c   3.97457500
_cell_angle_alpha   90.00000000
_cell_angle_beta   90.00000000
_cell_angle_gamma   120.00000101
_symmetry_Int_Tables_number   1
_chemical_formula_structural   Pr2Mo3P7Ir9
_chemical_formula_sum   'Pr2 Mo3 P7 Ir9'
_cell_volume   317.60746125
_cell_formula_units_Z   1
loop_
 _symmetry_equiv_pos_site_id
 _symmetry_equiv_pos_as_xyz
  1  'x, y, z'
loop_
 _atom_site_type_symbol
 _atom_site_label
 _atom_site_symmetry_multiplicity
 _atom_site_fract_x
 _atom_site_fract_y
 _atom_site_fract_z
 _atom_site_occupancy
  Pr  Pr0  1  0.000000  0.000000  0.763755  1
  Pr  Pr1  1  0.333333  0.666667  0.263759  1
  Mo  Mo2  1  0.797762  0.553409  0.763825  1
  Mo  Mo3  1  0.446591  0.244353  0.763825  1
  Mo  Mo4  1  0.755647  0.202238  0.763825  1
  P  P5  1  0.666667  0.333333  0.264103  1
  P  P6  1  0.070632  0.621782  0.763797  1
  P  P7  1  0.378218  0.448850  0.763797  1
  P  P8  1  0.551150  0.929368  0.763797  1
  P  P9  1  0.252683  0.035203  0.263741  1
  P  P10  1  0.964797  0.217480  0.263741  1
  P  P11  1  0.782520  0.747317  0.263741  1
  Ir  Ir12  1  0.506784  0.063461  0.263811  1
  Ir  Ir13  1  0.936539  0.443323  0.263811  1
  Ir  Ir14  1  0.556677  0.493216  0.263811  1
  Ir  Ir15  1  0.106935  0.386239  0.763797  1
  Ir  Ir16  1  0.613761  0.720696  0.763797  1
  Ir  Ir17  1  0.279304  0.893065  0.763797  1
  Ir  Ir18  1  0.230924  0.263951  0.263801  1
  Ir  Ir19  1  0.736049  0.966973  0.263801  1
  Ir  Ir20  1  0.033027  0.769076  0.263801  1
