# generated using pymatgen
data_Lu2Pa(GaIr)3
_symmetry_space_group_name_H-M   'P 1'
_cell_length_a   7.18750150
_cell_length_b   7.30660561
_cell_length_c   3.76525900
_cell_angle_alpha   90.00000000
_cell_angle_beta   90.00000000
_cell_angle_gamma   120.54968506
_symmetry_Int_Tables_number   1
_chemical_formula_structural   Lu2Pa(GaIr)3
_chemical_formula_sum   'Lu2 Pa1 Ga3 Ir3'
_cell_volume   170.28908037
_cell_formula_units_Z   1
loop_
 _symmetry_equiv_pos_site_id
 _symmetry_equiv_pos_as_xyz
  1  'x, y, z'
loop_
 _atom_site_type_symbol
 _atom_site_label
 _atom_site_symmetry_multiplicity
 _atom_site_fract_x
 _atom_site_fract_y
 _atom_site_fract_z
 _atom_site_occupancy
  Lu  Lu0  1  0.596711  0.593272  0.500000  1
  Lu  Lu1  1  0.403289  0.996562  0.500000  1
  Pa  Pa2  1  0.000000  0.417525  0.500000  1
  Ga  Ga3  1  0.000000  0.761571  0.000000  1
  Ga  Ga4  1  0.266835  0.254409  0.000000  1
  Ga  Ga5  1  0.733165  0.987574  0.000000  1
  Ir  Ir6  1  0.312620  0.645524  0.000000  1
  Ir  Ir7  1  0.687380  0.332905  0.000000  1
  Ir  Ir8  1  0.000000  0.010658  0.500000  1
