# generated using pymatgen
data_KAc3(ZnSn)4
_symmetry_space_group_name_H-M   'P 1'
_cell_length_a   4.68314300
_cell_length_b   4.68314292
_cell_length_c   18.80054400
_cell_angle_alpha   90.00000000
_cell_angle_beta   90.00000000
_cell_angle_gamma   119.99999353
_symmetry_Int_Tables_number   1
_chemical_formula_structural   KAc3(ZnSn)4
_chemical_formula_sum   'K1 Ac3 Zn4 Sn4'
_cell_volume   357.08853500
_cell_formula_units_Z   1
loop_
 _symmetry_equiv_pos_site_id
 _symmetry_equiv_pos_as_xyz
  1  'x, y, z'
loop_
 _atom_site_type_symbol
 _atom_site_label
 _atom_site_symmetry_multiplicity
 _atom_site_fract_x
 _atom_site_fract_y
 _atom_site_fract_z
 _atom_site_occupancy
  K  K0  1  0.000000  0.000000  0.250000  1
  Ac  Ac1  1  0.000000  0.000000  0.750000  1
  Ac  Ac2  1  0.000000  0.000000  0.502032  1
  Ac  Ac3  1  0.000000  0.000000  0.997968  1
  Zn  Zn4  1  0.666667  0.333333  0.853891  1
  Zn  Zn5  1  0.666667  0.333333  0.646109  1
  Zn  Zn6  1  0.333333  0.666667  0.109576  1
  Zn  Zn7  1  0.333333  0.666667  0.390424  1
  Sn  Sn8  1  0.666667  0.333333  0.112538  1
  Sn  Sn9  1  0.666667  0.333333  0.387462  1
  Sn  Sn10  1  0.333333  0.666667  0.879524  1
  Sn  Sn11  1  0.333333  0.666667  0.620476  1
