# generated using pymatgen
data_MgScFe6Co6P7
_symmetry_space_group_name_H-M   'P 1'
_cell_length_a   8.88662650
_cell_length_b   8.90882284
_cell_length_c   3.54406700
_cell_angle_alpha   90.00000000
_cell_angle_beta   90.00000000
_cell_angle_gamma   119.98885693
_symmetry_Int_Tables_number   1
_chemical_formula_structural   MgScFe6Co6P7
_chemical_formula_sum   'Mg1 Sc1 Fe6 Co6 P7'
_cell_volume   243.01806540
_cell_formula_units_Z   1
loop_
 _symmetry_equiv_pos_site_id
 _symmetry_equiv_pos_as_xyz
  1  'x, y, z'
loop_
 _atom_site_type_symbol
 _atom_site_label
 _atom_site_symmetry_multiplicity
 _atom_site_fract_x
 _atom_site_fract_y
 _atom_site_fract_z
 _atom_site_occupancy
  Mg  Mg0  1  0.334330  0.667689  0.500000  1
  Sc  Sc1  1  0.000599  0.999267  0.000000  1
  Fe  Fe2  1  0.052144  0.769263  0.500000  1
  Fe  Fe3  1  0.718909  0.948143  0.500000  1
  Fe  Fe4  1  0.887578  0.428769  0.500000  1
  Fe  Fe5  1  0.541093  0.110742  0.500000  1
  Fe  Fe6  1  0.569059  0.460778  0.500000  1
  Fe  Fe7  1  0.387851  0.213768  0.000000  1
  Co  Co8  1  0.786324  0.176498  0.000000  1
  Co  Co9  1  0.823195  0.608094  0.000000  1
  Co  Co10  1  0.603497  0.706251  0.000000  1
  Co  Co11  1  0.295534  0.897633  0.000000  1
  Co  Co12  1  0.103840  0.397770  0.000000  1
  Co  Co13  1  0.228439  0.282039  0.500000  1
  P  P14  1  0.259838  0.043778  0.500000  1
  P  P15  1  0.955098  0.215140  0.500000  1
  P  P16  1  0.785756  0.741349  0.500000  1
  P  P17  1  0.373440  0.450996  0.000000  1
  P  P18  1  0.550963  0.922518  0.000000  1
  P  P19  1  0.078559  0.628029  0.000000  1
  P  P20  1  0.663958  0.331485  0.000000  1
