# generated using pymatgen
data_Tb2Ta3As7Rh9
_symmetry_space_group_name_H-M   'P 1'
_cell_length_a   4.00426000
_cell_length_b   9.97289605
_cell_length_c   9.97294900
_cell_angle_alpha   120.00065294
_cell_angle_beta   89.99969020
_cell_angle_gamma   89.99984408
_symmetry_Int_Tables_number   1
_chemical_formula_structural   Tb2Ta3As7Rh9
_chemical_formula_sum   'Tb2 Ta3 As7 Rh9'
_cell_volume   344.90138127
_cell_formula_units_Z   1
loop_
 _symmetry_equiv_pos_site_id
 _symmetry_equiv_pos_as_xyz
  1  'x, y, z'
loop_
 _atom_site_type_symbol
 _atom_site_label
 _atom_site_symmetry_multiplicity
 _atom_site_fract_x
 _atom_site_fract_y
 _atom_site_fract_z
 _atom_site_occupancy
  Tb  Tb0  1  0.261555  0.666674  0.333345  1
  Tb  Tb1  1  0.761991  0.333345  0.666671  1
  Ta  Ta2  1  0.761993  0.095965  0.875371  1
  Ta  Ta3  1  0.761987  0.124630  0.220594  1
  Ta  Ta4  1  0.761997  0.779387  0.904027  1
  As  As5  1  0.262180  0.999997  0.999999  1
  As  As6  1  0.761868  0.877524  0.587448  1
  As  As7  1  0.761850  0.412544  0.290058  1
  As  As8  1  0.761876  0.709942  0.122500  1
  As  As9  1  0.261855  0.117627  0.416760  1
  As  As10  1  0.261851  0.583233  0.700860  1
  As  As11  1  0.261844  0.299138  0.882368  1
  Rh  Rh12  1  0.261875  0.883164  0.159917  1
  Rh  Rh13  1  0.261875  0.840065  0.723278  1
  Rh  Rh14  1  0.261857  0.276725  0.116814  1
  Rh  Rh15  1  0.761885  0.613919  0.562241  1
  Rh  Rh16  1  0.761876  0.437765  0.051660  1
  Rh  Rh17  1  0.761895  0.948351  0.386084  1
  Rh  Rh18  1  0.261948  0.367410  0.435427  1
  Rh  Rh19  1  0.261963  0.564608  0.932017  1
  Rh  Rh20  1  0.261977  0.067990  0.632558  1
