# generated using pymatgen
data_Ho11Er9(Ir2Ru)4
_symmetry_space_group_name_H-M   'P 1'
_cell_length_a   10.75867006
_cell_length_b   10.75790505
_cell_length_c   6.39206101
_cell_angle_alpha   89.99799504
_cell_angle_beta   90.00505194
_cell_angle_gamma   89.98922076
_symmetry_Int_Tables_number   1
_chemical_formula_structural   Ho11Er9(Ir2Ru)4
_chemical_formula_sum   'Ho11 Er9 Ir8 Ru4'
_cell_volume   739.82192461
_cell_formula_units_Z   1
loop_
 _symmetry_equiv_pos_site_id
 _symmetry_equiv_pos_as_xyz
  1  'x, y, z'
loop_
 _atom_site_type_symbol
 _atom_site_label
 _atom_site_symmetry_multiplicity
 _atom_site_fract_x
 _atom_site_fract_y
 _atom_site_fract_z
 _atom_site_occupancy
  Ho  Ho0  1  0.293259  0.086410  0.377053  1
  Ho  Ho1  1  0.293269  0.913601  0.877038  1
  Ho  Ho2  1  0.706742  0.086428  0.877056  1
  Ho  Ho3  1  0.706751  0.913534  0.377042  1
  Ho  Ho4  1  0.586476  0.793253  0.877078  1
  Ho  Ho5  1  0.586424  0.206700  0.377122  1
  Ho  Ho6  1  0.413624  0.793315  0.377112  1
  Ho  Ho7  1  0.413614  0.206693  0.877149  1
  Ho  Ho8  1  0.206450  0.413608  0.622912  1
  Ho  Ho9  1  0.206480  0.586353  0.122914  1
  Ho  Ho10  1  0.793517  0.413706  0.122934  1
  Er  Er11  1  0.793601  0.586388  0.622738  1
  Er  Er12  1  0.913613  0.706479  0.122757  1
  Er  Er13  1  0.913621  0.293568  0.622762  1
  Er  Er14  1  0.086193  0.706472  0.622775  1
  Er  Er15  1  0.086306  0.293444  0.122772  1
  Er  Er16  1  0.999966  0.000013  0.499897  1
  Er  Er17  1  0.000008  0.000028  0.000061  1
  Er  Er18  1  0.500049  0.500023  0.999878  1
  Er  Er19  1  0.500110  0.500070  0.500043  1
  Ir  Ir20  1  0.847831  0.152513  0.250218  1
  Ir  Ir21  1  0.847823  0.847319  0.750170  1
  Ir  Ir22  1  0.152172  0.152495  0.750278  1
  Ir  Ir23  1  0.152142  0.847462  0.250233  1
  Ir  Ir24  1  0.652578  0.347735  0.749907  1
  Ir  Ir25  1  0.652605  0.652302  0.250221  1
  Ir  Ir26  1  0.347505  0.347655  0.249909  1
  Ir  Ir27  1  0.347496  0.652372  0.749956  1
  Ru  Ru28  1  0.500039  0.000002  0.122114  1
  Ru  Ru29  1  0.499949  0.999971  0.622147  1
  Ru  Ru30  1  0.999911  0.500029  0.877736  1
  Ru  Ru31  1  0.999876  0.500058  0.378020  1
