# generated using pymatgen
data_TaCuNiRh3S8
_symmetry_space_group_name_H-M   'P 1'
_cell_length_a   6.75567188
_cell_length_b   6.75567235
_cell_length_c   6.75567175
_cell_angle_alpha   64.38958556
_cell_angle_beta   64.38958315
_cell_angle_gamma   64.38958306
_symmetry_Int_Tables_number   1
_chemical_formula_structural   TaCuNiRh3S8
_chemical_formula_sum   'Ta1 Cu1 Ni1 Rh3 S8'
_cell_volume   239.02546244
_cell_formula_units_Z   1
loop_
 _symmetry_equiv_pos_site_id
 _symmetry_equiv_pos_as_xyz
  1  'x, y, z'
loop_
 _atom_site_type_symbol
 _atom_site_label
 _atom_site_symmetry_multiplicity
 _atom_site_fract_x
 _atom_site_fract_y
 _atom_site_fract_z
 _atom_site_occupancy
  Ta  Ta0  1  0.100347  0.100347  0.100347  1
  Cu  Cu1  1  0.510877  0.510877  0.510877  1
  Ni  Ni2  1  0.748616  0.748616  0.748616  1
  Rh  Rh3  1  0.127361  0.127361  0.633832  1
  Rh  Rh4  1  0.127361  0.633832  0.127361  1
  Rh  Rh5  1  0.633832  0.127361  0.127361  1
  S  S6  1  0.866692  0.378970  0.866692  1
  S  S7  1  0.363160  0.363160  0.908771  1
  S  S8  1  0.369398  0.369398  0.369398  1
  S  S9  1  0.908771  0.363160  0.363160  1
  S  S10  1  0.884764  0.884764  0.884764  1
  S  S11  1  0.378970  0.866692  0.866692  1
  S  S12  1  0.363160  0.908771  0.363160  1
  S  S13  1  0.866692  0.866692  0.378970  1
