# generated using pymatgen
data_Er13Tm7(Cd3Co)2
_symmetry_space_group_name_H-M   'P 1'
_cell_length_a   9.49164502
_cell_length_b   9.49097672
_cell_length_c   9.65632801
_cell_angle_alpha   90.00003531
_cell_angle_beta   90.00530827
_cell_angle_gamma   119.99769944
_symmetry_Int_Tables_number   1
_chemical_formula_structural   Er13Tm7(Cd3Co)2
_chemical_formula_sum   'Er13 Tm7 Cd6 Co2'
_cell_volume   753.36441404
_cell_formula_units_Z   1
loop_
 _symmetry_equiv_pos_site_id
 _symmetry_equiv_pos_as_xyz
  1  'x, y, z'
loop_
 _atom_site_type_symbol
 _atom_site_label
 _atom_site_symmetry_multiplicity
 _atom_site_fract_x
 _atom_site_fract_y
 _atom_site_fract_z
 _atom_site_occupancy
  Er  Er0  1  0.542324  0.457776  0.250207  1
  Er  Er1  1  0.542315  0.084544  0.250205  1
  Er  Er2  1  0.915406  0.457698  0.250325  1
  Er  Er3  1  0.457743  0.542356  0.749743  1
  Er  Er4  1  0.457738  0.915388  0.749750  1
  Er  Er5  1  0.084501  0.542251  0.749675  1
  Er  Er6  1  0.424205  0.212095  0.563024  1
  Er  Er7  1  0.788009  0.211964  0.936829  1
  Er  Er8  1  0.788015  0.576051  0.936833  1
  Er  Er9  1  0.423854  0.211924  0.937004  1
  Er  Er10  1  0.211957  0.788009  0.063200  1
  Er  Er11  1  0.211949  0.423949  0.063198  1
  Er  Er12  1  0.576075  0.788040  0.063209  1
  Tm  Tm13  1  0.999852  0.999924  0.500003  1
  Tm  Tm14  1  0.000015  0.000004  0.999956  1
  Tm  Tm15  1  0.212085  0.787800  0.436972  1
  Tm  Tm16  1  0.212088  0.424295  0.436971  1
  Tm  Tm17  1  0.575729  0.787866  0.437009  1
  Tm  Tm18  1  0.788065  0.212122  0.562919  1
  Tm  Tm19  1  0.788067  0.575950  0.562922  1
  Cd  Cd20  1  0.885149  0.114842  0.250104  1
  Cd  Cd21  1  0.885163  0.770313  0.250103  1
  Cd  Cd22  1  0.229652  0.114818  0.250044  1
  Cd  Cd23  1  0.114824  0.885134  0.749907  1
  Cd  Cd24  1  0.114820  0.229685  0.749898  1
  Cd  Cd25  1  0.770325  0.885161  0.749895  1
  Co  Co26  1  0.333343  0.666672  0.250306  1
  Co  Co27  1  0.666732  0.333368  0.749787  1
