# generated using pymatgen
data_Lu12IrOsPt2
_symmetry_space_group_name_H-M   'P 1'
_cell_length_a   7.11246109
_cell_length_b   8.94634300
_cell_length_c   6.35184924
_cell_angle_alpha   90.00000000
_cell_angle_beta   89.59490806
_cell_angle_gamma   90.00000000
_symmetry_Int_Tables_number   1
_chemical_formula_structural   Lu12IrOsPt2
_chemical_formula_sum   'Lu12 Ir1 Os1 Pt2'
_cell_volume   404.16134631
_cell_formula_units_Z   1
loop_
 _symmetry_equiv_pos_site_id
 _symmetry_equiv_pos_as_xyz
  1  'x, y, z'
loop_
 _atom_site_type_symbol
 _atom_site_label
 _atom_site_symmetry_multiplicity
 _atom_site_fract_x
 _atom_site_fract_y
 _atom_site_fract_z
 _atom_site_occupancy
  Lu  Lu0  1  0.676891  0.057086  0.331243  1
  Lu  Lu1  1  0.183794  0.439927  0.179237  1
  Lu  Lu2  1  0.323555  0.560417  0.671474  1
  Lu  Lu3  1  0.815831  0.938528  0.818609  1
  Lu  Lu4  1  0.323555  0.939583  0.671474  1
  Lu  Lu5  1  0.815831  0.561472  0.818609  1
  Lu  Lu6  1  0.676891  0.442914  0.331243  1
  Lu  Lu7  1  0.183794  0.060073  0.179237  1
  Lu  Lu8  1  0.527932  0.250000  0.877003  1
  Lu  Lu9  1  0.033537  0.250000  0.621790  1
  Lu  Lu10  1  0.472546  0.750000  0.120087  1
  Lu  Lu11  1  0.966160  0.750000  0.381510  1
  Ir  Ir12  1  0.387288  0.250000  0.463581  1
  Os  Os13  1  0.611891  0.750000  0.532569  1
  Pt  Pt14  1  0.890830  0.250000  0.041039  1
  Pt  Pt15  1  0.109672  0.750000  0.961292  1
