# generated using pymatgen
data_Th6Cd23Sb
_symmetry_space_group_name_H-M   'P 1'
_cell_length_a   10.13346155
_cell_length_b   10.13346179
_cell_length_c   10.13346100
_cell_angle_alpha   59.99999932
_cell_angle_beta   59.99999853
_cell_angle_gamma   60.00000169
_symmetry_Int_Tables_number   1
_chemical_formula_structural   Th6Cd23Sb
_chemical_formula_sum   'Th6 Cd23 Sb1'
_cell_volume   735.79775655
_cell_formula_units_Z   1
loop_
 _symmetry_equiv_pos_site_id
 _symmetry_equiv_pos_as_xyz
  1  'x, y, z'
loop_
 _atom_site_type_symbol
 _atom_site_label
 _atom_site_symmetry_multiplicity
 _atom_site_fract_x
 _atom_site_fract_y
 _atom_site_fract_z
 _atom_site_occupancy
  Th  Th0  1  0.783346  0.783346  0.216654  1
  Th  Th1  1  0.216654  0.783346  0.216654  1
  Th  Th2  1  0.783346  0.216654  0.216654  1
  Th  Th3  1  0.216654  0.216654  0.783346  1
  Th  Th4  1  0.783346  0.216654  0.783346  1
  Th  Th5  1  0.216654  0.783346  0.783346  1
  Cd  Cd6  1  0.838525  0.838525  0.484425  1
  Cd  Cd7  1  0.838525  0.484425  0.838525  1
  Cd  Cd8  1  0.484425  0.838525  0.838525  1
  Cd  Cd9  1  0.838525  0.838525  0.838525  1
  Cd  Cd10  1  0.161475  0.161475  0.515575  1
  Cd  Cd11  1  0.161475  0.515575  0.161475  1
  Cd  Cd12  1  0.515575  0.161475  0.161475  1
  Cd  Cd13  1  0.161475  0.161475  0.161475  1
  Cd  Cd14  1  0.623715  0.623715  0.128858  1
  Cd  Cd15  1  0.623715  0.128858  0.623715  1
  Cd  Cd16  1  0.128858  0.623715  0.623715  1
  Cd  Cd17  1  0.623715  0.623715  0.623715  1
  Cd  Cd18  1  0.376285  0.376285  0.871142  1
  Cd  Cd19  1  0.376285  0.871142  0.376285  1
  Cd  Cd20  1  0.871142  0.376285  0.376285  1
  Cd  Cd21  1  0.376285  0.376285  0.376285  1
  Cd  Cd22  1  0.000000  0.000000  0.500000  1
  Cd  Cd23  1  0.500000  0.000000  0.500000  1
  Cd  Cd24  1  0.000000  0.500000  0.500000  1
  Cd  Cd25  1  0.500000  0.500000  0.000000  1
  Cd  Cd26  1  0.000000  0.500000  0.000000  1
  Cd  Cd27  1  0.500000  0.000000  0.000000  1
  Cd  Cd28  1  0.500000  0.500000  0.500000  1
  Sb  Sb29  1  0.000000  0.000000  0.000000  1
