# generated using pymatgen
data_Ho16In4Ir3Pt
_symmetry_space_group_name_H-M   'P 1'
_cell_length_a   9.63370589
_cell_length_b   9.66487198
_cell_length_c   9.66487300
_cell_angle_alpha   59.99999994
_cell_angle_beta   59.89292556
_cell_angle_gamma   59.89292581
_symmetry_Int_Tables_number   1
_chemical_formula_structural   Ho16In4Ir3Pt
_chemical_formula_sum   'Ho16 In4 Ir3 Pt1'
_cell_volume   635.28100421
_cell_formula_units_Z   1
loop_
 _symmetry_equiv_pos_site_id
 _symmetry_equiv_pos_as_xyz
  1  'x, y, z'
loop_
 _atom_site_type_symbol
 _atom_site_label
 _atom_site_symmetry_multiplicity
 _atom_site_fract_x
 _atom_site_fract_y
 _atom_site_fract_z
 _atom_site_occupancy
  Ho  Ho0  1  0.439951  0.437601  0.061224  1
  Ho  Ho1  1  0.653780  0.649061  0.048100  1
  Ho  Ho2  1  0.187071  0.809174  0.194581  1
  Ho  Ho3  1  0.060298  0.439946  0.059810  1
  Ho  Ho4  1  0.187071  0.809174  0.809174  1
  Ho  Ho5  1  0.060298  0.439946  0.439946  1
  Ho  Ho6  1  0.809867  0.190260  0.190260  1
  Ho  Ho7  1  0.653780  0.649061  0.649061  1
  Ho  Ho8  1  0.809867  0.190260  0.809614  1
  Ho  Ho9  1  0.187071  0.194581  0.809174  1
  Ho  Ho10  1  0.046736  0.651088  0.651088  1
  Ho  Ho11  1  0.439951  0.061224  0.061224  1
  Ho  Ho12  1  0.060298  0.059810  0.439946  1
  Ho  Ho13  1  0.653780  0.048100  0.649061  1
  Ho  Ho14  1  0.809867  0.809614  0.190260  1
  Ho  Ho15  1  0.439951  0.061224  0.437601  1
  In  In16  1  0.417062  0.416741  0.416741  1
  In  In17  1  0.417062  0.416741  0.749458  1
  In  In18  1  0.417062  0.749458  0.416741  1
  In  In19  1  0.749127  0.416958  0.416958  1
  Ir  Ir20  1  0.858325  0.858532  0.858532  1
  Ir  Ir21  1  0.858325  0.424611  0.858532  1
  Ir  Ir22  1  0.858325  0.858532  0.424611  1
  Pt  Pt23  1  0.425075  0.858308  0.858308  1
