# generated using pymatgen
data_LaDy4(FeB3)2
_symmetry_space_group_name_H-M   'P 1'
_cell_length_a   5.43209728
_cell_length_b   5.43209817
_cell_length_c   8.25979048
_cell_angle_alpha   70.80236421
_cell_angle_beta   70.80236464
_cell_angle_gamma   59.99998028
_symmetry_Int_Tables_number   1
_chemical_formula_structural   LaDy4(FeB3)2
_chemical_formula_sum   'La1 Dy4 Fe2 B6'
_cell_volume   195.26681300
_cell_formula_units_Z   1
loop_
 _symmetry_equiv_pos_site_id
 _symmetry_equiv_pos_as_xyz
  1  'x, y, z'
loop_
 _atom_site_type_symbol
 _atom_site_label
 _atom_site_symmetry_multiplicity
 _atom_site_fract_x
 _atom_site_fract_y
 _atom_site_fract_z
 _atom_site_occupancy
  La  La0  1  0.000000  0.000000  0.000000  1
  Dy  Dy1  1  0.250149  0.250149  0.249553  1
  Dy  Dy2  1  0.749851  0.749851  0.750447  1
  Dy  Dy3  1  0.417247  0.417247  0.748259  1
  Dy  Dy4  1  0.582753  0.582753  0.251741  1
  Fe  Fe5  1  0.115177  0.115177  0.654469  1
  Fe  Fe6  1  0.884823  0.884823  0.345531  1
  B  B7  1  0.167655  0.832345  0.500000  1
  B  B8  1  0.832345  0.500000  0.500000  1
  B  B9  1  0.500000  0.167655  0.500000  1
  B  B10  1  0.167655  0.500000  0.500000  1
  B  B11  1  0.500000  0.832345  0.500000  1
  B  B12  1  0.832345  0.167655  0.500000  1
