# generated using pymatgen
data_Yb2AlSi13Ir6
_symmetry_space_group_name_H-M   'P 1'
_cell_length_a   8.02001702
_cell_length_b   8.02001736
_cell_length_c   8.02001611
_cell_angle_alpha   57.11139337
_cell_angle_beta   57.11139021
_cell_angle_gamma   57.11138710
_symmetry_Int_Tables_number   1
_chemical_formula_structural   Yb2AlSi13Ir6
_chemical_formula_sum   'Yb2 Al1 Si13 Ir6'
_cell_volume   340.48156782
_cell_formula_units_Z   1
loop_
 _symmetry_equiv_pos_site_id
 _symmetry_equiv_pos_as_xyz
  1  'x, y, z'
loop_
 _atom_site_type_symbol
 _atom_site_label
 _atom_site_symmetry_multiplicity
 _atom_site_fract_x
 _atom_site_fract_y
 _atom_site_fract_z
 _atom_site_occupancy
  Yb  Yb0  1  0.999482  0.999482  0.999482  1
  Yb  Yb1  1  0.500518  0.500518  0.500518  1
  Al  Al2  1  0.750000  0.750000  0.750000  1
  Si  Si3  1  0.250000  0.250000  0.250000  1
  Si  Si4  1  0.849471  0.065155  0.671207  1
  Si  Si5  1  0.671207  0.849471  0.065155  1
  Si  Si6  1  0.065155  0.671207  0.849471  1
  Si  Si7  1  0.650529  0.828793  0.434845  1
  Si  Si8  1  0.434845  0.650529  0.828793  1
  Si  Si9  1  0.828793  0.434845  0.650529  1
  Si  Si10  1  0.169446  0.563443  0.355433  1
  Si  Si11  1  0.563443  0.355433  0.169446  1
  Si  Si12  1  0.355433  0.169446  0.563443  1
  Si  Si13  1  0.936557  0.330554  0.144567  1
  Si  Si14  1  0.330554  0.144567  0.936557  1
  Si  Si15  1  0.144567  0.936557  0.330554  1
  Ir  Ir16  1  0.080724  0.419276  0.750000  1
  Ir  Ir17  1  0.250000  0.928808  0.571192  1
  Ir  Ir18  1  0.571192  0.250000  0.928808  1
  Ir  Ir19  1  0.928808  0.571192  0.250000  1
  Ir  Ir20  1  0.419276  0.750000  0.080724  1
  Ir  Ir21  1  0.750000  0.080724  0.419276  1
