# generated using pymatgen
data_YbY5Al17Si7Os8
_symmetry_space_group_name_H-M   'P 1'
_cell_length_a   8.69726463
_cell_length_b   8.68282936
_cell_length_c   9.52137400
_cell_angle_alpha   90.00000000
_cell_angle_beta   90.00000000
_cell_angle_gamma   120.06482238
_symmetry_Int_Tables_number   1
_chemical_formula_structural   YbY5Al17Si7Os8
_chemical_formula_sum   'Yb1 Y5 Al17 Si7 Os8'
_cell_volume   622.28618203
_cell_formula_units_Z   1
loop_
 _symmetry_equiv_pos_site_id
 _symmetry_equiv_pos_as_xyz
  1  'x, y, z'
loop_
 _atom_site_type_symbol
 _atom_site_label
 _atom_site_symmetry_multiplicity
 _atom_site_fract_x
 _atom_site_fract_y
 _atom_site_fract_z
 _atom_site_occupancy
  Yb  Yb0  1  0.195955  0.804911  0.250000  1
  Y  Y1  1  0.191478  0.387021  0.250000  1
  Y  Y2  1  0.807237  0.614714  0.750000  1
  Y  Y3  1  0.612076  0.808524  0.250000  1
  Y  Y4  1  0.387389  0.191005  0.750000  1
  Y  Y5  1  0.802325  0.192163  0.750000  1
  Al  Al6  1  0.165429  0.331007  0.577367  1
  Al  Al7  1  0.834144  0.670407  0.420865  1
  Al  Al8  1  0.670147  0.834142  0.576815  1
  Al  Al9  1  0.834144  0.670407  0.079135  1
  Al  Al10  1  0.330395  0.165810  0.422193  1
  Al  Al11  1  0.165429  0.331007  0.922633  1
  Al  Al12  1  0.164294  0.833811  0.573985  1
  Al  Al13  1  0.330395  0.165810  0.077807  1
  Al  Al14  1  0.834785  0.164462  0.421332  1
  Al  Al15  1  0.670147  0.834142  0.923185  1
  Al  Al16  1  0.834785  0.164462  0.078668  1
  Al  Al17  1  0.164294  0.833811  0.926015  1
  Al  Al18  1  0.126247  0.566471  0.750000  1
  Al  Al19  1  0.564784  0.434543  0.250000  1
  Al  Al20  1  0.438527  0.566925  0.750000  1
  Al  Al21  1  0.000656  0.998134  0.250000  1
  Al  Al22  1  0.999812  0.000924  0.750000  1
  Si  Si23  1  0.332958  0.665070  0.039851  1
  Si  Si24  1  0.666239  0.335884  0.960532  1
  Si  Si25  1  0.666239  0.335884  0.539468  1
  Si  Si26  1  0.332958  0.665070  0.460149  1
  Si  Si27  1  0.563901  0.124517  0.250000  1
  Si  Si28  1  0.435612  0.872492  0.750000  1
  Si  Si29  1  0.874910  0.435639  0.250000  1
  Os  Os30  1  0.502106  0.001716  0.999770  1
  Os  Os31  1  0.997537  0.498076  0.005399  1
  Os  Os32  1  0.502106  0.001716  0.500230  1
  Os  Os33  1  0.500987  0.499877  0.000087  1
  Os  Os34  1  0.997537  0.498076  0.494601  1
  Os  Os35  1  0.500987  0.499877  0.499913  1
  Os  Os36  1  0.000520  0.000748  0.999758  1
  Os  Os37  1  0.000520  0.000748  0.500242  1
