# generated using pymatgen
data_TiBe9MoW
_symmetry_space_group_name_H-M   'P 1'
_cell_length_a   7.41649118
_cell_length_b   7.41649111
_cell_length_c   7.41649138
_cell_angle_alpha   34.82383680
_cell_angle_beta   34.82384098
_cell_angle_gamma   34.82382709
_symmetry_Int_Tables_number   1
_chemical_formula_structural   TiBe9MoW
_chemical_formula_sum   'Ti1 Be9 Mo1 W1'
_cell_volume   118.74477727
_cell_formula_units_Z   1
loop_
 _symmetry_equiv_pos_site_id
 _symmetry_equiv_pos_as_xyz
  1  'x, y, z'
loop_
 _atom_site_type_symbol
 _atom_site_label
 _atom_site_symmetry_multiplicity
 _atom_site_fract_x
 _atom_site_fract_y
 _atom_site_fract_z
 _atom_site_occupancy
  Ti  Ti0  1  0.000171  0.000171  0.000171  1
  Be  Be1  1  0.415051  0.921498  0.415051  1
  Be  Be2  1  0.415051  0.415051  0.921498  1
  Be  Be3  1  0.921498  0.415051  0.415051  1
  Be  Be4  1  0.584924  0.078606  0.584924  1
  Be  Be5  1  0.584924  0.584924  0.078606  1
  Be  Be6  1  0.078606  0.584924  0.584924  1
  Be  Be7  1  0.665863  0.665863  0.665863  1
  Be  Be8  1  0.333989  0.333989  0.333989  1
  Be  Be9  1  0.499901  0.499901  0.499901  1
  Mo  Mo10  1  0.856169  0.856169  0.856169  1
  W  W11  1  0.143850  0.143850  0.143850  1
