# generated using pymatgen
data_TbY3Mn4(CuO5)4
_symmetry_space_group_name_H-M   'P 1'
_cell_length_a   5.65468100
_cell_length_b   7.50971801
_cell_length_c   8.48175102
_cell_angle_alpha   90.00631331
_cell_angle_beta   90.00418478
_cell_angle_gamma   89.99976635
_symmetry_Int_Tables_number   1
_chemical_formula_structural   TbY3Mn4(CuO5)4
_chemical_formula_sum   'Tb1 Y3 Mn4 Cu4 O20'
_cell_volume   360.17806092
_cell_formula_units_Z   1
loop_
 _symmetry_equiv_pos_site_id
 _symmetry_equiv_pos_as_xyz
  1  'x, y, z'
loop_
 _atom_site_type_symbol
 _atom_site_label
 _atom_site_symmetry_multiplicity
 _atom_site_fract_x
 _atom_site_fract_y
 _atom_site_fract_z
 _atom_site_occupancy
  Tb  Tb0  1  0.500032  0.351558  0.325860  1
  Y  Y1  1  0.499938  0.649043  0.674462  1
  Y  Y2  1  0.500005  0.148813  0.825634  1
  Y  Y3  1  0.500048  0.851202  0.174249  1
  Mn  Mn4  1  0.240313  0.999921  0.499946  1
  Mn  Mn5  1  0.759755  0.999835  0.500105  1
  Mn  Mn6  1  0.759554  0.500041  0.999965  1
  Mn  Mn7  1  0.240339  0.499974  0.999945  1
  Cu  Cu8  1  0.999880  0.071412  0.150001  1
  Cu  Cu9  1  0.000082  0.928905  0.849797  1
  Cu  Cu10  1  0.999996  0.429057  0.650434  1
  Cu  Cu11  1  0.000197  0.571342  0.349812  1
  O  O12  1  0.227098  0.000121  0.999916  1
  O  O13  1  0.772882  0.000107  0.999898  1
  O  O14  1  0.773127  0.500030  0.500111  1
  O  O15  1  0.226834  0.499976  0.500153  1
  O  O16  1  0.999940  0.346927  0.061318  1
  O  O17  1  0.999969  0.652956  0.938742  1
  O  O18  1  0.000021  0.153056  0.560971  1
  O  O19  1  0.000042  0.846749  0.438988  1
  O  O20  1  0.257740  0.094464  0.286662  1
  O  O21  1  0.742333  0.905113  0.713322  1
  O  O22  1  0.257705  0.905180  0.713276  1
  O  O23  1  0.742129  0.405218  0.786801  1
  O  O24  1  0.742289  0.094408  0.286701  1
  O  O25  1  0.257683  0.595028  0.213081  1
  O  O26  1  0.742342  0.595086  0.213052  1
  O  O27  1  0.257686  0.405126  0.786806  1
  O  O28  1  0.500004  0.335231  0.051184  1
  O  O29  1  0.499949  0.664632  0.948574  1
  O  O30  1  0.500062  0.164330  0.551688  1
  O  O31  1  0.500027  0.835161  0.448544  1
