# generated using pymatgen
data_Pr2Er8In8IrPd3
_symmetry_space_group_name_H-M   'P 1'
_cell_length_a   3.62207700
_cell_length_b   8.17250035
_cell_length_c   18.37529747
_cell_angle_alpha   90.11022913
_cell_angle_beta   90.00000000
_cell_angle_gamma   90.00000000
_symmetry_Int_Tables_number   1
_chemical_formula_structural   Pr2Er8In8IrPd3
_chemical_formula_sum   'Pr2 Er8 In8 Ir1 Pd3'
_cell_volume   543.93399363
_cell_formula_units_Z   1
loop_
 _symmetry_equiv_pos_site_id
 _symmetry_equiv_pos_as_xyz
  1  'x, y, z'
loop_
 _atom_site_type_symbol
 _atom_site_label
 _atom_site_symmetry_multiplicity
 _atom_site_fract_x
 _atom_site_fract_y
 _atom_site_fract_z
 _atom_site_occupancy
  Pr  Pr0  1  0.000000  0.499479  0.500596  1
  Pr  Pr1  1  0.000000  0.000482  0.000507  1
  Er  Er2  1  0.000000  0.728286  0.278594  1
  Er  Er3  1  0.000000  0.260092  0.717574  1
  Er  Er4  1  0.000000  0.759951  0.781977  1
  Er  Er5  1  0.000000  0.256249  0.218507  1
  Er  Er6  1  0.000000  0.620066  0.088906  1
  Er  Er7  1  0.000000  0.377918  0.914853  1
  Er  Er8  1  0.000000  0.877403  0.584761  1
  Er  Er9  1  0.000000  0.122123  0.413625  1
  In  In10  1  0.500000  0.697680  0.932097  1
  In  In11  1  0.500000  0.302834  0.068471  1
  In  In12  1  0.500000  0.802069  0.431046  1
  In  In13  1  0.500000  0.195529  0.567614  1
  In  In14  1  0.500000  0.581828  0.654050  1
  In  In15  1  0.500000  0.421383  0.347796  1
  In  In16  1  0.500000  0.923558  0.154471  1
  In  In17  1  0.500000  0.081184  0.845744  1
  Ir  Ir18  1  0.500000  0.522066  0.195819  1
  Pd  Pd19  1  0.500000  0.473502  0.803508  1
  Pd  Pd20  1  0.500000  0.973890  0.695577  1
  Pd  Pd21  1  0.500000  0.022428  0.303907  1
