# generated using pymatgen
data_Lu12Ir3I16
_symmetry_space_group_name_H-M   'P 1'
_cell_length_a   9.46681351
_cell_length_b   12.08746461
_cell_length_c   12.78274479
_cell_angle_alpha   116.96426802
_cell_angle_beta   101.36969994
_cell_angle_gamma   100.96831842
_symmetry_Int_Tables_number   1
_chemical_formula_structural   Lu12Ir3I16
_chemical_formula_sum   'Lu12 Ir3 I16'
_cell_volume   1210.90115192
_cell_formula_units_Z   1
loop_
 _symmetry_equiv_pos_site_id
 _symmetry_equiv_pos_as_xyz
  1  'x, y, z'
loop_
 _atom_site_type_symbol
 _atom_site_label
 _atom_site_symmetry_multiplicity
 _atom_site_fract_x
 _atom_site_fract_y
 _atom_site_fract_z
 _atom_site_occupancy
  Lu  Lu0  1  0.085222  0.267868  0.356395  1
  Lu  Lu1  1  0.914778  0.732132  0.643605  1
  Lu  Lu2  1  0.782487  0.534155  0.328683  1
  Lu  Lu3  1  0.217513  0.465845  0.671317  1
  Lu  Lu4  1  0.275185  0.732833  0.643049  1
  Lu  Lu5  1  0.724815  0.267167  0.356951  1
  Lu  Lu6  1  0.141956  0.534521  0.328413  1
  Lu  Lu7  1  0.858044  0.465479  0.671587  1
  Lu  Lu8  1  0.404721  0.356877  0.271563  1
  Lu  Lu9  1  0.595279  0.643123  0.728437  1
  Lu  Lu10  1  0.458967  0.310996  0.520414  1
  Lu  Lu11  1  0.541033  0.689004  0.479586  1
  Ir  Ir12  1  0.000000  0.500000  0.500000  1
  Ir  Ir13  1  0.341584  0.500248  0.499961  1
  Ir  Ir14  1  0.658417  0.499752  0.500039  1
  I  I15  1  0.396224  0.747519  0.894720  1
  I  I16  1  0.603776  0.252481  0.105280  1
  I  I17  1  0.192426  0.976018  0.788689  1
  I  I18  1  0.807574  0.023982  0.211311  1
  I  I19  1  0.333691  0.085036  0.245978  1
  I  I20  1  0.666309  0.914964  0.754022  1
  I  I21  1  0.559287  0.435684  0.805869  1
  I  I22  1  0.440713  0.564316  0.194131  1
  I  I23  1  0.306661  0.835067  0.461253  1
  I  I24  1  0.693339  0.164933  0.538747  1
  I  I25  1  0.161424  0.165004  0.535852  1
  I  I26  1  0.838576  0.834996  0.464148  1
  I  I27  1  0.925125  0.579192  0.153920  1
  I  I28  1  0.074875  0.420808  0.846080  1
  I  I29  1  0.932109  0.746235  0.895267  1
  I  I30  1  0.067891  0.253765  0.104733  1
