# generated using pymatgen
data_Hf18BeRe7MoSe
_symmetry_space_group_name_H-M   'P 1'
_cell_length_a   8.59803114
_cell_length_b   8.59803093
_cell_length_c   8.62232200
_cell_angle_alpha   90.00000000
_cell_angle_beta   90.00000000
_cell_angle_gamma   120.02084555
_symmetry_Int_Tables_number   1
_chemical_formula_structural   Hf18BeRe7MoSe
_chemical_formula_sum   'Hf18 Be1 Re7 Mo1 Se1'
_cell_volume   551.90156116
_cell_formula_units_Z   1
loop_
 _symmetry_equiv_pos_site_id
 _symmetry_equiv_pos_as_xyz
  1  'x, y, z'
loop_
 _atom_site_type_symbol
 _atom_site_label
 _atom_site_symmetry_multiplicity
 _atom_site_fract_x
 _atom_site_fract_y
 _atom_site_fract_z
 _atom_site_occupancy
  Hf  Hf0  1  0.197574  0.802426  0.444828  1
  Hf  Hf1  1  0.197439  0.394721  0.445234  1
  Hf  Hf2  1  0.605279  0.802561  0.445234  1
  Hf  Hf3  1  0.807773  0.192227  0.547431  1
  Hf  Hf4  1  0.807372  0.615408  0.547155  1
  Hf  Hf5  1  0.384592  0.192628  0.547155  1
  Hf  Hf6  1  0.807773  0.192227  0.952569  1
  Hf  Hf7  1  0.807372  0.615408  0.952845  1
  Hf  Hf8  1  0.384592  0.192628  0.952845  1
  Hf  Hf9  1  0.197574  0.802426  0.055172  1
  Hf  Hf10  1  0.197439  0.394721  0.054766  1
  Hf  Hf11  1  0.605279  0.802561  0.054766  1
  Hf  Hf12  1  0.540366  0.459634  0.250000  1
  Hf  Hf13  1  0.540566  0.080710  0.250000  1
  Hf  Hf14  1  0.919290  0.459434  0.250000  1
  Hf  Hf15  1  0.455252  0.544748  0.750000  1
  Hf  Hf16  1  0.455702  0.910421  0.750000  1
  Hf  Hf17  1  0.089579  0.544298  0.750000  1
  Be  Be18  1  0.333368  0.666632  0.250000  1
  Re  Re19  1  0.890221  0.109779  0.250000  1
  Re  Re20  1  0.889977  0.780236  0.250000  1
  Re  Re21  1  0.219764  0.110023  0.250000  1
  Re  Re22  1  0.110813  0.221377  0.750000  1
  Re  Re23  1  0.778623  0.889187  0.750000  1
  Re  Re24  1  0.999739  0.000261  0.499748  1
  Re  Re25  1  0.999739  0.000261  0.000252  1
  Mo  Mo26  1  0.110140  0.889860  0.750000  1
  Se  Se27  1  0.666796  0.333204  0.750000  1
