# generated using pymatgen
data_La2Th5Te12
_symmetry_space_group_name_H-M   'P 1'
_cell_length_a   12.66262885
_cell_length_b   12.64104044
_cell_length_c   4.38388800
_cell_angle_alpha   90.00000000
_cell_angle_beta   90.00000000
_cell_angle_gamma   119.76640403
_symmetry_Int_Tables_number   1
_chemical_formula_structural   La2Th5Te12
_chemical_formula_sum   'La2 Th5 Te12'
_cell_volume   609.13597186
_cell_formula_units_Z   1
loop_
 _symmetry_equiv_pos_site_id
 _symmetry_equiv_pos_as_xyz
  1  'x, y, z'
loop_
 _atom_site_type_symbol
 _atom_site_label
 _atom_site_symmetry_multiplicity
 _atom_site_fract_x
 _atom_site_fract_y
 _atom_site_fract_z
 _atom_site_occupancy
  La  La0  1  0.725538  0.157821  0.000000  1
  La  La1  1  0.844932  0.566731  0.000000  1
  Th  Th2  1  0.429983  0.275693  0.000000  1
  Th  Th3  1  0.551861  0.712041  0.500000  1
  Th  Th4  1  0.288932  0.840564  0.500000  1
  Th  Th5  1  0.158654  0.448701  0.500000  1
  Th  Th6  1  0.995745  0.995722  0.000000  1
  Te  Te7  1  0.742315  0.750034  0.000000  1
  Te  Te8  1  0.247048  0.993675  0.000000  1
  Te  Te9  1  0.011361  0.254380  0.000000  1
  Te  Te10  1  0.489247  0.863003  0.000000  1
  Te  Te11  1  0.138978  0.628379  0.000000  1
  Te  Te12  1  0.373274  0.509257  0.000000  1
  Te  Te13  1  0.866388  0.386727  0.500000  1
  Te  Te14  1  0.215462  0.212178  0.500000  1
  Te  Te15  1  0.000117  0.794084  0.500000  1
  Te  Te16  1  0.794086  0.000064  0.500000  1
  Te  Te17  1  0.518480  0.137351  0.500000  1
  Te  Te18  1  0.607601  0.473592  0.500000  1
