# generated using pymatgen
data_Yb4Ga2CuIr3
_symmetry_space_group_name_H-M   'P 1'
_cell_length_a   5.50340119
_cell_length_b   5.68881178
_cell_length_c   7.72356911
_cell_angle_alpha   101.78206486
_cell_angle_beta   101.21971125
_cell_angle_gamma   59.79008450
_symmetry_Int_Tables_number   1
_chemical_formula_structural   Yb4Ga2CuIr3
_chemical_formula_sum   'Yb4 Ga2 Cu1 Ir3'
_cell_volume   203.35615797
_cell_formula_units_Z   1
loop_
 _symmetry_equiv_pos_site_id
 _symmetry_equiv_pos_as_xyz
  1  'x, y, z'
loop_
 _atom_site_type_symbol
 _atom_site_label
 _atom_site_symmetry_multiplicity
 _atom_site_fract_x
 _atom_site_fract_y
 _atom_site_fract_z
 _atom_site_occupancy
  Yb  Yb0  1  0.784245  0.509995  0.150482  1
  Yb  Yb1  1  0.501724  0.210676  0.357086  1
  Yb  Yb2  1  0.506396  0.791637  0.641562  1
  Yb  Yb3  1  0.208819  0.489416  0.849929  1
  Ga  Ga4  1  0.105658  0.891467  0.255019  1
  Ga  Ga5  1  0.885526  0.111043  0.744427  1
  Cu  Cu6  1  0.277119  0.992304  0.009912  1
  Ir  Ir7  1  0.008920  0.717246  0.493357  1
  Ir  Ir8  1  0.997466  0.280158  0.509701  1
  Ir  Ir9  1  0.724125  0.006055  0.988523  1
