# generated using pymatgen
data_Nd4Ga24PdPt8
_symmetry_space_group_name_H-M   'P 1'
_cell_length_a   7.56637629
_cell_length_b   7.61761475
_cell_length_c   13.46063897
_cell_angle_alpha   84.89354918
_cell_angle_beta   100.49811330
_cell_angle_gamma   119.59321294
_symmetry_Int_Tables_number   1
_chemical_formula_structural   Nd4Ga24PdPt8
_chemical_formula_sum   'Nd4 Ga24 Pd1 Pt8'
_cell_volume   663.34182835
_cell_formula_units_Z   1
loop_
 _symmetry_equiv_pos_site_id
 _symmetry_equiv_pos_as_xyz
  1  'x, y, z'
loop_
 _atom_site_type_symbol
 _atom_site_label
 _atom_site_symmetry_multiplicity
 _atom_site_fract_x
 _atom_site_fract_y
 _atom_site_fract_z
 _atom_site_occupancy
  Nd  Nd0  1  0.438263  0.831110  0.811342  1
  Nd  Nd1  1  0.561737  0.168890  0.188658  1
  Nd  Nd2  1  0.770000  0.502813  0.811684  1
  Nd  Nd3  1  0.230000  0.497187  0.188316  1
  Ga  Ga4  1  0.479084  0.166886  0.940575  1
  Ga  Ga5  1  0.520916  0.833114  0.059425  1
  Ga  Ga6  1  0.021620  0.168390  0.558374  1
  Ga  Ga7  1  0.978380  0.831610  0.441626  1
  Ga  Ga8  1  0.354850  0.833199  0.556040  1
  Ga  Ga9  1  0.645150  0.166801  0.443960  1
  Ga  Ga10  1  0.616370  0.834846  0.326838  1
  Ga  Ga11  1  0.383630  0.165154  0.673162  1
  Ga  Ga12  1  0.057411  0.495427  0.671553  1
  Ga  Ga13  1  0.942589  0.504573  0.328447  1
  Ga  Ga14  1  0.729143  0.837203  0.670924  1
  Ga  Ga15  1  0.270857  0.162797  0.329076  1
  Ga  Ga16  1  0.146322  0.499506  0.941144  1
  Ga  Ga17  1  0.853678  0.500494  0.058856  1
  Ga  Ga18  1  0.814301  0.832304  0.947590  1
  Ga  Ga19  1  0.185699  0.167696  0.052410  1
  Ga  Ga20  1  0.314942  0.501672  0.443050  1
  Ga  Ga21  1  0.685058  0.498328  0.556950  1
  Ga  Ga22  1  0.100373  0.835829  0.182618  1
  Ga  Ga23  1  0.899627  0.164171  0.817382  1
  Ga  Ga24  1  0.305883  0.367581  0.817068  1
  Ga  Ga25  1  0.694117  0.632419  0.182932  1
  Ga  Ga26  1  0.102878  0.961959  0.816742  1
  Ga  Ga27  1  0.897122  0.038041  0.183258  1
  Pd  Pd28  1  0.500000  0.500000  0.000000  1
  Pt  Pt29  1  0.383825  0.502330  0.637056  1
  Pt  Pt30  1  0.616175  0.497670  0.362944  1
  Pt  Pt31  1  0.170647  0.830006  0.999479  1
  Pt  Pt32  1  0.829353  0.169994  0.000521  1
  Pt  Pt33  1  0.292232  0.833346  0.361875  1
  Pt  Pt34  1  0.707768  0.166654  0.638125  1
  Pt  Pt35  1  0.047862  0.829569  0.635767  1
  Pt  Pt36  1  0.952138  0.170431  0.364233  1
