# generated using pymatgen
data_PmS7
_symmetry_space_group_name_H-M   'P 1'
_cell_length_a   7.97598620
_cell_length_b   7.19795913
_cell_length_c   10.66760908
_cell_angle_alpha   74.52303538
_cell_angle_beta   121.17894427
_cell_angle_gamma   149.25122676
_symmetry_Int_Tables_number   1
_chemical_formula_structural   PmS7
_chemical_formula_sum   'Pm1 S7'
_cell_volume   244.68849143
_cell_formula_units_Z   1
loop_
 _symmetry_equiv_pos_site_id
 _symmetry_equiv_pos_as_xyz
  1  'x, y, z'
loop_
 _atom_site_type_symbol
 _atom_site_label
 _atom_site_symmetry_multiplicity
 _atom_site_fract_x
 _atom_site_fract_y
 _atom_site_fract_z
 _atom_site_occupancy
  Pm  Pm0  1  0.616755  0.785514  0.055669  1
  S  S1  1  0.431368  0.036446  0.901175  1
  S  S2  1  0.863388  0.892641  0.382082  1
  S  S3  1  0.375581  0.663088  0.232223  1
  S  S4  1  0.245625  0.103952  0.123154  1
  S  S5  1  0.748641  0.021254  0.801079  1
  S  S6  1  0.634584  0.416650  0.368709  1
  S  S7  1  0.589518  0.162427  0.759606  1
