# generated using pymatgen
data_Pr6Y10Cd4Pd3Ru
_symmetry_space_group_name_H-M   'P 1'
_cell_length_a   9.86652606
_cell_length_b   9.86652651
_cell_length_c   9.86652575
_cell_angle_alpha   59.75392777
_cell_angle_beta   59.75393172
_cell_angle_gamma   59.75392935
_symmetry_Int_Tables_number   1
_chemical_formula_structural   Pr6Y10Cd4Pd3Ru
_chemical_formula_sum   'Pr6 Y10 Cd4 Pd3 Ru1'
_cell_volume   675.37400386
_cell_formula_units_Z   1
loop_
 _symmetry_equiv_pos_site_id
 _symmetry_equiv_pos_as_xyz
  1  'x, y, z'
loop_
 _atom_site_type_symbol
 _atom_site_label
 _atom_site_symmetry_multiplicity
 _atom_site_fract_x
 _atom_site_fract_y
 _atom_site_fract_z
 _atom_site_occupancy
  Pr  Pr0  1  0.936368  0.563049  0.563049  1
  Pr  Pr1  1  0.558011  0.938552  0.938552  1
  Pr  Pr2  1  0.563049  0.936368  0.563049  1
  Pr  Pr3  1  0.938552  0.558011  0.938552  1
  Pr  Pr4  1  0.563049  0.563049  0.936368  1
  Pr  Pr5  1  0.938552  0.938552  0.558011  1
  Y  Y6  1  0.353123  0.353123  0.353123  1
  Y  Y7  1  0.347933  0.347933  0.951142  1
  Y  Y8  1  0.347933  0.951142  0.347933  1
  Y  Y9  1  0.951142  0.347933  0.347933  1
  Y  Y10  1  0.819060  0.186219  0.186219  1
  Y  Y11  1  0.185427  0.811805  0.811805  1
  Y  Y12  1  0.186219  0.819060  0.186219  1
  Y  Y13  1  0.811805  0.185427  0.811805  1
  Y  Y14  1  0.186219  0.186219  0.819060  1
  Y  Y15  1  0.811805  0.811805  0.185427  1
  Cd  Cd16  1  0.578929  0.578929  0.578929  1
  Cd  Cd17  1  0.579457  0.579457  0.260778  1
  Cd  Cd18  1  0.579457  0.260778  0.579457  1
  Cd  Cd19  1  0.260778  0.579457  0.579457  1
  Pd  Pd20  1  0.144558  0.144558  0.570991  1
  Pd  Pd21  1  0.144558  0.570991  0.144558  1
  Pd  Pd22  1  0.570991  0.144558  0.144558  1
  Ru  Ru23  1  0.143024  0.143024  0.143024  1
