# generated using pymatgen
data_LaCoCuNi2B
_symmetry_space_group_name_H-M   'P 1'
_cell_length_a   5.14483906
_cell_length_b   5.14483991
_cell_length_c   6.92947000
_cell_angle_alpha   90.00000000
_cell_angle_beta   90.00000000
_cell_angle_gamma   119.62152928
_symmetry_Int_Tables_number   1
_chemical_formula_structural   LaCoCuNi2B
_chemical_formula_sum   'La2 Co2 Cu2 Ni4 B2'
_cell_volume   159.44760013
_cell_formula_units_Z   2
loop_
 _symmetry_equiv_pos_site_id
 _symmetry_equiv_pos_as_xyz
  1  'x, y, z'
loop_
 _atom_site_type_symbol
 _atom_site_label
 _atom_site_symmetry_multiplicity
 _atom_site_fract_x
 _atom_site_fract_y
 _atom_site_fract_z
 _atom_site_occupancy
  La  La0  1  0.000000  0.000000  0.498716  1
  La  La1  1  0.000000  0.000000  0.009729  1
  Co  Co2  1  0.500000  0.000000  0.299802  1
  Co  Co3  1  0.000000  0.500000  0.299802  1
  Cu  Cu4  1  0.332577  0.667423  0.999103  1
  Cu  Cu5  1  0.667423  0.332577  0.999103  1
  Ni  Ni6  1  0.500000  0.500000  0.295435  1
  Ni  Ni7  1  0.500000  0.000000  0.702377  1
  Ni  Ni8  1  0.500000  0.500000  0.701828  1
  Ni  Ni9  1  0.000000  0.500000  0.702377  1
  B  B10  1  0.669049  0.330951  0.495864  1
  B  B11  1  0.330951  0.669049  0.495864  1
