# generated using pymatgen
data_TbDy5ZrCo17P12
_symmetry_space_group_name_H-M   'P 1'
_cell_length_a   3.71929600
_cell_length_b   10.61675500
_cell_length_c   12.33859100
_cell_angle_alpha   90.00000000
_cell_angle_beta   90.00000000
_cell_angle_gamma   90.00000000
_symmetry_Int_Tables_number   1
_chemical_formula_structural   TbDy5ZrCo17P12
_chemical_formula_sum   'Tb1 Dy5 Zr1 Co17 P12'
_cell_volume   487.21214637
_cell_formula_units_Z   1
loop_
 _symmetry_equiv_pos_site_id
 _symmetry_equiv_pos_as_xyz
  1  'x, y, z'
loop_
 _atom_site_type_symbol
 _atom_site_label
 _atom_site_symmetry_multiplicity
 _atom_site_fract_x
 _atom_site_fract_y
 _atom_site_fract_z
 _atom_site_occupancy
  Tb  Tb0  1  0.500000  0.000000  0.477833  1
  Dy  Dy1  1  0.000000  0.500000  0.528952  1
  Dy  Dy2  1  0.500000  0.821287  0.207414  1
  Dy  Dy3  1  0.500000  0.178713  0.207414  1
  Dy  Dy4  1  0.000000  0.683021  0.795864  1
  Dy  Dy5  1  0.000000  0.316979  0.795864  1
  Zr  Zr6  1  0.500000  0.500000  0.154127  1
  Co  Co7  1  0.000000  0.000000  0.837258  1
  Co  Co8  1  0.500000  0.500000  0.702703  1
  Co  Co9  1  0.000000  0.000000  0.296205  1
  Co  Co10  1  0.000000  0.500000  0.982980  1
  Co  Co11  1  0.500000  0.000000  0.013547  1
  Co  Co12  1  0.500000  0.326919  0.988058  1
  Co  Co13  1  0.500000  0.673081  0.988058  1
  Co  Co14  1  0.000000  0.161351  0.001526  1
  Co  Co15  1  0.000000  0.838649  0.001526  1
  Co  Co16  1  0.500000  0.294386  0.434485  1
  Co  Co17  1  0.500000  0.705614  0.434485  1
  Co  Co18  1  0.000000  0.202115  0.570456  1
  Co  Co19  1  0.000000  0.797885  0.570456  1
  Co  Co20  1  0.500000  0.880371  0.707885  1
  Co  Co21  1  0.500000  0.119629  0.707885  1
  Co  Co22  1  0.000000  0.622721  0.297774  1
  Co  Co23  1  0.000000  0.377279  0.297774  1
  P  P24  1  0.500000  0.500000  0.881302  1
  P  P25  1  0.000000  0.000000  0.116482  1
  P  P26  1  0.500000  0.500000  0.361561  1
  P  P27  1  0.000000  0.000000  0.655582  1
  P  P28  1  0.500000  0.308821  0.617803  1
  P  P29  1  0.500000  0.691179  0.617803  1
  P  P30  1  0.000000  0.188687  0.386510  1
  P  P31  1  0.000000  0.811313  0.386510  1
  P  P32  1  0.500000  0.852410  0.888642  1
  P  P33  1  0.500000  0.147590  0.888642  1
  P  P34  1  0.000000  0.665169  0.099318  1
  P  P35  1  0.000000  0.334831  0.099318  1
