# generated using pymatgen
data_TbNd5(Ni3As2)6
_symmetry_space_group_name_H-M   'P 1'
_cell_length_a   3.97645100
_cell_length_b   10.95426387
_cell_length_c   12.86975412
_cell_angle_alpha   89.91863416
_cell_angle_beta   89.99999555
_cell_angle_gamma   90.00000523
_symmetry_Int_Tables_number   1
_chemical_formula_structural   TbNd5(Ni3As2)6
_chemical_formula_sum   'Tb1 Nd5 Ni18 As12'
_cell_volume   560.59425799
_cell_formula_units_Z   1
loop_
 _symmetry_equiv_pos_site_id
 _symmetry_equiv_pos_as_xyz
  1  'x, y, z'
loop_
 _atom_site_type_symbol
 _atom_site_label
 _atom_site_symmetry_multiplicity
 _atom_site_fract_x
 _atom_site_fract_y
 _atom_site_fract_z
 _atom_site_occupancy
  Tb  Tb0  1  0.500001  0.813300  0.206137  1
  Nd  Nd1  1  0.000000  0.500195  0.519718  1
  Nd  Nd2  1  0.500000  0.999113  0.479204  1
  Nd  Nd3  1  0.500000  0.185460  0.206092  1
  Nd  Nd4  1  0.000000  0.687330  0.793491  1
  Nd  Nd5  1  0.000000  0.313470  0.794745  1
  Ni  Ni6  1  0.500000  0.500278  0.151847  1
  Ni  Ni7  1  0.000000  0.999703  0.848021  1
  Ni  Ni8  1  0.499999  0.500353  0.698066  1
  Ni  Ni9  1  0.000000  0.998879  0.301945  1
  Ni  Ni10  1  0.000000  0.502396  0.981021  1
  Ni  Ni11  1  0.500000  0.997842  0.021944  1
  Ni  Ni12  1  0.500000  0.334205  0.996977  1
  Ni  Ni13  1  0.500000  0.667932  0.998201  1
  Ni  Ni14  1  0.000000  0.164480  0.004283  1
  Ni  Ni15  1  0.000000  0.834135  0.003866  1
  Ni  Ni16  1  0.500000  0.303545  0.423075  1
  Ni  Ni17  1  0.500001  0.696253  0.420583  1
  Ni  Ni18  1  0.000000  0.195853  0.577067  1
  Ni  Ni19  1  0.000000  0.803899  0.575614  1
  Ni  Ni20  1  0.500000  0.881436  0.709115  1
  Ni  Ni21  1  0.500000  0.118277  0.710523  1
  Ni  Ni22  1  0.000001  0.620090  0.288538  1
  Ni  Ni23  1  0.999999  0.381817  0.290117  1
  As  As24  1  0.500000  0.501064  0.876895  1
  As  As25  1  0.000000  0.997008  0.125240  1
  As  As26  1  0.500000  0.499721  0.337832  1
  As  As27  1  0.000000  0.999684  0.661404  1
  As  As28  1  0.500000  0.311355  0.611396  1
  As  As29  1  0.500000  0.688939  0.609897  1
  As  As30  1  0.000000  0.188101  0.388869  1
  As  As31  1  0.000000  0.811013  0.386327  1
  As  As32  1  0.500000  0.850674  0.893792  1
  As  As33  1  0.500000  0.149504  0.895933  1
  As  As34  1  0.000000  0.652942  0.106896  1
  As  As35  1  0.000000  0.349754  0.105326  1
