# generated using pymatgen
data_Sr8In15AsPt12
_symmetry_space_group_name_H-M   'P 1'
_cell_length_a   14.94887700
_cell_length_b   14.94887640
_cell_length_c   4.51487600
_cell_angle_alpha   90.00000000
_cell_angle_beta   90.00000000
_cell_angle_gamma   119.99007715
_symmetry_Int_Tables_number   1
_chemical_formula_structural   Sr8In15AsPt12
_chemical_formula_sum   'Sr8 In15 As1 Pt12'
_cell_volume   873.85020907
_cell_formula_units_Z   1
loop_
 _symmetry_equiv_pos_site_id
 _symmetry_equiv_pos_as_xyz
  1  'x, y, z'
loop_
 _atom_site_type_symbol
 _atom_site_label
 _atom_site_symmetry_multiplicity
 _atom_site_fract_x
 _atom_site_fract_y
 _atom_site_fract_z
 _atom_site_occupancy
  Sr  Sr0  1  0.551541  0.999975  0.000000  1
  Sr  Sr1  1  0.666640  0.333443  0.000000  1
  Sr  Sr2  1  0.448423  0.448423  0.000000  1
  Sr  Sr3  1  0.999975  0.551541  0.000000  1
  Sr  Sr4  1  0.333443  0.666640  0.000000  1
  Sr  Sr5  1  0.175701  0.000180  0.500001  1
  Sr  Sr6  1  0.000180  0.175702  0.500001  1
  Sr  Sr7  1  0.824071  0.824071  0.500001  1
  In  In8  1  0.805932  0.180947  0.000000  1
  In  In9  1  0.375209  0.194232  0.000000  1
  In  In10  1  0.194231  0.375208  0.000000  1
  In  In11  1  0.818912  0.624756  0.000000  1
  In  In12  1  0.180947  0.805932  0.000000  1
  In  In13  1  0.624757  0.818912  0.000000  1
  In  In14  1  0.724689  0.999965  0.500001  1
  In  In15  1  0.478182  0.125035  0.500001  1
  In  In16  1  0.275279  0.275278  0.500001  1
  In  In17  1  0.875175  0.353099  0.500001  1
  In  In18  1  0.125035  0.478182  0.500001  1
  In  In19  1  0.646836  0.521913  0.500001  1
  In  In20  1  0.521914  0.646836  0.500001  1
  In  In21  1  0.999965  0.724688  0.500001  1
  In  In22  1  0.353099  0.875176  0.500001  1
  As  As23  1  0.999950  0.999950  0.000000  1
  Pt  Pt24  1  0.352417  0.000122  0.000000  1
  Pt  Pt25  1  0.831255  0.999809  0.000000  1
  Pt  Pt26  1  0.168628  0.168628  0.000000  1
  Pt  Pt27  1  0.000122  0.352417  0.000000  1
  Pt  Pt28  1  0.647529  0.647529  0.000000  1
  Pt  Pt29  1  0.999809  0.831256  0.000000  1
  Pt  Pt30  1  0.684899  0.168700  0.500001  1
  Pt  Pt31  1  0.484018  0.315300  0.500001  1
  Pt  Pt32  1  0.315301  0.484018  0.500001  1
  Pt  Pt33  1  0.831223  0.515918  0.500001  1
  Pt  Pt34  1  0.168700  0.684899  0.500001  1
  Pt  Pt35  1  0.515918  0.831223  0.500001  1
