# generated using pymatgen
data_La4Nd6Ir3Rh
_symmetry_space_group_name_H-M   'P 1'
_cell_length_a   9.14346359
_cell_length_b   9.14145995
_cell_length_c   7.34435033
_cell_angle_alpha   84.10947441
_cell_angle_beta   84.05918979
_cell_angle_gamma   43.22086101
_symmetry_Int_Tables_number   1
_chemical_formula_structural   La4Nd6Ir3Rh
_chemical_formula_sum   'La4 Nd6 Ir3 Rh1'
_cell_volume   417.79759707
_cell_formula_units_Z   1
loop_
 _symmetry_equiv_pos_site_id
 _symmetry_equiv_pos_as_xyz
  1  'x, y, z'
loop_
 _atom_site_type_symbol
 _atom_site_label
 _atom_site_symmetry_multiplicity
 _atom_site_fract_x
 _atom_site_fract_y
 _atom_site_fract_z
 _atom_site_occupancy
  La  La0  1  0.015696  0.796767  0.915107  1
  La  La1  1  0.203439  0.984595  0.584932  1
  La  La2  1  0.984129  0.203401  0.084873  1
  La  La3  1  0.796041  0.016338  0.414612  1
  Nd  Nd4  1  0.354684  0.212357  0.818791  1
  Nd  Nd5  1  0.785695  0.646149  0.681852  1
  Nd  Nd6  1  0.646170  0.786684  0.181554  1
  Nd  Nd7  1  0.213254  0.353855  0.318058  1
  Nd  Nd8  1  0.570000  0.430409  0.750367  1
  Nd  Nd9  1  0.430980  0.569265  0.249255  1
  Ir  Ir10  1  0.401787  0.821599  0.921376  1
  Ir  Ir11  1  0.821799  0.401525  0.421669  1
  Ir  Ir12  1  0.598636  0.177872  0.078600  1
  Rh  Rh13  1  0.177691  0.599183  0.578955  1
