# generated using pymatgen
data_Y4Ho12Cd4OsPd3
_symmetry_space_group_name_H-M   'P 1'
_cell_length_a   9.68301580
_cell_length_b   9.68384048
_cell_length_c   9.68384022
_cell_angle_alpha   59.47548676
_cell_angle_beta   59.44364992
_cell_angle_gamma   59.44364259
_symmetry_Int_Tables_number   1
_chemical_formula_structural   Y4Ho12Cd4OsPd3
_chemical_formula_sum   'Y4 Ho12 Cd4 Os1 Pd3'
_cell_volume   634.11096387
_cell_formula_units_Z   1
loop_
 _symmetry_equiv_pos_site_id
 _symmetry_equiv_pos_as_xyz
  1  'x, y, z'
loop_
 _atom_site_type_symbol
 _atom_site_label
 _atom_site_symmetry_multiplicity
 _atom_site_fract_x
 _atom_site_fract_y
 _atom_site_fract_z
 _atom_site_occupancy
  Y  Y0  1  0.566201  0.934670  0.566156  1
  Y  Y1  1  0.937287  0.558609  0.937175  1
  Y  Y2  1  0.566201  0.566156  0.934670  1
  Y  Y3  1  0.937287  0.937175  0.558609  1
  Ho  Ho4  1  0.352725  0.353315  0.353315  1
  Ho  Ho5  1  0.350573  0.350317  0.944944  1
  Ho  Ho6  1  0.350573  0.944944  0.350317  1
  Ho  Ho7  1  0.944920  0.350610  0.350610  1
  Ho  Ho8  1  0.816430  0.188287  0.188287  1
  Ho  Ho9  1  0.188049  0.810541  0.810541  1
  Ho  Ho10  1  0.188324  0.816296  0.188329  1
  Ho  Ho11  1  0.810607  0.187978  0.810545  1
  Ho  Ho12  1  0.188324  0.188329  0.816296  1
  Ho  Ho13  1  0.810607  0.810545  0.187978  1
  Ho  Ho14  1  0.935448  0.565499  0.565499  1
  Ho  Ho15  1  0.557537  0.938043  0.938043  1
  Cd  Cd16  1  0.580555  0.580369  0.580369  1
  Cd  Cd17  1  0.580954  0.581240  0.254008  1
  Cd  Cd18  1  0.580954  0.254008  0.581240  1
  Cd  Cd19  1  0.253964  0.581009  0.581009  1
  Os  Os20  1  0.144363  0.143770  0.143770  1
  Pd  Pd21  1  0.144514  0.144718  0.569059  1
  Pd  Pd22  1  0.144514  0.569059  0.144718  1
  Pd  Pd23  1  0.569090  0.144512  0.144512  1
