# generated using pymatgen
data_YbSmAl16(SiAu4)2
_symmetry_space_group_name_H-M   'P 1'
_cell_length_a   6.07124635
_cell_length_b   6.07123997
_cell_length_c   14.92508274
_cell_angle_alpha   100.95895881
_cell_angle_beta   100.95898990
_cell_angle_gamma   89.90620572
_symmetry_Int_Tables_number   1
_chemical_formula_structural   YbSmAl16(SiAu4)2
_chemical_formula_sum   'Yb1 Sm1 Al16 Si2 Au8'
_cell_volume   529.91642326
_cell_formula_units_Z   1
loop_
 _symmetry_equiv_pos_site_id
 _symmetry_equiv_pos_as_xyz
  1  'x, y, z'
loop_
 _atom_site_type_symbol
 _atom_site_label
 _atom_site_symmetry_multiplicity
 _atom_site_fract_x
 _atom_site_fract_y
 _atom_site_fract_z
 _atom_site_occupancy
  Yb  Yb0  1  0.750454  0.249546  0.500000  1
  Sm  Sm1  1  0.248203  0.751797  0.500000  1
  Al  Al2  1  0.297882  0.298458  0.105568  1
  Al  Al3  1  0.807621  0.306378  0.106023  1
  Al  Al4  1  0.306032  0.807297  0.106152  1
  Al  Al5  1  0.799772  0.799143  0.105497  1
  Al  Al6  1  0.408043  0.406982  0.314545  1
  Al  Al7  1  0.905918  0.402682  0.314587  1
  Al  Al8  1  0.403986  0.907110  0.314425  1
  Al  Al9  1  0.910390  0.911844  0.314354  1
  Al  Al10  1  0.088155  0.089609  0.685646  1
  Al  Al11  1  0.597318  0.094082  0.685413  1
  Al  Al12  1  0.092890  0.596013  0.685575  1
  Al  Al13  1  0.593017  0.591957  0.685455  1
  Al  Al14  1  0.200861  0.200229  0.894503  1
  Al  Al15  1  0.693623  0.192379  0.893978  1
  Al  Al16  1  0.192703  0.693968  0.893849  1
  Al  Al17  1  0.701542  0.702118  0.894432  1
  Si  Si18  1  0.205686  0.204055  0.415175  1
  Si  Si19  1  0.795944  0.794314  0.584824  1
  Au  Au20  1  0.999830  0.000171  0.000000  1
  Au  Au21  1  0.500015  0.499985  0.000000  1
  Au  Au22  1  0.606186  0.105780  0.210098  1
  Au  Au23  1  0.105563  0.605940  0.210812  1
  Au  Au24  1  0.706100  0.706015  0.414499  1
  Au  Au25  1  0.293984  0.293900  0.585501  1
  Au  Au26  1  0.894220  0.393814  0.789902  1
  Au  Au27  1  0.394061  0.894436  0.789188  1
