# generated using pymatgen
data_Y6Fe16CoOs
_symmetry_space_group_name_H-M   'P 1'
_cell_length_a   5.14514200
_cell_length_b   5.14514178
_cell_length_c   16.33796000
_cell_angle_alpha   90.00000000
_cell_angle_beta   90.00000000
_cell_angle_gamma   119.99998856
_symmetry_Int_Tables_number   1
_chemical_formula_structural   Y6Fe16CoOs
_chemical_formula_sum   'Y6 Fe16 Co1 Os1'
_cell_volume   374.56157463
_cell_formula_units_Z   1
loop_
 _symmetry_equiv_pos_site_id
 _symmetry_equiv_pos_as_xyz
  1  'x, y, z'
loop_
 _atom_site_type_symbol
 _atom_site_label
 _atom_site_symmetry_multiplicity
 _atom_site_fract_x
 _atom_site_fract_y
 _atom_site_fract_z
 _atom_site_occupancy
  Y  Y0  1  0.333333  0.666667  0.962853  1
  Y  Y1  1  0.666667  0.333333  0.037147  1
  Y  Y2  1  0.666667  0.333333  0.462950  1
  Y  Y3  1  0.333333  0.666667  0.537050  1
  Y  Y4  1  0.333333  0.666667  0.750204  1
  Y  Y5  1  0.666667  0.333333  0.249796  1
  Fe  Fe6  1  0.167977  0.832023  0.369922  1
  Fe  Fe7  1  0.167977  0.335955  0.369922  1
  Fe  Fe8  1  0.664045  0.832023  0.369922  1
  Fe  Fe9  1  0.832023  0.167977  0.630078  1
  Fe  Fe10  1  0.832023  0.664045  0.630078  1
  Fe  Fe11  1  0.335955  0.167977  0.630078  1
  Fe  Fe12  1  0.833313  0.166687  0.872415  1
  Fe  Fe13  1  0.833313  0.666627  0.872415  1
  Fe  Fe14  1  0.333373  0.166687  0.872415  1
  Fe  Fe15  1  0.166687  0.833313  0.127585  1
  Fe  Fe16  1  0.166687  0.333373  0.127585  1
  Fe  Fe17  1  0.666627  0.833313  0.127585  1
  Fe  Fe18  1  0.333333  0.666667  0.248702  1
  Fe  Fe19  1  0.666667  0.333333  0.751298  1
  Fe  Fe20  1  0.000000  0.000000  0.248778  1
  Fe  Fe21  1  0.000000  0.000000  0.751222  1
  Co  Co22  1  0.000000  0.000000  0.000000  1
  Os  Os23  1  0.000000  0.000000  0.500000  1
