# generated using pymatgen
data_NaTb2Si3As3Pd20
_symmetry_space_group_name_H-M   'P 1'
_cell_length_a   8.81331105
_cell_length_b   8.78735257
_cell_length_c   8.76261194
_cell_angle_alpha   60.28900166
_cell_angle_beta   59.99458234
_cell_angle_gamma   59.71640765
_symmetry_Int_Tables_number   1
_chemical_formula_structural   NaTb2Si3As3Pd20
_chemical_formula_sum   'Na1 Tb2 Si3 As3 Pd20'
_cell_volume   479.83730153
_cell_formula_units_Z   1
loop_
 _symmetry_equiv_pos_site_id
 _symmetry_equiv_pos_as_xyz
  1  'x, y, z'
loop_
 _atom_site_type_symbol
 _atom_site_label
 _atom_site_symmetry_multiplicity
 _atom_site_fract_x
 _atom_site_fract_y
 _atom_site_fract_z
 _atom_site_occupancy
  Na  Na0  1  0.000076  0.999924  0.000076  1
  Tb  Tb1  1  0.249806  0.250194  0.249806  1
  Tb  Tb2  1  0.749806  0.750194  0.749806  1
  Si  Si3  1  0.735822  0.264178  0.263865  1
  Si  Si4  1  0.263865  0.736135  0.735822  1
  Si  Si5  1  0.264765  0.735235  0.264765  1
  As  As6  1  0.737263  0.262737  0.737263  1
  As  As7  1  0.262576  0.262217  0.737783  1
  As  As8  1  0.737783  0.737424  0.262576  1
  Pd  Pd9  1  0.385183  0.386857  0.379653  1
  Pd  Pd10  1  0.611126  0.619644  0.618272  1
  Pd  Pd11  1  0.380356  0.388874  0.849043  1
  Pd  Pd12  1  0.379653  0.848309  0.385183  1
  Pd  Pd13  1  0.613143  0.614817  0.151691  1
  Pd  Pd14  1  0.618272  0.150957  0.611126  1
  Pd  Pd15  1  0.849043  0.381728  0.380356  1
  Pd  Pd16  1  0.151691  0.620347  0.613143  1
  Pd  Pd17  1  0.346275  0.993418  0.006582  1
  Pd  Pd18  1  0.649674  0.000578  0.999422  1
  Pd  Pd19  1  0.999422  0.350326  0.649674  1
  Pd  Pd20  1  0.006582  0.653725  0.346275  1
  Pd  Pd21  1  0.994975  0.346478  0.008004  1
  Pd  Pd22  1  0.653522  0.005025  0.349456  1
  Pd  Pd23  1  0.008004  0.650544  0.994975  1
  Pd  Pd24  1  0.349456  0.991996  0.653522  1
  Pd  Pd25  1  0.999716  0.000284  0.345853  1
  Pd  Pd26  1  0.005820  0.994180  0.650475  1
  Pd  Pd27  1  0.650475  0.349525  0.005820  1
  Pd  Pd28  1  0.345853  0.654147  0.999716  1
