# generated using pymatgen
data_Tb2Tm2LuRu2
_symmetry_space_group_name_H-M   'P 1'
_cell_length_a   6.28268796
_cell_length_b   7.24555493
_cell_length_c   8.39291920
_cell_angle_alpha   96.93128208
_cell_angle_beta   111.98012405
_cell_angle_gamma   89.99999006
_symmetry_Int_Tables_number   1
_chemical_formula_structural   Tb2Tm2LuRu2
_chemical_formula_sum   'Tb4 Tm4 Lu2 Ru4'
_cell_volume   351.27545262
_cell_formula_units_Z   2
loop_
 _symmetry_equiv_pos_site_id
 _symmetry_equiv_pos_as_xyz
  1  'x, y, z'
loop_
 _atom_site_type_symbol
 _atom_site_label
 _atom_site_symmetry_multiplicity
 _atom_site_fract_x
 _atom_site_fract_y
 _atom_site_fract_z
 _atom_site_occupancy
  Tb  Tb0  1  0.522138  0.083215  0.811864  1
  Tb  Tb1  1  0.477862  0.916785  0.188136  1
  Tb  Tb2  1  0.710274  0.416785  0.188136  1
  Tb  Tb3  1  0.289726  0.583215  0.811864  1
  Tm  Tm4  1  0.299323  0.313361  0.432658  1
  Tm  Tm5  1  0.700677  0.686639  0.567342  1
  Tm  Tm6  1  0.866666  0.186639  0.567342  1
  Tm  Tm7  1  0.133334  0.813361  0.432658  1
  Lu  Lu8  1  0.079078  0.250000  0.000000  1
  Lu  Lu9  1  0.920922  0.750000  0.000000  1
  Ru  Ru10  1  0.319379  0.576260  0.220869  1
  Ru  Ru11  1  0.680621  0.423740  0.779131  1
  Ru  Ru12  1  0.098511  0.923740  0.779131  1
  Ru  Ru13  1  0.901489  0.076260  0.220869  1
