# generated using pymatgen
data_TbDyAl20(FeRh)2
_symmetry_space_group_name_H-M   'P 1'
_cell_length_a   6.81896670
_cell_length_b   6.81896683
_cell_length_c   9.10780000
_cell_angle_alpha   90.24734876
_cell_angle_beta   90.24734525
_cell_angle_gamma   97.17789227
_symmetry_Int_Tables_number   1
_chemical_formula_structural   TbDyAl20(FeRh)2
_chemical_formula_sum   'Tb1 Dy1 Al20 Fe2 Rh2'
_cell_volume   420.16938481
_cell_formula_units_Z   1
loop_
 _symmetry_equiv_pos_site_id
 _symmetry_equiv_pos_as_xyz
  1  'x, y, z'
loop_
 _atom_site_type_symbol
 _atom_site_label
 _atom_site_symmetry_multiplicity
 _atom_site_fract_x
 _atom_site_fract_y
 _atom_site_fract_z
 _atom_site_occupancy
  Tb  Tb0  1  0.872981  0.127019  0.750000  1
  Dy  Dy1  1  0.127154  0.872846  0.250000  1
  Al  Al2  1  0.620349  0.372298  0.549395  1
  Al  Al3  1  0.379565  0.627795  0.450519  1
  Al  Al4  1  0.372205  0.620435  0.049481  1
  Al  Al5  1  0.627702  0.379651  0.950605  1
  Al  Al6  1  0.229204  0.221579  0.496697  1
  Al  Al7  1  0.770822  0.778352  0.503131  1
  Al  Al8  1  0.778421  0.770796  0.003303  1
  Al  Al9  1  0.221648  0.229178  0.996869  1
  Al  Al10  1  0.848062  0.160432  0.099988  1
  Al  Al11  1  0.152061  0.839473  0.900150  1
  Al  Al12  1  0.160527  0.847939  0.599850  1
  Al  Al13  1  0.839568  0.151938  0.400012  1
  Al  Al14  1  0.861082  0.586777  0.753745  1
  Al  Al15  1  0.138969  0.413451  0.246258  1
  Al  Al16  1  0.413223  0.138918  0.746255  1
  Al  Al17  1  0.586549  0.861031  0.253742  1
  Al  Al18  1  0.223241  0.480037  0.754827  1
  Al  Al19  1  0.776886  0.520115  0.245179  1
  Al  Al20  1  0.519963  0.776759  0.745173  1
  Al  Al21  1  0.479885  0.223114  0.254821  1
  Fe  Fe22  1  0.000000  0.500041  0.000085  1
  Fe  Fe23  1  0.499959  0.000000  0.499915  1
  Rh  Rh24  1  0.000002  0.500030  0.499923  1
  Rh  Rh25  1  0.499970  0.999998  0.000077  1
