# generated using pymatgen
data_Ho4Ir3RuF28
_symmetry_space_group_name_H-M   'P 1'
_cell_length_a   5.56704114
_cell_length_b   8.88701391
_cell_length_c   11.92499295
_cell_angle_alpha   62.73606273
_cell_angle_beta   89.99686951
_cell_angle_gamma   90.06572704
_symmetry_Int_Tables_number   1
_chemical_formula_structural   Ho4Ir3RuF28
_chemical_formula_sum   'Ho4 Ir3 Ru1 F28'
_cell_volume   524.43751679
_cell_formula_units_Z   1
loop_
 _symmetry_equiv_pos_site_id
 _symmetry_equiv_pos_as_xyz
  1  'x, y, z'
loop_
 _atom_site_type_symbol
 _atom_site_label
 _atom_site_symmetry_multiplicity
 _atom_site_fract_x
 _atom_site_fract_y
 _atom_site_fract_z
 _atom_site_occupancy
  Ho  Ho0  1  0.760502  0.811731  0.767358  1
  Ho  Ho1  1  0.260556  0.185946  0.735733  1
  Ho  Ho2  1  0.241015  0.186927  0.233062  1
  Ho  Ho3  1  0.740044  0.815407  0.265252  1
  Ir  Ir4  1  0.756987  0.273039  0.955919  1
  Ir  Ir5  1  0.256788  0.727081  0.543746  1
  Ir  Ir6  1  0.243758  0.726335  0.044665  1
  Ru  Ru7  1  0.743323  0.273732  0.455545  1
  F  F8  1  0.447299  0.703711  0.918724  1
  F  F9  1  0.946626  0.294165  0.580089  1
  F  F10  1  0.555175  0.295062  0.083259  1
  F  F11  1  0.052537  0.704813  0.417427  1
  F  F12  1  0.451741  0.280375  0.545573  1
  F  F13  1  0.948386  0.717951  0.954662  1
  F  F14  1  0.551789  0.718648  0.453011  1
  F  F15  1  0.053127  0.280769  0.045279  1
  F  F16  1  0.767261  0.518741  0.858371  1
  F  F17  1  0.267650  0.479767  0.641864  1
  F  F18  1  0.232624  0.479413  0.143404  1
  F  F19  1  0.731225  0.515842  0.359759  1
  F  F20  1  0.756807  0.027367  0.050379  1
  F  F21  1  0.255875  0.974053  0.448171  1
  F  F22  1  0.244231  0.973282  0.949442  1
  F  F23  1  0.744424  0.032200  0.548872  1
  F  F24  1  0.969550  0.730671  0.640137  1
  F  F25  1  0.468871  0.270302  0.860679  1
  F  F26  1  0.026457  0.270182  0.360773  1
  F  F27  1  0.530969  0.728902  0.141036  1
  F  F28  1  0.044004  0.747092  0.173434  1
  F  F29  1  0.544131  0.253144  0.328314  1
  F  F30  1  0.953554  0.252152  0.825941  1
  F  F31  1  0.456743  0.748364  0.672433  1
  F  F32  1  0.420346  0.973033  0.231388  1
  F  F33  1  0.919797  0.029290  0.267304  1
  F  F34  1  0.578565  0.026957  0.766834  1
  F  F35  1  0.077261  0.973554  0.732161  1
