# generated using pymatgen
data_Ca(BrO3)2
_symmetry_space_group_name_H-M   'P 1'
_cell_length_a   7.04133901
_cell_length_b   7.04133798
_cell_length_c   7.20231425
_cell_angle_alpha   75.35909053
_cell_angle_beta   75.35909402
_cell_angle_gamma   117.22911818
_symmetry_Int_Tables_number   1
_chemical_formula_structural   Ca(BrO3)2
_chemical_formula_sum   'Ca2 Br4 O12'
_cell_volume   277.61822891
_cell_formula_units_Z   2
loop_
 _symmetry_equiv_pos_site_id
 _symmetry_equiv_pos_as_xyz
  1  'x, y, z'
loop_
 _atom_site_type_symbol
 _atom_site_label
 _atom_site_symmetry_multiplicity
 _atom_site_fract_x
 _atom_site_fract_y
 _atom_site_fract_z
 _atom_site_occupancy
  Ca  Ca0  1  0.624246  0.382488  0.989618  1
  Ca  Ca1  1  0.382488  0.624246  0.489618  1
  Br  Br2  1  0.400986  0.773736  0.953174  1
  Br  Br3  1  0.773736  0.400986  0.453174  1
  Br  Br4  1  0.971165  0.103897  0.029494  1
  Br  Br5  1  0.103897  0.971165  0.529494  1
  O  O6  1  0.476851  0.631263  0.116790  1
  O  O7  1  0.631263  0.476851  0.616790  1
  O  O8  1  0.773175  0.529149  0.223267  1
  O  O9  1  0.529149  0.773175  0.723267  1
  O  O10  1  0.578382  0.056512  0.908661  1
  O  O11  1  0.056512  0.578382  0.408661  1
  O  O12  1  0.025357  0.373889  0.900185  1
  O  O13  1  0.373889  0.025357  0.400185  1
  O  O14  1  0.000047  0.763705  0.773881  1
  O  O15  1  0.763705  0.000047  0.273881  1
  O  O16  1  0.212812  0.164940  0.071232  1
  O  O17  1  0.164940  0.212812  0.571232  1
