# generated using pymatgen
data_Zr8Fe9Si16Ru3
_symmetry_space_group_name_H-M   'P 1'
_cell_length_a   9.72718129
_cell_length_b   9.71849351
_cell_length_c   13.03931174
_cell_angle_alpha   53.43915936
_cell_angle_beta   53.45854498
_cell_angle_gamma   31.28897368
_symmetry_Int_Tables_number   1
_chemical_formula_structural   Zr8Fe9Si16Ru3
_chemical_formula_sum   'Zr8 Fe9 Si16 Ru3'
_cell_volume   503.07095168
_cell_formula_units_Z   1
loop_
 _symmetry_equiv_pos_site_id
 _symmetry_equiv_pos_as_xyz
  1  'x, y, z'
loop_
 _atom_site_type_symbol
 _atom_site_label
 _atom_site_symmetry_multiplicity
 _atom_site_fract_x
 _atom_site_fract_y
 _atom_site_fract_z
 _atom_site_occupancy
  Zr  Zr0  1  0.040699  0.290301  0.640691  1
  Zr  Zr1  1  0.707727  0.958811  0.860474  1
  Zr  Zr2  1  0.958314  0.707354  0.360147  1
  Zr  Zr3  1  0.293399  0.041832  0.139420  1
  Zr  Zr4  1  0.299213  0.558168  0.644951  1
  Zr  Zr5  1  0.440880  0.698910  0.857140  1
  Zr  Zr6  1  0.702591  0.442229  0.353933  1
  Zr  Zr7  1  0.560250  0.297351  0.144649  1
  Fe  Fe8  1  0.908951  0.134634  0.585643  1
  Fe  Fe9  1  0.874374  0.083140  0.916243  1
  Fe  Fe10  1  0.090524  0.865470  0.415985  1
  Fe  Fe11  1  0.135041  0.908595  0.084120  1
  Fe  Fe12  1  0.827659  0.648122  0.777563  1
  Fe  Fe13  1  0.351783  0.173021  0.723065  1
  Fe  Fe14  1  0.173691  0.352140  0.221477  1
  Fe  Fe15  1  0.648632  0.828364  0.274871  1
  Fe  Fe16  1  0.229229  0.521865  0.935934  1
  Si  Si17  1  0.970486  0.253475  0.895125  1
  Si  Si18  1  0.746943  0.029790  0.605127  1
  Si  Si19  1  0.031647  0.744158  0.102966  1
  Si  Si20  1  0.254436  0.968355  0.395827  1
  Si  Si21  1  0.140099  0.392508  0.891402  1
  Si  Si22  1  0.610293  0.859221  0.610925  1
  Si  Si23  1  0.865842  0.612419  0.105666  1
  Si  Si24  1  0.389631  0.138479  0.390239  1
  Si  Si25  1  0.083210  0.576253  0.568295  1
  Si  Si26  1  0.422037  0.917861  0.931800  1
  Si  Si27  1  0.915647  0.423604  0.431918  1
  Si  Si28  1  0.568443  0.097918  0.062461  1
  Si  Si29  1  0.622466  0.370235  0.756326  1
  Si  Si30  1  0.369920  0.630088  0.249972  1
  Si  Si31  1  0.119449  0.875074  0.753704  1
  Si  Si32  1  0.884731  0.115841  0.249653  1
  Ru  Ru33  1  0.485190  0.760277  0.562821  1
  Ru  Ru34  1  0.761049  0.485998  0.062037  1
  Ru  Ru35  1  0.515524  0.238139  0.437429  1
