# generated using pymatgen
data_La5Sm7(Si7Cl3)2
_symmetry_space_group_name_H-M   'P 1'
_cell_length_a   4.00012300
_cell_length_b   11.56534200
_cell_length_c   16.22244200
_cell_angle_alpha   90.00000000
_cell_angle_beta   90.00000000
_cell_angle_gamma   90.00000000
_symmetry_Int_Tables_number   1
_chemical_formula_structural   La5Sm7(Si7Cl3)2
_chemical_formula_sum   'La5 Sm7 Si14 Cl6'
_cell_volume   750.49543625
_cell_formula_units_Z   1
loop_
 _symmetry_equiv_pos_site_id
 _symmetry_equiv_pos_as_xyz
  1  'x, y, z'
loop_
 _atom_site_type_symbol
 _atom_site_label
 _atom_site_symmetry_multiplicity
 _atom_site_fract_x
 _atom_site_fract_y
 _atom_site_fract_z
 _atom_site_occupancy
  La  La0  1  0.000000  0.670430  0.000000  1
  La  La1  1  0.500000  0.057957  0.875844  1
  La  La2  1  0.000000  0.942969  0.623340  1
  La  La3  1  0.500000  0.057957  0.124156  1
  La  La4  1  0.000000  0.942969  0.376660  1
  Sm  Sm5  1  0.500000  0.335380  0.500000  1
  Sm  Sm6  1  0.500000  0.357154  0.755855  1
  Sm  Sm7  1  0.000000  0.640501  0.741816  1
  Sm  Sm8  1  0.500000  0.357154  0.244145  1
  Sm  Sm9  1  0.000000  0.640501  0.258184  1
  Sm  Sm10  1  0.500000  0.358069  0.000000  1
  Sm  Sm11  1  0.000000  0.642404  0.500000  1
  Si  Si12  1  0.000000  0.151384  0.000000  1
  Si  Si13  1  0.500000  0.849170  0.500000  1
  Si  Si14  1  0.500000  0.571691  0.874603  1
  Si  Si15  1  0.000000  0.425034  0.623306  1
  Si  Si16  1  0.500000  0.571691  0.125397  1
  Si  Si17  1  0.000000  0.425034  0.376694  1
  Si  Si18  1  0.000000  0.254034  0.872498  1
  Si  Si19  1  0.500000  0.745830  0.627052  1
  Si  Si20  1  0.000000  0.254034  0.127502  1
  Si  Si21  1  0.500000  0.745830  0.372948  1
  Si  Si22  1  0.000000  0.459879  0.876645  1
  Si  Si23  1  0.500000  0.539075  0.621906  1
  Si  Si24  1  0.500000  0.539075  0.378094  1
  Si  Si25  1  0.000000  0.459879  0.123355  1
  Cl  Cl26  1  0.500000  0.113131  0.693599  1
  Cl  Cl27  1  0.000000  0.885473  0.806495  1
  Cl  Cl28  1  0.000000  0.141833  0.500000  1
  Cl  Cl29  1  0.500000  0.865873  0.000000  1
  Cl  Cl30  1  0.500000  0.113131  0.306401  1
  Cl  Cl31  1  0.000000  0.885473  0.193505  1
