# generated using pymatgen
data_PrDy5Zr4(Sn3O)2
_symmetry_space_group_name_H-M   'P 1'
_cell_length_a   8.82824200
_cell_length_b   8.81358006
_cell_length_c   6.07122400
_cell_angle_alpha   90.00000000
_cell_angle_beta   90.00000000
_cell_angle_gamma   120.05504546
_symmetry_Int_Tables_number   1
_chemical_formula_structural   PrDy5Zr4(Sn3O)2
_chemical_formula_sum   'Pr1 Dy5 Zr4 Sn6 O2'
_cell_volume   408.87665259
_cell_formula_units_Z   1
loop_
 _symmetry_equiv_pos_site_id
 _symmetry_equiv_pos_as_xyz
  1  'x, y, z'
loop_
 _atom_site_type_symbol
 _atom_site_label
 _atom_site_symmetry_multiplicity
 _atom_site_fract_x
 _atom_site_fract_y
 _atom_site_fract_z
 _atom_site_occupancy
  Pr  Pr0  1  0.766477  0.000000  0.750000  1
  Dy  Dy1  1  0.999284  0.774042  0.750000  1
  Dy  Dy2  1  0.001480  0.226905  0.250000  1
  Dy  Dy3  1  0.225242  0.225958  0.750000  1
  Dy  Dy4  1  0.227110  0.000000  0.250000  1
  Dy  Dy5  1  0.774575  0.773095  0.250000  1
  Zr  Zr6  1  0.333072  0.667031  0.000019  1
  Zr  Zr7  1  0.333072  0.667031  0.499981  1
  Zr  Zr8  1  0.666042  0.332969  0.000019  1
  Zr  Zr9  1  0.666042  0.332969  0.499981  1
  Sn  Sn10  1  0.999359  0.592847  0.250000  1
  Sn  Sn11  1  0.002640  0.411039  0.750000  1
  Sn  Sn12  1  0.406512  0.407153  0.250000  1
  Sn  Sn13  1  0.591601  0.588961  0.750000  1
  Sn  Sn14  1  0.401321  0.000000  0.750000  1
  Sn  Sn15  1  0.592891  0.000000  0.250000  1
  O  O16  1  0.006640  0.000000  0.006627  1
  O  O17  1  0.006640  0.000000  0.493373  1
