# generated using pymatgen
data_Ho8Er2Si5Pb
_symmetry_space_group_name_H-M   'P 1'
_cell_length_a   8.48675700
_cell_length_b   8.51544859
_cell_length_c   6.36819005
_cell_angle_alpha   90.01235580
_cell_angle_beta   90.00000000
_cell_angle_gamma   119.88860112
_symmetry_Int_Tables_number   1
_chemical_formula_structural   Ho8Er2Si5Pb
_chemical_formula_sum   'Ho8 Er2 Si5 Pb1'
_cell_volume   399.00868351
_cell_formula_units_Z   1
loop_
 _symmetry_equiv_pos_site_id
 _symmetry_equiv_pos_as_xyz
  1  'x, y, z'
loop_
 _atom_site_type_symbol
 _atom_site_label
 _atom_site_symmetry_multiplicity
 _atom_site_fract_x
 _atom_site_fract_y
 _atom_site_fract_z
 _atom_site_occupancy
  Ho  Ho0  1  0.987623  0.747654  0.750041  1
  Ho  Ho1  1  0.998603  0.242517  0.250015  1
  Ho  Ho2  1  0.756086  0.757483  0.249985  1
  Ho  Ho3  1  0.766847  0.000000  0.750000  1
  Ho  Ho4  1  0.239968  0.252346  0.749959  1
  Ho  Ho5  1  0.240249  0.000000  0.250000  1
  Ho  Ho6  1  0.674793  0.343476  0.496019  1
  Ho  Ho7  1  0.331317  0.656524  0.003981  1
  Er  Er8  1  0.331288  0.656465  0.496018  1
  Er  Er9  1  0.674823  0.343535  0.003982  1
  Si  Si10  1  0.393782  0.392362  0.250043  1
  Si  Si11  1  0.001418  0.607638  0.249957  1
  Si  Si12  1  0.998505  0.394625  0.750006  1
  Si  Si13  1  0.603880  0.605375  0.749994  1
  Si  Si14  1  0.605746  0.000000  0.250000  1
  Pb  Pb15  1  0.395072  0.000000  0.750000  1
