# generated using pymatgen
data_Ti6Ga6Fe7Rh5
_symmetry_space_group_name_H-M   'P 1'
_cell_length_a   4.23348500
_cell_length_b   5.95464421
_cell_length_c   12.61524744
_cell_angle_alpha   89.96960835
_cell_angle_beta   89.99832022
_cell_angle_gamma   89.99734561
_symmetry_Int_Tables_number   1
_chemical_formula_structural   Ti6Ga6Fe7Rh5
_chemical_formula_sum   'Ti6 Ga6 Fe7 Rh5'
_cell_volume   318.01642771
_cell_formula_units_Z   1
loop_
 _symmetry_equiv_pos_site_id
 _symmetry_equiv_pos_as_xyz
  1  'x, y, z'
loop_
 _atom_site_type_symbol
 _atom_site_label
 _atom_site_symmetry_multiplicity
 _atom_site_fract_x
 _atom_site_fract_y
 _atom_site_fract_z
 _atom_site_occupancy
  Ti  Ti0  1  0.000000  0.499062  0.985042  1
  Ti  Ti1  1  0.499988  0.994711  0.173486  1
  Ti  Ti2  1  0.999984  0.511561  0.347535  1
  Ti  Ti3  1  0.500010  0.995599  0.507919  1
  Ti  Ti4  1  0.000018  0.498539  0.665237  1
  Ti  Ti5  1  0.500007  0.000467  0.820494  1
  Ga  Ga6  1  0.000001  0.000110  0.989383  1
  Ga  Ga7  1  0.499993  0.503158  0.171331  1
  Ga  Ga8  1  0.000000  0.992206  0.344313  1
  Ga  Ga9  1  0.500003  0.505172  0.506957  1
  Ga  Ga10  1  0.000000  0.000022  0.665457  1
  Ga  Ga11  1  0.500010  0.499270  0.822321  1
  Fe  Fe12  1  0.499999  0.750537  0.335976  1
  Fe  Fe13  1  0.999940  0.252677  0.502953  1
  Fe  Fe14  1  0.000058  0.748224  0.502799  1
  Fe  Fe15  1  0.500096  0.246447  0.665287  1
  Fe  Fe16  1  0.499900  0.753008  0.666234  1
  Fe  Fe17  1  0.000014  0.251315  0.829923  1
  Fe  Fe18  1  0.000004  0.747895  0.829992  1
  Rh  Rh19  1  0.500001  0.250437  0.998079  1
  Rh  Rh20  1  0.500002  0.749019  0.997403  1
  Rh  Rh21  1  0.999995  0.248781  0.166902  1
  Rh  Rh22  1  0.999986  0.751031  0.167325  1
  Rh  Rh23  1  0.499995  0.250749  0.337651  1
