# generated using pymatgen
data_Sc2Be2Ir5W
_symmetry_space_group_name_H-M   'P 1'
_cell_length_a   9.31848900
_cell_length_b   9.31848900
_cell_length_c   3.33537700
_cell_angle_alpha   90.00000000
_cell_angle_beta   90.00000000
_cell_angle_gamma   90.00000000
_symmetry_Int_Tables_number   1
_chemical_formula_structural   Sc2Be2Ir5W
_chemical_formula_sum   'Sc4 Be4 Ir10 W2'
_cell_volume   289.62491771
_cell_formula_units_Z   2
loop_
 _symmetry_equiv_pos_site_id
 _symmetry_equiv_pos_as_xyz
  1  'x, y, z'
loop_
 _atom_site_type_symbol
 _atom_site_label
 _atom_site_symmetry_multiplicity
 _atom_site_fract_x
 _atom_site_fract_y
 _atom_site_fract_z
 _atom_site_occupancy
  Sc  Sc0  1  0.674268  0.174268  0.000000  1
  Sc  Sc1  1  0.325732  0.825732  0.000000  1
  Sc  Sc2  1  0.174268  0.325732  0.000000  1
  Sc  Sc3  1  0.825732  0.674268  0.000000  1
  Be  Be4  1  0.119735  0.619735  0.000000  1
  Be  Be5  1  0.880265  0.380265  0.000000  1
  Be  Be6  1  0.619735  0.880265  0.000000  1
  Be  Be7  1  0.380265  0.119735  0.000000  1
  Ir  Ir8  1  0.210993  0.071497  0.500000  1
  Ir  Ir9  1  0.789007  0.928503  0.500000  1
  Ir  Ir10  1  0.071497  0.789007  0.500000  1
  Ir  Ir11  1  0.710993  0.428503  0.500000  1
  Ir  Ir12  1  0.928503  0.210993  0.500000  1
  Ir  Ir13  1  0.289007  0.571497  0.500000  1
  Ir  Ir14  1  0.571497  0.710993  0.500000  1
  Ir  Ir15  1  0.428503  0.289007  0.500000  1
  Ir  Ir16  1  0.500000  0.000000  0.500000  1
  Ir  Ir17  1  0.000000  0.500000  0.500000  1
  W  W18  1  0.000000  0.000000  0.000000  1
  W  W19  1  0.500000  0.500000  0.000000  1
