# generated using pymatgen
data_ErTm3(IrO4)4
_symmetry_space_group_name_H-M   'P 1'
_cell_length_a   5.30400321
_cell_length_b   7.60282869
_cell_length_c   7.35364267
_cell_angle_alpha   80.90316135
_cell_angle_beta   90.85665901
_cell_angle_gamma   93.04758728
_symmetry_Int_Tables_number   1
_chemical_formula_structural   ErTm3(IrO4)4
_chemical_formula_sum   'Er1 Tm3 Ir4 O16'
_cell_volume   292.38852354
_cell_formula_units_Z   1
loop_
 _symmetry_equiv_pos_site_id
 _symmetry_equiv_pos_as_xyz
  1  'x, y, z'
loop_
 _atom_site_type_symbol
 _atom_site_label
 _atom_site_symmetry_multiplicity
 _atom_site_fract_x
 _atom_site_fract_y
 _atom_site_fract_z
 _atom_site_occupancy
  Er  Er0  1  0.797347  0.837173  0.893363  1
  Tm  Tm1  1  0.263402  0.124781  0.613001  1
  Tm  Tm2  1  0.736399  0.875503  0.386968  1
  Tm  Tm3  1  0.202464  0.163315  0.107175  1
  Ir  Ir4  1  0.238975  0.660814  0.203965  1
  Ir  Ir5  1  0.760510  0.339069  0.796336  1
  Ir  Ir6  1  0.718545  0.336234  0.301035  1
  Ir  Ir7  1  0.281351  0.663793  0.698787  1
  O  O8  1  0.078342  0.446927  0.685953  1
  O  O9  1  0.920023  0.553411  0.313502  1
  O  O10  1  0.602423  0.325927  0.553184  1
  O  O11  1  0.397778  0.673170  0.447051  1
  O  O12  1  0.867363  0.330647  0.055699  1
  O  O13  1  0.133781  0.669198  0.944361  1
  O  O14  1  0.400223  0.436619  0.191122  1
  O  O15  1  0.598317  0.562171  0.809079  1
  O  O16  1  0.043817  0.888574  0.174337  1
  O  O17  1  0.958169  0.112751  0.826374  1
  O  O18  1  0.496895  0.105862  0.321680  1
  O  O19  1  0.502983  0.894526  0.676370  1
  O  O20  1  0.455947  0.196957  0.875961  1
  O  O21  1  0.544297  0.802083  0.125636  1
  O  O22  1  0.986148  0.167813  0.383495  1
  O  O23  1  0.014499  0.832683  0.615569  1
