# generated using pymatgen
data_Sm3TiIn2Ir3
_symmetry_space_group_name_H-M   'P 1'
_cell_length_a   7.37618050
_cell_length_b   7.21379635
_cell_length_c   4.25099400
_cell_angle_alpha   90.00000000
_cell_angle_beta   90.00000000
_cell_angle_gamma   119.27439262
_symmetry_Int_Tables_number   1
_chemical_formula_structural   Sm3TiIn2Ir3
_chemical_formula_sum   'Sm3 Ti1 In2 Ir3'
_cell_volume   197.30848263
_cell_formula_units_Z   1
loop_
 _symmetry_equiv_pos_site_id
 _symmetry_equiv_pos_as_xyz
  1  'x, y, z'
loop_
 _atom_site_type_symbol
 _atom_site_label
 _atom_site_symmetry_multiplicity
 _atom_site_fract_x
 _atom_site_fract_y
 _atom_site_fract_z
 _atom_site_occupancy
  Sm  Sm0  1  0.584863  0.584156  0.000000  1
  Sm  Sm1  1  0.415137  0.999293  0.000000  1
  Sm  Sm2  1  0.000000  0.406023  0.000000  1
  Ti  Ti3  1  0.000000  0.761416  0.500000  1
  In  In4  1  0.249623  0.246118  0.500000  1
  In  In5  1  0.750377  0.996494  0.500000  1
  Ir  Ir6  1  0.000000  0.964645  0.000000  1
  Ir  Ir7  1  0.694118  0.367985  0.500000  1
  Ir  Ir8  1  0.305882  0.673868  0.500000  1
