# generated using pymatgen
data_Bi2RuPtF14
_symmetry_space_group_name_H-M   'P 1'
_cell_length_a   5.62877200
_cell_length_b   9.22698720
_cell_length_c   12.22255963
_cell_angle_alpha   62.10804078
_cell_angle_beta   90.00000000
_cell_angle_gamma   90.00000000
_symmetry_Int_Tables_number   1
_chemical_formula_structural   Bi2RuPtF14
_chemical_formula_sum   'Bi4 Ru2 Pt2 F28'
_cell_volume   561.05458136
_cell_formula_units_Z   2
loop_
 _symmetry_equiv_pos_site_id
 _symmetry_equiv_pos_as_xyz
  1  'x, y, z'
loop_
 _atom_site_type_symbol
 _atom_site_label
 _atom_site_symmetry_multiplicity
 _atom_site_fract_x
 _atom_site_fract_y
 _atom_site_fract_z
 _atom_site_occupancy
  Bi  Bi0  1  0.760857  0.817508  0.760700  1
  Bi  Bi1  1  0.260857  0.182492  0.739300  1
  Bi  Bi2  1  0.239144  0.191200  0.230408  1
  Bi  Bi3  1  0.739144  0.808800  0.269592  1
  Ru  Ru4  1  0.755035  0.272151  0.957052  1
  Ru  Ru5  1  0.255035  0.727849  0.542948  1
  Pt  Pt6  1  0.243017  0.728871  0.041176  1
  Pt  Pt7  1  0.743017  0.271129  0.458824  1
  F  F8  1  0.434355  0.705350  0.915047  1
  F  F9  1  0.934355  0.294650  0.584953  1
  F  F10  1  0.560101  0.289955  0.084882  1
  F  F11  1  0.060101  0.710045  0.415118  1
  F  F12  1  0.446164  0.282674  0.541664  1
  F  F13  1  0.946164  0.717326  0.958336  1
  F  F14  1  0.553261  0.719996  0.457635  1
  F  F15  1  0.053261  0.280004  0.042365  1
  F  F16  1  0.764689  0.504378  0.864519  1
  F  F17  1  0.264689  0.495622  0.635481  1
  F  F18  1  0.234734  0.488638  0.140035  1
  F  F19  1  0.734734  0.511362  0.359965  1
  F  F20  1  0.757795  0.038244  0.047336  1
  F  F21  1  0.257795  0.961756  0.452664  1
  F  F22  1  0.241518  0.972782  0.947834  1
  F  F23  1  0.741518  0.027218  0.552166  1
  F  F24  1  0.966887  0.729267  0.633405  1
  F  F25  1  0.466887  0.270733  0.866595  1
  F  F26  1  0.034319  0.267370  0.370824  1
  F  F27  1  0.534319  0.732630  0.129176  1
  F  F28  1  0.057888  0.746120  0.172171  1
  F  F29  1  0.557888  0.253880  0.327829  1
  F  F30  1  0.944921  0.256366  0.826802  1
  F  F31  1  0.444921  0.743634  0.673198  1
  F  F32  1  0.408917  0.971758  0.230128  1
  F  F33  1  0.908917  0.028242  0.269872  1
  F  F34  1  0.596401  0.031565  0.770407  1
  F  F35  1  0.096401  0.968435  0.729593  1
