# generated using pymatgen
data_Ac2(GaAu2)3
_symmetry_space_group_name_H-M   'P 1'
_cell_length_a   8.93218593
_cell_length_b   8.93218597
_cell_length_c   8.93218668
_cell_angle_alpha   58.29037326
_cell_angle_beta   58.29037140
_cell_angle_gamma   58.29037575
_symmetry_Int_Tables_number   1
_chemical_formula_structural   Ac2(GaAu2)3
_chemical_formula_sum   'Ac4 Ga6 Au12'
_cell_volume   484.18543070
_cell_formula_units_Z   2
loop_
 _symmetry_equiv_pos_site_id
 _symmetry_equiv_pos_as_xyz
  1  'x, y, z'
loop_
 _atom_site_type_symbol
 _atom_site_label
 _atom_site_symmetry_multiplicity
 _atom_site_fract_x
 _atom_site_fract_y
 _atom_site_fract_z
 _atom_site_occupancy
  Ac  Ac0  1  0.907332  0.907332  0.907332  1
  Ac  Ac1  1  0.407332  0.407332  0.407332  1
  Ac  Ac2  1  0.092668  0.092668  0.092668  1
  Ac  Ac3  1  0.592668  0.592668  0.592668  1
  Ga  Ga4  1  0.561993  0.750000  0.938007  1
  Ga  Ga5  1  0.938007  0.561993  0.750000  1
  Ga  Ga6  1  0.750000  0.938007  0.561993  1
  Ga  Ga7  1  0.438007  0.250000  0.061993  1
  Ga  Ga8  1  0.061993  0.438007  0.250000  1
  Ga  Ga9  1  0.250000  0.061993  0.438007  1
  Au  Au10  1  0.483038  0.858478  0.203941  1
  Au  Au11  1  0.203941  0.483038  0.858478  1
  Au  Au12  1  0.858478  0.203941  0.483038  1
  Au  Au13  1  0.703941  0.358478  0.983038  1
  Au  Au14  1  0.983038  0.703941  0.358478  1
  Au  Au15  1  0.358478  0.983038  0.703941  1
  Au  Au16  1  0.516962  0.141522  0.796059  1
  Au  Au17  1  0.796059  0.516962  0.141522  1
  Au  Au18  1  0.141522  0.796059  0.516962  1
  Au  Au19  1  0.296059  0.641522  0.016962  1
  Au  Au20  1  0.016962  0.296059  0.641522  1
  Au  Au21  1  0.641522  0.016962  0.296059  1
