# generated using pymatgen
data_Cs2Al3AgF12
_symmetry_space_group_name_H-M   'P 1'
_cell_length_a   7.58405909
_cell_length_b   7.58405902
_cell_length_c   7.58405932
_cell_angle_alpha   56.23134812
_cell_angle_beta   56.23134827
_cell_angle_gamma   56.23134518
_symmetry_Int_Tables_number   1
_chemical_formula_structural   Cs2Al3AgF12
_chemical_formula_sum   'Cs2 Al3 Ag1 F12'
_cell_volume   281.55156365
_cell_formula_units_Z   1
loop_
 _symmetry_equiv_pos_site_id
 _symmetry_equiv_pos_as_xyz
  1  'x, y, z'
loop_
 _atom_site_type_symbol
 _atom_site_label
 _atom_site_symmetry_multiplicity
 _atom_site_fract_x
 _atom_site_fract_y
 _atom_site_fract_z
 _atom_site_occupancy
  Cs  Cs0  1  0.622618  0.622618  0.622618  1
  Cs  Cs1  1  0.377382  0.377382  0.377382  1
  Al  Al2  1  0.500000  0.000000  0.000000  1
  Al  Al3  1  0.000000  0.000000  0.500000  1
  Al  Al4  1  0.000000  0.500000  0.000000  1
  Ag  Ag5  1  0.000000  0.000000  0.000000  1
  F  F6  1  0.092846  0.092846  0.594455  1
  F  F7  1  0.594455  0.092846  0.092846  1
  F  F8  1  0.092846  0.594455  0.092846  1
  F  F9  1  0.907154  0.405545  0.907154  1
  F  F10  1  0.907154  0.907154  0.405545  1
  F  F11  1  0.405545  0.907154  0.907154  1
  F  F12  1  0.917827  0.292039  0.292039  1
  F  F13  1  0.292039  0.292039  0.917827  1
  F  F14  1  0.292039  0.917827  0.292039  1
  F  F15  1  0.707961  0.082173  0.707961  1
  F  F16  1  0.082173  0.707961  0.707961  1
  F  F17  1  0.707961  0.707961  0.082173  1
