# generated using pymatgen
data_Rb4Tm9Lu3Se20
_symmetry_space_group_name_H-M   'P 1'
_cell_length_a   4.08966100
_cell_length_b   12.23616637
_cell_length_c   21.85202266
_cell_angle_alpha   90.02819631
_cell_angle_beta   90.00000000
_cell_angle_gamma   90.00000000
_symmetry_Int_Tables_number   1
_chemical_formula_structural   Rb4Tm9Lu3Se20
_chemical_formula_sum   'Rb4 Tm9 Lu3 Se20'
_cell_volume   1093.51381198
_cell_formula_units_Z   1
loop_
 _symmetry_equiv_pos_site_id
 _symmetry_equiv_pos_as_xyz
  1  'x, y, z'
loop_
 _atom_site_type_symbol
 _atom_site_label
 _atom_site_symmetry_multiplicity
 _atom_site_fract_x
 _atom_site_fract_y
 _atom_site_fract_z
 _atom_site_occupancy
  Rb  Rb0  1  0.250000  0.852359  0.092970  1
  Rb  Rb1  1  0.750000  0.147604  0.906985  1
  Rb  Rb2  1  0.750000  0.352348  0.407029  1
  Rb  Rb3  1  0.250000  0.647634  0.592948  1
  Tm  Tm4  1  0.750000  0.798107  0.825852  1
  Tm  Tm5  1  0.250000  0.201765  0.174211  1
  Tm  Tm6  1  0.250000  0.298113  0.674130  1
  Tm  Tm7  1  0.750000  0.701898  0.325868  1
  Tm  Tm8  1  0.250000  0.956330  0.697917  1
  Tm  Tm9  1  0.750000  0.043660  0.302083  1
  Tm  Tm10  1  0.750000  0.456381  0.801943  1
  Tm  Tm11  1  0.250000  0.543744  0.197970  1
  Tm  Tm12  1  0.750000  0.391384  0.053795  1
  Lu  Lu13  1  0.250000  0.608610  0.946084  1
  Lu  Lu14  1  0.250000  0.891583  0.446125  1
  Lu  Lu15  1  0.750000  0.108429  0.553871  1
  Se  Se16  1  0.250000  0.947933  0.568769  1
  Se  Se17  1  0.750000  0.052084  0.431233  1
  Se  Se18  1  0.750000  0.448210  0.930809  1
  Se  Se19  1  0.250000  0.553322  0.068840  1
  Se  Se20  1  0.750000  0.765040  0.953884  1
  Se  Se21  1  0.250000  0.233324  0.046130  1
  Se  Se22  1  0.250000  0.265004  0.546110  1
  Se  Se23  1  0.750000  0.735012  0.453895  1
  Se  Se24  1  0.250000  0.952753  0.826755  1
  Se  Se25  1  0.750000  0.047233  0.173289  1
  Se  Se26  1  0.750000  0.452745  0.673201  1
  Se  Se27  1  0.250000  0.547269  0.326761  1
  Se  Se28  1  0.750000  0.126273  0.684494  1
  Se  Se29  1  0.250000  0.873744  0.315509  1
  Se  Se30  1  0.250000  0.626325  0.815487  1
  Se  Se31  1  0.750000  0.373730  0.185001  1
  Se  Se32  1  0.750000  0.696619  0.197131  1
  Se  Se33  1  0.250000  0.303440  0.802907  1
  Se  Se34  1  0.250000  0.196554  0.302934  1
  Se  Se35  1  0.750000  0.803436  0.697079  1
