# generated using pymatgen
data_Sm3Hg3PdRh2
_symmetry_space_group_name_H-M   'P 1'
_cell_length_a   7.67705000
_cell_length_b   7.67705058
_cell_length_c   3.95554200
_cell_angle_alpha   90.00000000
_cell_angle_beta   90.00000000
_cell_angle_gamma   119.99999749
_symmetry_Int_Tables_number   1
_chemical_formula_structural   Sm3Hg3PdRh2
_chemical_formula_sum   'Sm3 Hg3 Pd1 Rh2'
_cell_volume   201.89493054
_cell_formula_units_Z   1
loop_
 _symmetry_equiv_pos_site_id
 _symmetry_equiv_pos_as_xyz
  1  'x, y, z'
loop_
 _atom_site_type_symbol
 _atom_site_label
 _atom_site_symmetry_multiplicity
 _atom_site_fract_x
 _atom_site_fract_y
 _atom_site_fract_z
 _atom_site_occupancy
  Sm  Sm0  1  0.596888  0.000000  0.500000  1
  Sm  Sm1  1  0.000000  0.596888  0.500000  1
  Sm  Sm2  1  0.403112  0.403112  0.500000  1
  Hg  Hg3  1  0.264471  0.000000  0.000000  1
  Hg  Hg4  1  0.735529  0.735529  0.000000  1
  Hg  Hg5  1  0.000000  0.264471  0.000000  1
  Pd  Pd6  1  0.000000  0.000000  0.500000  1
  Rh  Rh7  1  0.666667  0.333333  0.000000  1
  Rh  Rh8  1  0.333333  0.666667  0.000000  1
