# generated using pymatgen
data_Y3ThHgIr
_symmetry_space_group_name_H-M   'P 1'
_cell_length_a   9.74602095
_cell_length_b   9.74602092
_cell_length_c   9.74602200
_cell_angle_alpha   60.00000311
_cell_angle_beta   60.00000322
_cell_angle_gamma   60.00000204
_symmetry_Int_Tables_number   1
_chemical_formula_structural   Y3ThHgIr
_chemical_formula_sum   'Y12 Th4 Hg4 Ir4'
_cell_volume   654.58657877
_cell_formula_units_Z   4
loop_
 _symmetry_equiv_pos_site_id
 _symmetry_equiv_pos_as_xyz
  1  'x, y, z'
loop_
 _atom_site_type_symbol
 _atom_site_label
 _atom_site_symmetry_multiplicity
 _atom_site_fract_x
 _atom_site_fract_y
 _atom_site_fract_z
 _atom_site_occupancy
  Y  Y0  1  0.811892  0.188108  0.188108  1
  Y  Y1  1  0.188108  0.811892  0.811892  1
  Y  Y2  1  0.188108  0.811892  0.188108  1
  Y  Y3  1  0.811892  0.188108  0.811892  1
  Y  Y4  1  0.188108  0.188108  0.811892  1
  Y  Y5  1  0.811892  0.811892  0.188108  1
  Y  Y6  1  0.936155  0.563845  0.563845  1
  Y  Y7  1  0.563845  0.936155  0.936155  1
  Y  Y8  1  0.563845  0.936155  0.563845  1
  Y  Y9  1  0.936155  0.563845  0.936155  1
  Y  Y10  1  0.563845  0.563845  0.936155  1
  Y  Y11  1  0.936155  0.936155  0.563845  1
  Th  Th12  1  0.350999  0.350999  0.350999  1
  Th  Th13  1  0.350999  0.350999  0.947004  1
  Th  Th14  1  0.350999  0.947004  0.350999  1
  Th  Th15  1  0.947004  0.350999  0.350999  1
  Hg  Hg16  1  0.587179  0.587179  0.587179  1
  Hg  Hg17  1  0.587179  0.587179  0.238462  1
  Hg  Hg18  1  0.587179  0.238462  0.587179  1
  Hg  Hg19  1  0.238462  0.587179  0.587179  1
  Ir  Ir20  1  0.143888  0.143888  0.143888  1
  Ir  Ir21  1  0.143888  0.143888  0.568336  1
  Ir  Ir22  1  0.143888  0.568336  0.143888  1
  Ir  Ir23  1  0.568336  0.143888  0.143888  1
