# generated using pymatgen
data_Dy4B16Ir3Ru
_symmetry_space_group_name_H-M   'P 1'
_cell_length_a   3.56847200
_cell_length_b   5.96952166
_cell_length_c   11.57735971
_cell_angle_alpha   90.07381549
_cell_angle_beta   90.00000000
_cell_angle_gamma   90.00000000
_symmetry_Int_Tables_number   1
_chemical_formula_structural   Dy4B16Ir3Ru
_chemical_formula_sum   'Dy4 B16 Ir3 Ru1'
_cell_volume   246.62153253
_cell_formula_units_Z   1
loop_
 _symmetry_equiv_pos_site_id
 _symmetry_equiv_pos_as_xyz
  1  'x, y, z'
loop_
 _atom_site_type_symbol
 _atom_site_label
 _atom_site_symmetry_multiplicity
 _atom_site_fract_x
 _atom_site_fract_y
 _atom_site_fract_z
 _atom_site_occupancy
  Dy  Dy0  1  0.000000  0.131562  0.646974  1
  Dy  Dy1  1  0.000000  0.870163  0.351292  1
  Dy  Dy2  1  0.000000  0.631199  0.851498  1
  Dy  Dy3  1  0.000000  0.368256  0.151077  1
  B  B4  1  0.500000  0.472259  0.691373  1
  B  B5  1  0.500000  0.524702  0.307919  1
  B  B6  1  0.500000  0.974058  0.807512  1
  B  B7  1  0.500000  0.025527  0.192437  1
  B  B8  1  0.500000  0.291340  0.812433  1
  B  B9  1  0.500000  0.709399  0.187708  1
  B  B10  1  0.500000  0.791080  0.687178  1
  B  B11  1  0.500000  0.210520  0.313833  1
  B  B12  1  0.500000  0.363478  0.969766  1
  B  B13  1  0.500000  0.636442  0.030157  1
  B  B14  1  0.500000  0.863112  0.529765  1
  B  B15  1  0.500000  0.135800  0.468870  1
  B  B16  1  0.500000  0.386447  0.545267  1
  B  B17  1  0.500000  0.611101  0.452414  1
  B  B18  1  0.500000  0.887884  0.953228  1
  B  B19  1  0.500000  0.112324  0.047157  1
  Ir  Ir20  1  0.000000  0.144149  0.902886  1
  Ir  Ir21  1  0.000000  0.855912  0.096047  1
  Ir  Ir22  1  0.000000  0.643291  0.596993  1
  Ru  Ru23  1  0.000000  0.359998  0.406217  1
