# generated using pymatgen
data_Hf3TaSi3WN
_symmetry_space_group_name_H-M   'P 1'
_cell_length_a   7.68044400
_cell_length_b   7.68044433
_cell_length_c   5.37116000
_cell_angle_alpha   90.00000000
_cell_angle_beta   90.00000000
_cell_angle_gamma   119.99999857
_symmetry_Int_Tables_number   1
_chemical_formula_structural   Hf3TaSi3WN
_chemical_formula_sum   'Hf6 Ta2 Si6 W2 N2'
_cell_volume   274.39197163
_cell_formula_units_Z   2
loop_
 _symmetry_equiv_pos_site_id
 _symmetry_equiv_pos_as_xyz
  1  'x, y, z'
loop_
 _atom_site_type_symbol
 _atom_site_label
 _atom_site_symmetry_multiplicity
 _atom_site_fract_x
 _atom_site_fract_y
 _atom_site_fract_z
 _atom_site_occupancy
  Hf  Hf0  1  0.235547  0.000000  0.248121  1
  Hf  Hf1  1  0.764453  0.000000  0.751879  1
  Hf  Hf2  1  0.000000  0.235547  0.248121  1
  Hf  Hf3  1  0.000000  0.764453  0.751879  1
  Hf  Hf4  1  0.764453  0.764453  0.248121  1
  Hf  Hf5  1  0.235547  0.235547  0.751879  1
  Ta  Ta6  1  0.333333  0.666667  0.000000  1
  Ta  Ta7  1  0.666667  0.333333  0.000000  1
  Si  Si8  1  0.590874  0.000000  0.259628  1
  Si  Si9  1  0.409126  0.000000  0.740372  1
  Si  Si10  1  0.000000  0.590874  0.259628  1
  Si  Si11  1  0.000000  0.409126  0.740372  1
  Si  Si12  1  0.409126  0.409126  0.259628  1
  Si  Si13  1  0.590874  0.590874  0.740372  1
  W  W14  1  0.666667  0.333333  0.500000  1
  W  W15  1  0.333333  0.666667  0.500000  1
  N  N16  1  0.000000  0.000000  0.000000  1
  N  N17  1  0.000000  0.000000  0.500000  1
