# generated using pymatgen
data_Er3Rh6PbC
_symmetry_space_group_name_H-M   'P 1'
_cell_length_a   5.81423200
_cell_length_b   5.81423147
_cell_length_c   13.96343400
_cell_angle_alpha   90.00000000
_cell_angle_beta   90.00000000
_cell_angle_gamma   120.00000303
_symmetry_Int_Tables_number   1
_chemical_formula_structural   Er3Rh6PbC
_chemical_formula_sum   'Er6 Rh12 Pb2 C2'
_cell_volume   408.79683930
_cell_formula_units_Z   2
loop_
 _symmetry_equiv_pos_site_id
 _symmetry_equiv_pos_as_xyz
  1  'x, y, z'
loop_
 _atom_site_type_symbol
 _atom_site_label
 _atom_site_symmetry_multiplicity
 _atom_site_fract_x
 _atom_site_fract_y
 _atom_site_fract_z
 _atom_site_occupancy
  Er  Er0  1  0.000000  0.000000  0.750000  1
  Er  Er1  1  0.000000  0.000000  0.250000  1
  Er  Er2  1  0.333333  0.666667  0.413541  1
  Er  Er3  1  0.666667  0.333333  0.913541  1
  Er  Er4  1  0.666667  0.333333  0.586459  1
  Er  Er5  1  0.333333  0.666667  0.086459  1
  Rh  Rh6  1  0.337839  0.168920  0.415419  1
  Rh  Rh7  1  0.831080  0.168920  0.415419  1
  Rh  Rh8  1  0.831080  0.662161  0.415419  1
  Rh  Rh9  1  0.168920  0.337839  0.915419  1
  Rh  Rh10  1  0.662161  0.831080  0.584581  1
  Rh  Rh11  1  0.662161  0.831080  0.915419  1
  Rh  Rh12  1  0.337839  0.168920  0.084581  1
  Rh  Rh13  1  0.168920  0.337839  0.584581  1
  Rh  Rh14  1  0.168920  0.831080  0.584581  1
  Rh  Rh15  1  0.831080  0.168920  0.084581  1
  Rh  Rh16  1  0.831080  0.662161  0.084581  1
  Rh  Rh17  1  0.168920  0.831080  0.915419  1
  Pb  Pb18  1  0.333333  0.666667  0.750000  1
  Pb  Pb19  1  0.666667  0.333333  0.250000  1
  C  C20  1  0.000000  0.000000  0.500000  1
  C  C21  1  0.000000  0.000000  0.000000  1
