# generated using pymatgen
data_LiLaTa3CuH12
_symmetry_space_group_name_H-M   'P 1'
_cell_length_a   6.01163300
_cell_length_b   6.01163147
_cell_length_c   4.84351500
_cell_angle_alpha   90.00000000
_cell_angle_beta   90.00000000
_cell_angle_gamma   119.99999189
_symmetry_Int_Tables_number   1
_chemical_formula_structural   LiLaTa3CuH12
_chemical_formula_sum   'Li1 La1 Ta3 Cu1 H12'
_cell_volume   151.59194512
_cell_formula_units_Z   1
loop_
 _symmetry_equiv_pos_site_id
 _symmetry_equiv_pos_as_xyz
  1  'x, y, z'
loop_
 _atom_site_type_symbol
 _atom_site_label
 _atom_site_symmetry_multiplicity
 _atom_site_fract_x
 _atom_site_fract_y
 _atom_site_fract_z
 _atom_site_occupancy
  Li  Li0  1  0.666667  0.333333  0.000000  1
  La  La1  1  0.000000  0.000000  0.000000  1
  Ta  Ta2  1  0.499132  0.998265  0.500000  1
  Ta  Ta3  1  0.001735  0.500868  0.500000  1
  Ta  Ta4  1  0.499132  0.500868  0.500000  1
  Cu  Cu5  1  0.333333  0.666667  0.000000  1
  H  H6  1  0.797308  0.594619  0.735209  1
  H  H7  1  0.201283  0.402567  0.261543  1
  H  H8  1  0.201283  0.798717  0.261543  1
  H  H9  1  0.797308  0.202692  0.264791  1
  H  H10  1  0.597433  0.798717  0.261543  1
  H  H11  1  0.405381  0.202692  0.264791  1
  H  H12  1  0.405381  0.202692  0.735209  1
  H  H13  1  0.201283  0.402567  0.738457  1
  H  H14  1  0.797308  0.202692  0.735209  1
  H  H15  1  0.597433  0.798717  0.738457  1
  H  H16  1  0.797308  0.594619  0.264791  1
  H  H17  1  0.201283  0.798717  0.738457  1
