# generated using pymatgen
data_Zr8Cd4Pt3Au5
_symmetry_space_group_name_H-M   'P 1'
_cell_length_a   7.64608953
_cell_length_b   7.64608953
_cell_length_c   7.00493985
_cell_angle_alpha   90.05839639
_cell_angle_beta   90.05839639
_cell_angle_gamma   90.74716477
_symmetry_Int_Tables_number   1
_chemical_formula_structural   Zr8Cd4Pt3Au5
_chemical_formula_sum   'Zr8 Cd4 Pt3 Au5'
_cell_volume   409.49234076
_cell_formula_units_Z   1
loop_
 _symmetry_equiv_pos_site_id
 _symmetry_equiv_pos_as_xyz
  1  'x, y, z'
loop_
 _atom_site_type_symbol
 _atom_site_label
 _atom_site_symmetry_multiplicity
 _atom_site_fract_x
 _atom_site_fract_y
 _atom_site_fract_z
 _atom_site_occupancy
  Zr  Zr0  1  0.149125  0.149125  0.005145  1
  Zr  Zr1  1  0.843484  0.843484  0.998489  1
  Zr  Zr2  1  0.648023  0.359519  0.495159  1
  Zr  Zr3  1  0.359519  0.648023  0.495159  1
  Zr  Zr4  1  0.685313  0.321347  0.003519  1
  Zr  Zr5  1  0.321347  0.685313  0.003519  1
  Zr  Zr6  1  0.801091  0.801091  0.501736  1
  Zr  Zr7  1  0.195782  0.195782  0.493515  1
  Cd  Cd8  1  0.500712  0.001427  0.251463  1
  Cd  Cd9  1  0.500405  0.998651  0.747767  1
  Cd  Cd10  1  0.001427  0.500712  0.251463  1
  Cd  Cd11  1  0.998651  0.500405  0.747767  1
  Pt  Pt12  1  0.369351  0.369351  0.213323  1
  Pt  Pt13  1  0.629098  0.629098  0.785970  1
  Pt  Pt14  1  0.631346  0.631346  0.211229  1
  Au  Au15  1  0.868941  0.131201  0.712001  1
  Au  Au16  1  0.868283  0.129234  0.289319  1
  Au  Au17  1  0.367668  0.367668  0.792137  1
  Au  Au18  1  0.129234  0.868283  0.289319  1
  Au  Au19  1  0.131201  0.868941  0.712001  1
