# generated using pymatgen
data_Ta3Nb(CoP)4
_symmetry_space_group_name_H-M   'P 1'
_cell_length_a   3.59808600
_cell_length_b   6.12382010
_cell_length_c   6.95819911
_cell_angle_alpha   90.02056710
_cell_angle_beta   90.00000000
_cell_angle_gamma   90.00000000
_symmetry_Int_Tables_number   1
_chemical_formula_structural   Ta3Nb(CoP)4
_chemical_formula_sum   'Ta3 Nb1 Co4 P4'
_cell_volume   153.31716759
_cell_formula_units_Z   1
loop_
 _symmetry_equiv_pos_site_id
 _symmetry_equiv_pos_as_xyz
  1  'x, y, z'
loop_
 _atom_site_type_symbol
 _atom_site_label
 _atom_site_symmetry_multiplicity
 _atom_site_fract_x
 _atom_site_fract_y
 _atom_site_fract_z
 _atom_site_occupancy
  Ta  Ta0  1  0.250000  0.525512  0.672861  1
  Ta  Ta1  1  0.750000  0.974158  0.172719  1
  Ta  Ta2  1  0.750000  0.474490  0.327397  1
  Nb  Nb3  1  0.250000  0.025542  0.828114  1
  Co  Co4  1  0.250000  0.148681  0.435868  1
  Co  Co5  1  0.250000  0.646415  0.063945  1
  Co  Co6  1  0.750000  0.851222  0.560422  1
  Co  Co7  1  0.750000  0.354309  0.938329  1
  P  P8  1  0.250000  0.277767  0.120635  1
  P  P9  1  0.250000  0.778478  0.379323  1
  P  P10  1  0.750000  0.721664  0.879007  1
  P  P11  1  0.750000  0.221763  0.621381  1
