# generated using pymatgen
data_Rb4MgW3N8
_symmetry_space_group_name_H-M   'P 1'
_cell_length_a   6.07153700
_cell_length_b   8.57154000
_cell_length_c   12.38653500
_cell_angle_alpha   90.00000000
_cell_angle_beta   90.00000000
_cell_angle_gamma   90.00000000
_symmetry_Int_Tables_number   1
_chemical_formula_structural   Rb4MgW3N8
_chemical_formula_sum   'Rb8 Mg2 W6 N16'
_cell_volume   644.62528477
_cell_formula_units_Z   2
loop_
 _symmetry_equiv_pos_site_id
 _symmetry_equiv_pos_as_xyz
  1  'x, y, z'
loop_
 _atom_site_type_symbol
 _atom_site_label
 _atom_site_symmetry_multiplicity
 _atom_site_fract_x
 _atom_site_fract_y
 _atom_site_fract_z
 _atom_site_occupancy
  Rb  Rb0  1  0.250000  0.180577  0.000000  1
  Rb  Rb1  1  0.750000  0.819423  0.500000  1
  Rb  Rb2  1  0.750000  0.876881  0.000000  1
  Rb  Rb3  1  0.250000  0.123119  0.500000  1
  Rb  Rb4  1  0.356738  0.388795  0.741140  1
  Rb  Rb5  1  0.856738  0.611205  0.758860  1
  Rb  Rb6  1  0.643262  0.611205  0.241140  1
  Rb  Rb7  1  0.143262  0.388795  0.258860  1
  Mg  Mg8  1  0.750000  0.363466  0.000000  1
  Mg  Mg9  1  0.250000  0.636534  0.500000  1
  W  W10  1  0.250000  0.629773  0.000000  1
  W  W11  1  0.750000  0.370227  0.500000  1
  W  W12  1  0.821627  0.112940  0.749154  1
  W  W13  1  0.321627  0.887060  0.750846  1
  W  W14  1  0.178373  0.887060  0.249154  1
  W  W15  1  0.678373  0.112940  0.250846  1
  N  N16  1  0.131173  0.063772  0.769019  1
  N  N17  1  0.631173  0.936228  0.730981  1
  N  N18  1  0.868827  0.936228  0.269019  1
  N  N19  1  0.368827  0.063772  0.230981  1
  N  N20  1  0.796233  0.242413  0.627617  1
  N  N21  1  0.296233  0.757587  0.872383  1
  N  N22  1  0.203767  0.757587  0.127617  1
  N  N23  1  0.703767  0.242413  0.372383  1
  N  N24  1  0.269033  0.779626  0.365769  1
  N  N25  1  0.769033  0.220374  0.134231  1
  N  N26  1  0.730967  0.220374  0.865769  1
  N  N27  1  0.230967  0.779626  0.634231  1
  N  N28  1  0.512256  0.493657  0.521895  1
  N  N29  1  0.012256  0.506343  0.978105  1
  N  N30  1  0.487744  0.506343  0.021895  1
  N  N31  1  0.987744  0.493657  0.478105  1
