# generated using pymatgen
data_Tb7Yb(Si3Au)4
_symmetry_space_group_name_H-M   'P 1'
_cell_length_a   8.25680500
_cell_length_b   8.19864792
_cell_length_c   8.25659200
_cell_angle_alpha   90.00000000
_cell_angle_beta   90.00000000
_cell_angle_gamma   120.23493375
_symmetry_Int_Tables_number   1
_chemical_formula_structural   Tb7Yb(Si3Au)4
_chemical_formula_sum   'Tb7 Yb1 Si12 Au4'
_cell_volume   482.89501144
_cell_formula_units_Z   1
loop_
 _symmetry_equiv_pos_site_id
 _symmetry_equiv_pos_as_xyz
  1  'x, y, z'
loop_
 _atom_site_type_symbol
 _atom_site_label
 _atom_site_symmetry_multiplicity
 _atom_site_fract_x
 _atom_site_fract_y
 _atom_site_fract_z
 _atom_site_occupancy
  Tb  Tb0  1  0.499563  0.999128  0.750000  1
  Tb  Tb1  1  0.999577  0.499941  0.250000  1
  Tb  Tb2  1  0.000223  0.499656  0.750000  1
  Tb  Tb3  1  0.500365  0.499941  0.250000  1
  Tb  Tb4  1  0.499432  0.499656  0.750000  1
  Tb  Tb5  1  0.000131  0.000262  0.250000  1
  Tb  Tb6  1  0.999793  0.999586  0.750000  1
  Yb  Yb7  1  0.501057  0.002113  0.250000  1
  Si  Si8  1  0.164948  0.329897  0.996063  1
  Si  Si9  1  0.835103  0.670206  0.999098  1
  Si  Si10  1  0.673995  0.835163  0.998556  1
  Si  Si11  1  0.835103  0.670206  0.500902  1
  Si  Si12  1  0.325798  0.164676  0.000242  1
  Si  Si13  1  0.164948  0.329897  0.503937  1
  Si  Si14  1  0.161169  0.835163  0.998556  1
  Si  Si15  1  0.325798  0.164676  0.499758  1
  Si  Si16  1  0.838878  0.164676  0.000242  1
  Si  Si17  1  0.673995  0.835163  0.501444  1
  Si  Si18  1  0.838878  0.164676  0.499758  1
  Si  Si19  1  0.161169  0.835163  0.501444  1
  Au  Au20  1  0.335738  0.671477  0.003995  1
  Au  Au21  1  0.664301  0.328600  0.000842  1
  Au  Au22  1  0.664301  0.328600  0.499158  1
  Au  Au23  1  0.335738  0.671477  0.496005  1
