# generated using pymatgen
data_BePd4
_symmetry_space_group_name_H-M   'P 1'
_cell_length_a   9.18108357
_cell_length_b   9.18108331
_cell_length_c   9.18108406
_cell_angle_alpha   162.61122958
_cell_angle_beta   162.61122714
_cell_angle_gamma   24.68770664
_symmetry_Int_Tables_number   1
_chemical_formula_structural   BePd4
_chemical_formula_sum   'Be1 Pd4'
_cell_volume   69.10040040
_cell_formula_units_Z   1
loop_
 _symmetry_equiv_pos_site_id
 _symmetry_equiv_pos_as_xyz
  1  'x, y, z'
loop_
 _atom_site_type_symbol
 _atom_site_label
 _atom_site_symmetry_multiplicity
 _atom_site_fract_x
 _atom_site_fract_y
 _atom_site_fract_z
 _atom_site_occupancy
  Be  Be0  1  0.000000  0.000000  0.000000  1
  Pd  Pd1  1  0.421353  0.421353  0.000000  1
  Pd  Pd2  1  0.806386  0.806386  0.000000  1
  Pd  Pd3  1  0.193614  0.193614  0.000000  1
  Pd  Pd4  1  0.578647  0.578647  0.000000  1
