# generated using pymatgen
data_La5Nd3(Tm3Pt4)4
_symmetry_space_group_name_H-M   'P 1'
_cell_length_a   7.64289900
_cell_length_b   7.79168232
_cell_length_c   14.68420100
_cell_angle_alpha   89.96930668
_cell_angle_beta   89.99796092
_cell_angle_gamma   89.94808351
_symmetry_Int_Tables_number   1
_chemical_formula_structural   La5Nd3(Tm3Pt4)4
_chemical_formula_sum   'La5 Nd3 Tm12 Pt16'
_cell_volume   874.45897114
_cell_formula_units_Z   1
loop_
 _symmetry_equiv_pos_site_id
 _symmetry_equiv_pos_as_xyz
  1  'x, y, z'
loop_
 _atom_site_type_symbol
 _atom_site_label
 _atom_site_symmetry_multiplicity
 _atom_site_fract_x
 _atom_site_fract_y
 _atom_site_fract_z
 _atom_site_occupancy
  La  La0  1  0.992308  0.827229  0.099030  1
  La  La1  1  0.492820  0.672533  0.098145  1
  La  La2  1  0.992405  0.826029  0.403773  1
  La  La3  1  0.507191  0.325595  0.596672  1
  La  La4  1  0.007750  0.175566  0.901275  1
  Nd  Nd5  1  0.507581  0.327702  0.900340  1
  Nd  Nd6  1  0.007027  0.171596  0.599999  1
  Nd  Nd7  1  0.493068  0.671799  0.400917  1
  Tm  Tm8  1  0.346186  0.832527  0.875650  1
  Tm  Tm9  1  0.845741  0.667196  0.623628  1
  Tm  Tm10  1  0.654276  0.166664  0.376902  1
  Tm  Tm11  1  0.154330  0.332580  0.124065  1
  Tm  Tm12  1  0.649502  0.170115  0.122780  1
  Tm  Tm13  1  0.151817  0.330728  0.379072  1
  Tm  Tm14  1  0.348416  0.831228  0.621862  1
  Tm  Tm15  1  0.847466  0.668365  0.876734  1
  Tm  Tm16  1  0.184189  0.495620  0.748879  1
  Tm  Tm17  1  0.683860  0.004766  0.749941  1
  Tm  Tm18  1  0.816094  0.503632  0.250750  1
  Tm  Tm19  1  0.316415  0.995256  0.251647  1
  Pt  Pt20  1  0.320992  0.035823  0.044549  1
  Pt  Pt21  1  0.818611  0.466107  0.454896  1
  Pt  Pt22  1  0.681522  0.966156  0.545250  1
  Pt  Pt23  1  0.181914  0.533526  0.954061  1
  Pt  Pt24  1  0.676252  0.968223  0.953396  1
  Pt  Pt25  1  0.176892  0.533904  0.545383  1
  Pt  Pt26  1  0.323400  0.032884  0.454829  1
  Pt  Pt27  1  0.822004  0.464834  0.044746  1
  Pt  Pt28  1  0.553608  0.630859  0.750202  1
  Pt  Pt29  1  0.053844  0.869070  0.748812  1
  Pt  Pt30  1  0.445781  0.368611  0.251715  1
  Pt  Pt31  1  0.945952  0.132796  0.249749  1
  Pt  Pt32  1  0.321594  0.133269  0.748648  1
  Pt  Pt33  1  0.821092  0.367498  0.750520  1
  Pt  Pt34  1  0.678918  0.867034  0.249688  1
  Pt  Pt35  1  0.179182  0.632682  0.251496  1
