# generated using pymatgen
data_Hf18Re7SiMoAs
_symmetry_space_group_name_H-M   'P 1'
_cell_length_a   8.59777804
_cell_length_b   8.59777829
_cell_length_c   8.67895600
_cell_angle_alpha   90.00000000
_cell_angle_beta   90.00000000
_cell_angle_gamma   120.04569442
_symmetry_Int_Tables_number   1
_chemical_formula_structural   Hf18Re7SiMoAs
_chemical_formula_sum   'Hf18 Re7 Si1 Mo1 As1'
_cell_volume   555.35467908
_cell_formula_units_Z   1
loop_
 _symmetry_equiv_pos_site_id
 _symmetry_equiv_pos_as_xyz
  1  'x, y, z'
loop_
 _atom_site_type_symbol
 _atom_site_label
 _atom_site_symmetry_multiplicity
 _atom_site_fract_x
 _atom_site_fract_y
 _atom_site_fract_z
 _atom_site_occupancy
  Hf  Hf0  1  0.194087  0.805913  0.454626  1
  Hf  Hf1  1  0.194647  0.388574  0.455360  1
  Hf  Hf2  1  0.611426  0.805353  0.455360  1
  Hf  Hf3  1  0.804845  0.195155  0.548790  1
  Hf  Hf4  1  0.805036  0.610272  0.547979  1
  Hf  Hf5  1  0.389728  0.194964  0.547979  1
  Hf  Hf6  1  0.804845  0.195155  0.951210  1
  Hf  Hf7  1  0.805036  0.610272  0.952021  1
  Hf  Hf8  1  0.389728  0.194964  0.952021  1
  Hf  Hf9  1  0.194087  0.805913  0.045374  1
  Hf  Hf10  1  0.194647  0.388574  0.044640  1
  Hf  Hf11  1  0.611426  0.805353  0.044640  1
  Hf  Hf12  1  0.540502  0.459498  0.250000  1
  Hf  Hf13  1  0.539512  0.080558  0.250000  1
  Hf  Hf14  1  0.919442  0.460488  0.250000  1
  Hf  Hf15  1  0.460675  0.539325  0.750000  1
  Hf  Hf16  1  0.460376  0.921384  0.750000  1
  Hf  Hf17  1  0.078616  0.539624  0.750000  1
  Re  Re18  1  0.890177  0.780723  0.250000  1
  Re  Re19  1  0.219277  0.109823  0.250000  1
  Re  Re20  1  0.109216  0.890784  0.750000  1
  Re  Re21  1  0.109443  0.218395  0.750000  1
  Re  Re22  1  0.781605  0.890557  0.750000  1
  Re  Re23  1  0.000237  0.999763  0.500646  1
  Re  Re24  1  0.000237  0.999763  0.999354  1
  Si  Si25  1  0.666511  0.333489  0.750000  1
  Mo  Mo26  1  0.891582  0.108418  0.250000  1
  As  As27  1  0.333052  0.666948  0.250000  1
