# generated using pymatgen
data_Np8Ta11Si16Rh
_symmetry_space_group_name_H-M   'P 1'
_cell_length_a   7.02161814
_cell_length_b   7.02161904
_cell_length_c   12.92841800
_cell_angle_alpha   90.21866980
_cell_angle_beta   89.78133017
_cell_angle_gamma   89.62769828
_symmetry_Int_Tables_number   1
_chemical_formula_structural   Np8Ta11Si16Rh
_chemical_formula_sum   'Np8 Ta11 Si16 Rh1'
_cell_volume   637.38864103
_cell_formula_units_Z   1
loop_
 _symmetry_equiv_pos_site_id
 _symmetry_equiv_pos_as_xyz
  1  'x, y, z'
loop_
 _atom_site_type_symbol
 _atom_site_label
 _atom_site_symmetry_multiplicity
 _atom_site_fract_x
 _atom_site_fract_y
 _atom_site_fract_z
 _atom_site_occupancy
  Np  Np0  1  0.333994  0.008944  0.469308  1
  Np  Np1  1  0.489309  0.834621  0.720718  1
  Np  Np2  1  0.509897  0.164935  0.219985  1
  Np  Np3  1  0.834621  0.489309  0.279282  1
  Np  Np4  1  0.164935  0.509897  0.780015  1
  Np  Np5  1  0.668052  0.989921  0.969204  1
  Np  Np6  1  0.008944  0.333994  0.530692  1
  Np  Np7  1  0.989921  0.668052  0.030796  1
  Ta  Ta8  1  0.171559  0.829151  0.247815  1
  Ta  Ta9  1  0.829151  0.171559  0.752185  1
  Ta  Ta10  1  0.669326  0.669326  0.500000  1
  Ta  Ta11  1  0.151911  0.000446  0.875447  1
  Ta  Ta12  1  0.499743  0.656707  0.124470  1
  Ta  Ta13  1  0.500564  0.347105  0.627259  1
  Ta  Ta14  1  0.656707  0.499743  0.875530  1
  Ta  Ta15  1  0.347105  0.500564  0.372741  1
  Ta  Ta16  1  0.846902  0.997532  0.375224  1
  Ta  Ta17  1  0.000446  0.151911  0.124553  1
  Ta  Ta18  1  0.997532  0.846902  0.624776  1
  Si  Si19  1  0.203709  0.134160  0.685263  1
  Si  Si20  1  0.366611  0.703057  0.934813  1
  Si  Si21  1  0.633062  0.294722  0.434551  1
  Si  Si22  1  0.703057  0.366611  0.065187  1
  Si  Si23  1  0.294722  0.633062  0.565449  1
  Si  Si24  1  0.795556  0.866482  0.185167  1
  Si  Si25  1  0.134160  0.203709  0.314737  1
  Si  Si26  1  0.866482  0.795556  0.814833  1
  Si  Si27  1  0.297458  0.960373  0.063359  1
  Si  Si28  1  0.542054  0.796354  0.315400  1
  Si  Si29  1  0.454730  0.206804  0.819573  1
  Si  Si30  1  0.796354  0.542054  0.684600  1
  Si  Si31  1  0.206804  0.454730  0.180427  1
  Si  Si32  1  0.702499  0.042344  0.566357  1
  Si  Si33  1  0.960373  0.297458  0.936641  1
  Si  Si34  1  0.042344  0.702499  0.433643  1
  Rh  Rh35  1  0.329403  0.329403  0.000000  1
