# generated using pymatgen
data_Tb3Yb3(Co7C2)2
_symmetry_space_group_name_H-M   'P 1'
_cell_length_a   5.04737800
_cell_length_b   5.04737714
_cell_length_c   13.71179000
_cell_angle_alpha   90.00000000
_cell_angle_beta   90.00000000
_cell_angle_gamma   120.00001874
_symmetry_Int_Tables_number   1
_chemical_formula_structural   Tb3Yb3(Co7C2)2
_chemical_formula_sum   'Tb3 Yb3 Co14 C4'
_cell_volume   302.52153113
_cell_formula_units_Z   1
loop_
 _symmetry_equiv_pos_site_id
 _symmetry_equiv_pos_as_xyz
  1  'x, y, z'
loop_
 _atom_site_type_symbol
 _atom_site_label
 _atom_site_symmetry_multiplicity
 _atom_site_fract_x
 _atom_site_fract_y
 _atom_site_fract_z
 _atom_site_occupancy
  Tb  Tb0  1  0.666667  0.333333  0.539221  1
  Tb  Tb1  1  0.333333  0.666667  0.462670  1
  Tb  Tb2  1  0.333333  0.666667  0.034645  1
  Yb  Yb3  1  0.666667  0.333333  0.755070  1
  Yb  Yb4  1  0.666667  0.333333  0.962911  1
  Yb  Yb5  1  0.333333  0.666667  0.248874  1
  Co  Co6  1  0.164076  0.328152  0.656014  1
  Co  Co7  1  0.328371  0.164186  0.344124  1
  Co  Co8  1  0.329547  0.164773  0.154867  1
  Co  Co9  1  0.164764  0.835236  0.844679  1
  Co  Co10  1  0.835814  0.671629  0.344124  1
  Co  Co11  1  0.835227  0.164773  0.154867  1
  Co  Co12  1  0.671848  0.835924  0.656014  1
  Co  Co13  1  0.670472  0.835236  0.844679  1
  Co  Co14  1  0.164076  0.835924  0.656014  1
  Co  Co15  1  0.835227  0.670453  0.154867  1
  Co  Co16  1  0.000000  0.000000  0.998445  1
  Co  Co17  1  0.164764  0.329528  0.844679  1
  Co  Co18  1  0.835814  0.164186  0.344124  1
  Co  Co19  1  0.000000  0.000000  0.499971  1
  C  C20  1  0.666667  0.333333  0.249573  1
  C  C21  1  0.000000  0.000000  0.750548  1
  C  C22  1  0.333333  0.666667  0.749895  1
  C  C23  1  0.000000  0.000000  0.249124  1
