# generated using pymatgen
data_Er20Sn15Sb
_symmetry_space_group_name_H-M   'P 1'
_cell_length_a   8.02665235
_cell_length_b   8.09071264
_cell_length_c   15.30836124
_cell_angle_alpha   89.88433616
_cell_angle_beta   90.34218774
_cell_angle_gamma   90.04791114
_symmetry_Int_Tables_number   1
_chemical_formula_structural   Er20Sn15Sb
_chemical_formula_sum   'Er20 Sn15 Sb1'
_cell_volume   994.12536330
_cell_formula_units_Z   1
loop_
 _symmetry_equiv_pos_site_id
 _symmetry_equiv_pos_as_xyz
  1  'x, y, z'
loop_
 _atom_site_type_symbol
 _atom_site_label
 _atom_site_symmetry_multiplicity
 _atom_site_fract_x
 _atom_site_fract_y
 _atom_site_fract_z
 _atom_site_occupancy
  Er  Er0  1  0.377953  0.838082  0.878450  1
  Er  Er1  1  0.876946  0.661585  0.621670  1
  Er  Er2  1  0.623363  0.161656  0.377894  1
  Er  Er3  1  0.122224  0.338122  0.120660  1
  Er  Er4  1  0.621346  0.160643  0.121451  1
  Er  Er5  1  0.123091  0.338181  0.377937  1
  Er  Er6  1  0.377421  0.837866  0.621720  1
  Er  Er7  1  0.879116  0.661882  0.879331  1
  Er  Er8  1  0.531128  0.321632  0.899419  1
  Er  Er9  1  0.030457  0.177784  0.598998  1
  Er  Er10  1  0.469507  0.677081  0.400867  1
  Er  Er11  1  0.967700  0.826087  0.099975  1
  Er  Er12  1  0.463881  0.678110  0.100925  1
  Er  Er13  1  0.969595  0.822701  0.400956  1
  Er  Er14  1  0.530905  0.322749  0.599155  1
  Er  Er15  1  0.035590  0.173306  0.898825  1
  Er  Er16  1  0.207968  0.503578  0.749998  1
  Er  Er17  1  0.708235  0.996486  0.749737  1
  Er  Er18  1  0.791909  0.496859  0.251618  1
  Er  Er19  1  0.291951  0.003653  0.250366  1
  Sn  Sn20  1  0.284603  0.033123  0.042114  1
  Sn  Sn21  1  0.785492  0.465521  0.458152  1
  Sn  Sn22  1  0.714941  0.965904  0.541855  1
  Sn  Sn23  1  0.218536  0.532052  0.957560  1
  Sn  Sn24  1  0.716903  0.967747  0.957841  1
  Sn  Sn25  1  0.215068  0.534352  0.541905  1
  Sn  Sn26  1  0.285393  0.034075  0.457882  1
  Sn  Sn27  1  0.575314  0.620393  0.751035  1
  Sn  Sn28  1  0.074913  0.878696  0.749850  1
  Sn  Sn29  1  0.425613  0.379306  0.249045  1
  Sn  Sn30  1  0.925625  0.121081  0.249308  1
  Sn  Sn31  1  0.341741  0.147755  0.749346  1
  Sn  Sn32  1  0.841987  0.351952  0.750070  1
  Sn  Sn33  1  0.657769  0.851451  0.250253  1
  Sn  Sn34  1  0.156449  0.648405  0.249900  1
  Sb  Sb35  1  0.779372  0.470143  0.043935  1
