# generated using pymatgen
data_Gd(ZnAs)3
_symmetry_space_group_name_H-M   'P 1'
_cell_length_a   4.17088175
_cell_length_b   4.17650919
_cell_length_c   20.56423100
_cell_angle_alpha   90.00000000
_cell_angle_beta   90.00000000
_cell_angle_gamma   119.97440843
_symmetry_Int_Tables_number   1
_chemical_formula_structural   Gd(ZnAs)3
_chemical_formula_sum   'Gd2 Zn6 As6'
_cell_volume   310.31042095
_cell_formula_units_Z   2
loop_
 _symmetry_equiv_pos_site_id
 _symmetry_equiv_pos_as_xyz
  1  'x, y, z'
loop_
 _atom_site_type_symbol
 _atom_site_label
 _atom_site_symmetry_multiplicity
 _atom_site_fract_x
 _atom_site_fract_y
 _atom_site_fract_z
 _atom_site_occupancy
  Gd  Gd0  1  0.998565  0.000886  0.500010  1
  Gd  Gd1  1  0.998565  0.000886  0.999990  1
  Zn  Zn2  1  0.669848  0.336647  0.128015  1
  Zn  Zn3  1  0.335184  0.666194  0.871983  1
  Zn  Zn4  1  0.335184  0.666194  0.628017  1
  Zn  Zn5  1  0.669848  0.336647  0.371985  1
  Zn  Zn6  1  0.630372  0.360794  0.750000  1
  Zn  Zn7  1  0.270116  0.631426  0.250000  1
  As  As8  1  0.667104  0.333635  0.583967  1
  As  As9  1  0.334297  0.668645  0.416029  1
  As  As10  1  0.334297  0.668645  0.083971  1
  As  As11  1  0.667104  0.333635  0.916033  1
  As  As12  1  0.294096  0.696748  0.750000  1
  As  As13  1  0.598316  0.295114  0.250000  1
