# generated using pymatgen
data_DyTm3B12MoRh
_symmetry_space_group_name_H-M   'P 1'
_cell_length_a   3.64245800
_cell_length_b   9.14013300
_cell_length_c   11.54764401
_cell_angle_alpha   90.41024256
_cell_angle_beta   90.00000000
_cell_angle_gamma   90.00000000
_symmetry_Int_Tables_number   1
_chemical_formula_structural   DyTm3B12MoRh
_chemical_formula_sum   'Dy2 Tm6 B24 Mo2 Rh2'
_cell_volume   384.44066739
_cell_formula_units_Z   2
loop_
 _symmetry_equiv_pos_site_id
 _symmetry_equiv_pos_as_xyz
  1  'x, y, z'
loop_
 _atom_site_type_symbol
 _atom_site_label
 _atom_site_symmetry_multiplicity
 _atom_site_fract_x
 _atom_site_fract_y
 _atom_site_fract_z
 _atom_site_occupancy
  Dy  Dy0  1  0.500000  0.319391  0.411954  1
  Dy  Dy1  1  0.500000  0.680609  0.588046  1
  Tm  Tm2  1  0.500000  0.174925  0.917086  1
  Tm  Tm3  1  0.500000  0.825075  0.082914  1
  Tm  Tm4  1  0.500000  0.443347  0.126380  1
  Tm  Tm5  1  0.500000  0.556653  0.873620  1
  Tm  Tm6  1  0.500000  0.054789  0.628452  1
  Tm  Tm7  1  0.500000  0.945211  0.371548  1
  B  B8  1  0.000000  0.104980  0.472334  1
  B  B9  1  0.000000  0.895020  0.527666  1
  B  B10  1  0.000000  0.395041  0.970257  1
  B  B11  1  0.000000  0.604959  0.029743  1
  B  B12  1  0.000000  0.131862  0.317270  1
  B  B13  1  0.000000  0.868138  0.682730  1
  B  B14  1  0.000000  0.368260  0.816408  1
  B  B15  1  0.000000  0.631740  0.183592  1
  B  B16  1  0.000000  0.051620  0.065634  1
  B  B17  1  0.000000  0.948380  0.934366  1
  B  B18  1  0.000000  0.445663  0.566101  1
  B  B19  1  0.000000  0.554337  0.433899  1
  B  B20  1  0.000000  0.483752  0.287570  1
  B  B21  1  0.000000  0.516248  0.712430  1
  B  B22  1  0.000000  0.021017  0.786524  1
  B  B23  1  0.000000  0.978983  0.213476  1
  B  B24  1  0.000000  0.250566  0.078895  1
  B  B25  1  0.000000  0.749434  0.921105  1
  B  B26  1  0.000000  0.249804  0.579868  1
  B  B27  1  0.000000  0.750196  0.420132  1
  B  B28  1  0.000000  0.295794  0.235806  1
  B  B29  1  0.000000  0.704206  0.764194  1
  B  B30  1  0.000000  0.208336  0.734698  1
  B  B31  1  0.000000  0.791664  0.265302  1
  Mo  Mo32  1  0.500000  0.139175  0.180914  1
  Mo  Mo33  1  0.500000  0.860825  0.819086  1
  Rh  Rh34  1  0.500000  0.360961  0.679255  1
  Rh  Rh35  1  0.500000  0.639039  0.320745  1
