# generated using pymatgen
data_Mn5FeAs2P
_symmetry_space_group_name_H-M   'P 1'
_cell_length_a   6.28024800
_cell_length_b   6.28024582
_cell_length_c   3.37217000
_cell_angle_alpha   90.00000000
_cell_angle_beta   90.00000000
_cell_angle_gamma   120.40726239
_symmetry_Int_Tables_number   1
_chemical_formula_structural   Mn5FeAs2P
_chemical_formula_sum   'Mn5 Fe1 As2 P1'
_cell_volume   114.70875941
_cell_formula_units_Z   1
loop_
 _symmetry_equiv_pos_site_id
 _symmetry_equiv_pos_as_xyz
  1  'x, y, z'
loop_
 _atom_site_type_symbol
 _atom_site_label
 _atom_site_symmetry_multiplicity
 _atom_site_fract_x
 _atom_site_fract_y
 _atom_site_fract_z
 _atom_site_occupancy
  Mn  Mn0  1  0.752822  0.997716  0.000000  1
  Mn  Mn1  1  0.608812  0.608812  0.500000  1
  Mn  Mn2  1  0.997716  0.752822  0.000000  1
  Mn  Mn3  1  0.390745  0.998879  0.500000  1
  Mn  Mn4  1  0.998879  0.390745  0.500000  1
  Fe  Fe5  1  0.250163  0.250163  0.000000  1
  As  As6  1  0.333264  0.666628  0.000000  1
  As  As7  1  0.666628  0.333264  0.000000  1
  P  P8  1  0.000971  0.000971  0.500000  1
