# generated using pymatgen
data_Y4As6Ir5Ru2
_symmetry_space_group_name_H-M   'P 1'
_cell_length_a   7.27861080
_cell_length_b   7.27861067
_cell_length_c   7.27861020
_cell_angle_alpha   109.47529486
_cell_angle_beta   109.46305987
_cell_angle_gamma   109.47529983
_symmetry_Int_Tables_number   1
_chemical_formula_structural   Y4As6Ir5Ru2
_chemical_formula_sum   'Y4 As6 Ir5 Ru2'
_cell_volume   296.84079979
_cell_formula_units_Z   1
loop_
 _symmetry_equiv_pos_site_id
 _symmetry_equiv_pos_as_xyz
  1  'x, y, z'
loop_
 _atom_site_type_symbol
 _atom_site_label
 _atom_site_symmetry_multiplicity
 _atom_site_fract_x
 _atom_site_fract_y
 _atom_site_fract_z
 _atom_site_occupancy
  Y  Y0  1  0.000112  0.000222  0.500112  1
  Y  Y1  1  0.499888  0.999778  0.999888  1
  Y  Y2  1  0.000112  0.500000  0.999888  1
  Y  Y3  1  0.499888  0.500000  0.500112  1
  As  As4  1  0.679298  0.682155  0.997142  1
  As  As5  1  0.314986  0.317845  0.997142  1
  As  As6  1  0.002858  0.682155  0.685014  1
  As  As7  1  0.002858  0.317845  0.320702  1
  As  As8  1  0.683835  0.000000  0.683835  1
  As  As9  1  0.316165  0.000000  0.316165  1
  Ir  Ir10  1  0.749331  0.249362  0.499968  1
  Ir  Ir11  1  0.500032  0.249362  0.749394  1
  Ir  Ir12  1  0.500032  0.750638  0.250669  1
  Ir  Ir13  1  0.750000  0.500000  0.250000  1
  Ir  Ir14  1  0.250606  0.750638  0.499968  1
  Ru  Ru15  1  0.000000  0.000000  0.000000  1
  Ru  Ru16  1  0.250000  0.500000  0.750000  1
