# generated using pymatgen
data_Er4Al17Si(OsPd2)2
_symmetry_space_group_name_H-M   'P 1'
_cell_length_a   7.58667356
_cell_length_b   7.58667390
_cell_length_c   9.39040800
_cell_angle_alpha   90.00000000
_cell_angle_beta   90.00000000
_cell_angle_gamma   119.54418354
_symmetry_Int_Tables_number   1
_chemical_formula_structural   Er4Al17Si(OsPd2)2
_chemical_formula_sum   'Er4 Al17 Si1 Os2 Pd4'
_cell_volume   470.21275060
_cell_formula_units_Z   1
loop_
 _symmetry_equiv_pos_site_id
 _symmetry_equiv_pos_as_xyz
  1  'x, y, z'
loop_
 _atom_site_type_symbol
 _atom_site_label
 _atom_site_symmetry_multiplicity
 _atom_site_fract_x
 _atom_site_fract_y
 _atom_site_fract_z
 _atom_site_occupancy
  Er  Er0  1  0.993620  0.677096  0.250000  1
  Er  Er1  1  0.002917  0.329920  0.750000  1
  Er  Er2  1  0.677096  0.993620  0.250000  1
  Er  Er3  1  0.329920  0.002917  0.750000  1
  Al  Al4  1  0.877511  0.877511  0.750000  1
  Al  Al5  1  0.000165  0.333622  0.078356  1
  Al  Al6  1  0.000028  0.670287  0.923601  1
  Al  Al7  1  0.000028  0.670287  0.576399  1
  Al  Al8  1  0.333622  0.000165  0.421644  1
  Al  Al9  1  0.000165  0.333622  0.421644  1
  Al  Al10  1  0.670287  0.000028  0.576399  1
  Al  Al11  1  0.670287  0.000028  0.923601  1
  Al  Al12  1  0.333622  0.000165  0.078356  1
  Al  Al13  1  0.326874  0.326874  0.559582  1
  Al  Al14  1  0.667324  0.667324  0.447227  1
  Al  Al15  1  0.667324  0.667324  0.052773  1
  Al  Al16  1  0.326874  0.326874  0.940418  1
  Al  Al17  1  0.338813  0.548128  0.250000  1
  Al  Al18  1  0.659345  0.452635  0.750000  1
  Al  Al19  1  0.548128  0.338813  0.250000  1
  Al  Al20  1  0.452635  0.659345  0.750000  1
  Si  Si21  1  0.127971  0.127971  0.250000  1
  Os  Os22  1  0.000682  0.000682  0.007848  1
  Os  Os23  1  0.000682  0.000682  0.492152  1
  Pd  Pd24  1  0.670726  0.326314  0.999892  1
  Pd  Pd25  1  0.326314  0.670726  0.999892  1
  Pd  Pd26  1  0.326314  0.670726  0.500108  1
  Pd  Pd27  1  0.670726  0.326314  0.500108  1
