# generated using pymatgen
data_LiZr2(AsPd)3
_symmetry_space_group_name_H-M   'P 1'
_cell_length_a   6.79966700
_cell_length_b   6.88795154
_cell_length_c   3.80321200
_cell_angle_alpha   90.00000000
_cell_angle_beta   90.00000000
_cell_angle_gamma   119.57690233
_symmetry_Int_Tables_number   1
_chemical_formula_structural   LiZr2(AsPd)3
_chemical_formula_sum   'Li1 Zr2 As3 Pd3'
_cell_volume   154.91544787
_cell_formula_units_Z   1
loop_
 _symmetry_equiv_pos_site_id
 _symmetry_equiv_pos_as_xyz
  1  'x, y, z'
loop_
 _atom_site_type_symbol
 _atom_site_label
 _atom_site_symmetry_multiplicity
 _atom_site_fract_x
 _atom_site_fract_y
 _atom_site_fract_z
 _atom_site_occupancy
  Li  Li0  1  0.600020  0.000000  0.000000  1
  Zr  Zr1  1  0.996404  0.593992  0.000000  1
  Zr  Zr2  1  0.402413  0.406008  0.000000  1
  As  As3  1  0.326397  0.660288  0.500000  1
  As  As4  1  0.666110  0.339712  0.500000  1
  As  As5  1  0.005499  0.000000  0.000000  1
  Pd  Pd6  1  0.275151  0.000000  0.500000  1
  Pd  Pd7  1  0.988797  0.249588  0.500000  1
  Pd  Pd8  1  0.739209  0.750412  0.500000  1
