# generated using pymatgen
data_Dy3ErMn2(NiO6)2
_symmetry_space_group_name_H-M   'P 1'
_cell_length_a   5.60482516
_cell_length_b   5.25949960
_cell_length_c   9.17821036
_cell_angle_alpha   55.50490732
_cell_angle_beta   90.00606272
_cell_angle_gamma   89.98125531
_symmetry_Int_Tables_number   1
_chemical_formula_structural   Dy3ErMn2(NiO6)2
_chemical_formula_sum   'Dy3 Er1 Mn2 Ni2 O12'
_cell_volume   222.98914938
_cell_formula_units_Z   1
loop_
 _symmetry_equiv_pos_site_id
 _symmetry_equiv_pos_as_xyz
  1  'x, y, z'
loop_
 _atom_site_type_symbol
 _atom_site_label
 _atom_site_symmetry_multiplicity
 _atom_site_fract_x
 _atom_site_fract_y
 _atom_site_fract_z
 _atom_site_occupancy
  Dy  Dy0  1  0.573169  0.728970  0.751181  1
  Dy  Dy1  1  0.927361  0.728871  0.251111  1
  Dy  Dy2  1  0.427082  0.271437  0.248782  1
  Er  Er3  1  0.073754  0.271386  0.748623  1
  Mn  Mn4  1  0.499733  0.000225  0.999541  1
  Mn  Mn5  1  0.000228  0.999479  0.500600  1
  Ni  Ni6  1  0.500130  0.499461  0.500596  1
  Ni  Ni7  1  0.999929  0.500707  0.999297  1
  O  O8  1  0.962914  0.871571  0.742340  1
  O  O9  1  0.537341  0.867770  0.242239  1
  O  O10  1  0.036986  0.132481  0.257776  1
  O  O11  1  0.459962  0.132725  0.757557  1
  O  O12  1  0.815172  0.644839  0.554621  1
  O  O13  1  0.686299  0.647387  0.052717  1
  O  O14  1  0.186545  0.352283  0.447329  1
  O  O15  1  0.312735  0.352529  0.946285  1
  O  O16  1  0.705996  0.238911  0.442185  1
  O  O17  1  0.795373  0.239578  0.940543  1
  O  O18  1  0.292999  0.758617  0.558912  1
  O  O19  1  0.206294  0.760773  0.057764  1
