# generated using pymatgen
data_CePaS6
_symmetry_space_group_name_H-M   'P 1'
_cell_length_a   5.44317438
_cell_length_b   4.03229800
_cell_length_c   9.43651323
_cell_angle_alpha   90.00000000
_cell_angle_beta   94.41574480
_cell_angle_gamma   90.00000000
_symmetry_Int_Tables_number   1
_chemical_formula_structural   CePaS6
_chemical_formula_sum   'Ce1 Pa1 S6'
_cell_volume   206.50252144
_cell_formula_units_Z   1
loop_
 _symmetry_equiv_pos_site_id
 _symmetry_equiv_pos_as_xyz
  1  'x, y, z'
loop_
 _atom_site_type_symbol
 _atom_site_label
 _atom_site_symmetry_multiplicity
 _atom_site_fract_x
 _atom_site_fract_y
 _atom_site_fract_z
 _atom_site_occupancy
  Ce  Ce0  1  0.230526  0.250000  0.847482  1
  Pa  Pa1  1  0.769315  0.750001  0.145359  1
  S  S2  1  0.260206  0.750001  0.071232  1
  S  S3  1  0.985134  0.250000  0.316378  1
  S  S4  1  0.605848  0.250000  0.319545  1
  S  S5  1  0.392573  0.750001  0.672873  1
  S  S6  1  0.012485  0.750001  0.677399  1
  S  S7  1  0.743909  0.250000  0.949731  1
