# generated using pymatgen
data_Nb4Ga3TcN
_symmetry_space_group_name_H-M   'P 1'
_cell_length_a   7.68438000
_cell_length_b   7.68437975
_cell_length_c   5.31551400
_cell_angle_alpha   90.00000000
_cell_angle_beta   90.00000000
_cell_angle_gamma   120.00000109
_symmetry_Int_Tables_number   1
_chemical_formula_structural   Nb4Ga3TcN
_chemical_formula_sum   'Nb8 Ga6 Tc2 N2'
_cell_volume   271.82759640
_cell_formula_units_Z   2
loop_
 _symmetry_equiv_pos_site_id
 _symmetry_equiv_pos_as_xyz
  1  'x, y, z'
loop_
 _atom_site_type_symbol
 _atom_site_label
 _atom_site_symmetry_multiplicity
 _atom_site_fract_x
 _atom_site_fract_y
 _atom_site_fract_z
 _atom_site_occupancy
  Nb  Nb0  1  0.229663  0.000000  0.257085  1
  Nb  Nb1  1  0.770337  0.000000  0.742915  1
  Nb  Nb2  1  0.000000  0.229663  0.257085  1
  Nb  Nb3  1  0.000000  0.770337  0.742915  1
  Nb  Nb4  1  0.770337  0.770337  0.257085  1
  Nb  Nb5  1  0.229663  0.229663  0.742915  1
  Nb  Nb6  1  0.666667  0.333333  0.500000  1
  Nb  Nb7  1  0.333333  0.666667  0.500000  1
  Ga  Ga8  1  0.590052  0.000000  0.234041  1
  Ga  Ga9  1  0.409948  0.000000  0.765959  1
  Ga  Ga10  1  0.000000  0.590052  0.234041  1
  Ga  Ga11  1  0.000000  0.409948  0.765959  1
  Ga  Ga12  1  0.409948  0.409948  0.234041  1
  Ga  Ga13  1  0.590052  0.590052  0.765959  1
  Tc  Tc14  1  0.333333  0.666667  0.000000  1
  Tc  Tc15  1  0.666667  0.333333  0.000000  1
  N  N16  1  0.000000  0.000000  0.000000  1
  N  N17  1  0.000000  0.000000  0.500000  1
