# generated using pymatgen
data_Re3Tc2RuRh2
_symmetry_space_group_name_H-M   'P 1'
_cell_length_a   5.54081718
_cell_length_b   5.54081609
_cell_length_c   4.37250800
_cell_angle_alpha   90.00000000
_cell_angle_beta   90.00000000
_cell_angle_gamma   120.11909150
_symmetry_Int_Tables_number   1
_chemical_formula_structural   Re3Tc2RuRh2
_chemical_formula_sum   'Re3 Tc2 Ru1 Rh2'
_cell_volume   116.11447850
_cell_formula_units_Z   1
loop_
 _symmetry_equiv_pos_site_id
 _symmetry_equiv_pos_as_xyz
  1  'x, y, z'
loop_
 _atom_site_type_symbol
 _atom_site_label
 _atom_site_symmetry_multiplicity
 _atom_site_fract_x
 _atom_site_fract_y
 _atom_site_fract_z
 _atom_site_occupancy
  Re  Re0  1  0.158973  0.322392  0.250000  1
  Re  Re1  1  0.677608  0.841027  0.250000  1
  Re  Re2  1  0.161513  0.838487  0.250000  1
  Tc  Tc3  1  0.839023  0.677768  0.750000  1
  Tc  Tc4  1  0.322232  0.160977  0.750000  1
  Ru  Ru5  1  0.838071  0.161929  0.750000  1
  Rh  Rh6  1  0.334735  0.665265  0.750000  1
  Rh  Rh7  1  0.667843  0.332157  0.250000  1
