# generated using pymatgen
data_Ho6PuO12
_symmetry_space_group_name_H-M   'P 1'
_cell_length_a   6.50430296
_cell_length_b   6.52236459
_cell_length_c   6.52639028
_cell_angle_alpha   98.88497364
_cell_angle_beta   98.87942157
_cell_angle_gamma   98.73982657
_symmetry_Int_Tables_number   1
_chemical_formula_structural   Ho6PuO12
_chemical_formula_sum   'Ho6 Pu1 O12'
_cell_volume   265.85267806
_cell_formula_units_Z   1
loop_
 _symmetry_equiv_pos_site_id
 _symmetry_equiv_pos_as_xyz
  1  'x, y, z'
loop_
 _atom_site_type_symbol
 _atom_site_label
 _atom_site_symmetry_multiplicity
 _atom_site_fract_x
 _atom_site_fract_y
 _atom_site_fract_z
 _atom_site_occupancy
  Ho  Ho0  1  0.319316  0.609580  0.144931  1
  Ho  Ho1  1  0.612188  0.146262  0.322094  1
  Ho  Ho2  1  0.854877  0.680186  0.388974  1
  Ho  Ho3  1  0.145123  0.319814  0.611026  1
  Ho  Ho4  1  0.387812  0.853738  0.677906  1
  Ho  Ho5  1  0.680684  0.390420  0.855069  1
  Pu  Pu6  1  0.000000  0.000000  0.000000  1
  O  O7  1  0.924331  0.690419  0.045023  1
  O  O8  1  0.306167  0.956226  0.075375  1
  O  O9  1  0.588862  0.428898  0.177302  1
  O  O10  1  0.955008  0.077112  0.310212  1
  O  O11  1  0.569170  0.822495  0.410190  1
  O  O12  1  0.178158  0.588726  0.430094  1
  O  O13  1  0.821842  0.411274  0.569907  1
  O  O14  1  0.430831  0.177506  0.589811  1
  O  O15  1  0.044992  0.922889  0.689788  1
  O  O16  1  0.411138  0.571103  0.822698  1
  O  O17  1  0.693833  0.043775  0.924625  1
  O  O18  1  0.075669  0.309582  0.954977  1
