# generated using pymatgen
data_Tb2Th(SnIr)3
_symmetry_space_group_name_H-M   'P 1'
_cell_length_a   7.54788600
_cell_length_b   7.47107775
_cell_length_c   4.07125400
_cell_angle_alpha   90.00000000
_cell_angle_beta   90.00000000
_cell_angle_gamma   120.34067107
_symmetry_Int_Tables_number   1
_chemical_formula_structural   Tb2Th(SnIr)3
_chemical_formula_sum   'Tb2 Th1 Sn3 Ir3'
_cell_volume   198.13732743
_cell_formula_units_Z   1
loop_
 _symmetry_equiv_pos_site_id
 _symmetry_equiv_pos_as_xyz
  1  'x, y, z'
loop_
 _atom_site_type_symbol
 _atom_site_label
 _atom_site_symmetry_multiplicity
 _atom_site_fract_x
 _atom_site_fract_y
 _atom_site_fract_z
 _atom_site_occupancy
  Tb  Tb0  1  0.999751  0.593176  0.000000  1
  Tb  Tb1  1  0.406575  0.406824  0.000000  1
  Th  Th2  1  0.586599  0.000000  0.000000  1
  Sn  Sn3  1  0.245376  0.000000  0.500000  1
  Sn  Sn4  1  0.010293  0.264360  0.500000  1
  Sn  Sn5  1  0.745933  0.735640  0.500000  1
  Ir  Ir6  1  0.345157  0.679274  0.500000  1
  Ir  Ir7  1  0.665884  0.320726  0.500000  1
  Ir  Ir8  1  0.994433  0.000000  0.000000  1
