# generated using pymatgen
data_Y8TmLu3In20
_symmetry_space_group_name_H-M   'P 1'
_cell_length_a   6.54929602
_cell_length_b   10.36418000
_cell_length_c   12.19690803
_cell_angle_alpha   90.00000000
_cell_angle_beta   89.99144256
_cell_angle_gamma   90.00000000
_symmetry_Int_Tables_number   1
_chemical_formula_structural   Y8TmLu3In20
_chemical_formula_sum   'Y8 Tm1 Lu3 In20'
_cell_volume   827.90272428
_cell_formula_units_Z   1
loop_
 _symmetry_equiv_pos_site_id
 _symmetry_equiv_pos_as_xyz
  1  'x, y, z'
loop_
 _atom_site_type_symbol
 _atom_site_label
 _atom_site_symmetry_multiplicity
 _atom_site_fract_x
 _atom_site_fract_y
 _atom_site_fract_z
 _atom_site_occupancy
  Y  Y0  1  0.887126  0.488910  0.142033  1
  Y  Y1  1  0.612859  0.011122  0.642034  1
  Y  Y2  1  0.112763  0.988986  0.857878  1
  Y  Y3  1  0.387158  0.511121  0.357944  1
  Y  Y4  1  0.112763  0.511014  0.857878  1
  Y  Y5  1  0.387158  0.988879  0.357944  1
  Y  Y6  1  0.887126  0.011090  0.142033  1
  Y  Y7  1  0.612859  0.488878  0.642034  1
  Tm  Tm8  1  0.352918  0.750000  0.052469  1
  Lu  Lu9  1  0.147364  0.750000  0.552412  1
  Lu  Lu10  1  0.647331  0.250000  0.947571  1
  Lu  Lu11  1  0.852668  0.250000  0.447568  1
  In  In12  1  0.609975  0.750000  0.505425  1
  In  In13  1  0.889646  0.750000  0.005354  1
  In  In14  1  0.390016  0.250000  0.494582  1
  In  In15  1  0.110020  0.250000  0.994619  1
  In  In16  1  0.650558  0.750000  0.241919  1
  In  In17  1  0.849700  0.750000  0.741737  1
  In  In18  1  0.349702  0.250000  0.758249  1
  In  In19  1  0.150314  0.250000  0.258230  1
  In  In20  1  0.117339  0.750000  0.278055  1
  In  In21  1  0.382551  0.750000  0.777860  1
  In  In22  1  0.882580  0.250000  0.722081  1
  In  In23  1  0.617424  0.250000  0.222069  1
  In  In24  1  0.871572  0.543227  0.401549  1
  In  In25  1  0.628501  0.956822  0.901537  1
  In  In26  1  0.128435  0.043193  0.598460  1
  In  In27  1  0.371533  0.456604  0.098464  1
  In  In28  1  0.128435  0.456807  0.598460  1
  In  In29  1  0.371533  0.043396  0.098464  1
  In  In30  1  0.871572  0.956773  0.401549  1
  In  In31  1  0.628501  0.543178  0.901537  1
