# generated using pymatgen
data_Tb3YCuPt3
_symmetry_space_group_name_H-M   'P 1'
_cell_length_a   4.55588800
_cell_length_b   5.58220892
_cell_length_c   7.04775824
_cell_angle_alpha   89.65378186
_cell_angle_beta   90.00000000
_cell_angle_gamma   90.00000000
_symmetry_Int_Tables_number   1
_chemical_formula_structural   Tb3YCuPt3
_chemical_formula_sum   'Tb3 Y1 Cu1 Pt3'
_cell_volume   179.23474190
_cell_formula_units_Z   1
loop_
 _symmetry_equiv_pos_site_id
 _symmetry_equiv_pos_as_xyz
  1  'x, y, z'
loop_
 _atom_site_type_symbol
 _atom_site_label
 _atom_site_symmetry_multiplicity
 _atom_site_fract_x
 _atom_site_fract_y
 _atom_site_fract_z
 _atom_site_occupancy
  Tb  Tb0  1  0.000000  0.856341  0.819480  1
  Tb  Tb1  1  0.500000  0.365416  0.688053  1
  Tb  Tb2  1  0.500000  0.139258  0.176817  1
  Y  Y3  1  0.000000  0.640524  0.316269  1
  Cu  Cu4  1  0.000000  0.136046  0.463757  1
  Pt  Pt5  1  0.000000  0.340652  0.955403  1
  Pt  Pt6  1  0.500000  0.867350  0.534385  1
  Pt  Pt7  1  0.500000  0.654414  0.045837  1
