# generated using pymatgen
data_Y2Ga4CuIr
_symmetry_space_group_name_H-M   'P 1'
_cell_length_a   6.68705600
_cell_length_b   5.53426180
_cell_length_c   5.53426270
_cell_angle_alpha   45.49675526
_cell_angle_beta   90.00000000
_cell_angle_gamma   90.00000000
_symmetry_Int_Tables_number   1
_chemical_formula_structural   Y2Ga4CuIr
_chemical_formula_sum   'Y2 Ga4 Cu1 Ir1'
_cell_volume   146.07379529
_cell_formula_units_Z   1
loop_
 _symmetry_equiv_pos_site_id
 _symmetry_equiv_pos_as_xyz
  1  'x, y, z'
loop_
 _atom_site_type_symbol
 _atom_site_label
 _atom_site_symmetry_multiplicity
 _atom_site_fract_x
 _atom_site_fract_y
 _atom_site_fract_z
 _atom_site_occupancy
  Y  Y0  1  0.500000  0.081166  0.081166  1
  Y  Y1  1  0.000000  0.918846  0.918846  1
  Ga  Ga2  1  0.307151  0.366677  0.366677  1
  Ga  Ga3  1  0.692849  0.366677  0.366677  1
  Ga  Ga4  1  0.199577  0.633558  0.633558  1
  Ga  Ga5  1  0.800422  0.633558  0.633558  1
  Cu  Cu6  1  0.500000  0.793725  0.793725  1
  Ir  Ir7  1  0.000000  0.205789  0.205789  1
