# generated using pymatgen
data_Zr3Bi4IrF28
_symmetry_space_group_name_H-M   'P 1'
_cell_length_a   5.78619306
_cell_length_b   9.32187248
_cell_length_c   12.45284000
_cell_angle_alpha   61.99858021
_cell_angle_beta   89.99183072
_cell_angle_gamma   89.89207555
_symmetry_Int_Tables_number   1
_chemical_formula_structural   Zr3Bi4IrF28
_chemical_formula_sum   'Zr3 Bi4 Ir1 F28'
_cell_volume   593.05198897
_cell_formula_units_Z   1
loop_
 _symmetry_equiv_pos_site_id
 _symmetry_equiv_pos_as_xyz
  1  'x, y, z'
loop_
 _atom_site_type_symbol
 _atom_site_label
 _atom_site_symmetry_multiplicity
 _atom_site_fract_x
 _atom_site_fract_y
 _atom_site_fract_z
 _atom_site_occupancy
  Zr  Zr0  1  0.755572  0.274766  0.957072  1
  Zr  Zr1  1  0.255614  0.723595  0.543637  1
  Zr  Zr2  1  0.244349  0.725255  0.043303  1
  Bi  Bi3  1  0.758318  0.817639  0.763029  1
  Bi  Bi4  1  0.261070  0.182766  0.732927  1
  Bi  Bi5  1  0.237850  0.183589  0.242921  1
  Bi  Bi6  1  0.741527  0.817649  0.263659  1
  Ir  Ir7  1  0.740937  0.271923  0.457002  1
  F  F8  1  0.454494  0.711433  0.917535  1
  F  F9  1  0.928709  0.290378  0.580704  1
  F  F10  1  0.542511  0.287870  0.081529  1
  F  F11  1  0.048574  0.711836  0.416587  1
  F  F12  1  0.451963  0.280355  0.542749  1
  F  F13  1  0.948079  0.724075  0.951965  1
  F  F14  1  0.552464  0.720070  0.454964  1
  F  F15  1  0.046885  0.274733  0.051458  1
  F  F16  1  0.774315  0.520001  0.860812  1
  F  F17  1  0.268075  0.478943  0.640192  1
  F  F18  1  0.223514  0.481124  0.139442  1
  F  F19  1  0.732953  0.506674  0.361331  1
  F  F20  1  0.759480  0.025373  0.059953  1
  F  F21  1  0.262708  0.972806  0.444256  1
  F  F22  1  0.239713  0.973779  0.938536  1
  F  F23  1  0.741971  0.034252  0.548774  1
  F  F24  1  0.975051  0.734027  0.639118  1
  F  F25  1  0.480819  0.264906  0.857573  1
  F  F26  1  0.024523  0.269589  0.365922  1
  F  F27  1  0.523241  0.732735  0.140219  1
  F  F28  1  0.047275  0.751671  0.169725  1
  F  F29  1  0.556436  0.257397  0.328929  1
  F  F30  1  0.959860  0.251301  0.831237  1
  F  F31  1  0.454615  0.747217  0.671156  1
  F  F32  1  0.413445  0.971191  0.233728  1
  F  F33  1  0.913319  0.028692  0.271122  1
  F  F34  1  0.589829  0.031856  0.769437  1
  F  F35  1  0.089938  0.968531  0.727501  1
