# generated using pymatgen
data_ErTm4Lu7Co5Pb
_symmetry_space_group_name_H-M   'P 1'
_cell_length_a   8.13190581
_cell_length_b   8.12724136
_cell_length_c   8.13190600
_cell_angle_alpha   111.05735775
_cell_angle_beta   110.91555391
_cell_angle_gamma   106.50356171
_symmetry_Int_Tables_number   1
_chemical_formula_structural   ErTm4Lu7Co5Pb
_chemical_formula_sum   'Er1 Tm4 Lu7 Co5 Pb1'
_cell_volume   412.77317190
_cell_formula_units_Z   1
loop_
 _symmetry_equiv_pos_site_id
 _symmetry_equiv_pos_as_xyz
  1  'x, y, z'
loop_
 _atom_site_type_symbol
 _atom_site_label
 _atom_site_symmetry_multiplicity
 _atom_site_fract_x
 _atom_site_fract_y
 _atom_site_fract_z
 _atom_site_occupancy
  Er  Er0  1  0.788117  0.981541  0.193424  1
  Tm  Tm1  1  0.287116  0.185692  0.471927  1
  Tm  Tm2  1  0.714866  0.815291  0.530843  1
  Tm  Tm3  1  0.284449  0.815291  0.100425  1
  Tm  Tm4  1  0.713766  0.185692  0.898577  1
  Lu  Lu5  1  0.619781  0.312861  0.307861  1
  Lu  Lu6  1  0.379181  0.686801  0.691360  1
  Lu  Lu7  1  0.005001  0.312861  0.693079  1
  Lu  Lu8  1  0.995439  0.686801  0.307620  1
  Lu  Lu9  1  0.211894  0.405686  0.193793  1
  Lu  Lu10  1  0.787693  0.592662  0.804969  1
  Lu  Lu11  1  0.212223  0.017793  0.805569  1
  Co  Co12  1  0.000505  0.375834  0.375328  1
  Co  Co13  1  0.999582  0.625575  0.625993  1
  Co  Co14  1  0.386893  0.886542  0.499649  1
  Co  Co15  1  0.612731  0.114364  0.501632  1
  Co  Co16  1  0.001051  0.999106  0.998055  1
  Pb  Pb17  1  0.499711  0.499605  0.999893  1
