# generated using pymatgen
data_NaSr21Ga8Sn5Pb
_symmetry_space_group_name_H-M   'P 1'
_cell_length_a   12.18281627
_cell_length_b   12.18315734
_cell_length_c   12.18281607
_cell_angle_alpha   59.99907211
_cell_angle_beta   60.00186409
_cell_angle_gamma   59.99907245
_symmetry_Int_Tables_number   1
_chemical_formula_structural   NaSr21Ga8Sn5Pb
_chemical_formula_sum   'Na1 Sr21 Ga8 Sn5 Pb1'
_cell_volume   1278.61638410
_cell_formula_units_Z   1
loop_
 _symmetry_equiv_pos_site_id
 _symmetry_equiv_pos_as_xyz
  1  'x, y, z'
loop_
 _atom_site_type_symbol
 _atom_site_label
 _atom_site_symmetry_multiplicity
 _atom_site_fract_x
 _atom_site_fract_y
 _atom_site_fract_z
 _atom_site_occupancy
  Na  Na0  1  0.500022  0.499978  0.500022  1
  Sr  Sr1  1  0.869325  0.869219  0.392237  1
  Sr  Sr2  1  0.607372  0.130515  0.131600  1
  Sr  Sr3  1  0.869485  0.392628  0.869485  1
  Sr  Sr4  1  0.130781  0.130675  0.130781  1
  Sr  Sr5  1  0.392237  0.869219  0.869325  1
  Sr  Sr6  1  0.869485  0.868400  0.869485  1
  Sr  Sr7  1  0.172120  0.827880  0.500060  1
  Sr  Sr8  1  0.827933  0.500764  0.499236  1
  Sr  Sr9  1  0.131600  0.130515  0.607372  1
  Sr  Sr10  1  0.827933  0.172067  0.499236  1
  Sr  Sr11  1  0.172120  0.499940  0.500060  1
  Sr  Sr12  1  0.130781  0.607763  0.130781  1
  Sr  Sr13  1  0.500060  0.499940  0.172120  1
  Sr  Sr14  1  0.499236  0.172067  0.827933  1
  Sr  Sr15  1  0.500060  0.827880  0.172120  1
  Sr  Sr16  1  0.499236  0.500764  0.827933  1
  Sr  Sr17  1  0.499976  0.172297  0.499976  1
  Sr  Sr18  1  0.172251  0.500024  0.827703  1
  Sr  Sr19  1  0.000505  0.999495  0.000505  1
  Sr  Sr20  1  0.499976  0.827749  0.499976  1
  Sr  Sr21  1  0.827703  0.500024  0.172251  1
  Ga  Ga22  1  0.693075  0.920891  0.693075  1
  Ga  Ga23  1  0.693039  0.693061  0.920840  1
  Ga  Ga24  1  0.693075  0.692960  0.693075  1
  Ga  Ga25  1  0.306939  0.079160  0.306939  1
  Ga  Ga26  1  0.920840  0.693061  0.693039  1
  Ga  Ga27  1  0.307040  0.306925  0.079109  1
  Ga  Ga28  1  0.079109  0.306925  0.307040  1
  Ga  Ga29  1  0.306939  0.306961  0.306939  1
  Sn  Sn30  1  0.784523  0.215477  0.215348  1
  Sn  Sn31  1  0.215471  0.784529  0.215471  1
  Sn  Sn32  1  0.215348  0.784652  0.784523  1
  Sn  Sn33  1  0.784523  0.784652  0.215348  1
  Sn  Sn34  1  0.215348  0.215477  0.784523  1
  Pb  Pb35  1  0.784533  0.215467  0.784533  1
