# generated using pymatgen
data_H8Pd3
_symmetry_space_group_name_H-M   'P 1'
_cell_length_a   2.88786774
_cell_length_b   6.34084507
_cell_length_c   7.58387554
_cell_angle_alpha   78.58727239
_cell_angle_beta   100.55864646
_cell_angle_gamma   90.18774345
_symmetry_Int_Tables_number   1
_chemical_formula_structural   H8Pd3
_chemical_formula_sum   'H8 Pd3'
_cell_volume   133.74309497
_cell_formula_units_Z   1
loop_
 _symmetry_equiv_pos_site_id
 _symmetry_equiv_pos_as_xyz
  1  'x, y, z'
loop_
 _atom_site_type_symbol
 _atom_site_label
 _atom_site_symmetry_multiplicity
 _atom_site_fract_x
 _atom_site_fract_y
 _atom_site_fract_z
 _atom_site_occupancy
  H  H0  1  0.273001  0.402234  0.661293  1
  H  H1  1  0.028114  0.644196  0.173333  1
  H  H2  1  0.366052  0.639497  0.849557  1
  H  H3  1  0.823872  0.071985  0.755871  1
  H  H4  1  0.832946  0.951683  0.763880  1
  H  H5  1  0.694438  0.653753  0.506509  1
  H  H6  1  0.942581  0.387482  0.000296  1
  H  H7  1  0.610927  0.392664  0.337599  1
  Pd  Pd8  1  0.487089  0.511064  0.090443  1
  Pd  Pd9  1  0.818865  0.521998  0.754438  1
  Pd  Pd10  1  0.151601  0.526914  0.419537  1
