# generated using pymatgen
data_Tb6MoO12
_symmetry_space_group_name_H-M   'P 1'
_cell_length_a   6.51725966
_cell_length_b   6.51725835
_cell_length_c   6.51725935
_cell_angle_alpha   98.51721476
_cell_angle_beta   98.51721656
_cell_angle_gamma   98.51720906
_symmetry_Int_Tables_number   1
_chemical_formula_structural   Tb6MoO12
_chemical_formula_sum   'Tb6 Mo1 O12'
_cell_volume   266.62308712
_cell_formula_units_Z   1
loop_
 _symmetry_equiv_pos_site_id
 _symmetry_equiv_pos_as_xyz
  1  'x, y, z'
loop_
 _atom_site_type_symbol
 _atom_site_label
 _atom_site_symmetry_multiplicity
 _atom_site_fract_x
 _atom_site_fract_y
 _atom_site_fract_z
 _atom_site_occupancy
  Tb  Tb0  1  0.612046  0.314761  0.144310  1
  Tb  Tb1  1  0.144309  0.612046  0.314762  1
  Tb  Tb2  1  0.685238  0.855690  0.387955  1
  Tb  Tb3  1  0.314762  0.144310  0.612046  1
  Tb  Tb4  1  0.855691  0.387955  0.685239  1
  Tb  Tb5  1  0.387954  0.685239  0.855692  1
  Mo  Mo6  1  0.000000  0.000000  0.000000  1
  O  O7  1  0.704236  0.925690  0.034262  1
  O  O8  1  0.965737  0.295764  0.074309  1
  O  O9  1  0.434426  0.591676  0.177480  1
  O  O10  1  0.074309  0.965738  0.295763  1
  O  O11  1  0.822520  0.565574  0.408323  1
  O  O12  1  0.591678  0.177480  0.434426  1
  O  O13  1  0.408323  0.822520  0.565573  1
  O  O14  1  0.177480  0.434426  0.591678  1
  O  O15  1  0.925691  0.034262  0.704236  1
  O  O16  1  0.565574  0.408323  0.822519  1
  O  O17  1  0.034263  0.704236  0.925690  1
  O  O18  1  0.295764  0.074309  0.965737  1
