# generated using pymatgen
data_Dy18Tm2Bi3Pb13
_symmetry_space_group_name_H-M   'P 1'
_cell_length_a   8.28267125
_cell_length_b   15.62545476
_cell_length_c   8.30949400
_cell_angle_alpha   90.12286800
_cell_angle_beta   89.94197559
_cell_angle_gamma   89.74423446
_symmetry_Int_Tables_number   1
_chemical_formula_structural   Dy18Tm2Bi3Pb13
_chemical_formula_sum   'Dy18 Tm2 Bi3 Pb13'
_cell_volume   1075.40515936
_cell_formula_units_Z   1
loop_
 _symmetry_equiv_pos_site_id
 _symmetry_equiv_pos_as_xyz
  1  'x, y, z'
loop_
 _atom_site_type_symbol
 _atom_site_label
 _atom_site_symmetry_multiplicity
 _atom_site_fract_x
 _atom_site_fract_y
 _atom_site_fract_z
 _atom_site_occupancy
  Dy  Dy0  1  0.617446  0.621060  0.161367  1
  Dy  Dy1  1  0.114299  0.878673  0.341144  1
  Dy  Dy2  1  0.384636  0.122029  0.842160  1
  Dy  Dy3  1  0.881527  0.378466  0.657463  1
  Dy  Dy4  1  0.377821  0.378976  0.841144  1
  Dy  Dy5  1  0.879854  0.120881  0.660363  1
  Dy  Dy6  1  0.620166  0.879793  0.159434  1
  Dy  Dy7  1  0.120372  0.621297  0.340857  1
  Dy  Dy8  1  0.452803  0.603945  0.667787  1
  Dy  Dy9  1  0.944996  0.893268  0.829871  1
  Dy  Dy10  1  0.554881  0.106692  0.330175  1
  Dy  Dy11  1  0.048469  0.396279  0.175484  1
  Dy  Dy12  1  0.541670  0.397633  0.330800  1
  Dy  Dy13  1  0.040716  0.104271  0.170203  1
  Dy  Dy14  1  0.459611  0.895890  0.671070  1
  Dy  Dy15  1  0.961239  0.602887  0.823039  1
  Dy  Dy16  1  0.787247  0.749614  0.497830  1
  Dy  Dy17  1  0.287003  0.746759  0.000954  1
  Tm  Tm18  1  0.213539  0.252338  0.502091  1
  Tm  Tm19  1  0.713103  0.248690  0.998712  1
  Bi  Bi20  1  0.724827  0.454324  0.974501  1
  Bi  Bi21  1  0.227929  0.045967  0.523144  1
  Bi  Bi22  1  0.271801  0.954580  0.022877  1
  Pb  Pb23  1  0.777487  0.543576  0.471806  1
  Pb  Pb24  1  0.277237  0.543175  0.029636  1
  Pb  Pb25  1  0.776908  0.956272  0.472120  1
  Pb  Pb26  1  0.722295  0.044370  0.972204  1
  Pb  Pb27  1  0.219680  0.456244  0.530983  1
  Pb  Pb28  1  0.423811  0.752490  0.371282  1
  Pb  Pb29  1  0.923396  0.749050  0.127408  1
  Pb  Pb30  1  0.574975  0.250860  0.629191  1
  Pb  Pb31  1  0.075067  0.249164  0.871948  1
  Pb  Pb32  1  0.644354  0.748679  0.848598  1
  Pb  Pb33  1  0.146271  0.751507  0.650943  1
  Pb  Pb34  1  0.355961  0.249713  0.153453  1
  Pb  Pb35  1  0.856599  0.250590  0.347959  1
