# generated using pymatgen
data_ErLu6Co6Sn22Hg
_symmetry_space_group_name_H-M   'P 1'
_cell_length_a   9.61017000
_cell_length_b   9.61016919
_cell_length_c   9.99274400
_cell_angle_alpha   90.00000000
_cell_angle_beta   90.00000000
_cell_angle_gamma   119.99999589
_symmetry_Int_Tables_number   1
_chemical_formula_structural   ErLu6Co6Sn22Hg
_chemical_formula_sum   'Er1 Lu6 Co6 Sn22 Hg1'
_cell_volume   799.24055955
_cell_formula_units_Z   1
loop_
 _symmetry_equiv_pos_site_id
 _symmetry_equiv_pos_as_xyz
  1  'x, y, z'
loop_
 _atom_site_type_symbol
 _atom_site_label
 _atom_site_symmetry_multiplicity
 _atom_site_fract_x
 _atom_site_fract_y
 _atom_site_fract_z
 _atom_site_occupancy
  Er  Er0  1  0.000000  0.000000  0.000000  1
  Lu  Lu1  1  0.481500  0.518500  0.306370  1
  Lu  Lu2  1  0.518500  0.481500  0.693630  1
  Lu  Lu3  1  0.481500  0.963000  0.306370  1
  Lu  Lu4  1  0.518500  0.037000  0.693630  1
  Lu  Lu5  1  0.037000  0.518500  0.306370  1
  Lu  Lu6  1  0.963000  0.481500  0.693630  1
  Co  Co7  1  0.830787  0.169213  0.198351  1
  Co  Co8  1  0.169213  0.830787  0.801649  1
  Co  Co9  1  0.830787  0.661574  0.198351  1
  Co  Co10  1  0.169213  0.338426  0.801649  1
  Co  Co11  1  0.338426  0.169213  0.198351  1
  Co  Co12  1  0.661574  0.830787  0.801649  1
  Sn  Sn13  1  0.346383  0.000000  0.000000  1
  Sn  Sn14  1  0.653617  0.000000  0.000000  1
  Sn  Sn15  1  0.000000  0.346383  0.000000  1
  Sn  Sn16  1  0.000000  0.653617  0.000000  1
  Sn  Sn17  1  0.653617  0.653617  0.000000  1
  Sn  Sn18  1  0.346383  0.346383  0.000000  1
  Sn  Sn19  1  0.333333  0.666667  0.819686  1
  Sn  Sn20  1  0.666667  0.333333  0.180314  1
  Sn  Sn21  1  0.782173  0.217827  0.455545  1
  Sn  Sn22  1  0.217827  0.782173  0.544455  1
  Sn  Sn23  1  0.782173  0.564347  0.455545  1
  Sn  Sn24  1  0.217827  0.435653  0.544455  1
  Sn  Sn25  1  0.435653  0.217827  0.455545  1
  Sn  Sn26  1  0.564347  0.782173  0.544455  1
  Sn  Sn27  1  0.333333  0.666667  0.126028  1
  Sn  Sn28  1  0.666667  0.333333  0.873972  1
  Sn  Sn29  1  0.117893  0.882107  0.269669  1
  Sn  Sn30  1  0.882107  0.117893  0.730331  1
  Sn  Sn31  1  0.117893  0.235784  0.269669  1
  Sn  Sn32  1  0.882107  0.764216  0.730331  1
  Sn  Sn33  1  0.764216  0.882107  0.269669  1
  Sn  Sn34  1  0.235784  0.117893  0.730331  1
  Hg  Hg35  1  0.000000  0.000000  0.500000  1
