# generated using pymatgen
data_Pr17Sm2DyPb16
_symmetry_space_group_name_H-M   'P 1'
_cell_length_a   8.47556000
_cell_length_b   8.59803406
_cell_length_c   16.34168400
_cell_angle_alpha   90.00000000
_cell_angle_beta   90.00000000
_cell_angle_gamma   89.99302964
_symmetry_Int_Tables_number   1
_chemical_formula_structural   Pr17Sm2DyPb16
_chemical_formula_sum   'Pr17 Sm2 Dy1 Pb16'
_cell_volume   1190.87003921
_cell_formula_units_Z   1
loop_
 _symmetry_equiv_pos_site_id
 _symmetry_equiv_pos_as_xyz
  1  'x, y, z'
loop_
 _atom_site_type_symbol
 _atom_site_label
 _atom_site_symmetry_multiplicity
 _atom_site_fract_x
 _atom_site_fract_y
 _atom_site_fract_z
 _atom_site_occupancy
  Pr  Pr0  1  0.378672  0.841797  0.881331  1
  Pr  Pr1  1  0.876841  0.659157  0.618541  1
  Pr  Pr2  1  0.622644  0.158570  0.381019  1
  Pr  Pr3  1  0.122534  0.341323  0.119644  1
  Pr  Pr4  1  0.622644  0.158570  0.118981  1
  Pr  Pr5  1  0.122534  0.341323  0.380356  1
  Pr  Pr6  1  0.378672  0.841797  0.618669  1
  Pr  Pr7  1  0.876841  0.659157  0.881459  1
  Pr  Pr8  1  0.533077  0.320787  0.899512  1
  Pr  Pr9  1  0.032436  0.176771  0.600843  1
  Pr  Pr10  1  0.466781  0.677789  0.398556  1
  Pr  Pr11  1  0.966920  0.822110  0.100864  1
  Pr  Pr12  1  0.466781  0.677789  0.101444  1
  Pr  Pr13  1  0.966920  0.822110  0.399136  1
  Pr  Pr14  1  0.533077  0.320787  0.600488  1
  Pr  Pr15  1  0.032436  0.176771  0.899157  1
  Pr  Pr16  1  0.208140  0.502303  0.750000  1
  Sm  Sm17  1  0.791125  0.497282  0.250000  1
  Sm  Sm18  1  0.291290  0.003212  0.250000  1
  Dy  Dy19  1  0.709425  0.996019  0.750000  1
  Pb  Pb20  1  0.280990  0.031246  0.045448  1
  Pb  Pb21  1  0.781079  0.469205  0.454534  1
  Pb  Pb22  1  0.719347  0.969711  0.545832  1
  Pb  Pb23  1  0.218820  0.532089  0.956292  1
  Pb  Pb24  1  0.719347  0.969711  0.954168  1
  Pb  Pb25  1  0.218820  0.532089  0.543708  1
  Pb  Pb26  1  0.280990  0.031246  0.454552  1
  Pb  Pb27  1  0.781079  0.469205  0.045466  1
  Pb  Pb28  1  0.576159  0.627920  0.750000  1
  Pb  Pb29  1  0.071345  0.878402  0.750000  1
  Pb  Pb30  1  0.427302  0.375012  0.250000  1
  Pb  Pb31  1  0.926495  0.124355  0.250000  1
  Pb  Pb32  1  0.343953  0.147538  0.750000  1
  Pb  Pb33  1  0.839347  0.346015  0.750000  1
  Pb  Pb34  1  0.657427  0.849359  0.250000  1
  Pb  Pb35  1  0.157714  0.651472  0.250000  1
