# generated using pymatgen
data_Dy5Er3(TmRu2)2
_symmetry_space_group_name_H-M   'P 1'
_cell_length_a   6.30174377
_cell_length_b   7.27231198
_cell_length_c   8.42584220
_cell_angle_alpha   96.78397650
_cell_angle_beta   111.98972315
_cell_angle_gamma   89.92255475
_symmetry_Int_Tables_number   1
_chemical_formula_structural   Dy5Er3(TmRu2)2
_chemical_formula_sum   'Dy5 Er3 Tm2 Ru4'
_cell_volume   355.15756421
_cell_formula_units_Z   1
loop_
 _symmetry_equiv_pos_site_id
 _symmetry_equiv_pos_as_xyz
  1  'x, y, z'
loop_
 _atom_site_type_symbol
 _atom_site_label
 _atom_site_symmetry_multiplicity
 _atom_site_fract_x
 _atom_site_fract_y
 _atom_site_fract_z
 _atom_site_occupancy
  Dy  Dy0  1  0.790817  0.083703  0.813303  1
  Dy  Dy1  1  0.977000  0.416236  0.186468  1
  Dy  Dy2  1  0.209563  0.915996  0.186697  1
  Dy  Dy3  1  0.022624  0.584046  0.813553  1
  Dy  Dy4  1  0.206063  0.184736  0.565595  1
  Er  Er5  1  0.640173  0.315517  0.434247  1
  Er  Er6  1  0.793729  0.815404  0.434086  1
  Er  Er7  1  0.360037  0.684528  0.565566  1
  Tm  Tm8  1  0.419824  0.249781  0.000237  1
  Tm  Tm9  1  0.580386  0.750281  0.000106  1
  Ru  Ru10  1  0.602409  0.424556  0.780302  1
  Ru  Ru11  1  0.821290  0.076156  0.219424  1
  Ru  Ru12  1  0.398076  0.575701  0.220022  1
  Ru  Ru13  1  0.178010  0.923360  0.780395  1
