# generated using pymatgen
data_Sm5YC2Br11
_symmetry_space_group_name_H-M   'P 1'
_cell_length_a   9.18534743
_cell_length_b   10.27291797
_cell_length_c   14.32450600
_cell_angle_alpha   88.29861002
_cell_angle_beta   104.17967763
_cell_angle_gamma   109.96084123
_symmetry_Int_Tables_number   1
_chemical_formula_structural   Sm5YC2Br11
_chemical_formula_sum   'Sm10 Y2 C4 Br22'
_cell_volume   1229.59787805
_cell_formula_units_Z   2
loop_
 _symmetry_equiv_pos_site_id
 _symmetry_equiv_pos_as_xyz
  1  'x, y, z'
loop_
 _atom_site_type_symbol
 _atom_site_label
 _atom_site_symmetry_multiplicity
 _atom_site_fract_x
 _atom_site_fract_y
 _atom_site_fract_z
 _atom_site_occupancy
  Sm  Sm0  1  0.415713  0.787563  0.269575  1
  Sm  Sm1  1  0.584287  0.212437  0.730425  1
  Sm  Sm2  1  0.627391  0.568142  0.373399  1
  Sm  Sm3  1  0.372609  0.431858  0.626601  1
  Sm  Sm4  1  0.843034  0.641502  0.198625  1
  Sm  Sm5  1  0.156966  0.358498  0.801375  1
  Sm  Sm6  1  0.629914  0.856374  0.090523  1
  Sm  Sm7  1  0.370086  0.143626  0.909477  1
  Sm  Sm8  1  0.870351  0.960699  0.347775  1
  Sm  Sm9  1  0.129649  0.039301  0.652225  1
  Y  Y10  1  0.374369  0.469815  0.121289  1
  Y  Y11  1  0.625631  0.530185  0.878711  1
  C  C12  1  0.433954  0.346304  0.797352  1
  C  C13  1  0.566046  0.653696  0.202648  1
  C  C14  1  0.313946  0.230602  0.741004  1
  C  C15  1  0.686054  0.769398  0.258996  1
  Br  Br16  1  0.385719  0.308387  0.277617  1
  Br  Br17  1  0.614281  0.691613  0.722383  1
  Br  Br18  1  0.126557  0.561293  0.150834  1
  Br  Br19  1  0.873443  0.438707  0.849166  1
  Br  Br20  1  0.620291  0.381250  0.062390  1
  Br  Br21  1  0.379709  0.618750  0.937610  1
  Br  Br22  1  0.120835  0.208946  0.481715  1
  Br  Br23  1  0.879165  0.791054  0.518285  1
  Br  Br24  1  0.617575  0.033436  0.388567  1
  Br  Br25  1  0.382425  0.966564  0.611433  1
  Br  Br26  1  0.126287  0.865804  0.302689  1
  Br  Br27  1  0.873713  0.134196  0.697311  1
  Br  Br28  1  0.132230  0.535701  0.649076  1
  Br  Br29  1  0.867770  0.464299  0.350924  1
  Br  Br30  1  0.619588  0.374845  0.560568  1
  Br  Br31  1  0.380412  0.625155  0.439432  1
  Br  Br32  1  0.143280  0.224043  0.984994  1
  Br  Br33  1  0.856720  0.775957  0.015006  1
  Br  Br34  1  0.624559  0.045553  0.900916  1
  Br  Br35  1  0.375441  0.954447  0.099084  1
  Br  Br36  1  0.128827  0.887877  0.823926  1
  Br  Br37  1  0.871173  0.112123  0.176074  1
