# generated using pymatgen
data_V6Ga5Co12Si
_symmetry_space_group_name_H-M   'P 1'
_cell_length_a   4.06560600
_cell_length_b   5.75795800
_cell_length_c   12.20193600
_cell_angle_alpha   90.00000000
_cell_angle_beta   89.99830922
_cell_angle_gamma   90.00000000
_symmetry_Int_Tables_number   1
_chemical_formula_structural   V6Ga5Co12Si
_chemical_formula_sum   'V6 Ga5 Co12 Si1'
_cell_volume   285.64230173
_cell_formula_units_Z   1
loop_
 _symmetry_equiv_pos_site_id
 _symmetry_equiv_pos_as_xyz
  1  'x, y, z'
loop_
 _atom_site_type_symbol
 _atom_site_label
 _atom_site_symmetry_multiplicity
 _atom_site_fract_x
 _atom_site_fract_y
 _atom_site_fract_z
 _atom_site_occupancy
  V  V0  1  0.000000  0.000000  0.000000  1
  V  V1  1  0.500243  0.500000  0.167708  1
  V  V2  1  0.000221  0.000000  0.333035  1
  V  V3  1  0.500000  0.500000  0.500000  1
  V  V4  1  0.999778  0.000000  0.666965  1
  V  V5  1  0.499756  0.500000  0.832292  1
  Ga  Ga6  1  0.500362  0.000000  0.165489  1
  Ga  Ga7  1  0.000400  0.500000  0.332600  1
  Ga  Ga8  1  0.500000  0.000000  0.500000  1
  Ga  Ga9  1  0.999599  0.500000  0.667400  1
  Ga  Ga10  1  0.499637  0.000000  0.834511  1
  Co  Co11  1  0.500000  0.260230  0.000000  1
  Co  Co12  1  0.500000  0.739770  0.000000  1
  Co  Co13  1  0.000120  0.255648  0.161535  1
  Co  Co14  1  0.000120  0.744352  0.161535  1
  Co  Co15  1  0.500177  0.249305  0.332531  1
  Co  Co16  1  0.500177  0.750695  0.332531  1
  Co  Co17  1  0.000000  0.248573  0.500000  1
  Co  Co18  1  0.000000  0.751427  0.500000  1
  Co  Co19  1  0.499822  0.249305  0.667469  1
  Co  Co20  1  0.499822  0.750695  0.667469  1
  Co  Co21  1  0.999881  0.255648  0.838465  1
  Co  Co22  1  0.999881  0.744352  0.838465  1
  Si  Si23  1  0.000000  0.500000  0.000000  1
