# generated using pymatgen
data_LiTm12In(CoSi)2
_symmetry_space_group_name_H-M   'P 1'
_cell_length_a   8.32576791
_cell_length_b   8.32576724
_cell_length_c   8.32576779
_cell_angle_alpha   113.20887571
_cell_angle_beta   111.07828606
_cell_angle_gamma   104.25704734
_symmetry_Int_Tables_number   1
_chemical_formula_structural   LiTm12In(CoSi)2
_chemical_formula_sum   'Li1 Tm12 In1 Co2 Si2'
_cell_volume   441.37949345
_cell_formula_units_Z   1
loop_
 _symmetry_equiv_pos_site_id
 _symmetry_equiv_pos_as_xyz
  1  'x, y, z'
loop_
 _atom_site_type_symbol
 _atom_site_label
 _atom_site_symmetry_multiplicity
 _atom_site_fract_x
 _atom_site_fract_y
 _atom_site_fract_z
 _atom_site_occupancy
  Li  Li0  1  0.000000  0.000000  0.000000  1
  Tm  Tm1  1  0.436228  0.239278  0.196950  1
  Tm  Tm2  1  0.563772  0.760722  0.803050  1
  Tm  Tm3  1  0.042326  0.239278  0.803050  1
  Tm  Tm4  1  0.957674  0.760722  0.196950  1
  Tm  Tm5  1  0.185056  0.287361  0.472417  1
  Tm  Tm6  1  0.814944  0.712639  0.527583  1
  Tm  Tm7  1  0.185056  0.712639  0.897694  1
  Tm  Tm8  1  0.814944  0.287361  0.102306  1
  Tm  Tm9  1  0.304114  0.615350  0.311237  1
  Tm  Tm10  1  0.695886  0.384650  0.688763  1
  Tm  Tm11  1  0.304114  0.992877  0.688763  1
  Tm  Tm12  1  0.695886  0.007123  0.311237  1
  In  In13  1  0.500000  0.500000  0.000000  1
  Co  Co14  1  0.109055  0.609055  0.500000  1
  Co  Co15  1  0.890945  0.390945  0.500000  1
  Si  Si16  1  0.355379  0.000000  0.355379  1
  Si  Si17  1  0.644621  0.000000  0.644621  1
