# generated using pymatgen
data_Zr6Ta4Ga12TcRh6
_symmetry_space_group_name_H-M   'P 1'
_cell_length_a   8.85241674
_cell_length_b   8.85241667
_cell_length_c   8.85241700
_cell_angle_alpha   60.00000251
_cell_angle_beta   60.00000278
_cell_angle_gamma   59.99999942
_symmetry_Int_Tables_number   1
_chemical_formula_structural   Zr6Ta4Ga12TcRh6
_chemical_formula_sum   'Zr6 Ta4 Ga12 Tc1 Rh6'
_cell_volume   490.53565452
_cell_formula_units_Z   1
loop_
 _symmetry_equiv_pos_site_id
 _symmetry_equiv_pos_as_xyz
  1  'x, y, z'
loop_
 _atom_site_type_symbol
 _atom_site_label
 _atom_site_symmetry_multiplicity
 _atom_site_fract_x
 _atom_site_fract_y
 _atom_site_fract_z
 _atom_site_occupancy
  Zr  Zr0  1  0.698236  0.698236  0.301764  1
  Zr  Zr1  1  0.301764  0.698236  0.301764  1
  Zr  Zr2  1  0.698236  0.301764  0.301764  1
  Zr  Zr3  1  0.301764  0.301764  0.698236  1
  Zr  Zr4  1  0.698236  0.301764  0.698236  1
  Zr  Zr5  1  0.301764  0.698236  0.698236  1
  Ta  Ta6  1  0.877770  0.877770  0.366690  1
  Ta  Ta7  1  0.877770  0.366690  0.877770  1
  Ta  Ta8  1  0.366690  0.877770  0.877770  1
  Ta  Ta9  1  0.877770  0.877770  0.877770  1
  Ga  Ga10  1  0.120735  0.120735  0.637793  1
  Ga  Ga11  1  0.120735  0.637793  0.120735  1
  Ga  Ga12  1  0.637793  0.120735  0.120735  1
  Ga  Ga13  1  0.120735  0.120735  0.120735  1
  Ga  Ga14  1  0.655335  0.655335  0.033993  1
  Ga  Ga15  1  0.655335  0.033993  0.655335  1
  Ga  Ga16  1  0.033993  0.655335  0.655335  1
  Ga  Ga17  1  0.655335  0.655335  0.655335  1
  Ga  Ga18  1  0.342590  0.342590  0.972230  1
  Ga  Ga19  1  0.342590  0.972230  0.342590  1
  Ga  Ga20  1  0.972230  0.342590  0.342590  1
  Ga  Ga21  1  0.342590  0.342590  0.342590  1
  Tc  Tc22  1  0.000000  0.000000  0.000000  1
  Rh  Rh23  1  0.996144  0.996144  0.503856  1
  Rh  Rh24  1  0.503856  0.996144  0.503856  1
  Rh  Rh25  1  0.996144  0.503856  0.503856  1
  Rh  Rh26  1  0.503856  0.503856  0.996144  1
  Rh  Rh27  1  0.996144  0.503856  0.996144  1
  Rh  Rh28  1  0.503856  0.996144  0.996144  1
