# generated using pymatgen
data_Tb9Y3Fe2I17
_symmetry_space_group_name_H-M   'P 1'
_cell_length_a   9.72314949
_cell_length_b   11.70332750
_cell_length_c   11.68898600
_cell_angle_alpha   93.49484478
_cell_angle_beta   104.81451074
_cell_angle_gamma   113.92392915
_symmetry_Int_Tables_number   1
_chemical_formula_structural   Tb9Y3Fe2I17
_chemical_formula_sum   'Tb9 Y3 Fe2 I17'
_cell_volume   1154.85044534
_cell_formula_units_Z   1
loop_
 _symmetry_equiv_pos_site_id
 _symmetry_equiv_pos_as_xyz
  1  'x, y, z'
loop_
 _atom_site_type_symbol
 _atom_site_label
 _atom_site_symmetry_multiplicity
 _atom_site_fract_x
 _atom_site_fract_y
 _atom_site_fract_z
 _atom_site_occupancy
  Tb  Tb0  1  0.009944  0.191837  0.413058  1
  Tb  Tb1  1  0.219748  0.671715  0.983796  1
  Tb  Tb2  1  0.254043  0.977252  0.888546  1
  Tb  Tb3  1  0.345832  0.758272  0.719067  1
  Tb  Tb4  1  0.948674  0.498416  0.680685  1
  Tb  Tb5  1  0.745006  0.020914  0.110578  1
  Tb  Tb6  1  0.139498  0.286617  0.152689  1
  Tb  Tb7  1  0.778942  0.328602  0.015435  1
  Tb  Tb8  1  0.857407  0.713565  0.847441  1
  Y  Y9  1  0.053198  0.504145  0.320510  1
  Y  Y10  1  0.990560  0.808053  0.588122  1
  Y  Y11  1  0.656610  0.241937  0.280584  1
  Fe  Fe12  1  0.103832  0.737879  0.786307  1
  Fe  Fe13  1  0.896446  0.262070  0.213729  1
  I  I14  1  0.782894  0.528315  0.416595  1
  I  I15  1  0.643411  0.419785  0.761702  1
  I  I16  1  0.843873  0.896179  0.328588  1
  I  I17  1  0.329277  0.214110  0.367998  1
  I  I18  1  0.156229  0.102949  0.671721  1
  I  I19  1  0.585918  0.052827  0.841767  1
  I  I20  1  0.759461  0.189632  0.539302  1
  I  I21  1  0.553649  0.712028  0.956321  1
  I  I22  1  0.355376  0.579612  0.238177  1
  I  I23  1  0.218510  0.471519  0.582749  1
  I  I24  1  0.055956  0.367539  0.896547  1
  I  I25  1  0.447031  0.287592  0.045187  1
  I  I26  1  0.000979  0.000835  0.000722  1
  I  I27  1  0.239597  0.810319  0.459180  1
  I  I28  1  0.415347  0.947818  0.158221  1
  I  I29  1  0.670068  0.785532  0.630547  1
  I  I30  1  0.942683  0.632136  0.104131  1
