# generated using pymatgen
data_Pr2Si7Ir12
_symmetry_space_group_name_H-M   'P 1'
_cell_length_a   9.81719300
_cell_length_b   9.81719229
_cell_length_c   3.92283900
_cell_angle_alpha   90.00000000
_cell_angle_beta   90.00000000
_cell_angle_gamma   119.99999902
_symmetry_Int_Tables_number   1
_chemical_formula_structural   Pr2Si7Ir12
_chemical_formula_sum   'Pr2 Si7 Ir12'
_cell_volume   327.42040919
_cell_formula_units_Z   1
loop_
 _symmetry_equiv_pos_site_id
 _symmetry_equiv_pos_as_xyz
  1  'x, y, z'
loop_
 _atom_site_type_symbol
 _atom_site_label
 _atom_site_symmetry_multiplicity
 _atom_site_fract_x
 _atom_site_fract_y
 _atom_site_fract_z
 _atom_site_occupancy
  Pr  Pr0  1  0.333333  0.666667  0.749641  1
  Pr  Pr1  1  0.666667  0.333333  0.250359  1
  Si  Si2  1  0.000000  0.000000  0.500000  1
  Si  Si3  1  0.289414  0.887236  0.248033  1
  Si  Si4  1  0.597822  0.710586  0.248033  1
  Si  Si5  1  0.112764  0.402178  0.248033  1
  Si  Si6  1  0.710586  0.112764  0.751967  1
  Si  Si7  1  0.402178  0.289414  0.751967  1
  Si  Si8  1  0.887236  0.597822  0.751967  1
  Ir  Ir9  1  0.260793  0.116302  0.254435  1
  Ir  Ir10  1  0.855509  0.739207  0.254435  1
  Ir  Ir11  1  0.883698  0.144491  0.254435  1
  Ir  Ir12  1  0.739207  0.883698  0.745565  1
  Ir  Ir13  1  0.144491  0.260793  0.745565  1
  Ir  Ir14  1  0.116302  0.855509  0.745565  1
  Ir  Ir15  1  0.059961  0.618682  0.248669  1
  Ir  Ir16  1  0.558722  0.940039  0.248669  1
  Ir  Ir17  1  0.381318  0.441278  0.248669  1
  Ir  Ir18  1  0.940039  0.381318  0.751331  1
  Ir  Ir19  1  0.441278  0.059961  0.751331  1
  Ir  Ir20  1  0.618682  0.558722  0.751331  1
