# generated using pymatgen
data_La12Nd3Dy(CdRu)4
_symmetry_space_group_name_H-M   'P 1'
_cell_length_a   10.01142561
_cell_length_b   10.06076582
_cell_length_c   10.00134112
_cell_angle_alpha   59.78053729
_cell_angle_beta   60.17029430
_cell_angle_gamma   59.66297686
_symmetry_Int_Tables_number   1
_chemical_formula_structural   La12Nd3Dy(CdRu)4
_chemical_formula_sum   'La12 Nd3 Dy1 Cd4 Ru4'
_cell_volume   710.20054441
_cell_formula_units_Z   1
loop_
 _symmetry_equiv_pos_site_id
 _symmetry_equiv_pos_as_xyz
  1  'x, y, z'
loop_
 _atom_site_type_symbol
 _atom_site_label
 _atom_site_symmetry_multiplicity
 _atom_site_fract_x
 _atom_site_fract_y
 _atom_site_fract_z
 _atom_site_occupancy
  La  La0  1  0.843861  0.849917  0.843763  1
  La  La1  1  0.691123  0.310384  0.315224  1
  La  La2  1  0.059613  0.438465  0.442541  1
  La  La3  1  0.314476  0.686055  0.689742  1
  La  La4  1  0.316271  0.309937  0.691573  1
  La  La5  1  0.847600  0.845896  0.459708  1
  La  La6  1  0.689353  0.686511  0.314414  1
  La  La7  1  0.459675  0.844537  0.848076  1
  La  La8  1  0.060041  0.440408  0.059450  1
  La  La9  1  0.843412  0.460666  0.844663  1
  La  La10  1  0.441617  0.060214  0.440652  1
  La  La11  1  0.311802  0.690547  0.310366  1
  Nd  Nd12  1  0.441525  0.436244  0.059607  1
  Nd  Nd13  1  0.062053  0.064325  0.437422  1
  Nd  Nd14  1  0.437411  0.065178  0.062479  1
  Dy  Dy15  1  0.690464  0.308050  0.692654  1
  Cd  Cd16  1  0.080118  0.761987  0.078352  1
  Cd  Cd17  1  0.074717  0.080334  0.762133  1
  Cd  Cd18  1  0.760868  0.081909  0.075006  1
  Cd  Cd19  1  0.079510  0.078300  0.079641  1
  Ru  Ru20  1  0.632785  0.088584  0.633040  1
  Ru  Ru21  1  0.634261  0.642714  0.633535  1
  Ru  Ru22  1  0.636555  0.634516  0.090392  1
  Ru  Ru23  1  0.090892  0.634317  0.635565  1
