# generated using pymatgen
data_Y12CdInGa4
_symmetry_space_group_name_H-M   'P 1'
_cell_length_a   8.68531472
_cell_length_b   8.68531493
_cell_length_c   8.68531507
_cell_angle_alpha   112.27227704
_cell_angle_beta   111.94038075
_cell_angle_gamma   104.32074559
_symmetry_Int_Tables_number   1
_chemical_formula_structural   Y12CdInGa4
_chemical_formula_sum   'Y12 Cd1 In1 Ga4'
_cell_volume   501.32871136
_cell_formula_units_Z   1
loop_
 _symmetry_equiv_pos_site_id
 _symmetry_equiv_pos_as_xyz
  1  'x, y, z'
loop_
 _atom_site_type_symbol
 _atom_site_label
 _atom_site_symmetry_multiplicity
 _atom_site_fract_x
 _atom_site_fract_y
 _atom_site_fract_z
 _atom_site_occupancy
  Y  Y0  1  0.438774  0.238279  0.200496  1
  Y  Y1  1  0.561226  0.761721  0.799504  1
  Y  Y2  1  0.037783  0.238279  0.799504  1
  Y  Y3  1  0.962217  0.761721  0.200496  1
  Y  Y4  1  0.182396  0.278422  0.460817  1
  Y  Y5  1  0.817604  0.721578  0.539183  1
  Y  Y6  1  0.182396  0.721578  0.903975  1
  Y  Y7  1  0.817604  0.278422  0.096025  1
  Y  Y8  1  0.319594  0.617270  0.297675  1
  Y  Y9  1  0.680406  0.382730  0.702325  1
  Y  Y10  1  0.319594  0.021919  0.702325  1
  Y  Y11  1  0.680406  0.978081  0.297675  1
  Cd  Cd12  1  0.000000  0.000000  0.000000  1
  In  In13  1  0.500000  0.500000  0.000000  1
  Ga  Ga14  1  0.353791  0.000000  0.353791  1
  Ga  Ga15  1  0.646209  0.000000  0.646209  1
  Ga  Ga16  1  0.120661  0.620661  0.500000  1
  Ga  Ga17  1  0.879339  0.379339  0.500000  1
