# generated using pymatgen
data_Tb14Dy5ErPb16
_symmetry_space_group_name_H-M   'P 1'
_cell_length_a   8.23358501
_cell_length_b   8.32151061
_cell_length_c   15.70973006
_cell_angle_alpha   90.00829434
_cell_angle_beta   90.00555923
_cell_angle_gamma   90.02289452
_symmetry_Int_Tables_number   1
_chemical_formula_structural   Tb14Dy5ErPb16
_chemical_formula_sum   'Tb14 Dy5 Er1 Pb16'
_cell_volume   1076.36564179
_cell_formula_units_Z   1
loop_
 _symmetry_equiv_pos_site_id
 _symmetry_equiv_pos_as_xyz
  1  'x, y, z'
loop_
 _atom_site_type_symbol
 _atom_site_label
 _atom_site_symmetry_multiplicity
 _atom_site_fract_x
 _atom_site_fract_y
 _atom_site_fract_z
 _atom_site_occupancy
  Tb  Tb0  1  0.622359  0.159080  0.379491  1
  Tb  Tb1  1  0.122746  0.340672  0.120504  1
  Tb  Tb2  1  0.622341  0.159179  0.120613  1
  Tb  Tb3  1  0.122723  0.340587  0.379422  1
  Tb  Tb4  1  0.377459  0.840718  0.620373  1
  Tb  Tb5  1  0.877478  0.659298  0.879481  1
  Tb  Tb6  1  0.534514  0.323366  0.899781  1
  Tb  Tb7  1  0.034490  0.176622  0.600099  1
  Tb  Tb8  1  0.465354  0.676855  0.399785  1
  Tb  Tb9  1  0.965603  0.823504  0.100231  1
  Tb  Tb10  1  0.465348  0.676831  0.100118  1
  Tb  Tb11  1  0.965585  0.823512  0.399896  1
  Tb  Tb12  1  0.534577  0.323476  0.600243  1
  Tb  Tb13  1  0.034552  0.176508  0.899850  1
  Dy  Dy14  1  0.377293  0.840782  0.879535  1
  Dy  Dy15  1  0.877319  0.659225  0.620581  1
  Dy  Dy16  1  0.209150  0.503917  0.749998  1
  Dy  Dy17  1  0.709132  0.996150  0.749970  1
  Dy  Dy18  1  0.790867  0.496368  0.250038  1
  Er  Er19  1  0.290671  0.003846  0.249948  1
  Pb  Pb20  1  0.281075  0.032700  0.043043  1
  Pb  Pb21  1  0.781012  0.467134  0.457317  1
  Pb  Pb22  1  0.719332  0.966385  0.542777  1
  Pb  Pb23  1  0.219316  0.533533  0.957216  1
  Pb  Pb24  1  0.718717  0.966660  0.957203  1
  Pb  Pb25  1  0.218657  0.533248  0.542811  1
  Pb  Pb26  1  0.280972  0.032953  0.456737  1
  Pb  Pb27  1  0.780885  0.466856  0.042934  1
  Pb  Pb28  1  0.573152  0.626144  0.750004  1
  Pb  Pb29  1  0.073189  0.873929  0.749977  1
  Pb  Pb30  1  0.426680  0.373750  0.250009  1
  Pb  Pb31  1  0.927548  0.125390  0.250011  1
  Pb  Pb32  1  0.345995  0.152107  0.750066  1
  Pb  Pb33  1  0.846075  0.347651  0.749914  1
  Pb  Pb34  1  0.653690  0.847809  0.250008  1
  Pb  Pb35  1  0.154146  0.653254  0.250016  1
