# generated using pymatgen
data_Tm4Lu4Ga3Co
_symmetry_space_group_name_H-M   'P 1'
_cell_length_a   9.82175200
_cell_length_b   9.82175186
_cell_length_c   6.80598100
_cell_angle_alpha   90.00000000
_cell_angle_beta   90.00000000
_cell_angle_gamma   120.00000722
_symmetry_Int_Tables_number   1
_chemical_formula_structural   Tm4Lu4Ga3Co
_chemical_formula_sum   'Tm8 Lu8 Ga6 Co2'
_cell_volume   568.59004817
_cell_formula_units_Z   2
loop_
 _symmetry_equiv_pos_site_id
 _symmetry_equiv_pos_as_xyz
  1  'x, y, z'
loop_
 _atom_site_type_symbol
 _atom_site_label
 _atom_site_symmetry_multiplicity
 _atom_site_fract_x
 _atom_site_fract_y
 _atom_site_fract_z
 _atom_site_occupancy
  Tm  Tm0  1  0.464300  0.535700  0.291985  1
  Tm  Tm1  1  0.928599  0.464300  0.791985  1
  Tm  Tm2  1  0.535700  0.071401  0.791985  1
  Tm  Tm3  1  0.464300  0.928599  0.291985  1
  Tm  Tm4  1  0.071401  0.535700  0.291985  1
  Tm  Tm5  1  0.535700  0.464300  0.791985  1
  Tm  Tm6  1  0.000000  0.000000  0.268088  1
  Tm  Tm7  1  0.000000  0.000000  0.768088  1
  Lu  Lu8  1  0.173516  0.826484  0.989652  1
  Lu  Lu9  1  0.347031  0.173516  0.489652  1
  Lu  Lu10  1  0.826484  0.652969  0.489652  1
  Lu  Lu11  1  0.173516  0.347031  0.989652  1
  Lu  Lu12  1  0.652969  0.826484  0.989652  1
  Lu  Lu13  1  0.826484  0.173516  0.489652  1
  Lu  Lu14  1  0.333333  0.666667  0.672323  1
  Lu  Lu15  1  0.666667  0.333333  0.172323  1
  Ga  Ga16  1  0.163382  0.836618  0.540233  1
  Ga  Ga17  1  0.326765  0.163382  0.040233  1
  Ga  Ga18  1  0.836618  0.673235  0.040233  1
  Ga  Ga19  1  0.163382  0.326765  0.540233  1
  Ga  Ga20  1  0.673235  0.836618  0.540233  1
  Ga  Ga21  1  0.836618  0.163382  0.040233  1
  Co  Co22  1  0.333333  0.666667  0.055983  1
  Co  Co23  1  0.666667  0.333333  0.555983  1
