# generated using pymatgen
data_Yb4Sm4SiPd24
_symmetry_space_group_name_H-M   'P 1'
_cell_length_a   8.34253416
_cell_length_b   8.35284224
_cell_length_c   8.35284224
_cell_angle_alpha   90.02203139
_cell_angle_beta   90.01601142
_cell_angle_gamma   90.01601142
_symmetry_Int_Tables_number   1
_chemical_formula_structural   Yb4Sm4SiPd24
_chemical_formula_sum   'Yb4 Sm4 Si1 Pd24'
_cell_volume   582.05829829
_cell_formula_units_Z   1
loop_
 _symmetry_equiv_pos_site_id
 _symmetry_equiv_pos_as_xyz
  1  'x, y, z'
loop_
 _atom_site_type_symbol
 _atom_site_label
 _atom_site_symmetry_multiplicity
 _atom_site_fract_x
 _atom_site_fract_y
 _atom_site_fract_z
 _atom_site_occupancy
  Yb  Yb0  1  0.252094  0.251917  0.251917  1
  Yb  Yb1  1  0.748108  0.748069  0.748069  1
  Yb  Yb2  1  0.748019  0.747818  0.252017  1
  Yb  Yb3  1  0.748019  0.252017  0.747818  1
  Sm  Sm4  1  0.252746  0.252653  0.747503  1
  Sm  Sm5  1  0.252746  0.747503  0.252653  1
  Sm  Sm6  1  0.252629  0.747475  0.747475  1
  Sm  Sm7  1  0.747332  0.252909  0.252909  1
  Si  Si8  1  0.998794  0.999694  0.999694  1
  Pd  Pd9  1  0.256817  0.498413  0.002071  1
  Pd  Pd10  1  0.742836  0.501361  0.998073  1
  Pd  Pd11  1  0.000440  0.256895  0.499952  1
  Pd  Pd12  1  0.500257  0.256927  0.999822  1
  Pd  Pd13  1  0.996457  0.743024  0.500134  1
  Pd  Pd14  1  0.503192  0.742946  0.000050  1
  Pd  Pd15  1  0.500257  0.999822  0.256927  1
  Pd  Pd16  1  0.256817  0.002071  0.498413  1
  Pd  Pd17  1  0.503192  0.000050  0.742946  1
  Pd  Pd18  1  0.742836  0.998073  0.501361  1
  Pd  Pd19  1  0.000440  0.499952  0.256895  1
  Pd  Pd20  1  0.996457  0.500134  0.743024  1
  Pd  Pd21  1  0.251787  0.497835  0.497835  1
  Pd  Pd22  1  0.748463  0.501956  0.501956  1
  Pd  Pd23  1  0.499823  0.251667  0.500106  1
  Pd  Pd24  1  0.503919  0.748423  0.500049  1
  Pd  Pd25  1  0.499823  0.500106  0.251667  1
  Pd  Pd26  1  0.503919  0.500049  0.748423  1
  Pd  Pd27  1  0.280893  0.002213  0.002213  1
  Pd  Pd28  1  0.719693  0.998068  0.998068  1
  Pd  Pd29  1  0.999862  0.280524  0.999917  1
  Pd  Pd30  1  0.995733  0.719405  0.000113  1
  Pd  Pd31  1  0.999862  0.999917  0.280524  1
  Pd  Pd32  1  0.995733  0.000113  0.719405  1
