# generated using pymatgen
data_BaIn2CuSn
_symmetry_space_group_name_H-M   'P 1'
_cell_length_a   6.86039439
_cell_length_b   6.86039479
_cell_length_c   6.86039520
_cell_angle_alpha   139.18542388
_cell_angle_beta   139.18542841
_cell_angle_gamma   59.09222581
_symmetry_Int_Tables_number   1
_chemical_formula_structural   BaIn2CuSn
_chemical_formula_sum   'Ba1 In2 Cu1 Sn1'
_cell_volume   136.61181118
_cell_formula_units_Z   1
loop_
 _symmetry_equiv_pos_site_id
 _symmetry_equiv_pos_as_xyz
  1  'x, y, z'
loop_
 _atom_site_type_symbol
 _atom_site_label
 _atom_site_symmetry_multiplicity
 _atom_site_fract_x
 _atom_site_fract_y
 _atom_site_fract_z
 _atom_site_occupancy
  Ba  Ba0  1  0.999707  0.999707  0.000000  1
  In  In1  1  0.736733  0.236733  0.500000  1
  In  In2  1  0.236733  0.736733  0.500000  1
  Cu  Cu3  1  0.625945  0.625945  0.000000  1
  Sn  Sn4  1  0.400883  0.400883  0.000000  1
