# generated using pymatgen
data_TbHfVB6
_symmetry_space_group_name_H-M   'P 1'
_cell_length_a   3.46764400
_cell_length_b   9.01275400
_cell_length_c   11.40244100
_cell_angle_alpha   90.00000000
_cell_angle_beta   90.00000000
_cell_angle_gamma   90.00000000
_symmetry_Int_Tables_number   1
_chemical_formula_structural   TbHfVB6
_chemical_formula_sum   'Tb4 Hf4 V4 B24'
_cell_volume   356.36074321
_cell_formula_units_Z   4
loop_
 _symmetry_equiv_pos_site_id
 _symmetry_equiv_pos_as_xyz
  1  'x, y, z'
loop_
 _atom_site_type_symbol
 _atom_site_label
 _atom_site_symmetry_multiplicity
 _atom_site_fract_x
 _atom_site_fract_y
 _atom_site_fract_z
 _atom_site_occupancy
  Tb  Tb0  1  0.000000  0.821855  0.085198  1
  Tb  Tb1  1  0.000000  0.178145  0.914802  1
  Tb  Tb2  1  0.000000  0.321855  0.414802  1
  Tb  Tb3  1  0.000000  0.678145  0.585198  1
  Hf  Hf4  1  0.000000  0.444420  0.129209  1
  Hf  Hf5  1  0.000000  0.555580  0.870791  1
  Hf  Hf6  1  0.000000  0.944420  0.370791  1
  Hf  Hf7  1  0.000000  0.055580  0.629209  1
  V  V8  1  0.000000  0.142360  0.182547  1
  V  V9  1  0.000000  0.857640  0.817453  1
  V  V10  1  0.000000  0.642360  0.317453  1
  V  V11  1  0.000000  0.357640  0.682547  1
  B  B12  1  0.500000  0.053661  0.067186  1
  B  B13  1  0.500000  0.946339  0.932814  1
  B  B14  1  0.500000  0.553661  0.432814  1
  B  B15  1  0.500000  0.446339  0.567186  1
  B  B16  1  0.500000  0.253968  0.081680  1
  B  B17  1  0.500000  0.746032  0.918320  1
  B  B18  1  0.500000  0.753968  0.418320  1
  B  B19  1  0.500000  0.246032  0.581680  1
  B  B20  1  0.500000  0.296484  0.235854  1
  B  B21  1  0.500000  0.703516  0.764146  1
  B  B22  1  0.500000  0.796484  0.264146  1
  B  B23  1  0.500000  0.203516  0.735854  1
  B  B24  1  0.500000  0.129944  0.317570  1
  B  B25  1  0.500000  0.870056  0.682430  1
  B  B26  1  0.500000  0.629944  0.182430  1
  B  B27  1  0.500000  0.370056  0.817570  1
  B  B28  1  0.500000  0.481176  0.286242  1
  B  B29  1  0.500000  0.518824  0.713758  1
  B  B30  1  0.500000  0.981176  0.213758  1
  B  B31  1  0.500000  0.018824  0.786242  1
  B  B32  1  0.500000  0.097479  0.473840  1
  B  B33  1  0.500000  0.902521  0.526160  1
  B  B34  1  0.500000  0.597479  0.026160  1
  B  B35  1  0.500000  0.402521  0.973840  1
