# generated using pymatgen
data_Li4Y6Pd2Pt11
_symmetry_space_group_name_H-M   'P 1'
_cell_length_a   8.27691239
_cell_length_b   8.27691154
_cell_length_c   8.27387200
_cell_angle_alpha   109.44179171
_cell_angle_beta   109.44178963
_cell_angle_gamma   109.49903111
_symmetry_Int_Tables_number   1
_chemical_formula_structural   Li4Y6Pd2Pt11
_chemical_formula_sum   'Li4 Y6 Pd2 Pt11'
_cell_volume   436.50555711
_cell_formula_units_Z   1
loop_
 _symmetry_equiv_pos_site_id
 _symmetry_equiv_pos_as_xyz
  1  'x, y, z'
loop_
 _atom_site_type_symbol
 _atom_site_label
 _atom_site_symmetry_multiplicity
 _atom_site_fract_x
 _atom_site_fract_y
 _atom_site_fract_z
 _atom_site_occupancy
  Li  Li0  1  0.000019  0.000019  0.500016  1
  Li  Li1  1  0.000016  0.499780  0.999993  1
  Li  Li2  1  0.499780  0.000016  0.999993  1
  Li  Li3  1  0.499543  0.499543  0.499580  1
  Y  Y4  1  0.697055  0.697055  0.003807  1
  Y  Y5  1  0.302496  0.998894  0.302252  1
  Y  Y6  1  0.998894  0.302496  0.302252  1
  Y  Y7  1  0.304016  0.304016  0.000393  1
  Y  Y8  1  0.697866  0.000642  0.695884  1
  Y  Y9  1  0.000642  0.697866  0.695884  1
  Pd  Pd10  1  0.665921  0.332249  0.665958  1
  Pd  Pd11  1  0.332249  0.665921  0.665958  1
  Pt  Pt12  1  0.333638  0.333638  0.667196  1
  Pt  Pt13  1  0.666794  0.000809  0.333641  1
  Pt  Pt14  1  0.000809  0.666794  0.333641  1
  Pt  Pt15  1  0.666614  0.332579  0.999531  1
  Pt  Pt16  1  0.333337  0.667091  0.333877  1
  Pt  Pt17  1  0.000336  0.334334  0.666096  1
  Pt  Pt18  1  0.332579  0.666614  0.999531  1
  Pt  Pt19  1  0.334334  0.000336  0.666096  1
  Pt  Pt20  1  0.667091  0.333337  0.333877  1
  Pt  Pt21  1  0.667251  0.667251  0.335425  1
  Pt  Pt22  1  0.998717  0.998717  0.999122  1
