# generated using pymatgen
data_Y8Re3B24Os
_symmetry_space_group_name_H-M   'P 1'
_cell_length_a   3.68054700
_cell_length_b   9.18822721
_cell_length_c   11.57409079
_cell_angle_alpha   89.92051687
_cell_angle_beta   90.00000000
_cell_angle_gamma   90.00000000
_symmetry_Int_Tables_number   1
_chemical_formula_structural   Y8Re3B24Os
_chemical_formula_sum   'Y8 Re3 B24 Os1'
_cell_volume   391.40877753
_cell_formula_units_Z   1
loop_
 _symmetry_equiv_pos_site_id
 _symmetry_equiv_pos_as_xyz
  1  'x, y, z'
loop_
 _atom_site_type_symbol
 _atom_site_label
 _atom_site_symmetry_multiplicity
 _atom_site_fract_x
 _atom_site_fract_y
 _atom_site_fract_z
 _atom_site_occupancy
  Y  Y0  1  0.000000  0.821802  0.085791  1
  Y  Y1  1  0.000000  0.177432  0.912543  1
  Y  Y2  1  0.000000  0.324365  0.415531  1
  Y  Y3  1  0.000000  0.676693  0.586211  1
  Y  Y4  1  0.000000  0.442426  0.129979  1
  Y  Y5  1  0.000000  0.556831  0.870611  1
  Y  Y6  1  0.000000  0.942448  0.370187  1
  Y  Y7  1  0.000000  0.057135  0.629139  1
  Re  Re8  1  0.000000  0.862398  0.821991  1
  Re  Re9  1  0.000000  0.638213  0.320320  1
  Re  Re10  1  0.000000  0.361710  0.679303  1
  B  B11  1  0.500000  0.053645  0.067360  1
  B  B12  1  0.500000  0.947214  0.933018  1
  B  B13  1  0.500000  0.552980  0.432976  1
  B  B14  1  0.500000  0.447004  0.567186  1
  B  B15  1  0.500000  0.248115  0.081786  1
  B  B16  1  0.500000  0.751279  0.918510  1
  B  B17  1  0.500000  0.748586  0.418495  1
  B  B18  1  0.500000  0.251817  0.581484  1
  B  B19  1  0.500000  0.290393  0.234451  1
  B  B20  1  0.500000  0.708653  0.765595  1
  B  B21  1  0.500000  0.791205  0.265260  1
  B  B22  1  0.500000  0.208521  0.734240  1
  B  B23  1  0.500000  0.131044  0.313933  1
  B  B24  1  0.500000  0.869589  0.686168  1
  B  B25  1  0.500000  0.630932  0.185360  1
  B  B26  1  0.500000  0.369093  0.814168  1
  B  B27  1  0.500000  0.482453  0.288229  1
  B  B28  1  0.500000  0.517690  0.712013  1
  B  B29  1  0.500000  0.983305  0.211758  1
  B  B30  1  0.500000  0.018155  0.788144  1
  B  B31  1  0.500000  0.101888  0.471080  1
  B  B32  1  0.500000  0.898246  0.528223  1
  B  B33  1  0.500000  0.601186  0.028595  1
  B  B34  1  0.500000  0.397611  0.971688  1
  Os  Os35  1  0.000000  0.137943  0.178675  1
