# generated using pymatgen
data_Hf12Zn5Cu4Pd3N4
_symmetry_space_group_name_H-M   'P 1'
_cell_length_a   8.48180017
_cell_length_b   8.46413776
_cell_length_c   8.48180100
_cell_angle_alpha   59.93093236
_cell_angle_beta   59.99995386
_cell_angle_gamma   59.93091634
_symmetry_Int_Tables_number   1
_chemical_formula_structural   Hf12Zn5Cu4Pd3N4
_chemical_formula_sum   'Hf12 Zn5 Cu4 Pd3 N4'
_cell_volume   430.11982676
_cell_formula_units_Z   1
loop_
 _symmetry_equiv_pos_site_id
 _symmetry_equiv_pos_as_xyz
  1  'x, y, z'
loop_
 _atom_site_type_symbol
 _atom_site_label
 _atom_site_symmetry_multiplicity
 _atom_site_fract_x
 _atom_site_fract_y
 _atom_site_fract_z
 _atom_site_occupancy
  Hf  Hf0  1  0.810958  0.191229  0.186852  1
  Hf  Hf1  1  0.187990  0.812005  0.187990  1
  Hf  Hf2  1  0.812016  0.812005  0.187990  1
  Hf  Hf3  1  0.187990  0.812006  0.812016  1
  Hf  Hf4  1  0.810959  0.191229  0.810959  1
  Hf  Hf5  1  0.186852  0.191228  0.810959  1
  Hf  Hf6  1  0.439598  0.058395  0.062409  1
  Hf  Hf7  1  0.064724  0.435177  0.064724  1
  Hf  Hf8  1  0.435376  0.435177  0.064724  1
  Hf  Hf9  1  0.064724  0.435176  0.435376  1
  Hf  Hf10  1  0.439597  0.058395  0.439598  1
  Hf  Hf11  1  0.062409  0.058395  0.439598  1
  Zn  Zn12  1  0.829249  0.512253  0.829249  1
  Zn  Zn13  1  0.622048  0.619074  0.136830  1
  Zn  Zn14  1  0.622048  0.619075  0.622048  1
  Zn  Zn15  1  0.136830  0.619074  0.622048  1
  Zn  Zn16  1  0.622198  0.133407  0.622198  1
  Cu  Cu17  1  0.414558  0.414269  0.756613  1
  Cu  Cu18  1  0.414559  0.414269  0.414559  1
  Cu  Cu19  1  0.756613  0.414268  0.414559  1
  Cu  Cu20  1  0.415321  0.754037  0.415321  1
  Pd  Pd21  1  0.838222  0.836305  0.487251  1
  Pd  Pd22  1  0.838223  0.836306  0.838223  1
  Pd  Pd23  1  0.487251  0.836305  0.838222  1
  N  N24  1  0.125053  0.124601  0.625295  1
  N  N25  1  0.125053  0.124601  0.125052  1
  N  N26  1  0.625294  0.124601  0.125053  1
  N  N27  1  0.124286  0.627142  0.124286  1
