# generated using pymatgen
data_Ho9ErSn5Bi
_symmetry_space_group_name_H-M   'P 1'
_cell_length_a   8.96055300
_cell_length_b   8.95482857
_cell_length_c   6.48323900
_cell_angle_alpha   89.99678571
_cell_angle_beta   90.00208507
_cell_angle_gamma   120.01973964
_symmetry_Int_Tables_number   1
_chemical_formula_structural   Ho9ErSn5Bi
_chemical_formula_sum   'Ho9 Er1 Sn5 Bi1'
_cell_volume   450.43106236
_cell_formula_units_Z   1
loop_
 _symmetry_equiv_pos_site_id
 _symmetry_equiv_pos_as_xyz
  1  'x, y, z'
loop_
 _atom_site_type_symbol
 _atom_site_label
 _atom_site_symmetry_multiplicity
 _atom_site_fract_x
 _atom_site_fract_y
 _atom_site_fract_z
 _atom_site_occupancy
  Ho  Ho0  1  0.994580  0.757721  0.749967  1
  Ho  Ho1  1  0.000444  0.239014  0.250023  1
  Ho  Ho2  1  0.761386  0.761014  0.250033  1
  Ho  Ho3  1  0.764937  0.999982  0.749967  1
  Ho  Ho4  1  0.236831  0.242303  0.749970  1
  Ho  Ho5  1  0.237541  0.999976  0.250019  1
  Ho  Ho6  1  0.669917  0.337371  0.001725  1
  Ho  Ho7  1  0.669912  0.337356  0.498271  1
  Ho  Ho8  1  0.332552  0.662636  0.001732  1
  Er  Er9  1  0.332542  0.662571  0.498286  1
  Sn  Sn10  1  0.395397  0.394241  0.250126  1
  Sn  Sn11  1  0.001442  0.605910  0.250112  1
  Sn  Sn12  1  0.999776  0.395900  0.749882  1
  Sn  Sn13  1  0.603735  0.604260  0.749884  1
  Sn  Sn14  1  0.605157  0.999863  0.250099  1
  Bi  Bi15  1  0.393852  0.999882  0.749905  1
