# generated using pymatgen
data_Dy8Ti11Si16W
_symmetry_space_group_name_H-M   'P 1'
_cell_length_a   7.04079430
_cell_length_b   7.04079439
_cell_length_c   12.94919823
_cell_angle_alpha   90.00864754
_cell_angle_beta   89.99135300
_cell_angle_gamma   90.03522456
_symmetry_Int_Tables_number   1
_chemical_formula_structural   Dy8Ti11Si16W
_chemical_formula_sum   'Dy8 Ti11 Si16 W1'
_cell_volume   641.92768396
_cell_formula_units_Z   1
loop_
 _symmetry_equiv_pos_site_id
 _symmetry_equiv_pos_as_xyz
  1  'x, y, z'
loop_
 _atom_site_type_symbol
 _atom_site_label
 _atom_site_symmetry_multiplicity
 _atom_site_fract_x
 _atom_site_fract_y
 _atom_site_fract_z
 _atom_site_occupancy
  Dy  Dy0  1  0.996914  0.659907  0.032891  1
  Dy  Dy1  1  0.001454  0.341490  0.532812  1
  Dy  Dy2  1  0.659907  0.996914  0.967109  1
  Dy  Dy3  1  0.160333  0.502791  0.782576  1
  Dy  Dy4  1  0.840059  0.498889  0.284552  1
  Dy  Dy5  1  0.502791  0.160333  0.217424  1
  Dy  Dy6  1  0.498889  0.840059  0.715448  1
  Dy  Dy7  1  0.341490  0.001454  0.467188  1
  Ti  Ti8  1  0.348386  0.508371  0.375359  1
  Ti  Ti9  1  0.845828  0.990506  0.377048  1
  Ti  Ti10  1  0.007972  0.152214  0.123915  1
  Ti  Ti11  1  0.990506  0.845828  0.622952  1
  Ti  Ti12  1  0.508371  0.348386  0.624641  1
  Ti  Ti13  1  0.152214  0.007972  0.876085  1
  Ti  Ti14  1  0.826030  0.172672  0.749547  1
  Ti  Ti15  1  0.172672  0.826030  0.250453  1
  Ti  Ti16  1  0.327069  0.327069  0.000000  1
  Ti  Ti17  1  0.492452  0.651713  0.126626  1
  Ti  Ti18  1  0.651713  0.492452  0.873374  1
  Si  Si19  1  0.045973  0.709184  0.435172  1
  Si  Si20  1  0.952782  0.291239  0.934912  1
  Si  Si21  1  0.709184  0.045973  0.564828  1
  Si  Si22  1  0.208303  0.453594  0.185083  1
  Si  Si23  1  0.791435  0.547313  0.684317  1
  Si  Si24  1  0.453594  0.208303  0.814917  1
  Si  Si25  1  0.547313  0.791435  0.315683  1
  Si  Si26  1  0.291239  0.952782  0.065088  1
  Si  Si27  1  0.797972  0.870092  0.184826  1
  Si  Si28  1  0.299426  0.629463  0.565437  1
  Si  Si29  1  0.702405  0.370134  0.065433  1
  Si  Si30  1  0.629463  0.299426  0.434563  1
  Si  Si31  1  0.370134  0.702405  0.934567  1
  Si  Si32  1  0.129750  0.202223  0.315398  1
  Si  Si33  1  0.202223  0.129750  0.684602  1
  Si  Si34  1  0.870092  0.797972  0.815174  1
  W  W35  1  0.673663  0.673663  0.500000  1
