# generated using pymatgen
data_La2AsP3Rh4
_symmetry_space_group_name_H-M   'P 1'
_cell_length_a   4.24940900
_cell_length_b   4.24940900
_cell_length_c   9.75301500
_cell_angle_alpha   90.00000000
_cell_angle_beta   90.00000000
_cell_angle_gamma   90.00000000
_symmetry_Int_Tables_number   1
_chemical_formula_structural   La2AsP3Rh4
_chemical_formula_sum   'La2 As1 P3 Rh4'
_cell_volume   176.11484257
_cell_formula_units_Z   1
loop_
 _symmetry_equiv_pos_site_id
 _symmetry_equiv_pos_as_xyz
  1  'x, y, z'
loop_
 _atom_site_type_symbol
 _atom_site_label
 _atom_site_symmetry_multiplicity
 _atom_site_fract_x
 _atom_site_fract_y
 _atom_site_fract_z
 _atom_site_occupancy
  La  La0  1  0.000000  0.500000  0.260017  1
  La  La1  1  0.500000  0.000000  0.737609  1
  As  As2  1  0.000000  0.500000  0.860171  1
  P  P3  1  0.000000  0.000000  0.497148  1
  P  P4  1  0.500000  0.500000  0.497148  1
  P  P5  1  0.500000  0.000000  0.139074  1
  Rh  Rh6  1  0.000000  0.000000  0.008302  1
  Rh  Rh7  1  0.500000  0.500000  0.008302  1
  Rh  Rh8  1  0.000000  0.500000  0.602153  1
  Rh  Rh9  1  0.500000  0.000000  0.390075  1
