# generated using pymatgen
data_Zr2AlGaPdPt
_symmetry_space_group_name_H-M   'P 1'
_cell_length_a   7.19615700
_cell_length_b   7.19615558
_cell_length_c   7.17258300
_cell_angle_alpha   90.00000000
_cell_angle_beta   90.00000000
_cell_angle_gamma   119.99999273
_symmetry_Int_Tables_number   1
_chemical_formula_structural   Zr2AlGaPdPt
_chemical_formula_sum   'Zr6 Al3 Ga3 Pd3 Pt3'
_cell_volume   321.66767513
_cell_formula_units_Z   3
loop_
 _symmetry_equiv_pos_site_id
 _symmetry_equiv_pos_as_xyz
  1  'x, y, z'
loop_
 _atom_site_type_symbol
 _atom_site_label
 _atom_site_symmetry_multiplicity
 _atom_site_fract_x
 _atom_site_fract_y
 _atom_site_fract_z
 _atom_site_occupancy
  Zr  Zr0  1  0.607692  0.583349  0.249799  1
  Zr  Zr1  1  0.026816  0.418180  0.750474  1
  Zr  Zr2  1  0.416651  0.024344  0.249799  1
  Zr  Zr3  1  0.975656  0.392308  0.249799  1
  Zr  Zr4  1  0.391365  0.973184  0.750474  1
  Zr  Zr5  1  0.581820  0.608635  0.750474  1
  Al  Al6  1  0.253894  0.252899  0.500602  1
  Al  Al7  1  0.747101  0.000995  0.500602  1
  Al  Al8  1  0.999005  0.746106  0.500602  1
  Ga  Ga9  1  0.731793  0.003312  0.001065  1
  Ga  Ga10  1  0.271516  0.268207  0.001065  1
  Ga  Ga11  1  0.996688  0.728484  0.001065  1
  Pd  Pd12  1  0.000000  0.000000  0.758778  1
  Pd  Pd13  1  0.000000  0.000000  0.242902  1
  Pd  Pd14  1  0.666667  0.333333  0.959346  1
  Pt  Pt15  1  0.333333  0.666667  0.466952  1
  Pt  Pt16  1  0.333333  0.666667  0.035717  1
  Pt  Pt17  1  0.666667  0.333333  0.530487  1
