# generated using pymatgen
data_AlVSiRh5
_symmetry_space_group_name_H-M   'P 1'
_cell_length_a   4.01679400
_cell_length_b   5.31099369
_cell_length_c   10.28865671
_cell_angle_alpha   92.49381989
_cell_angle_beta   90.00000000
_cell_angle_gamma   90.00000000
_symmetry_Int_Tables_number   1
_chemical_formula_structural   AlVSiRh5
_chemical_formula_sum   'Al2 V2 Si2 Rh10'
_cell_volume   219.28176389
_cell_formula_units_Z   2
loop_
 _symmetry_equiv_pos_site_id
 _symmetry_equiv_pos_as_xyz
  1  'x, y, z'
loop_
 _atom_site_type_symbol
 _atom_site_label
 _atom_site_symmetry_multiplicity
 _atom_site_fract_x
 _atom_site_fract_y
 _atom_site_fract_z
 _atom_site_occupancy
  Al  Al0  1  0.500000  0.147355  0.641305  1
  Al  Al1  1  0.500000  0.852645  0.358695  1
  V  V2  1  0.500000  0.654352  0.853954  1
  V  V3  1  0.500000  0.345648  0.146046  1
  Si  Si4  1  0.000000  0.500000  0.500000  1
  Si  Si5  1  0.000000  0.000000  0.000000  1
  Rh  Rh6  1  0.500000  0.328125  0.391040  1
  Rh  Rh7  1  0.500000  0.671875  0.608960  1
  Rh  Rh8  1  0.500000  0.816181  0.099487  1
  Rh  Rh9  1  0.500000  0.183819  0.900513  1
  Rh  Rh10  1  0.000000  0.393995  0.730337  1
  Rh  Rh11  1  0.000000  0.606005  0.269663  1
  Rh  Rh12  1  0.000000  0.889288  0.770774  1
  Rh  Rh13  1  0.000000  0.110712  0.229226  1
  Rh  Rh14  1  0.000000  0.500000  0.000000  1
  Rh  Rh15  1  0.000000  0.000000  0.500000  1
