# generated using pymatgen
data_Tb12Sm7ThSn16
_symmetry_space_group_name_H-M   'P 1'
_cell_length_a   8.12575494
_cell_length_b   8.27102339
_cell_length_c   15.61271401
_cell_angle_alpha   89.95137562
_cell_angle_beta   89.96851185
_cell_angle_gamma   90.04520266
_symmetry_Int_Tables_number   1
_chemical_formula_structural   Tb12Sm7ThSn16
_chemical_formula_sum   'Tb12 Sm7 Th1 Sn16'
_cell_volume   1049.30324568
_cell_formula_units_Z   1
loop_
 _symmetry_equiv_pos_site_id
 _symmetry_equiv_pos_as_xyz
  1  'x, y, z'
loop_
 _atom_site_type_symbol
 _atom_site_label
 _atom_site_symmetry_multiplicity
 _atom_site_fract_x
 _atom_site_fract_y
 _atom_site_fract_z
 _atom_site_occupancy
  Tb  Tb0  1  0.366057  0.835667  0.878093  1
  Tb  Tb1  1  0.866368  0.664476  0.621909  1
  Tb  Tb2  1  0.633962  0.164147  0.378091  1
  Tb  Tb3  1  0.134084  0.335653  0.121945  1
  Tb  Tb4  1  0.633840  0.164286  0.122040  1
  Tb  Tb5  1  0.133708  0.335652  0.378092  1
  Tb  Tb6  1  0.366138  0.835628  0.621859  1
  Tb  Tb7  1  0.866104  0.664692  0.878073  1
  Tb  Tb8  1  0.197604  0.502584  0.749703  1
  Tb  Tb9  1  0.697776  0.998386  0.749830  1
  Tb  Tb10  1  0.802068  0.497899  0.249912  1
  Tb  Tb11  1  0.302050  0.002185  0.250227  1
  Sm  Sm12  1  0.018517  0.179161  0.597888  1
  Sm  Sm13  1  0.481561  0.679670  0.401948  1
  Sm  Sm14  1  0.981697  0.820538  0.098114  1
  Sm  Sm15  1  0.481594  0.679308  0.098197  1
  Sm  Sm16  1  0.981463  0.820551  0.401964  1
  Sm  Sm17  1  0.518797  0.320366  0.598248  1
  Sm  Sm18  1  0.019040  0.179424  0.902046  1
  Th  Th19  1  0.517917  0.320202  0.902307  1
  Sn  Sn20  1  0.295721  0.037484  0.041514  1
  Sn  Sn21  1  0.795552  0.463026  0.458215  1
  Sn  Sn22  1  0.704442  0.962969  0.541918  1
  Sn  Sn23  1  0.204494  0.536934  0.958149  1
  Sn  Sn24  1  0.704626  0.963727  0.957891  1
  Sn  Sn25  1  0.204556  0.536719  0.541922  1
  Sn  Sn26  1  0.295484  0.036920  0.458150  1
  Sn  Sn27  1  0.795132  0.463039  0.041628  1
  Sn  Sn28  1  0.564659  0.620610  0.750556  1
  Sn  Sn29  1  0.064749  0.879337  0.750002  1
  Sn  Sn30  1  0.434981  0.379524  0.249989  1
  Sn  Sn31  1  0.935108  0.120549  0.249972  1
  Sn  Sn32  1  0.326203  0.143170  0.749668  1
  Sn  Sn33  1  0.826956  0.355535  0.750049  1
  Sn  Sn34  1  0.673437  0.855841  0.249959  1
  Sn  Sn35  1  0.173555  0.644140  0.249933  1
