# generated using pymatgen
data_Lu3Al12Os3Pt
_symmetry_space_group_name_H-M   'P 1'
_cell_length_a   8.77221000
_cell_length_b   8.80755377
_cell_length_c   9.52180202
_cell_angle_alpha   89.75010469
_cell_angle_beta   90.00000000
_cell_angle_gamma   119.86734311
_symmetry_Int_Tables_number   1
_chemical_formula_structural   Lu3Al12Os3Pt
_chemical_formula_sum   'Lu6 Al24 Os6 Pt2'
_cell_volume   637.95140242
_cell_formula_units_Z   2
loop_
 _symmetry_equiv_pos_site_id
 _symmetry_equiv_pos_as_xyz
  1  'x, y, z'
loop_
 _atom_site_type_symbol
 _atom_site_label
 _atom_site_symmetry_multiplicity
 _atom_site_fract_x
 _atom_site_fract_y
 _atom_site_fract_z
 _atom_site_occupancy
  Lu  Lu0  1  0.194160  0.388322  0.253604  1
  Lu  Lu1  1  0.805840  0.611678  0.746396  1
  Lu  Lu2  1  0.609548  0.808422  0.253471  1
  Lu  Lu3  1  0.390452  0.191578  0.746529  1
  Lu  Lu4  1  0.198873  0.808422  0.253471  1
  Lu  Lu5  1  0.801127  0.191578  0.746529  1
  Al  Al6  1  0.335348  0.670698  0.029203  1
  Al  Al7  1  0.664652  0.329302  0.970797  1
  Al  Al8  1  0.666853  0.333704  0.523552  1
  Al  Al9  1  0.333147  0.666296  0.476448  1
  Al  Al10  1  0.163070  0.326139  0.576412  1
  Al  Al11  1  0.836930  0.673861  0.423588  1
  Al  Al12  1  0.672750  0.835481  0.576411  1
  Al  Al13  1  0.838200  0.676400  0.079544  1
  Al  Al14  1  0.327250  0.164519  0.423589  1
  Al  Al15  1  0.161800  0.323600  0.920456  1
  Al  Al16  1  0.162731  0.835481  0.576411  1
  Al  Al17  1  0.325796  0.158940  0.078004  1
  Al  Al18  1  0.837269  0.164519  0.423589  1
  Al  Al19  1  0.674204  0.841060  0.921996  1
  Al  Al20  1  0.833144  0.158940  0.078004  1
  Al  Al21  1  0.166856  0.841060  0.921996  1
  Al  Al22  1  0.561966  0.123932  0.248818  1
  Al  Al23  1  0.438034  0.876068  0.751182  1
  Al  Al24  1  0.875544  0.438192  0.251522  1
  Al  Al25  1  0.124456  0.561808  0.748478  1
  Al  Al26  1  0.562648  0.438192  0.251522  1
  Al  Al27  1  0.437352  0.561808  0.748478  1
  Al  Al28  1  0.001004  0.002009  0.250219  1
  Al  Al29  1  0.998996  0.997991  0.749781  1
  Os  Os30  1  0.500000  0.000000  0.000000  1
  Os  Os31  1  0.500000  0.000000  0.500000  1
  Os  Os32  1  0.000000  0.500000  0.500000  1
  Os  Os33  1  0.500000  0.500000  0.500000  1
  Os  Os34  1  0.000000  0.000000  0.000000  1
  Os  Os35  1  0.000000  0.000000  0.500000  1
  Pt  Pt36  1  0.000000  0.500000  0.000000  1
  Pt  Pt37  1  0.500000  0.500000  0.000000  1
