# generated using pymatgen
data_Ho2Tm3Co9(P6Ru5)2
_symmetry_space_group_name_H-M   'P 1'
_cell_length_a   12.28988813
_cell_length_b   12.24495335
_cell_length_c   3.74525900
_cell_angle_alpha   90.00000000
_cell_angle_beta   90.00000000
_cell_angle_gamma   119.73805100
_symmetry_Int_Tables_number   1
_chemical_formula_structural   Ho2Tm3Co9(P6Ru5)2
_chemical_formula_sum   'Ho2 Tm3 Co9 P12 Ru10'
_cell_volume   489.39312360
_cell_formula_units_Z   1
loop_
 _symmetry_equiv_pos_site_id
 _symmetry_equiv_pos_as_xyz
  1  'x, y, z'
loop_
 _atom_site_type_symbol
 _atom_site_label
 _atom_site_symmetry_multiplicity
 _atom_site_fract_x
 _atom_site_fract_y
 _atom_site_fract_z
 _atom_site_occupancy
  Ho  Ho0  1  0.663574  0.333240  0.000000  1
  Ho  Ho1  1  0.332908  0.666796  0.000000  1
  Tm  Tm2  1  0.182252  0.181009  0.500000  1
  Tm  Tm3  1  0.819555  0.998496  0.500000  1
  Tm  Tm4  1  0.999402  0.819903  0.500000  1
  Co  Co5  1  0.803654  0.631499  0.000000  1
  Co  Co6  1  0.366952  0.170957  0.000000  1
  Co  Co7  1  0.194438  0.828540  0.000000  1
  Co  Co8  1  0.630373  0.801397  0.000000  1
  Co  Co9  1  0.176356  0.369108  0.000000  1
  Co  Co10  1  0.719402  0.719098  0.500000  1
  Co  Co11  1  0.278663  0.999771  0.500000  1
  Co  Co12  1  0.007551  0.284555  0.500000  1
  Co  Co13  1  0.999340  0.998902  0.000000  1
  P  P14  1  0.361539  0.361176  0.000000  1
  P  P15  1  0.634819  0.996546  0.000000  1
  P  P16  1  0.000335  0.639634  0.000000  1
  P  P17  1  0.838583  0.316285  0.500000  1
  P  P18  1  0.684214  0.523565  0.500000  1
  P  P19  1  0.473362  0.159175  0.500000  1
  P  P20  1  0.316407  0.841044  0.500000  1
  P  P21  1  0.523955  0.682692  0.500000  1
  P  P22  1  0.161756  0.478713  0.500000  1
  P  P23  1  0.821357  0.821732  0.000000  1
  P  P24  1  0.176916  0.000107  0.000000  1
  P  P25  1  0.006264  0.179958  0.000000  1
  Ru  Ru26  1  0.555065  0.553431  0.000000  1
  Ru  Ru27  1  0.440375  0.995317  0.000000  1
  Ru  Ru28  1  0.008761  0.451171  0.000000  1
  Ru  Ru29  1  0.827693  0.196972  0.000000  1
  Ru  Ru30  1  0.640575  0.125490  0.500000  1
  Ru  Ru31  1  0.872605  0.519771  0.500000  1
  Ru  Ru32  1  0.479885  0.351681  0.500000  1
  Ru  Ru33  1  0.129945  0.651368  0.500000  1
  Ru  Ru34  1  0.518674  0.869642  0.500000  1
  Ru  Ru35  1  0.352491  0.481255  0.500000  1
