# generated using pymatgen
data_Dy4Al18(IrPt)3
_symmetry_space_group_name_H-M   'P 1'
_cell_length_a   7.59905121
_cell_length_b   7.59905097
_cell_length_c   9.44504519
_cell_angle_alpha   89.98859010
_cell_angle_beta   89.98859307
_cell_angle_gamma   119.63471481
_symmetry_Int_Tables_number   1
_chemical_formula_structural   Dy4Al18(IrPt)3
_chemical_formula_sum   'Dy4 Al18 Ir3 Pt3'
_cell_volume   474.06752071
_cell_formula_units_Z   1
loop_
 _symmetry_equiv_pos_site_id
 _symmetry_equiv_pos_as_xyz
  1  'x, y, z'
loop_
 _atom_site_type_symbol
 _atom_site_label
 _atom_site_symmetry_multiplicity
 _atom_site_fract_x
 _atom_site_fract_y
 _atom_site_fract_z
 _atom_site_occupancy
  Dy  Dy0  1  0.995198  0.670338  0.750485  1
  Dy  Dy1  1  0.004485  0.329591  0.249544  1
  Dy  Dy2  1  0.670409  0.995515  0.750456  1
  Dy  Dy3  1  0.329662  0.004802  0.249515  1
  Al  Al4  1  0.126565  0.127044  0.750361  1
  Al  Al5  1  0.872956  0.873435  0.249639  1
  Al  Al6  1  0.000266  0.331474  0.575843  1
  Al  Al7  1  0.999685  0.668884  0.423757  1
  Al  Al8  1  0.996707  0.665092  0.074655  1
  Al  Al9  1  0.334908  0.003293  0.925345  1
  Al  Al10  1  0.997042  0.331368  0.925350  1
  Al  Al11  1  0.668632  0.002958  0.074650  1
  Al  Al12  1  0.668526  0.999734  0.424157  1
  Al  Al13  1  0.331116  0.000315  0.576243  1
  Al  Al14  1  0.333102  0.329848  0.054139  1
  Al  Al15  1  0.670152  0.666898  0.945861  1
  Al  Al16  1  0.669524  0.669558  0.556130  1
  Al  Al17  1  0.330442  0.330476  0.443870  1
  Al  Al18  1  0.339394  0.545454  0.750336  1
  Al  Al19  1  0.660270  0.452970  0.247475  1
  Al  Al20  1  0.547030  0.339730  0.752525  1
  Al  Al21  1  0.454546  0.660606  0.249664  1
  Ir  Ir22  1  0.671920  0.328080  0.000000  1
  Ir  Ir23  1  0.999874  0.000126  0.500000  1
  Ir  Ir24  1  0.000238  0.999762  0.000000  1
  Pt  Pt25  1  0.672133  0.327867  0.500000  1
  Pt  Pt26  1  0.327580  0.672420  0.500000  1
  Pt  Pt27  1  0.327639  0.672361  0.000000  1
