# generated using pymatgen
data_Hf20Si15Ge
_symmetry_space_group_name_H-M   'P 1'
_cell_length_a   7.08821790
_cell_length_b   7.08377604
_cell_length_c   12.86685268
_cell_angle_alpha   89.98937135
_cell_angle_beta   90.05744864
_cell_angle_gamma   90.00564652
_symmetry_Int_Tables_number   1
_chemical_formula_structural   Hf20Si15Ge
_chemical_formula_sum   'Hf20 Si15 Ge1'
_cell_volume   646.06167967
_cell_formula_units_Z   1
loop_
 _symmetry_equiv_pos_site_id
 _symmetry_equiv_pos_as_xyz
  1  'x, y, z'
loop_
 _atom_site_type_symbol
 _atom_site_label
 _atom_site_symmetry_multiplicity
 _atom_site_fract_x
 _atom_site_fract_y
 _atom_site_fract_z
 _atom_site_occupancy
  Hf  Hf0  1  0.175645  0.175082  0.000115  1
  Hf  Hf1  1  0.824774  0.824899  0.499830  1
  Hf  Hf2  1  0.677425  0.325105  0.750466  1
  Hf  Hf3  1  0.324580  0.675145  0.249989  1
  Hf  Hf4  1  0.997202  0.145219  0.623537  1
  Hf  Hf5  1  0.000712  0.853454  0.123328  1
  Hf  Hf6  1  0.499217  0.353337  0.126733  1
  Hf  Hf7  1  0.503127  0.649382  0.626371  1
  Hf  Hf8  1  0.853339  0.000414  0.877005  1
  Hf  Hf9  1  0.146597  0.999137  0.376621  1
  Hf  Hf10  1  0.646561  0.500883  0.373189  1
  Hf  Hf11  1  0.353564  0.499306  0.874230  1
  Hf  Hf12  1  0.997491  0.347328  0.216753  1
  Hf  Hf13  1  0.000911  0.654779  0.717374  1
  Hf  Hf14  1  0.500192  0.150200  0.531605  1
  Hf  Hf15  1  0.502817  0.847594  0.033220  1
  Hf  Hf16  1  0.652889  0.002618  0.283302  1
  Hf  Hf17  1  0.347722  0.994111  0.784150  1
  Hf  Hf18  1  0.846941  0.503351  0.966986  1
  Hf  Hf19  1  0.151404  0.498352  0.465280  1
  Si  Si20  1  0.704598  0.646081  0.176743  1
  Si  Si21  1  0.795386  0.145936  0.073262  1
  Si  Si22  1  0.204502  0.853886  0.573128  1
  Si  Si23  1  0.645468  0.704447  0.823454  1
  Si  Si24  1  0.354038  0.295329  0.323210  1
  Si  Si25  1  0.854417  0.204488  0.426740  1
  Si  Si26  1  0.145608  0.795022  0.927085  1
  Si  Si27  1  0.045493  0.302758  0.815921  1
  Si  Si28  1  0.951524  0.698073  0.313789  1
  Si  Si29  1  0.547783  0.197479  0.935805  1
  Si  Si30  1  0.451621  0.801893  0.435680  1
  Si  Si31  1  0.697427  0.952502  0.686244  1
  Si  Si32  1  0.302298  0.048193  0.186049  1
  Si  Si33  1  0.802530  0.451967  0.564078  1
  Si  Si34  1  0.197505  0.548006  0.064342  1
  Ge  Ge35  1  0.296689  0.354241  0.674390  1
