# generated using pymatgen
data_Er2FeSi5Ir2
_symmetry_space_group_name_H-M   'P 1'
_cell_length_a   8.06817957
_cell_length_b   8.06817834
_cell_length_c   8.06817931
_cell_angle_alpha   138.79473908
_cell_angle_beta   105.45711208
_cell_angle_gamma   88.91868592
_symmetry_Int_Tables_number   1
_chemical_formula_structural   Er2FeSi5Ir2
_chemical_formula_sum   'Er4 Fe2 Si10 Ir4'
_cell_volume   319.52995625
_cell_formula_units_Z   2
loop_
 _symmetry_equiv_pos_site_id
 _symmetry_equiv_pos_as_xyz
  1  'x, y, z'
loop_
 _atom_site_type_symbol
 _atom_site_label
 _atom_site_symmetry_multiplicity
 _atom_site_fract_x
 _atom_site_fract_y
 _atom_site_fract_z
 _atom_site_occupancy
  Er  Er0  1  0.862500  0.631720  0.230780  1
  Er  Er1  1  0.137500  0.368280  0.769220  1
  Er  Er2  1  0.400939  0.131720  0.269220  1
  Er  Er3  1  0.599061  0.868280  0.730780  1
  Fe  Fe4  1  0.000000  0.750000  0.750000  1
  Fe  Fe5  1  0.000000  0.250000  0.250000  1
  Si  Si6  1  0.500000  0.750000  0.250000  1
  Si  Si7  1  0.500000  0.250000  0.750000  1
  Si  Si8  1  0.216440  0.966440  0.750000  1
  Si  Si9  1  0.783560  0.533560  0.750000  1
  Si  Si10  1  0.783560  0.033560  0.250000  1
  Si  Si11  1  0.216440  0.466440  0.250000  1
  Si  Si12  1  0.053627  0.904123  0.149505  1
  Si  Si13  1  0.946373  0.095877  0.850495  1
  Si  Si14  1  0.754618  0.404123  0.350495  1
  Si  Si15  1  0.245382  0.595877  0.649505  1
  Ir  Ir16  1  0.242967  0.857532  0.385437  1
  Ir  Ir17  1  0.757033  0.142468  0.614563  1
  Ir  Ir18  1  0.472095  0.357532  0.114563  1
  Ir  Ir19  1  0.527905  0.642468  0.885437  1
