# generated using pymatgen
data_Yb7Pa(Ge4Mo3)4
_symmetry_space_group_name_H-M   'P 1'
_cell_length_a   6.86872302
_cell_length_b   7.04237542
_cell_length_c   13.20946077
_cell_angle_alpha   90.02267373
_cell_angle_beta   90.10485662
_cell_angle_gamma   90.14703771
_symmetry_Int_Tables_number   1
_chemical_formula_structural   Yb7Pa(Ge4Mo3)4
_chemical_formula_sum   'Yb7 Pa1 Ge16 Mo12'
_cell_volume   638.96647708
_cell_formula_units_Z   1
loop_
 _symmetry_equiv_pos_site_id
 _symmetry_equiv_pos_as_xyz
  1  'x, y, z'
loop_
 _atom_site_type_symbol
 _atom_site_label
 _atom_site_symmetry_multiplicity
 _atom_site_fract_x
 _atom_site_fract_y
 _atom_site_fract_z
 _atom_site_occupancy
  Yb  Yb0  1  0.491558  0.670295  0.589489  1
  Yb  Yb1  1  0.991184  0.830090  0.911099  1
  Yb  Yb2  1  0.507284  0.328924  0.089913  1
  Yb  Yb3  1  0.007858  0.171655  0.408321  1
  Yb  Yb4  1  0.506582  0.328197  0.408324  1
  Yb  Yb5  1  0.007382  0.172121  0.089686  1
  Yb  Yb6  1  0.491697  0.669053  0.912709  1
  Pa  Pa7  1  0.989988  0.827631  0.592063  1
  Ge  Ge8  1  0.667858  0.956651  0.452125  1
  Ge  Ge9  1  0.169672  0.544452  0.045971  1
  Ge  Ge10  1  0.330059  0.044335  0.953435  1
  Ge  Ge11  1  0.827094  0.448469  0.544611  1
  Ge  Ge12  1  0.331637  0.047221  0.545297  1
  Ge  Ge13  1  0.830581  0.456248  0.953336  1
  Ge  Ge14  1  0.669839  0.955919  0.045692  1
  Ge  Ge15  1  0.173231  0.541809  0.453951  1
  Ge  Ge16  1  0.469004  0.373361  0.747948  1
  Ge  Ge17  1  0.966981  0.126995  0.752429  1
  Ge  Ge18  1  0.533404  0.622563  0.250626  1
  Ge  Ge19  1  0.032810  0.881464  0.248668  1
  Ge  Ge20  1  0.682914  0.852809  0.753658  1
  Ge  Ge21  1  0.195291  0.643861  0.753924  1
  Ge  Ge22  1  0.309729  0.145798  0.249516  1
  Ge  Ge23  1  0.808507  0.355495  0.249459  1
  Mo  Mo24  1  0.671426  0.152784  0.627704  1
  Mo  Mo25  1  0.164021  0.338773  0.870890  1
  Mo  Mo26  1  0.336788  0.837290  0.129221  1
  Mo  Mo27  1  0.842816  0.666210  0.373737  1
  Mo  Mo28  1  0.334465  0.837937  0.371885  1
  Mo  Mo29  1  0.838483  0.663158  0.129624  1
  Mo  Mo30  1  0.662510  0.163617  0.871153  1
  Mo  Mo31  1  0.163046  0.340675  0.628504  1
  Mo  Mo32  1  0.837635  0.493211  0.746581  1
  Mo  Mo33  1  0.333130  0.009461  0.748223  1
  Mo  Mo34  1  0.161641  0.515892  0.250615  1
  Mo  Mo35  1  0.661891  0.985575  0.249610  1
