# generated using pymatgen
data_Li2Ni10P7W2
_symmetry_space_group_name_H-M   'P 1'
_cell_length_a   9.07892148
_cell_length_b   9.07941352
_cell_length_c   3.59659100
_cell_angle_alpha   90.00000000
_cell_angle_beta   90.00000000
_cell_angle_gamma   119.80975674
_symmetry_Int_Tables_number   1
_chemical_formula_structural   Li2Ni10P7W2
_chemical_formula_sum   'Li2 Ni10 P7 W2'
_cell_volume   257.24272637
_cell_formula_units_Z   1
loop_
 _symmetry_equiv_pos_site_id
 _symmetry_equiv_pos_as_xyz
  1  'x, y, z'
loop_
 _atom_site_type_symbol
 _atom_site_label
 _atom_site_symmetry_multiplicity
 _atom_site_fract_x
 _atom_site_fract_y
 _atom_site_fract_z
 _atom_site_occupancy
  Li  Li0  1  0.334571  0.666900  0.000000  1
  Li  Li1  1  0.667231  0.333727  0.499999  1
  Ni  Ni2  1  0.433738  0.060978  0.000000  1
  Ni  Ni3  1  0.164520  0.288790  0.000000  1
  Ni  Ni4  1  0.938728  0.376813  0.000000  1
  Ni  Ni5  1  0.627808  0.563479  0.000000  1
  Ni  Ni6  1  0.119105  0.833946  0.000000  1
  Ni  Ni7  1  0.716288  0.873876  0.000000  1
  Ni  Ni8  1  0.387427  0.442535  0.499999  1
  Ni  Ni9  1  0.048594  0.614940  0.499999  1
  Ni  Ni10  1  0.872627  0.777928  0.499999  1
  Ni  Ni11  1  0.560132  0.944388  0.499999  1
  P  P12  1  0.997022  0.994470  0.000000  1
  P  P13  1  0.703462  0.121670  0.000000  1
  P  P14  1  0.420134  0.298183  0.000000  1
  P  P15  1  0.876049  0.582917  0.000000  1
  P  P16  1  0.126547  0.420837  0.499999  1
  P  P17  1  0.588523  0.708543  0.499999  1
  P  P18  1  0.292123  0.873184  0.499999  1
  W  W19  1  0.218570  0.096107  0.499999  1
  W  W20  1  0.906804  0.125785  0.499999  1
