# generated using pymatgen
data_Sr3NdAs3
_symmetry_space_group_name_H-M   'P 1'
_cell_length_a   8.11880306
_cell_length_b   8.11880339
_cell_length_c   8.14619389
_cell_angle_alpha   109.44106364
_cell_angle_beta   109.44107512
_cell_angle_gamma   109.10029726
_symmetry_Int_Tables_number   1
_chemical_formula_structural   Sr3NdAs3
_chemical_formula_sum   'Sr6 Nd2 As6'
_cell_volume   415.53056029
_cell_formula_units_Z   2
loop_
 _symmetry_equiv_pos_site_id
 _symmetry_equiv_pos_as_xyz
  1  'x, y, z'
loop_
 _atom_site_type_symbol
 _atom_site_label
 _atom_site_symmetry_multiplicity
 _atom_site_fract_x
 _atom_site_fract_y
 _atom_site_fract_z
 _atom_site_occupancy
  Sr  Sr0  1  0.998643  0.126482  0.495922  1
  Sr  Sr1  1  0.369207  0.366783  0.369622  1
  Sr  Sr2  1  0.626482  0.498643  0.995922  1
  Sr  Sr3  1  0.502699  0.003895  0.133717  1
  Sr  Sr4  1  0.866783  0.869207  0.869622  1
  Sr  Sr5  1  0.503895  0.002699  0.633717  1
  Nd  Nd6  1  0.001653  0.628729  0.500730  1
  Nd  Nd7  1  0.128729  0.501653  0.000730  1
  As  As8  1  0.887643  0.269410  0.132538  1
  As  As9  1  0.357291  0.623569  0.747006  1
  As  As10  1  0.123569  0.857291  0.247006  1
  As  As11  1  0.621513  0.742482  0.370465  1
  As  As12  1  0.242482  0.121513  0.870465  1
  As  As13  1  0.769410  0.387643  0.632538  1
