# generated using pymatgen
data_Ba2LuCoO5
_symmetry_space_group_name_H-M   'P 1'
_cell_length_a   6.08998800
_cell_length_b   7.89000307
_cell_length_c   12.38052733
_cell_angle_alpha   91.64369615
_cell_angle_beta   90.00000000
_cell_angle_gamma   90.00000000
_symmetry_Int_Tables_number   1
_chemical_formula_structural   Ba2LuCoO5
_chemical_formula_sum   'Ba8 Lu4 Co4 O20'
_cell_volume   594.63985833
_cell_formula_units_Z   4
loop_
 _symmetry_equiv_pos_site_id
 _symmetry_equiv_pos_as_xyz
  1  'x, y, z'
loop_
 _atom_site_type_symbol
 _atom_site_label
 _atom_site_symmetry_multiplicity
 _atom_site_fract_x
 _atom_site_fract_y
 _atom_site_fract_z
 _atom_site_occupancy
  Ba  Ba0  1  0.757648  0.492731  0.361214  1
  Ba  Ba1  1  0.742352  0.992731  0.861214  1
  Ba  Ba2  1  0.242352  0.507269  0.638786  1
  Ba  Ba3  1  0.257648  0.007269  0.138786  1
  Ba  Ba4  1  0.753397  0.992722  0.384289  1
  Ba  Ba5  1  0.746603  0.492722  0.884289  1
  Ba  Ba6  1  0.246603  0.007278  0.615711  1
  Ba  Ba7  1  0.253397  0.507278  0.115711  1
  Lu  Lu8  1  0.747629  0.262088  0.630586  1
  Lu  Lu9  1  0.752371  0.762088  0.130586  1
  Lu  Lu10  1  0.252371  0.737912  0.369414  1
  Lu  Lu11  1  0.247629  0.237912  0.869414  1
  Co  Co12  1  0.741817  0.746115  0.591250  1
  Co  Co13  1  0.758183  0.246115  0.091250  1
  Co  Co14  1  0.258183  0.253885  0.408750  1
  Co  Co15  1  0.241817  0.753885  0.908750  1
  O  O16  1  0.754038  0.973907  0.631888  1
  O  O17  1  0.745962  0.473907  0.131888  1
  O  O18  1  0.245962  0.026093  0.368112  1
  O  O19  1  0.254038  0.526093  0.868112  1
  O  O20  1  0.739797  0.051936  0.168313  1
  O  O21  1  0.760203  0.551936  0.668313  1
  O  O22  1  0.260203  0.948064  0.831687  1
  O  O23  1  0.239797  0.448064  0.331687  1
  O  O24  1  0.534177  0.746974  0.266720  1
  O  O25  1  0.965823  0.246974  0.766720  1
  O  O26  1  0.465823  0.253026  0.733280  1
  O  O27  1  0.034177  0.753026  0.233280  1
  O  O28  1  0.524030  0.230373  0.986905  1
  O  O29  1  0.975970  0.730373  0.486905  1
  O  O30  1  0.475970  0.769627  0.013095  1
  O  O31  1  0.024030  0.269627  0.513095  1
  O  O32  1  0.029428  0.233569  0.013881  1
  O  O33  1  0.470572  0.733569  0.513881  1
  O  O34  1  0.970572  0.766431  0.986119  1
  O  O35  1  0.529428  0.266431  0.486119  1
