# generated using pymatgen
data_Tb2Ho6Zn3Si12Au
_symmetry_space_group_name_H-M   'P 1'
_cell_length_a   8.13640400
_cell_length_b   8.13640265
_cell_length_c   8.02140700
_cell_angle_alpha   90.00000000
_cell_angle_beta   90.00000000
_cell_angle_gamma   120.00000549
_symmetry_Int_Tables_number   1
_chemical_formula_structural   Tb2Ho6Zn3Si12Au
_chemical_formula_sum   'Tb2 Ho6 Zn3 Si12 Au1'
_cell_volume   459.88166762
_cell_formula_units_Z   1
loop_
 _symmetry_equiv_pos_site_id
 _symmetry_equiv_pos_as_xyz
  1  'x, y, z'
loop_
 _atom_site_type_symbol
 _atom_site_label
 _atom_site_symmetry_multiplicity
 _atom_site_fract_x
 _atom_site_fract_y
 _atom_site_fract_z
 _atom_site_occupancy
  Tb  Tb0  1  0.000000  0.000000  0.251137  1
  Tb  Tb1  1  0.000000  0.000000  0.748551  1
  Ho  Ho2  1  0.501711  0.003421  0.252427  1
  Ho  Ho3  1  0.501170  0.002342  0.747743  1
  Ho  Ho4  1  0.996579  0.498289  0.252427  1
  Ho  Ho5  1  0.997658  0.498830  0.747743  1
  Ho  Ho6  1  0.501711  0.498289  0.252427  1
  Ho  Ho7  1  0.501170  0.498830  0.747743  1
  Zn  Zn8  1  0.666667  0.333333  0.000211  1
  Zn  Zn9  1  0.666667  0.333333  0.500357  1
  Zn  Zn10  1  0.333333  0.666667  0.499741  1
  Si  Si11  1  0.163722  0.327445  0.999477  1
  Si  Si12  1  0.833057  0.666115  0.000001  1
  Si  Si13  1  0.672555  0.836278  0.999477  1
  Si  Si14  1  0.832354  0.664708  0.500966  1
  Si  Si15  1  0.333885  0.166943  0.000001  1
  Si  Si16  1  0.166572  0.333143  0.498978  1
  Si  Si17  1  0.163722  0.836278  0.999477  1
  Si  Si18  1  0.335292  0.167646  0.500966  1
  Si  Si19  1  0.833057  0.166943  0.000001  1
  Si  Si20  1  0.666857  0.833428  0.498978  1
  Si  Si21  1  0.832354  0.167646  0.500966  1
  Si  Si22  1  0.166572  0.833428  0.498978  1
  Au  Au23  1  0.333333  0.666667  0.001226  1
