# generated using pymatgen
data_Cs2U2OF10
_symmetry_space_group_name_H-M   'P 1'
_cell_length_a   5.58713100
_cell_length_b   7.95114186
_cell_length_c   14.89207989
_cell_angle_alpha   80.66174018
_cell_angle_beta   90.00000000
_cell_angle_gamma   90.00000000
_symmetry_Int_Tables_number   1
_chemical_formula_structural   Cs2U2OF10
_chemical_formula_sum   'Cs4 U4 O2 F20'
_cell_volume   652.79945796
_cell_formula_units_Z   2
loop_
 _symmetry_equiv_pos_site_id
 _symmetry_equiv_pos_as_xyz
  1  'x, y, z'
loop_
 _atom_site_type_symbol
 _atom_site_label
 _atom_site_symmetry_multiplicity
 _atom_site_fract_x
 _atom_site_fract_y
 _atom_site_fract_z
 _atom_site_occupancy
  Cs  Cs0  1  0.422829  0.235188  0.595035  1
  Cs  Cs1  1  0.577171  0.235188  0.095035  1
  Cs  Cs2  1  0.577171  0.764812  0.404965  1
  Cs  Cs3  1  0.422829  0.764812  0.904965  1
  U  U4  1  0.016850  0.285122  0.338623  1
  U  U5  1  0.983150  0.285122  0.838623  1
  U  U6  1  0.016850  0.714878  0.161377  1
  U  U7  1  0.983150  0.714878  0.661377  1
  O  O8  1  0.109185  0.500000  0.750000  1
  O  O9  1  0.890815  0.500000  0.250000  1
  F  F10  1  0.714304  0.859871  0.185020  1
  F  F11  1  0.681356  0.574688  0.633163  1
  F  F12  1  0.169069  0.792808  0.276742  1
  F  F13  1  0.829950  0.076334  0.924272  1
  F  F14  1  0.318644  0.425312  0.366837  1
  F  F15  1  0.170050  0.923666  0.075728  1
  F  F16  1  0.169069  0.207192  0.223258  1
  F  F17  1  0.285696  0.859871  0.685020  1
  F  F18  1  0.830931  0.207192  0.723258  1
  F  F19  1  0.681356  0.425312  0.866837  1
  F  F20  1  0.170050  0.076334  0.424272  1
  F  F21  1  0.155752  0.362433  0.951374  1
  F  F22  1  0.285696  0.140129  0.814980  1
  F  F23  1  0.844248  0.637567  0.048626  1
  F  F24  1  0.830931  0.792808  0.776742  1
  F  F25  1  0.714304  0.140129  0.314980  1
  F  F26  1  0.829950  0.923666  0.575728  1
  F  F27  1  0.844248  0.362433  0.451374  1
  F  F28  1  0.318644  0.574688  0.133163  1
  F  F29  1  0.155752  0.637567  0.548626  1
