# generated using pymatgen
data_Dy3Y7Rh4
_symmetry_space_group_name_H-M   'P 1'
_cell_length_a   6.46079569
_cell_length_b   7.18548607
_cell_length_c   8.66755213
_cell_angle_alpha   96.77180247
_cell_angle_beta   111.82921291
_cell_angle_gamma   90.05749835
_symmetry_Int_Tables_number   1
_chemical_formula_structural   Dy3Y7Rh4
_chemical_formula_sum   'Dy3 Y7 Rh4'
_cell_volume   370.48467144
_cell_formula_units_Z   1
loop_
 _symmetry_equiv_pos_site_id
 _symmetry_equiv_pos_as_xyz
  1  'x, y, z'
loop_
 _atom_site_type_symbol
 _atom_site_label
 _atom_site_symmetry_multiplicity
 _atom_site_fract_x
 _atom_site_fract_y
 _atom_site_fract_z
 _atom_site_occupancy
  Dy  Dy0  1  0.349388  0.685176  0.562469  1
  Dy  Dy1  1  0.426308  0.249875  0.999818  1
  Dy  Dy2  1  0.573329  0.750524  0.000270  1
  Y  Y3  1  0.792214  0.083478  0.813202  1
  Y  Y4  1  0.978697  0.416788  0.188293  1
  Y  Y5  1  0.208682  0.916877  0.187524  1
  Y  Y6  1  0.021496  0.583124  0.812295  1
  Y  Y7  1  0.211006  0.184797  0.561145  1
  Y  Y8  1  0.650686  0.314221  0.438217  1
  Y  Y9  1  0.789506  0.814801  0.438792  1
  Rh  Rh10  1  0.595641  0.428875  0.780351  1
  Rh  Rh11  1  0.816484  0.072312  0.218396  1
  Rh  Rh12  1  0.402678  0.572440  0.219342  1
  Rh  Rh13  1  0.183885  0.926715  0.779887  1
