# generated using pymatgen
data_Zr4Nb4GaAs3
_symmetry_space_group_name_H-M   'P 1'
_cell_length_a   3.64304600
_cell_length_b   7.11745032
_cell_length_c   8.64128437
_cell_angle_alpha   89.73264797
_cell_angle_beta   90.00000000
_cell_angle_gamma   90.00000000
_symmetry_Int_Tables_number   1
_chemical_formula_structural   Zr4Nb4GaAs3
_chemical_formula_sum   'Zr4 Nb4 Ga1 As3'
_cell_volume   224.05914226
_cell_formula_units_Z   1
loop_
 _symmetry_equiv_pos_site_id
 _symmetry_equiv_pos_as_xyz
  1  'x, y, z'
loop_
 _atom_site_type_symbol
 _atom_site_label
 _atom_site_symmetry_multiplicity
 _atom_site_fract_x
 _atom_site_fract_y
 _atom_site_fract_z
 _atom_site_occupancy
  Zr  Zr0  1  0.250000  0.045548  0.666448  1
  Zr  Zr1  1  0.250000  0.542032  0.831962  1
  Zr  Zr2  1  0.750000  0.456649  0.164033  1
  Zr  Zr3  1  0.750000  0.954199  0.333419  1
  Nb  Nb4  1  0.750000  0.864096  0.939729  1
  Nb  Nb5  1  0.250000  0.633519  0.441781  1
  Nb  Nb6  1  0.750000  0.372027  0.562559  1
  Nb  Nb7  1  0.250000  0.129485  0.057613  1
  Ga  Ga8  1  0.250000  0.254165  0.357767  1
  As  As9  1  0.250000  0.754014  0.143966  1
  As  As10  1  0.750000  0.749902  0.641933  1
  As  As11  1  0.750000  0.244366  0.858790  1
