# generated using pymatgen
data_HoTm5Bi2Os
_symmetry_space_group_name_H-M   'P 1'
_cell_length_a   8.22334900
_cell_length_b   8.21236172
_cell_length_c   4.23018500
_cell_angle_alpha   90.00000000
_cell_angle_beta   90.00000000
_cell_angle_gamma   120.04427113
_symmetry_Int_Tables_number   1
_chemical_formula_structural   HoTm5Bi2Os
_chemical_formula_sum   'Ho1 Tm5 Bi2 Os1'
_cell_volume   247.29359651
_cell_formula_units_Z   1
loop_
 _symmetry_equiv_pos_site_id
 _symmetry_equiv_pos_as_xyz
  1  'x, y, z'
loop_
 _atom_site_type_symbol
 _atom_site_label
 _atom_site_symmetry_multiplicity
 _atom_site_fract_x
 _atom_site_fract_y
 _atom_site_fract_z
 _atom_site_occupancy
  Ho  Ho0  1  0.382978  0.000000  0.000000  1
  Tm  Tm1  1  0.000065  0.382340  0.000000  1
  Tm  Tm2  1  0.617725  0.617660  0.000000  1
  Tm  Tm3  1  0.766997  0.000000  0.499999  1
  Tm  Tm4  1  0.232803  0.233159  0.499999  1
  Tm  Tm5  1  0.999642  0.766841  0.499999  1
  Bi  Bi6  1  0.667048  0.333680  0.499999  1
  Bi  Bi7  1  0.333367  0.666320  0.499999  1
  Os  Os8  1  0.999376  0.000000  0.000000  1
