# generated using pymatgen
data_Tb5Ho(BePd5)2
_symmetry_space_group_name_H-M   'P 1'
_cell_length_a   8.11286424
_cell_length_b   8.11286472
_cell_length_c   8.11286500
_cell_angle_alpha   127.10692641
_cell_angle_beta   124.51434738
_cell_angle_gamma   80.21700770
_symmetry_Int_Tables_number   1
_chemical_formula_structural   Tb5Ho(BePd5)2
_chemical_formula_sum   'Tb5 Ho1 Be2 Pd10'
_cell_volume   338.67415006
_cell_formula_units_Z   1
loop_
 _symmetry_equiv_pos_site_id
 _symmetry_equiv_pos_as_xyz
  1  'x, y, z'
loop_
 _atom_site_type_symbol
 _atom_site_label
 _atom_site_symmetry_multiplicity
 _atom_site_fract_x
 _atom_site_fract_y
 _atom_site_fract_z
 _atom_site_occupancy
  Tb  Tb0  1  0.221180  0.446570  0.774611  1
  Tb  Tb1  1  0.778702  0.552973  0.225729  1
  Tb  Tb2  1  0.828041  0.053430  0.774611  1
  Tb  Tb3  1  0.172756  0.947027  0.225729  1
  Tb  Tb4  1  0.407078  0.250000  0.157078  1
  Ho  Ho5  1  0.591929  0.750000  0.841929  1
  Be  Be6  1  0.793903  0.250000  0.543903  1
  Be  Be7  1  0.205414  0.750000  0.455414  1
  Pd  Pd8  1  0.172288  0.408284  0.357536  1
  Pd  Pd9  1  0.827493  0.183231  0.234783  1
  Pd  Pd10  1  0.449253  0.091716  0.764004  1
  Pd  Pd11  1  0.551553  0.316769  0.644262  1
  Pd  Pd12  1  0.999912  0.499825  0.999738  1
  Pd  Pd13  1  0.999912  0.000175  0.500087  1
  Pd  Pd14  1  0.449253  0.685249  0.357536  1
  Pd  Pd15  1  0.551553  0.907291  0.234783  1
  Pd  Pd16  1  0.172288  0.814751  0.764004  1
  Pd  Pd17  1  0.827493  0.592709  0.644262  1
