# generated using pymatgen
data_Pr8Ir3RhO24
_symmetry_space_group_name_H-M   'P 1'
_cell_length_a   5.49477449
_cell_length_b   9.48419346
_cell_length_c   10.21900884
_cell_angle_alpha   89.98652827
_cell_angle_beta   90.09620072
_cell_angle_gamma   90.09018994
_symmetry_Int_Tables_number   1
_chemical_formula_structural   Pr8Ir3RhO24
_chemical_formula_sum   'Pr8 Ir3 Rh1 O24'
_cell_volume   532.54693594
_cell_formula_units_Z   1
loop_
 _symmetry_equiv_pos_site_id
 _symmetry_equiv_pos_as_xyz
  1  'x, y, z'
loop_
 _atom_site_type_symbol
 _atom_site_label
 _atom_site_symmetry_multiplicity
 _atom_site_fract_x
 _atom_site_fract_y
 _atom_site_fract_z
 _atom_site_occupancy
  Pr  Pr0  1  0.033858  0.219527  0.133829  1
  Pr  Pr1  1  0.466145  0.778409  0.632509  1
  Pr  Pr2  1  0.965810  0.717427  0.369364  1
  Pr  Pr3  1  0.532835  0.283590  0.864749  1
  Pr  Pr4  1  0.028117  0.104789  0.538358  1
  Pr  Pr5  1  0.474562  0.897875  0.038257  1
  Pr  Pr6  1  0.973346  0.601784  0.959977  1
  Pr  Pr7  1  0.524237  0.400025  0.465707  1
  Ir  Ir8  1  0.545502  0.003180  0.357792  1
  Ir  Ir9  1  0.955642  0.996861  0.857854  1
  Ir  Ir10  1  0.455036  0.503871  0.142560  1
  Rh  Rh11  1  0.043527  0.496458  0.642285  1
  O  O12  1  0.438440  0.148830  0.480034  1
  O  O13  1  0.063864  0.851019  0.980370  1
  O  O14  1  0.562316  0.648756  0.019311  1
  O  O15  1  0.936105  0.350563  0.517340  1
  O  O16  1  0.722791  0.389224  0.065756  1
  O  O17  1  0.771908  0.612254  0.563074  1
  O  O18  1  0.277563  0.888742  0.434306  1
  O  O19  1  0.222093  0.112354  0.934355  1
  O  O20  1  0.247558  0.411648  0.005927  1
  O  O21  1  0.252313  0.590492  0.505109  1
  O  O22  1  0.752589  0.912849  0.494739  1
  O  O23  1  0.748517  0.088492  0.994138  1
  O  O24  1  0.185086  0.631041  0.178745  1
  O  O25  1  0.314370  0.363632  0.677803  1
  O  O26  1  0.816257  0.130837  0.320886  1
  O  O27  1  0.687146  0.867460  0.821737  1
  O  O28  1  0.338651  0.057812  0.215629  1
  O  O29  1  0.159128  0.939987  0.716915  1
  O  O30  1  0.660771  0.558566  0.283752  1
  O  O31  1  0.836314  0.441844  0.784419  1
  O  O32  1  0.326109  0.361627  0.258131  1
  O  O33  1  0.180661  0.638155  0.759086  1
  O  O34  1  0.676520  0.860963  0.242311  1
  O  O35  1  0.824311  0.139059  0.742891  1
