# generated using pymatgen
data_CaSc4Pa3(ReB6)4
_symmetry_space_group_name_H-M   'P 1'
_cell_length_a   3.62940100
_cell_length_b   9.00774653
_cell_length_c   11.37935101
_cell_angle_alpha   90.06619634
_cell_angle_beta   90.00000000
_cell_angle_gamma   90.00000000
_symmetry_Int_Tables_number   1
_chemical_formula_structural   CaSc4Pa3(ReB6)4
_chemical_formula_sum   'Ca1 Sc4 Pa3 Re4 B24'
_cell_volume   372.02173658
_cell_formula_units_Z   1
loop_
 _symmetry_equiv_pos_site_id
 _symmetry_equiv_pos_as_xyz
  1  'x, y, z'
loop_
 _atom_site_type_symbol
 _atom_site_label
 _atom_site_symmetry_multiplicity
 _atom_site_fract_x
 _atom_site_fract_y
 _atom_site_fract_z
 _atom_site_occupancy
  Ca  Ca0  1  0.000000  0.180722  0.913563  1
  Sc  Sc1  1  0.000000  0.946574  0.374781  1
  Sc  Sc2  1  0.000000  0.055588  0.627855  1
  Sc  Sc3  1  0.000000  0.443527  0.124408  1
  Sc  Sc4  1  0.000000  0.552912  0.874088  1
  Pa  Pa5  1  0.000000  0.319493  0.414073  1
  Pa  Pa6  1  0.000000  0.679227  0.587028  1
  Pa  Pa7  1  0.000000  0.823150  0.084956  1
  Re  Re8  1  0.000000  0.640874  0.319389  1
  Re  Re9  1  0.000000  0.362524  0.677416  1
  Re  Re10  1  0.000000  0.140241  0.184191  1
  Re  Re11  1  0.000000  0.855698  0.818244  1
  B  B12  1  0.500000  0.554860  0.432073  1
  B  B13  1  0.500000  0.445738  0.566845  1
  B  B14  1  0.500000  0.054368  0.068690  1
  B  B15  1  0.500000  0.943885  0.932078  1
  B  B16  1  0.500000  0.753850  0.419145  1
  B  B17  1  0.500000  0.246800  0.581591  1
  B  B18  1  0.500000  0.253191  0.080824  1
  B  B19  1  0.500000  0.746624  0.919198  1
  B  B20  1  0.500000  0.794121  0.264559  1
  B  B21  1  0.500000  0.206003  0.734974  1
  B  B22  1  0.500000  0.294331  0.234777  1
  B  B23  1  0.500000  0.705106  0.765156  1
  B  B24  1  0.500000  0.629849  0.182234  1
  B  B25  1  0.500000  0.370609  0.816659  1
  B  B26  1  0.500000  0.129613  0.317456  1
  B  B27  1  0.500000  0.870061  0.683652  1
  B  B28  1  0.500000  0.981650  0.214026  1
  B  B29  1  0.500000  0.018368  0.785686  1
  B  B30  1  0.500000  0.481928  0.284819  1
  B  B31  1  0.500000  0.517887  0.714382  1
  B  B32  1  0.500000  0.598842  0.027118  1
  B  B33  1  0.500000  0.401628  0.972978  1
  B  B34  1  0.500000  0.100597  0.473267  1
  B  B35  1  0.500000  0.899560  0.527822  1
