# generated using pymatgen
data_Pu2SnIrPt
_symmetry_space_group_name_H-M   'P 1'
_cell_length_a   7.61719900
_cell_length_b   7.66021100
_cell_length_c   3.76968800
_cell_angle_alpha   90.00000000
_cell_angle_beta   90.00000000
_cell_angle_gamma   90.00000000
_symmetry_Int_Tables_number   1
_chemical_formula_structural   Pu2SnIrPt
_chemical_formula_sum   'Pu4 Sn2 Ir2 Pt2'
_cell_volume   219.95885042
_cell_formula_units_Z   2
loop_
 _symmetry_equiv_pos_site_id
 _symmetry_equiv_pos_as_xyz
  1  'x, y, z'
loop_
 _atom_site_type_symbol
 _atom_site_label
 _atom_site_symmetry_multiplicity
 _atom_site_fract_x
 _atom_site_fract_y
 _atom_site_fract_z
 _atom_site_occupancy
  Pu  Pu0  1  0.330326  0.818519  0.500000  1
  Pu  Pu1  1  0.830326  0.681481  0.500000  1
  Pu  Pu2  1  0.172745  0.339321  0.500000  1
  Pu  Pu3  1  0.672745  0.160679  0.500000  1
  Sn  Sn4  1  0.501741  0.500745  0.000000  1
  Sn  Sn5  1  0.001741  0.999255  0.000000  1
  Ir  Ir6  1  0.129666  0.634360  0.000000  1
  Ir  Ir7  1  0.629666  0.865640  0.000000  1
  Pt  Pt8  1  0.865521  0.369632  0.000000  1
  Pt  Pt9  1  0.365521  0.130368  0.000000  1
