# generated using pymatgen
data_TbDy2Al3GaCu2
_symmetry_space_group_name_H-M   'P 1'
_cell_length_a   6.96912513
_cell_length_b   6.97158743
_cell_length_c   4.17796600
_cell_angle_alpha   90.00000000
_cell_angle_beta   90.00000000
_cell_angle_gamma   120.01013429
_symmetry_Int_Tables_number   1
_chemical_formula_structural   TbDy2Al3GaCu2
_chemical_formula_sum   'Tb1 Dy2 Al3 Ga1 Cu2'
_cell_volume   175.77662212
_cell_formula_units_Z   1
loop_
 _symmetry_equiv_pos_site_id
 _symmetry_equiv_pos_as_xyz
  1  'x, y, z'
loop_
 _atom_site_type_symbol
 _atom_site_label
 _atom_site_symmetry_multiplicity
 _atom_site_fract_x
 _atom_site_fract_y
 _atom_site_fract_z
 _atom_site_occupancy
  Tb  Tb0  1  0.996180  0.412035  0.500000  1
  Dy  Dy1  1  0.588063  0.584472  0.500000  1
  Dy  Dy2  1  0.415843  0.003949  0.500000  1
  Al  Al3  1  0.992143  0.759926  0.000000  1
  Al  Al4  1  0.240294  0.232209  0.000000  1
  Al  Al5  1  0.767649  0.007711  0.000000  1
  Ga  Ga6  1  0.333870  0.666983  0.000000  1
  Cu  Cu7  1  0.666052  0.333163  0.000000  1
  Cu  Cu8  1  0.999905  0.999551  0.500000  1
