# generated using pymatgen
data_CeNpCo17
_symmetry_space_group_name_H-M   'P 1'
_cell_length_a   6.24659855
_cell_length_b   6.24659767
_cell_length_c   6.24659762
_cell_angle_alpha   82.80561557
_cell_angle_beta   82.80561535
_cell_angle_gamma   82.80562012
_symmetry_Int_Tables_number   1
_chemical_formula_structural   CeNpCo17
_chemical_formula_sum   'Ce1 Np1 Co17'
_cell_volume   238.42871304
_cell_formula_units_Z   1
loop_
 _symmetry_equiv_pos_site_id
 _symmetry_equiv_pos_as_xyz
  1  'x, y, z'
loop_
 _atom_site_type_symbol
 _atom_site_label
 _atom_site_symmetry_multiplicity
 _atom_site_fract_x
 _atom_site_fract_y
 _atom_site_fract_z
 _atom_site_occupancy
  Ce  Ce0  1  0.656721  0.656721  0.656721  1
  Np  Np1  1  0.341254  0.341254  0.341254  1
  Co  Co2  1  0.709581  0.289453  0.002189  1
  Co  Co3  1  0.002189  0.709581  0.289453  1
  Co  Co4  1  0.289453  0.002189  0.709581  1
  Co  Co5  1  0.002189  0.289453  0.709581  1
  Co  Co6  1  0.709581  0.002189  0.289453  1
  Co  Co7  1  0.289453  0.709581  0.002189  1
  Co  Co8  1  0.346441  0.346441  0.851964  1
  Co  Co9  1  0.851964  0.346441  0.346441  1
  Co  Co10  1  0.346441  0.851964  0.346441  1
  Co  Co11  1  0.650356  0.650356  0.150631  1
  Co  Co12  1  0.150631  0.650356  0.650356  1
  Co  Co13  1  0.650356  0.150631  0.650356  1
  Co  Co14  1  0.001984  0.001984  0.499757  1
  Co  Co15  1  0.499757  0.001984  0.001984  1
  Co  Co16  1  0.001984  0.499757  0.001984  1
  Co  Co17  1  0.901725  0.901725  0.901725  1
  Co  Co18  1  0.097939  0.097939  0.097939  1
