# generated using pymatgen
data_Dy9Tm7(C2Cl3)4
_symmetry_space_group_name_H-M   'P 1'
_cell_length_a   3.62940600
_cell_length_b   10.40637471
_cell_length_c   19.57057532
_cell_angle_alpha   89.95784083
_cell_angle_beta   90.00000000
_cell_angle_gamma   90.00000000
_symmetry_Int_Tables_number   1
_chemical_formula_structural   Dy9Tm7(C2Cl3)4
_chemical_formula_sum   'Dy9 Tm7 C8 Cl12'
_cell_volume   739.16005283
_cell_formula_units_Z   1
loop_
 _symmetry_equiv_pos_site_id
 _symmetry_equiv_pos_as_xyz
  1  'x, y, z'
loop_
 _atom_site_type_symbol
 _atom_site_label
 _atom_site_symmetry_multiplicity
 _atom_site_fract_x
 _atom_site_fract_y
 _atom_site_fract_z
 _atom_site_occupancy
  Dy  Dy0  1  0.250000  0.862317  0.573523  1
  Dy  Dy1  1  0.750000  0.137693  0.426867  1
  Dy  Dy2  1  0.750000  0.636861  0.073233  1
  Dy  Dy3  1  0.250000  0.362289  0.926529  1
  Dy  Dy4  1  0.250000  0.863936  0.744984  1
  Dy  Dy5  1  0.750000  0.135611  0.255555  1
  Dy  Dy6  1  0.750000  0.636182  0.245020  1
  Dy  Dy7  1  0.250000  0.364295  0.755016  1
  Dy  Dy8  1  0.250000  0.874657  0.164866  1
  Tm  Tm9  1  0.750000  0.127185  0.834072  1
  Tm  Tm10  1  0.750000  0.627135  0.665936  1
  Tm  Tm11  1  0.250000  0.372631  0.334239  1
  Tm  Tm12  1  0.250000  0.898749  0.331597  1
  Tm  Tm13  1  0.750000  0.100900  0.669190  1
  Tm  Tm14  1  0.750000  0.601065  0.830851  1
  Tm  Tm15  1  0.250000  0.399337  0.169470  1
  C  C16  1  0.250000  0.613688  0.750221  1
  C  C17  1  0.750000  0.386115  0.250122  1
  C  C18  1  0.750000  0.886639  0.251497  1
  C  C19  1  0.250000  0.113902  0.749812  1
  C  C20  1  0.250000  0.632925  0.152561  1
  C  C21  1  0.750000  0.365267  0.847304  1
  C  C22  1  0.750000  0.865514  0.652736  1
  C  C23  1  0.250000  0.135087  0.347712  1
  Cl  Cl24  1  0.250000  0.610874  0.557956  1
  Cl  Cl25  1  0.750000  0.389083  0.442481  1
  Cl  Cl26  1  0.750000  0.887601  0.054618  1
  Cl  Cl27  1  0.250000  0.110895  0.942011  1
  Cl  Cl28  1  0.250000  0.624154  0.950696  1
  Cl  Cl29  1  0.750000  0.375177  0.048605  1
  Cl  Cl30  1  0.750000  0.875432  0.451473  1
  Cl  Cl31  1  0.250000  0.124583  0.549194  1
  Cl  Cl32  1  0.250000  0.637737  0.355801  1
  Cl  Cl33  1  0.750000  0.361859  0.644451  1
  Cl  Cl34  1  0.750000  0.861812  0.855484  1
  Cl  Cl35  1  0.250000  0.140813  0.144316  1
