# generated using pymatgen
data_Ho2Tm2B12RhW
_symmetry_space_group_name_H-M   'P 1'
_cell_length_a   3.62455800
_cell_length_b   9.17014811
_cell_length_c   11.58524511
_cell_angle_alpha   90.42940533
_cell_angle_beta   90.00000000
_cell_angle_gamma   90.00000000
_symmetry_Int_Tables_number   1
_chemical_formula_structural   Ho2Tm2B12RhW
_chemical_formula_sum   'Ho4 Tm4 B24 Rh2 W2'
_cell_volume   385.05647741
_cell_formula_units_Z   2
loop_
 _symmetry_equiv_pos_site_id
 _symmetry_equiv_pos_as_xyz
  1  'x, y, z'
loop_
 _atom_site_type_symbol
 _atom_site_label
 _atom_site_symmetry_multiplicity
 _atom_site_fract_x
 _atom_site_fract_y
 _atom_site_fract_z
 _atom_site_occupancy
  Ho  Ho0  1  0.500000  0.319587  0.412093  1
  Ho  Ho1  1  0.500000  0.680413  0.587907  1
  Ho  Ho2  1  0.500000  0.175687  0.916555  1
  Ho  Ho3  1  0.500000  0.824313  0.083445  1
  Tm  Tm4  1  0.500000  0.444492  0.126936  1
  Tm  Tm5  1  0.500000  0.555508  0.873064  1
  Tm  Tm6  1  0.500000  0.055328  0.627418  1
  Tm  Tm7  1  0.500000  0.944672  0.372582  1
  B  B8  1  0.000000  0.106883  0.472068  1
  B  B9  1  0.000000  0.893117  0.527932  1
  B  B10  1  0.000000  0.396211  0.970536  1
  B  B11  1  0.000000  0.603789  0.029464  1
  B  B12  1  0.000000  0.132696  0.318416  1
  B  B13  1  0.000000  0.867304  0.681584  1
  B  B14  1  0.000000  0.368014  0.815823  1
  B  B15  1  0.000000  0.631986  0.184177  1
  B  B16  1  0.000000  0.051585  0.065662  1
  B  B17  1  0.000000  0.948415  0.934338  1
  B  B18  1  0.000000  0.446056  0.565578  1
  B  B19  1  0.000000  0.553944  0.434422  1
  B  B20  1  0.000000  0.483925  0.288441  1
  B  B21  1  0.000000  0.516075  0.711559  1
  B  B22  1  0.000000  0.021035  0.785427  1
  B  B23  1  0.000000  0.978965  0.214573  1
  B  B24  1  0.000000  0.251904  0.079012  1
  B  B25  1  0.000000  0.748096  0.920988  1
  B  B26  1  0.000000  0.250652  0.579135  1
  B  B27  1  0.000000  0.749348  0.420865  1
  B  B28  1  0.000000  0.297343  0.237040  1
  B  B29  1  0.000000  0.702657  0.762960  1
  B  B30  1  0.000000  0.208751  0.734084  1
  B  B31  1  0.000000  0.791249  0.265916  1
  Rh  Rh32  1  0.500000  0.361138  0.678740  1
  Rh  Rh33  1  0.500000  0.638862  0.321260  1
  W  W34  1  0.500000  0.139636  0.181146  1
  W  W35  1  0.500000  0.860364  0.818854  1
