# generated using pymatgen
data_YHo4Nb3(Co4P3)4
_symmetry_space_group_name_H-M   'P 1'
_cell_length_a   12.18326500
_cell_length_b   12.18326612
_cell_length_c   3.69630600
_cell_angle_alpha   90.00000000
_cell_angle_beta   90.00000000
_cell_angle_gamma   119.99999966
_symmetry_Int_Tables_number   1
_chemical_formula_structural   YHo4Nb3(Co4P3)4
_chemical_formula_sum   'Y1 Ho4 Nb3 Co16 P12'
_cell_volume   475.14479040
_cell_formula_units_Z   1
loop_
 _symmetry_equiv_pos_site_id
 _symmetry_equiv_pos_as_xyz
  1  'x, y, z'
loop_
 _atom_site_type_symbol
 _atom_site_label
 _atom_site_symmetry_multiplicity
 _atom_site_fract_x
 _atom_site_fract_y
 _atom_site_fract_z
 _atom_site_occupancy
  Y  Y0  1  0.333333  0.666667  0.000000  1
  Ho  Ho1  1  0.816768  0.000008  0.500000  1
  Ho  Ho2  1  0.999992  0.816759  0.500000  1
  Ho  Ho3  1  0.183241  0.183232  0.500000  1
  Ho  Ho4  1  0.666667  0.333333  0.000000  1
  Nb  Nb5  1  0.444745  0.000170  0.000000  1
  Nb  Nb6  1  0.999830  0.444575  0.000000  1
  Nb  Nb7  1  0.555425  0.555255  0.000000  1
  Co  Co8  1  0.279114  0.000092  0.500000  1
  Co  Co9  1  0.999908  0.279022  0.500000  1
  Co  Co10  1  0.720978  0.720886  0.500000  1
  Co  Co11  1  0.626676  0.803407  0.000000  1
  Co  Co12  1  0.196593  0.823269  0.000000  1
  Co  Co13  1  0.176731  0.373324  0.000000  1
  Co  Co14  1  0.373676  0.176936  0.000000  1
  Co  Co15  1  0.803260  0.626324  0.000000  1
  Co  Co16  1  0.823064  0.196740  0.000000  1
  Co  Co17  1  0.520148  0.873556  0.500000  1
  Co  Co18  1  0.126444  0.646592  0.500000  1
  Co  Co19  1  0.353408  0.479852  0.500000  1
  Co  Co20  1  0.480480  0.353403  0.500000  1
  Co  Co21  1  0.872923  0.519520  0.500000  1
  Co  Co22  1  0.646597  0.127077  0.500000  1
  Co  Co23  1  0.000000  0.000000  0.000000  1
  P  P24  1  0.178225  0.000028  0.000000  1
  P  P25  1  0.999972  0.178197  0.000000  1
  P  P26  1  0.821803  0.821775  0.000000  1
  P  P27  1  0.521035  0.688471  0.500000  1
  P  P28  1  0.311529  0.832563  0.500000  1
  P  P29  1  0.167437  0.478965  0.500000  1
  P  P30  1  0.479783  0.168118  0.500000  1
  P  P31  1  0.688335  0.520217  0.500000  1
  P  P32  1  0.831882  0.311665  0.500000  1
  P  P33  1  0.644556  0.999966  0.000000  1
  P  P34  1  0.000034  0.644591  0.000000  1
  P  P35  1  0.355409  0.355444  0.000000  1
