# generated using pymatgen
data_Sm11Y(C2I11)2
_symmetry_space_group_name_H-M   'P 1'
_cell_length_a   9.69337818
_cell_length_b   10.86737552
_cell_length_c   15.17790600
_cell_angle_alpha   88.15363068
_cell_angle_beta   104.35412505
_cell_angle_gamma   110.09151778
_symmetry_Int_Tables_number   1
_chemical_formula_structural   Sm11Y(C2I11)2
_chemical_formula_sum   'Sm11 Y1 C4 I22'
_cell_volume   1452.22491555
_cell_formula_units_Z   1
loop_
 _symmetry_equiv_pos_site_id
 _symmetry_equiv_pos_as_xyz
  1  'x, y, z'
loop_
 _atom_site_type_symbol
 _atom_site_label
 _atom_site_symmetry_multiplicity
 _atom_site_fract_x
 _atom_site_fract_y
 _atom_site_fract_z
 _atom_site_occupancy
  Sm  Sm0  1  0.615306  0.522308  0.877887  1
  Sm  Sm1  1  0.421664  0.781497  0.266264  1
  Sm  Sm2  1  0.578069  0.217925  0.733425  1
  Sm  Sm3  1  0.626445  0.575224  0.367451  1
  Sm  Sm4  1  0.373085  0.424539  0.632084  1
  Sm  Sm5  1  0.833679  0.646508  0.200096  1
  Sm  Sm6  1  0.165604  0.353073  0.799896  1
  Sm  Sm7  1  0.628210  0.848977  0.096989  1
  Sm  Sm8  1  0.371394  0.150753  0.903092  1
  Sm  Sm9  1  0.859897  0.946236  0.345654  1
  Sm  Sm10  1  0.139111  0.052802  0.653765  1
  Y  Y11  1  0.387884  0.480485  0.123193  1
  C  C12  1  0.430042  0.342800  0.795293  1
  C  C13  1  0.569129  0.656287  0.204047  1
  C  C14  1  0.317348  0.233082  0.741475  1
  C  C15  1  0.681629  0.765992  0.258026  1
  I  I16  1  0.383803  0.306915  0.277750  1
  I  I17  1  0.614645  0.695165  0.718892  1
  I  I18  1  0.125098  0.556947  0.150000  1
  I  I19  1  0.878391  0.440824  0.849002  1
  I  I20  1  0.624529  0.375250  0.067328  1
  I  I21  1  0.371647  0.623277  0.936335  1
  I  I22  1  0.119379  0.212550  0.477798  1
  I  I23  1  0.880301  0.787028  0.521888  1
  I  I24  1  0.614100  0.033874  0.388822  1
  I  I25  1  0.385622  0.965839  0.610978  1
  I  I26  1  0.128616  0.868011  0.304754  1
  I  I27  1  0.871098  0.131346  0.695100  1
  I  I28  1  0.129760  0.536396  0.647807  1
  I  I29  1  0.870433  0.463664  0.352360  1
  I  I30  1  0.622642  0.373846  0.559904  1
  I  I31  1  0.377158  0.625974  0.439822  1
  I  I32  1  0.142907  0.222561  0.986403  1
  I  I33  1  0.861817  0.782003  0.016270  1
  I  I34  1  0.628343  0.046061  0.901717  1
  I  I35  1  0.371559  0.954155  0.098368  1
  I  I36  1  0.126475  0.886599  0.822337  1
  I  I37  1  0.873180  0.113227  0.177729  1
