# generated using pymatgen
data_Pr20Ir5Pt7
_symmetry_space_group_name_H-M   'P 1'
_cell_length_a   11.51668848
_cell_length_b   11.51668848
_cell_length_c   6.58570754
_cell_angle_alpha   90.03291816
_cell_angle_beta   90.03291816
_cell_angle_gamma   89.99751771
_symmetry_Int_Tables_number   1
_chemical_formula_structural   Pr20Ir5Pt7
_chemical_formula_sum   'Pr20 Ir5 Pt7'
_cell_volume   873.48919264
_cell_formula_units_Z   1
loop_
 _symmetry_equiv_pos_site_id
 _symmetry_equiv_pos_as_xyz
  1  'x, y, z'
loop_
 _atom_site_type_symbol
 _atom_site_label
 _atom_site_symmetry_multiplicity
 _atom_site_fract_x
 _atom_site_fract_y
 _atom_site_fract_z
 _atom_site_occupancy
  Pr  Pr0  1  0.295502  0.088827  0.375217  1
  Pr  Pr1  1  0.296010  0.906376  0.876380  1
  Pr  Pr2  1  0.704508  0.088919  0.875719  1
  Pr  Pr3  1  0.703971  0.910264  0.375198  1
  Pr  Pr4  1  0.586530  0.793754  0.875418  1
  Pr  Pr5  1  0.589484  0.205739  0.376635  1
  Pr  Pr6  1  0.408605  0.792355  0.381954  1
  Pr  Pr7  1  0.410071  0.204195  0.876316  1
  Pr  Pr8  1  0.206246  0.413470  0.624582  1
  Pr  Pr9  1  0.207645  0.591395  0.118046  1
  Pr  Pr10  1  0.794261  0.410516  0.123365  1
  Pr  Pr11  1  0.795805  0.589929  0.623684  1
  Pr  Pr12  1  0.911173  0.704498  0.124783  1
  Pr  Pr13  1  0.911081  0.295492  0.624281  1
  Pr  Pr14  1  0.093624  0.703990  0.623620  1
  Pr  Pr15  1  0.089736  0.296029  0.124802  1
  Pr  Pr16  1  0.999530  0.999450  0.500308  1
  Pr  Pr17  1  0.000550  0.000470  0.999692  1
  Pr  Pr18  1  0.498098  0.501519  0.000100  1
  Pr  Pr19  1  0.498481  0.501902  0.499900  1
  Ir  Ir20  1  0.346832  0.653168  0.750000  1
  Ir  Ir21  1  0.500253  0.000319  0.117308  1
  Ir  Ir22  1  0.500261  0.001119  0.615802  1
  Ir  Ir23  1  0.998881  0.499739  0.884198  1
  Ir  Ir24  1  0.999681  0.499747  0.382692  1
  Pt  Pt25  1  0.846084  0.153916  0.250000  1
  Pt  Pt26  1  0.845905  0.846480  0.750542  1
  Pt  Pt27  1  0.153520  0.154095  0.749458  1
  Pt  Pt28  1  0.153389  0.846611  0.250000  1
  Pt  Pt29  1  0.653946  0.346054  0.750000  1
  Pt  Pt30  1  0.655303  0.654964  0.250010  1
  Pt  Pt31  1  0.345036  0.344697  0.249990  1
