# generated using pymatgen
data_La3Bi(SeO5)2
_symmetry_space_group_name_H-M   'P 1'
_cell_length_a   8.87354607
_cell_length_b   8.87354693
_cell_length_c   11.38582810
_cell_angle_alpha   90.01470549
_cell_angle_beta   89.98529325
_cell_angle_gamma   142.16992697
_symmetry_Int_Tables_number   1
_chemical_formula_structural   La3Bi(SeO5)2
_chemical_formula_sum   'La6 Bi2 Se4 O20'
_cell_volume   549.85400977
_cell_formula_units_Z   2
loop_
 _symmetry_equiv_pos_site_id
 _symmetry_equiv_pos_as_xyz
  1  'x, y, z'
loop_
 _atom_site_type_symbol
 _atom_site_label
 _atom_site_symmetry_multiplicity
 _atom_site_fract_x
 _atom_site_fract_y
 _atom_site_fract_z
 _atom_site_occupancy
  La  La0  1  0.759376  0.257368  0.614041  1
  La  La1  1  0.257368  0.759376  0.385959  1
  La  La2  1  0.244469  0.748802  0.881030  1
  La  La3  1  0.748802  0.244469  0.118970  1
  La  La4  1  0.900011  0.074792  0.377949  1
  La  La5  1  0.074792  0.900011  0.622051  1
  Bi  Bi6  1  0.407486  0.574833  0.597621  1
  Bi  Bi7  1  0.574833  0.407486  0.402379  1
  Se  Se8  1  0.392242  0.572690  0.131443  1
  Se  Se9  1  0.572690  0.392242  0.868557  1
  Se  Se10  1  0.881103  0.065738  0.864004  1
  Se  Se11  1  0.065738  0.881103  0.135996  1
  O  O12  1  0.139007  0.439289  0.212238  1
  O  O13  1  0.439289  0.139007  0.787762  1
  O  O14  1  0.643392  0.971748  0.790248  1
  O  O15  1  0.971748  0.643392  0.209752  1
  O  O16  1  0.579452  0.905027  0.507331  1
  O  O17  1  0.905027  0.579452  0.492669  1
  O  O18  1  0.088251  0.415898  0.494570  1
  O  O19  1  0.415898  0.088251  0.505430  1
  O  O20  1  0.097451  0.643952  0.709080  1
  O  O21  1  0.643952  0.097451  0.290920  1
  O  O22  1  0.491947  0.814224  0.058815  1
  O  O23  1  0.814224  0.491947  0.941185  1
  O  O24  1  0.170620  0.072456  0.249544  1
  O  O25  1  0.072456  0.170620  0.750456  1
  O  O26  1  0.712803  0.600836  0.758390  1
  O  O27  1  0.600836  0.712803  0.241610  1
  O  O28  1  0.254749  0.254749  0.500000  1
  O  O29  1  0.734866  0.734866  0.500000  1
  O  O30  1  0.329773  0.020391  0.065432  1
  O  O31  1  0.020391  0.329773  0.934568  1
