# generated using pymatgen
data_Yb2Al16MoPt8
_symmetry_space_group_name_H-M   'P 1'
_cell_length_a   11.28038904
_cell_length_b   11.28039000
_cell_length_c   11.28038938
_cell_angle_alpha   158.80117704
_cell_angle_beta   117.20396206
_cell_angle_gamma   67.07719209
_symmetry_Int_Tables_number   1
_chemical_formula_structural   Yb2Al16MoPt8
_chemical_formula_sum   'Yb2 Al16 Mo1 Pt8'
_cell_volume   458.61196532
_cell_formula_units_Z   1
loop_
 _symmetry_equiv_pos_site_id
 _symmetry_equiv_pos_as_xyz
  1  'x, y, z'
loop_
 _atom_site_type_symbol
 _atom_site_label
 _atom_site_symmetry_multiplicity
 _atom_site_fract_x
 _atom_site_fract_y
 _atom_site_fract_z
 _atom_site_occupancy
  Yb  Yb0  1  0.230720  0.231255  0.999465  1
  Yb  Yb1  1  0.768210  0.768745  0.999465  1
  Al  Al2  1  0.273715  0.391964  0.881752  1
  Al  Al3  1  0.087618  0.923956  0.163662  1
  Al  Al4  1  0.502279  0.201061  0.301219  1
  Al  Al5  1  0.239706  0.076044  0.163662  1
  Al  Al6  1  0.909896  0.416752  0.493145  1
  Al  Al7  1  0.724778  0.599165  0.125612  1
  Al  Al8  1  0.903762  0.210169  0.693592  1
  Al  Al9  1  0.483424  0.789831  0.693592  1
  Al  Al10  1  0.387774  0.000000  0.387774  1
  Al  Al11  1  0.629575  0.000000  0.629575  1
  Al  Al12  1  0.489787  0.608036  0.881752  1
  Al  Al13  1  0.100158  0.798939  0.301219  1
  Al  Al14  1  0.914204  0.089780  0.824425  1
  Al  Al15  1  0.734644  0.910220  0.824425  1
  Al  Al16  1  0.526448  0.400835  0.125612  1
  Al  Al17  1  0.076393  0.583248  0.493145  1
  Mo  Mo18  1  0.788567  0.500000  0.288567  1
  Pt  Pt19  1  0.023841  0.343904  0.679937  1
  Pt  Pt20  1  0.627692  0.125608  0.502084  1
  Pt  Pt21  1  0.254978  0.500000  0.754978  1
  Pt  Pt22  1  0.376476  0.874392  0.502084  1
  Pt  Pt23  1  0.984412  0.000000  0.984412  1
  Pt  Pt24  1  0.646597  0.334142  0.312456  1
  Pt  Pt25  1  0.336032  0.656096  0.679937  1
  Pt  Pt26  1  0.978314  0.665858  0.312456  1
