# generated using pymatgen
data_Tb3DyY6(CoBi2)2
_symmetry_space_group_name_H-M   'P 1'
_cell_length_a   8.06366852
_cell_length_b   8.85341742
_cell_length_c   12.43175386
_cell_angle_alpha   89.97380859
_cell_angle_beta   90.03353973
_cell_angle_gamma   89.97652364
_symmetry_Int_Tables_number   1
_chemical_formula_structural   Tb3DyY6(CoBi2)2
_chemical_formula_sum   'Tb6 Dy2 Y12 Co4 Bi8'
_cell_volume   887.51530959
_cell_formula_units_Z   2
loop_
 _symmetry_equiv_pos_site_id
 _symmetry_equiv_pos_as_xyz
  1  'x, y, z'
loop_
 _atom_site_type_symbol
 _atom_site_label
 _atom_site_symmetry_multiplicity
 _atom_site_fract_x
 _atom_site_fract_y
 _atom_site_fract_z
 _atom_site_occupancy
  Tb  Tb0  1  0.176423  0.965831  0.937186  1
  Tb  Tb1  1  0.323625  0.534175  0.437237  1
  Tb  Tb2  1  0.823577  0.034169  0.062814  1
  Tb  Tb3  1  0.676375  0.465825  0.562763  1
  Tb  Tb4  1  0.823556  0.465834  0.062789  1
  Tb  Tb5  1  0.176444  0.534166  0.937211  1
  Dy  Dy6  1  0.675122  0.034218  0.562585  1
  Dy  Dy7  1  0.324878  0.965782  0.437415  1
  Y  Y8  1  0.847783  0.750063  0.801138  1
  Y  Y9  1  0.152217  0.249937  0.198862  1
  Y  Y10  1  0.348092  0.249834  0.698532  1
  Y  Y11  1  0.651908  0.750166  0.301468  1
  Y  Y12  1  0.379355  0.750329  0.690798  1
  Y  Y13  1  0.620645  0.249671  0.309202  1
  Y  Y14  1  0.879195  0.250003  0.808773  1
  Y  Y15  1  0.120805  0.749997  0.191227  1
  Y  Y16  1  0.955126  0.750248  0.501986  1
  Y  Y17  1  0.044874  0.249752  0.498014  1
  Y  Y18  1  0.455213  0.249985  0.998051  1
  Y  Y19  1  0.544787  0.750015  0.001949  1
  Co  Co20  1  0.558670  0.750578  0.508386  1
  Co  Co21  1  0.441330  0.249422  0.491614  1
  Co  Co22  1  0.058934  0.250007  0.991446  1
  Co  Co23  1  0.941066  0.749993  0.008554  1
  Bi  Bi24  1  0.571416  0.491965  0.825741  1
  Bi  Bi25  1  0.428584  0.508035  0.174259  1
  Bi  Bi26  1  0.071424  0.508064  0.674212  1
  Bi  Bi27  1  0.428479  0.991952  0.174386  1
  Bi  Bi28  1  0.928576  0.491936  0.325788  1
  Bi  Bi29  1  0.571521  0.008048  0.825614  1
  Bi  Bi30  1  0.929040  0.008006  0.325905  1
  Bi  Bi31  1  0.070960  0.991994  0.674095  1
