# generated using pymatgen
data_Ho16In6TcNi
_symmetry_space_group_name_H-M   'P 1'
_cell_length_a   10.38215607
_cell_length_b   10.38045059
_cell_length_c   6.98767609
_cell_angle_alpha   90.01769119
_cell_angle_beta   89.99715236
_cell_angle_gamma   120.01791121
_symmetry_Int_Tables_number   1
_chemical_formula_structural   Ho16In6TcNi
_chemical_formula_sum   'Ho16 In6 Tc1 Ni1'
_cell_volume   652.06174216
_cell_formula_units_Z   1
loop_
 _symmetry_equiv_pos_site_id
 _symmetry_equiv_pos_as_xyz
  1  'x, y, z'
loop_
 _atom_site_type_symbol
 _atom_site_label
 _atom_site_symmetry_multiplicity
 _atom_site_fract_x
 _atom_site_fract_y
 _atom_site_fract_z
 _atom_site_occupancy
  Ho  Ho0  1  0.533272  0.066525  0.506917  1
  Ho  Ho1  1  0.933620  0.466744  0.506847  1
  Ho  Ho2  1  0.533138  0.466788  0.506847  1
  Ho  Ho3  1  0.468209  0.936426  0.008845  1
  Ho  Ho4  1  0.063575  0.531777  0.008824  1
  Ho  Ho5  1  0.468205  0.531724  0.008903  1
  Ho  Ho6  1  0.177582  0.355263  0.714015  1
  Ho  Ho7  1  0.644556  0.822215  0.713956  1
  Ho  Ho8  1  0.177750  0.822313  0.713948  1
  Ho  Ho9  1  0.823950  0.647782  0.211954  1
  Ho  Ho10  1  0.352357  0.176122  0.212147  1
  Ho  Ho11  1  0.824003  0.176136  0.212143  1
  Ho  Ho12  1  0.666652  0.333372  0.881794  1
  Ho  Ho13  1  0.333265  0.666688  0.393308  1
  Ho  Ho14  1  0.000004  0.000042  0.492833  1
  Ho  Ho15  1  0.999952  0.000063  0.989993  1
  In  In16  1  0.837835  0.675521  0.750762  1
  In  In17  1  0.324186  0.162066  0.752622  1
  In  In18  1  0.837676  0.161956  0.752212  1
  In  In19  1  0.163791  0.327120  0.252953  1
  In  In20  1  0.672857  0.836271  0.252949  1
  In  In21  1  0.163633  0.836534  0.253196  1
  Tc  Tc22  1  0.666735  0.333349  0.279239  1
  Ni  Ni23  1  0.333195  0.667202  0.780835  1
