# generated using pymatgen
data_Dy4Co7P12Ir9Ru4
_symmetry_space_group_name_H-M   'P 1'
_cell_length_a   3.85806000
_cell_length_b   10.62167395
_cell_length_c   12.21401202
_cell_angle_alpha   89.85397467
_cell_angle_beta   90.00000000
_cell_angle_gamma   90.00000000
_symmetry_Int_Tables_number   1
_chemical_formula_structural   Dy4Co7P12Ir9Ru4
_chemical_formula_sum   'Dy4 Co7 P12 Ir9 Ru4'
_cell_volume   500.51704954
_cell_formula_units_Z   1
loop_
 _symmetry_equiv_pos_site_id
 _symmetry_equiv_pos_as_xyz
  1  'x, y, z'
loop_
 _atom_site_type_symbol
 _atom_site_label
 _atom_site_symmetry_multiplicity
 _atom_site_fract_x
 _atom_site_fract_y
 _atom_site_fract_z
 _atom_site_occupancy
  Dy  Dy0  1  0.250000  0.582050  0.710614  1
  Dy  Dy1  1  0.250000  0.914114  0.209366  1
  Dy  Dy2  1  0.750000  0.415052  0.289846  1
  Dy  Dy3  1  0.750000  0.088177  0.791807  1
  Co  Co4  1  0.250000  0.614326  0.198621  1
  Co  Co5  1  0.750000  0.114502  0.300897  1
  Co  Co6  1  0.750000  0.384032  0.802204  1
  Co  Co7  1  0.250000  0.462217  0.934351  1
  Co  Co8  1  0.250000  0.037033  0.430673  1
  Co  Co9  1  0.750000  0.536860  0.067066  1
  Co  Co10  1  0.750000  0.960978  0.563893  1
  P  P11  1  0.250000  0.431618  0.110828  1
  P  P12  1  0.250000  0.077593  0.603695  1
  P  P13  1  0.750000  0.565725  0.890518  1
  P  P14  1  0.750000  0.930863  0.387713  1
  P  P15  1  0.250000  0.274524  0.871948  1
  P  P16  1  0.250000  0.226810  0.371179  1
  P  P17  1  0.750000  0.725573  0.128605  1
  P  P18  1  0.750000  0.769770  0.626246  1
  P  P19  1  0.250000  0.599247  0.379924  1
  P  P20  1  0.250000  0.901541  0.890155  1
  P  P21  1  0.750000  0.399707  0.618866  1
  P  P22  1  0.750000  0.101079  0.119246  1
  Ir  Ir23  1  0.250000  0.408561  0.478885  1
  Ir  Ir24  1  0.250000  0.094107  0.982087  1
  Ir  Ir25  1  0.750000  0.590303  0.519322  1
  Ir  Ir26  1  0.750000  0.908662  0.019820  1
  Ir  Ir27  1  0.250000  0.228127  0.180649  1
  Ir  Ir28  1  0.250000  0.274960  0.679942  1
  Ir  Ir29  1  0.750000  0.766151  0.821678  1
  Ir  Ir30  1  0.750000  0.726677  0.319501  1
  Ir  Ir31  1  0.250000  0.889389  0.700372  1
  Ru  Ru32  1  0.250000  0.717308  0.991312  1
  Ru  Ru33  1  0.250000  0.780626  0.487149  1
  Ru  Ru34  1  0.750000  0.283180  0.011287  1
  Ru  Ru35  1  0.750000  0.218555  0.509734  1
