# generated using pymatgen
data_Y2PaSn3IrRh2
_symmetry_space_group_name_H-M   'P 1'
_cell_length_a   7.67101373
_cell_length_b   7.57884139
_cell_length_c   3.86090200
_cell_angle_alpha   90.00000000
_cell_angle_beta   90.00000000
_cell_angle_gamma   120.66283203
_symmetry_Int_Tables_number   1
_chemical_formula_structural   Y2PaSn3IrRh2
_chemical_formula_sum   'Y2 Pa1 Sn3 Ir1 Rh2'
_cell_volume   193.07913924
_cell_formula_units_Z   1
loop_
 _symmetry_equiv_pos_site_id
 _symmetry_equiv_pos_as_xyz
  1  'x, y, z'
loop_
 _atom_site_type_symbol
 _atom_site_label
 _atom_site_symmetry_multiplicity
 _atom_site_fract_x
 _atom_site_fract_y
 _atom_site_fract_z
 _atom_site_occupancy
  Y  Y0  1  0.002933  0.405881  0.500000  1
  Y  Y1  1  0.593485  0.597275  0.500000  1
  Pa  Pa2  1  0.413528  0.999577  0.500000  1
  Sn  Sn3  1  0.758060  0.003027  0.000000  1
  Sn  Sn4  1  0.983834  0.726167  0.000000  1
  Sn  Sn5  1  0.259136  0.270592  0.000000  1
  Ir  Ir6  1  0.336482  0.698593  0.000000  1
  Rh  Rh7  1  0.637231  0.300215  0.000000  1
  Rh  Rh8  1  0.015311  0.998672  0.500000  1
