# generated using pymatgen
data_Mn4FeCo(NiP2)2
_symmetry_space_group_name_H-M   'P 1'
_cell_length_a   3.45061400
_cell_length_b   5.88548185
_cell_length_c   6.72751378
_cell_angle_alpha   89.83783795
_cell_angle_beta   90.00000000
_cell_angle_gamma   90.00000000
_symmetry_Int_Tables_number   1
_chemical_formula_structural   Mn4FeCo(NiP2)2
_chemical_formula_sum   'Mn4 Fe1 Co1 Ni2 P4'
_cell_volume   136.62534188
_cell_formula_units_Z   1
loop_
 _symmetry_equiv_pos_site_id
 _symmetry_equiv_pos_as_xyz
  1  'x, y, z'
loop_
 _atom_site_type_symbol
 _atom_site_label
 _atom_site_symmetry_multiplicity
 _atom_site_fract_x
 _atom_site_fract_y
 _atom_site_fract_z
 _atom_site_occupancy
  Mn  Mn0  1  0.500000  0.527612  0.584378  1
  Mn  Mn1  1  0.500000  0.027493  0.416061  1
  Mn  Mn2  1  0.000000  0.467563  0.914289  1
  Mn  Mn3  1  0.000000  0.969591  0.083749  1
  Fe  Fe4  1  0.000000  0.862538  0.688454  1
  Co  Co5  1  0.000000  0.362105  0.312448  1
  Ni  Ni6  1  0.500000  0.644622  0.183384  1
  Ni  Ni7  1  0.500000  0.143961  0.817265  1
  P  P8  1  0.500000  0.262591  0.126892  1
  P  P9  1  0.500000  0.760614  0.870415  1
  P  P10  1  0.000000  0.736191  0.385051  1
  P  P11  1  0.000000  0.235119  0.617613  1
