# generated using pymatgen
data_Ce2Ho(Ga3Ru)3
_symmetry_space_group_name_H-M   'P 1'
_cell_length_a   6.53331500
_cell_length_b   6.44860300
_cell_length_c   6.44860300
_cell_angle_alpha   90.00000000
_cell_angle_beta   90.00000000
_cell_angle_gamma   90.00000000
_symmetry_Int_Tables_number   1
_chemical_formula_structural   Ce2Ho(Ga3Ru)3
_chemical_formula_sum   'Ce2 Ho1 Ga9 Ru3'
_cell_volume   271.68451121
_cell_formula_units_Z   1
loop_
 _symmetry_equiv_pos_site_id
 _symmetry_equiv_pos_as_xyz
  1  'x, y, z'
loop_
 _atom_site_type_symbol
 _atom_site_label
 _atom_site_symmetry_multiplicity
 _atom_site_fract_x
 _atom_site_fract_y
 _atom_site_fract_z
 _atom_site_occupancy
  Ce  Ce0  1  0.500000  0.500000  0.000000  1
  Ce  Ce1  1  0.500000  0.000000  0.500000  1
  Ho  Ho2  1  0.000000  0.500000  0.500000  1
  Ga  Ga3  1  0.500000  0.500000  0.500000  1
  Ga  Ga4  1  0.206075  0.210541  0.789459  1
  Ga  Ga5  1  0.206075  0.789459  0.210541  1
  Ga  Ga6  1  0.793925  0.210541  0.210541  1
  Ga  Ga7  1  0.793925  0.789459  0.789459  1
  Ga  Ga8  1  0.793925  0.789459  0.210541  1
  Ga  Ga9  1  0.793925  0.210541  0.789459  1
  Ga  Ga10  1  0.206075  0.789459  0.789459  1
  Ga  Ga11  1  0.206075  0.210541  0.210541  1
  Ru  Ru12  1  0.000000  0.000000  0.500000  1
  Ru  Ru13  1  0.000000  0.500000  0.000000  1
  Ru  Ru14  1  0.500000  0.000000  0.000000  1
