# generated using pymatgen
data_Tb6Dy3Th3Co4
_symmetry_space_group_name_H-M   'P 1'
_cell_length_a   6.32846212
_cell_length_b   6.92575789
_cell_length_c   9.60757436
_cell_angle_alpha   89.99429667
_cell_angle_beta   90.03101785
_cell_angle_gamma   91.03771637
_symmetry_Int_Tables_number   1
_chemical_formula_structural   Tb6Dy3Th3Co4
_chemical_formula_sum   'Tb6 Dy3 Th3 Co4'
_cell_volume   421.02505855
_cell_formula_units_Z   1
loop_
 _symmetry_equiv_pos_site_id
 _symmetry_equiv_pos_as_xyz
  1  'x, y, z'
loop_
 _atom_site_type_symbol
 _atom_site_label
 _atom_site_symmetry_multiplicity
 _atom_site_fract_x
 _atom_site_fract_y
 _atom_site_fract_z
 _atom_site_occupancy
  Tb  Tb0  1  0.671554  0.327185  0.930820  1
  Tb  Tb1  1  0.643951  0.044847  0.250296  1
  Tb  Tb2  1  0.175417  0.172727  0.428694  1
  Tb  Tb3  1  0.829524  0.827641  0.569297  1
  Tb  Tb4  1  0.175205  0.172709  0.071456  1
  Tb  Tb5  1  0.829645  0.827542  0.930824  1
  Dy  Dy6  1  0.671324  0.327272  0.569189  1
  Dy  Dy7  1  0.324705  0.671872  0.069970  1
  Dy  Dy8  1  0.324789  0.671778  0.430186  1
  Th  Th9  1  0.157903  0.445613  0.749654  1
  Th  Th10  1  0.345451  0.945547  0.749738  1
  Th  Th11  1  0.842608  0.552541  0.250226  1
  Co  Co12  1  0.532636  0.627075  0.749653  1
  Co  Co13  1  0.968055  0.126921  0.749624  1
  Co  Co14  1  0.039847  0.867696  0.249961  1
  Co  Co15  1  0.467386  0.391034  0.250411  1
