# generated using pymatgen
data_Lu3ZnIn4Rh
_symmetry_space_group_name_H-M   'P 1'
_cell_length_a   7.88316700
_cell_length_b   7.88316548
_cell_length_c   3.76271400
_cell_angle_alpha   90.00000000
_cell_angle_beta   90.00000000
_cell_angle_gamma   119.99999377
_symmetry_Int_Tables_number   1
_chemical_formula_structural   Lu3ZnIn4Rh
_chemical_formula_sum   'Lu3 Zn1 In4 Rh1'
_cell_volume   202.50382862
_cell_formula_units_Z   1
loop_
 _symmetry_equiv_pos_site_id
 _symmetry_equiv_pos_as_xyz
  1  'x, y, z'
loop_
 _atom_site_type_symbol
 _atom_site_label
 _atom_site_symmetry_multiplicity
 _atom_site_fract_x
 _atom_site_fract_y
 _atom_site_fract_z
 _atom_site_occupancy
  Lu  Lu0  1  0.373676  0.415603  0.000000  1
  Lu  Lu1  1  0.041927  0.626323  0.000000  1
  Lu  Lu2  1  0.584397  0.958074  0.000000  1
  Zn  Zn3  1  0.000000  0.000000  0.000000  1
  In  In4  1  0.997510  0.264614  0.500000  1
  In  In5  1  0.666666  0.333334  0.500000  1
  In  In6  1  0.735387  0.732895  0.500000  1
  In  In7  1  0.267105  0.002491  0.500000  1
  Rh  Rh8  1  0.333333  0.666666  0.500000  1
