# generated using pymatgen
data_Sc2MnSi4Os3
_symmetry_space_group_name_H-M   'P 1'
_cell_length_a   5.18610200
_cell_length_b   7.39260100
_cell_length_c   7.72522700
_cell_angle_alpha   90.00000000
_cell_angle_beta   90.00000000
_cell_angle_gamma   90.00000000
_symmetry_Int_Tables_number   1
_chemical_formula_structural   Sc2MnSi4Os3
_chemical_formula_sum   'Sc4 Mn2 Si8 Os6'
_cell_volume   296.17580028
_cell_formula_units_Z   2
loop_
 _symmetry_equiv_pos_site_id
 _symmetry_equiv_pos_as_xyz
  1  'x, y, z'
loop_
 _atom_site_type_symbol
 _atom_site_label
 _atom_site_symmetry_multiplicity
 _atom_site_fract_x
 _atom_site_fract_y
 _atom_site_fract_z
 _atom_site_occupancy
  Sc  Sc0  1  0.749730  0.895508  0.260522  1
  Sc  Sc1  1  0.249730  0.104492  0.739478  1
  Sc  Sc2  1  0.750270  0.395508  0.739478  1
  Sc  Sc3  1  0.250270  0.604492  0.260522  1
  Mn  Mn4  1  0.000000  0.750000  0.628320  1
  Mn  Mn5  1  0.500000  0.250000  0.371680  1
  Si  Si6  1  0.753465  0.550005  0.422725  1
  Si  Si7  1  0.253465  0.449995  0.577275  1
  Si  Si8  1  0.746535  0.050005  0.577275  1
  Si  Si9  1  0.246535  0.949995  0.422725  1
  Si  Si10  1  0.000000  0.750000  0.967641  1
  Si  Si11  1  0.500000  0.250000  0.032359  1
  Si  Si12  1  0.000000  0.250000  0.043861  1
  Si  Si13  1  0.500000  0.750000  0.956139  1
  Os  Os14  1  0.745614  0.510260  0.120572  1
  Os  Os15  1  0.245614  0.489740  0.879428  1
  Os  Os16  1  0.754386  0.010261  0.879428  1
  Os  Os17  1  0.254386  0.989740  0.120572  1
  Os  Os18  1  0.000000  0.250000  0.387058  1
  Os  Os19  1  0.500000  0.750000  0.612942  1
