# generated using pymatgen
data_Mg4Ga5Ir2
_symmetry_space_group_name_H-M   'P 1'
_cell_length_a   6.95724200
_cell_length_b   6.87063615
_cell_length_c   8.38290705
_cell_angle_alpha   79.62728776
_cell_angle_beta   90.00000000
_cell_angle_gamma   90.00000000
_symmetry_Int_Tables_number   1
_chemical_formula_structural   Mg4Ga5Ir2
_chemical_formula_sum   'Mg8 Ga10 Ir4'
_cell_volume   394.15999633
_cell_formula_units_Z   2
loop_
 _symmetry_equiv_pos_site_id
 _symmetry_equiv_pos_as_xyz
  1  'x, y, z'
loop_
 _atom_site_type_symbol
 _atom_site_label
 _atom_site_symmetry_multiplicity
 _atom_site_fract_x
 _atom_site_fract_y
 _atom_site_fract_z
 _atom_site_occupancy
  Mg  Mg0  1  0.557921  0.397332  0.260454  1
  Mg  Mg1  1  0.057921  0.602668  0.239546  1
  Mg  Mg2  1  0.442079  0.602668  0.739546  1
  Mg  Mg3  1  0.942079  0.397332  0.760454  1
  Mg  Mg4  1  0.196166  0.063210  0.279937  1
  Mg  Mg5  1  0.696166  0.936790  0.220063  1
  Mg  Mg6  1  0.803834  0.936790  0.720063  1
  Mg  Mg7  1  0.303834  0.063210  0.779937  1
  Ga  Ga8  1  0.500000  0.000000  0.500000  1
  Ga  Ga9  1  0.000000  0.000000  0.000000  1
  Ga  Ga10  1  0.261781  0.374047  0.509238  1
  Ga  Ga11  1  0.761781  0.625953  0.990762  1
  Ga  Ga12  1  0.738219  0.625953  0.490762  1
  Ga  Ga13  1  0.238219  0.374047  0.009238  1
  Ga  Ga14  1  0.899020  0.230697  0.439378  1
  Ga  Ga15  1  0.399020  0.769303  0.060622  1
  Ga  Ga16  1  0.100980  0.769303  0.560622  1
  Ga  Ga17  1  0.600980  0.230697  0.939378  1
  Ir  Ir18  1  0.890451  0.281235  0.125810  1
  Ir  Ir19  1  0.390451  0.718765  0.374190  1
  Ir  Ir20  1  0.109549  0.718765  0.874190  1
  Ir  Ir21  1  0.609549  0.281235  0.625810  1
