# generated using pymatgen
data_ErTm7(Ta3Ge4)4
_symmetry_space_group_name_H-M   'P 1'
_cell_length_a   6.97213556
_cell_length_b   7.13251149
_cell_length_c   13.50360711
_cell_angle_alpha   90.00452789
_cell_angle_beta   90.00601062
_cell_angle_gamma   90.00036683
_symmetry_Int_Tables_number   1
_chemical_formula_structural   ErTm7(Ta3Ge4)4
_chemical_formula_sum   'Er1 Tm7 Ta12 Ge16'
_cell_volume   671.51867073
_cell_formula_units_Z   1
loop_
 _symmetry_equiv_pos_site_id
 _symmetry_equiv_pos_as_xyz
  1  'x, y, z'
loop_
 _atom_site_type_symbol
 _atom_site_label
 _atom_site_symmetry_multiplicity
 _atom_site_fract_x
 _atom_site_fract_y
 _atom_site_fract_z
 _atom_site_occupancy
  Er  Er0  1  0.995720  0.174254  0.094256  1
  Tm  Tm1  1  0.495422  0.325570  0.094231  1
  Tm  Tm2  1  0.995401  0.174542  0.405749  1
  Tm  Tm3  1  0.504628  0.674608  0.594211  1
  Tm  Tm4  1  0.004601  0.825488  0.905657  1
  Tm  Tm5  1  0.504608  0.674389  0.905641  1
  Tm  Tm6  1  0.004645  0.825509  0.594227  1
  Tm  Tm7  1  0.495398  0.325466  0.405957  1
  Ta  Ta8  1  0.664300  0.012982  0.749938  1
  Ta  Ta9  1  0.164305  0.487103  0.749972  1
  Ta  Ta10  1  0.335676  0.986946  0.250102  1
  Ta  Ta11  1  0.835611  0.512926  0.250058  1
  Ta  Ta12  1  0.840373  0.329975  0.625922  1
  Ta  Ta13  1  0.340434  0.170205  0.874017  1
  Ta  Ta14  1  0.159565  0.670107  0.125971  1
  Ta  Ta15  1  0.659537  0.829861  0.374140  1
  Ta  Ta16  1  0.159627  0.670050  0.374125  1
  Ta  Ta17  1  0.659478  0.829695  0.125988  1
  Ta  Ta18  1  0.840145  0.330033  0.873960  1
  Ta  Ta19  1  0.340294  0.170081  0.625962  1
  Ge  Ge20  1  0.804734  0.642340  0.749879  1
  Ge  Ge21  1  0.304731  0.857749  0.749920  1
  Ge  Ge22  1  0.195710  0.357993  0.250236  1
  Ge  Ge23  1  0.695020  0.142256  0.250210  1
  Ge  Ge24  1  0.540097  0.379894  0.749968  1
  Ge  Ge25  1  0.040104  0.120238  0.750062  1
  Ge  Ge26  1  0.459846  0.620201  0.250053  1
  Ge  Ge27  1  0.959675  0.879519  0.250070  1
  Ge  Ge28  1  0.677398  0.037504  0.541442  1
  Ge  Ge29  1  0.177307  0.462634  0.958504  1
  Ge  Ge30  1  0.323343  0.961979  0.041187  1
  Ge  Ge31  1  0.822656  0.537560  0.458642  1
  Ge  Ge32  1  0.322635  0.962494  0.458650  1
  Ge  Ge33  1  0.822472  0.537854  0.041192  1
  Ge  Ge34  1  0.677137  0.037520  0.958474  1
  Ge  Ge35  1  0.177371  0.462479  0.541428  1
