# generated using pymatgen
data_DyY5(Al3Os)8
_symmetry_space_group_name_H-M   'P 1'
_cell_length_a   8.84318500
_cell_length_b   8.84318574
_cell_length_c   9.56805300
_cell_angle_alpha   90.00000000
_cell_angle_beta   90.00000000
_cell_angle_gamma   119.99999350
_symmetry_Int_Tables_number   1
_chemical_formula_structural   DyY5(Al3Os)8
_chemical_formula_sum   'Dy1 Y5 Al24 Os8'
_cell_volume   647.99505220
_cell_formula_units_Z   1
loop_
 _symmetry_equiv_pos_site_id
 _symmetry_equiv_pos_as_xyz
  1  'x, y, z'
loop_
 _atom_site_type_symbol
 _atom_site_label
 _atom_site_symmetry_multiplicity
 _atom_site_fract_x
 _atom_site_fract_y
 _atom_site_fract_z
 _atom_site_occupancy
  Dy  Dy0  1  0.806761  0.193239  0.750000  1
  Y  Y1  1  0.193239  0.386479  0.250000  1
  Y  Y2  1  0.806761  0.613521  0.750000  1
  Y  Y3  1  0.613521  0.806761  0.250000  1
  Y  Y4  1  0.386479  0.193239  0.750000  1
  Y  Y5  1  0.193239  0.806761  0.250000  1
  Al  Al6  1  0.333333  0.666667  0.014550  1
  Al  Al7  1  0.666667  0.333333  0.985450  1
  Al  Al8  1  0.666667  0.333333  0.514550  1
  Al  Al9  1  0.333333  0.666667  0.485450  1
  Al  Al10  1  0.162718  0.325437  0.575848  1
  Al  Al11  1  0.837282  0.674563  0.424152  1
  Al  Al12  1  0.674563  0.837282  0.575848  1
  Al  Al13  1  0.837282  0.674563  0.075848  1
  Al  Al14  1  0.325437  0.162718  0.424152  1
  Al  Al15  1  0.162718  0.325437  0.924152  1
  Al  Al16  1  0.162718  0.837282  0.575848  1
  Al  Al17  1  0.325437  0.162718  0.075848  1
  Al  Al18  1  0.837282  0.162718  0.424152  1
  Al  Al19  1  0.674563  0.837282  0.924152  1
  Al  Al20  1  0.837282  0.162718  0.075848  1
  Al  Al21  1  0.162718  0.837282  0.924152  1
  Al  Al22  1  0.559986  0.119972  0.250000  1
  Al  Al23  1  0.440014  0.880028  0.750000  1
  Al  Al24  1  0.880028  0.440014  0.250000  1
  Al  Al25  1  0.119972  0.559986  0.750000  1
  Al  Al26  1  0.559986  0.440014  0.250000  1
  Al  Al27  1  0.440014  0.559986  0.750000  1
  Al  Al28  1  0.000000  0.000000  0.250000  1
  Al  Al29  1  0.000000  0.000000  0.750000  1
  Os  Os30  1  0.500000  0.000000  0.000000  1
  Os  Os31  1  0.000000  0.500000  0.000000  1
  Os  Os32  1  0.500000  0.000000  0.500000  1
  Os  Os33  1  0.500000  0.500000  0.000000  1
  Os  Os34  1  0.000000  0.500000  0.500000  1
  Os  Os35  1  0.500000  0.500000  0.500000  1
  Os  Os36  1  0.000000  0.000000  0.000000  1
  Os  Os37  1  0.000000  0.000000  0.500000  1
