# generated using pymatgen
data_SrCeCu3Sb4
_symmetry_space_group_name_H-M   'P 1'
_cell_length_a   4.49877600
_cell_length_b   4.49925700
_cell_length_c   10.30674700
_cell_angle_alpha   90.00000000
_cell_angle_beta   90.00000000
_cell_angle_gamma   90.00000000
_symmetry_Int_Tables_number   1
_chemical_formula_structural   SrCeCu3Sb4
_chemical_formula_sum   'Sr1 Ce1 Cu3 Sb4'
_cell_volume   208.62040595
_cell_formula_units_Z   1
loop_
 _symmetry_equiv_pos_site_id
 _symmetry_equiv_pos_as_xyz
  1  'x, y, z'
loop_
 _atom_site_type_symbol
 _atom_site_label
 _atom_site_symmetry_multiplicity
 _atom_site_fract_x
 _atom_site_fract_y
 _atom_site_fract_z
 _atom_site_occupancy
  Sr  Sr0  1  0.000000  0.000000  0.749326  1
  Ce  Ce1  1  0.500000  0.500000  0.231309  1
  Cu  Cu2  1  0.500000  0.000000  0.007215  1
  Cu  Cu3  1  0.000000  0.500000  0.007204  1
  Cu  Cu4  1  0.500000  0.500000  0.624290  1
  Sb  Sb5  1  0.500000  0.000000  0.474640  1
  Sb  Sb6  1  0.000000  0.500000  0.474639  1
  Sb  Sb7  1  0.500000  0.500000  0.873937  1
  Sb  Sb8  1  0.000000  0.000000  0.157442  1
