# generated using pymatgen
data_Ba4Pa(PbO4)3
_symmetry_space_group_name_H-M   'P 1'
_cell_length_a   6.21645710
_cell_length_b   6.21645706
_cell_length_c   10.78821918
_cell_angle_alpha   73.62998037
_cell_angle_beta   73.62998144
_cell_angle_gamma   60.07616851
_symmetry_Int_Tables_number   1
_chemical_formula_structural   Ba4Pa(PbO4)3
_chemical_formula_sum   'Ba4 Pa1 Pb3 O12'
_cell_volume   341.64072092
_cell_formula_units_Z   1
loop_
 _symmetry_equiv_pos_site_id
 _symmetry_equiv_pos_as_xyz
  1  'x, y, z'
loop_
 _atom_site_type_symbol
 _atom_site_label
 _atom_site_symmetry_multiplicity
 _atom_site_fract_x
 _atom_site_fract_y
 _atom_site_fract_z
 _atom_site_occupancy
  Ba  Ba0  1  0.380651  0.380651  0.363015  1
  Ba  Ba1  1  0.875644  0.875644  0.880599  1
  Ba  Ba2  1  0.619349  0.619349  0.636985  1
  Ba  Ba3  1  0.124356  0.124356  0.119401  1
  Pa  Pa4  1  0.000000  0.000000  0.500000  1
  Pb  Pb5  1  0.500000  0.500000  0.000000  1
  Pb  Pb6  1  0.248851  0.248851  0.750858  1
  Pb  Pb7  1  0.751149  0.751149  0.249142  1
  O  O8  1  0.352314  0.858722  0.363051  1
  O  O9  1  0.858301  0.355365  0.853983  1
  O  O10  1  0.141278  0.647686  0.636949  1
  O  O11  1  0.644635  0.141699  0.146017  1
  O  O12  1  0.858722  0.352314  0.363051  1
  O  O13  1  0.355365  0.858301  0.853983  1
  O  O14  1  0.647686  0.141278  0.636949  1
  O  O15  1  0.141699  0.644635  0.146017  1
  O  O16  1  0.156120  0.156120  0.587120  1
  O  O17  1  0.658377  0.658377  0.094649  1
  O  O18  1  0.843880  0.843880  0.412880  1
  O  O19  1  0.341623  0.341623  0.905351  1
