# generated using pymatgen
data_Hf4Ga2Re5Mo
_symmetry_space_group_name_H-M   'P 1'
_cell_length_a   5.27981800
_cell_length_b   5.27228702
_cell_length_c   8.60668700
_cell_angle_alpha   90.00000000
_cell_angle_beta   90.00000000
_cell_angle_gamma   120.04725006
_symmetry_Int_Tables_number   1
_chemical_formula_structural   Hf4Ga2Re5Mo
_chemical_formula_sum   'Hf4 Ga2 Re5 Mo1'
_cell_volume   207.38515420
_cell_formula_units_Z   1
loop_
 _symmetry_equiv_pos_site_id
 _symmetry_equiv_pos_as_xyz
  1  'x, y, z'
loop_
 _atom_site_type_symbol
 _atom_site_label
 _atom_site_symmetry_multiplicity
 _atom_site_fract_x
 _atom_site_fract_y
 _atom_site_fract_z
 _atom_site_occupancy
  Hf  Hf0  1  0.332898  0.665797  0.064978  1
  Hf  Hf1  1  0.666158  0.332315  0.567600  1
  Hf  Hf2  1  0.666158  0.332315  0.932400  1
  Hf  Hf3  1  0.332898  0.665797  0.435022  1
  Ga  Ga4  1  0.000233  0.000466  0.999605  1
  Ga  Ga5  1  0.000233  0.000466  0.500395  1
  Re  Re6  1  0.171242  0.828530  0.750000  1
  Re  Re7  1  0.657288  0.828530  0.750000  1
  Re  Re8  1  0.343175  0.172391  0.250000  1
  Re  Re9  1  0.829216  0.172391  0.250000  1
  Re  Re10  1  0.171625  0.343250  0.750000  1
  Mo  Mo11  1  0.828875  0.657750  0.250000  1
