# generated using pymatgen
data_Dy3Tm9Ni4
_symmetry_space_group_name_H-M   'P 1'
_cell_length_a   6.29217488
_cell_length_b   6.73857696
_cell_length_c   9.44461500
_cell_angle_alpha   90.00000000
_cell_angle_beta   90.00000000
_cell_angle_gamma   90.06072993
_symmetry_Int_Tables_number   1
_chemical_formula_structural   Dy3Tm9Ni4
_chemical_formula_sum   'Dy3 Tm9 Ni4'
_cell_volume   400.45432801
_cell_formula_units_Z   1
loop_
 _symmetry_equiv_pos_site_id
 _symmetry_equiv_pos_as_xyz
  1  'x, y, z'
loop_
 _atom_site_type_symbol
 _atom_site_label
 _atom_site_symmetry_multiplicity
 _atom_site_fract_x
 _atom_site_fract_y
 _atom_site_fract_z
 _atom_site_occupancy
  Dy  Dy0  1  0.636057  0.030907  0.250000  1
  Dy  Dy1  1  0.364507  0.969381  0.750000  1
  Dy  Dy2  1  0.135906  0.468176  0.750000  1
  Tm  Tm3  1  0.864355  0.532196  0.250000  1
  Tm  Tm4  1  0.179556  0.178588  0.066754  1
  Tm  Tm5  1  0.820340  0.821114  0.934626  1
  Tm  Tm6  1  0.680460  0.322252  0.934789  1
  Tm  Tm7  1  0.820340  0.821114  0.565374  1
  Tm  Tm8  1  0.318941  0.677985  0.066136  1
  Tm  Tm9  1  0.179556  0.178588  0.433246  1
  Tm  Tm10  1  0.318941  0.677985  0.433864  1
  Tm  Tm11  1  0.680460  0.322252  0.565211  1
  Ni  Ni12  1  0.448593  0.394618  0.250000  1
  Ni  Ni13  1  0.555175  0.606824  0.750000  1
  Ni  Ni14  1  0.943707  0.106741  0.750000  1
  Ni  Ni15  1  0.053106  0.891280  0.250000  1
