# generated using pymatgen
data_La7Er(SiI6)2
_symmetry_space_group_name_H-M   'P 1'
_cell_length_a   4.42523900
_cell_length_b   14.69025436
_cell_length_c   15.44304800
_cell_angle_alpha   90.59589013
_cell_angle_beta   90.00000000
_cell_angle_gamma   90.00000000
_symmetry_Int_Tables_number   1
_chemical_formula_structural   La7Er(SiI6)2
_chemical_formula_sum   'La7 Er1 Si2 I12'
_cell_volume   1003.86561790
_cell_formula_units_Z   1
loop_
 _symmetry_equiv_pos_site_id
 _symmetry_equiv_pos_as_xyz
  1  'x, y, z'
loop_
 _atom_site_type_symbol
 _atom_site_label
 _atom_site_symmetry_multiplicity
 _atom_site_fract_x
 _atom_site_fract_y
 _atom_site_fract_z
 _atom_site_occupancy
  La  La0  1  0.500000  0.116052  0.345093  1
  La  La1  1  0.500000  0.885019  0.655576  1
  La  La2  1  0.500000  0.614397  0.153555  1
  La  La3  1  0.000000  0.117462  0.578892  1
  La  La4  1  0.000000  0.886190  0.424070  1
  La  La5  1  0.000000  0.612476  0.922177  1
  La  La6  1  0.000000  0.384256  0.073468  1
  Er  Er7  1  0.500000  0.387724  0.849116  1
  Si  Si8  1  0.500000  0.001865  0.501233  1
  Si  Si9  1  0.500000  0.497554  0.996704  1
  I  I10  1  0.500000  0.242493  0.160279  1
  I  I11  1  0.500000  0.755957  0.837945  1
  I  I12  1  0.500000  0.742494  0.337803  1
  I  I13  1  0.500000  0.260232  0.669479  1
  I  I14  1  0.000000  0.259770  0.414457  1
  I  I15  1  0.000000  0.741008  0.586511  1
  I  I16  1  0.000000  0.757709  0.086654  1
  I  I17  1  0.000000  0.251276  0.902070  1
  I  I18  1  0.000000  0.998151  0.240149  1
  I  I19  1  0.000000  0.002203  0.761083  1
  I  I20  1  0.000000  0.498375  0.258290  1
  I  I21  1  0.000000  0.487339  0.745396  1
