# generated using pymatgen
data_Li4DyCo2(NiAs)7
_symmetry_space_group_name_H-M   'P 1'
_cell_length_a   9.43731050
_cell_length_b   9.40882262
_cell_length_c   3.82699800
_cell_angle_alpha   90.00000000
_cell_angle_beta   90.00000000
_cell_angle_gamma   120.18383811
_symmetry_Int_Tables_number   1
_chemical_formula_structural   Li4DyCo2(NiAs)7
_chemical_formula_sum   'Li4 Dy1 Co2 Ni7 As7'
_cell_volume   293.74121590
_cell_formula_units_Z   1
loop_
 _symmetry_equiv_pos_site_id
 _symmetry_equiv_pos_as_xyz
  1  'x, y, z'
loop_
 _atom_site_type_symbol
 _atom_site_label
 _atom_site_symmetry_multiplicity
 _atom_site_fract_x
 _atom_site_fract_y
 _atom_site_fract_z
 _atom_site_occupancy
  Li  Li0  1  0.773264  0.546883  0.500000  1
  Li  Li1  1  0.453753  0.227200  0.500000  1
  Li  Li2  1  0.772626  0.226768  0.500000  1
  Li  Li3  1  0.999642  0.000477  0.500000  1
  Dy  Dy4  1  0.333017  0.665850  0.000000  1
  Co  Co5  1  0.275991  0.376137  0.500000  1
  Co  Co6  1  0.623504  0.899394  0.500000  1
  Ni  Ni7  1  0.101586  0.725216  0.500000  1
  Ni  Ni8  1  0.496800  0.451820  0.000000  1
  Ni  Ni9  1  0.548366  0.045832  0.000000  1
  Ni  Ni10  1  0.955420  0.503413  0.000000  1
  Ni  Ni11  1  0.714778  0.759876  0.000000  1
  Ni  Ni12  1  0.238387  0.954739  0.000000  1
  Ni  Ni13  1  0.044536  0.283997  0.000000  1
  As  As14  1  0.963336  0.756344  0.000000  1
  As  As15  1  0.243229  0.209706  0.000000  1
  As  As16  1  0.789500  0.033313  0.000000  1
  As  As17  1  0.667169  0.334707  0.000000  1
  As  As18  1  0.545128  0.619439  0.500000  1
  As  As19  1  0.384693  0.927084  0.500000  1
  As  As20  1  0.075277  0.451805  0.500000  1
