# generated using pymatgen
data_LiCa2AlPt2
_symmetry_space_group_name_H-M   'P 1'
_cell_length_a   4.24974800
_cell_length_b   7.13227900
_cell_length_c   8.06317900
_cell_angle_alpha   90.00000000
_cell_angle_beta   90.00000000
_cell_angle_gamma   90.00000000
_symmetry_Int_Tables_number   1
_chemical_formula_structural   LiCa2AlPt2
_chemical_formula_sum   'Li2 Ca4 Al2 Pt4'
_cell_volume   244.39808736
_cell_formula_units_Z   2
loop_
 _symmetry_equiv_pos_site_id
 _symmetry_equiv_pos_as_xyz
  1  'x, y, z'
loop_
 _atom_site_type_symbol
 _atom_site_label
 _atom_site_symmetry_multiplicity
 _atom_site_fract_x
 _atom_site_fract_y
 _atom_site_fract_z
 _atom_site_occupancy
  Li  Li0  1  0.250000  0.145080  0.065777  1
  Li  Li1  1  0.250000  0.645080  0.434223  1
  Ca  Ca2  1  0.250000  0.017786  0.681639  1
  Ca  Ca3  1  0.250000  0.517786  0.818361  1
  Ca  Ca4  1  0.750000  0.978258  0.318472  1
  Ca  Ca5  1  0.750000  0.478258  0.181528  1
  Al  Al6  1  0.750000  0.860980  0.932951  1
  Al  Al7  1  0.750000  0.360980  0.567049  1
  Pt  Pt8  1  0.250000  0.281015  0.403764  1
  Pt  Pt9  1  0.250000  0.781015  0.096236  1
  Pt  Pt10  1  0.750000  0.716881  0.631898  1
  Pt  Pt11  1  0.750000  0.216881  0.868102  1
