# generated using pymatgen
data_Lu12GaCo4Pb
_symmetry_space_group_name_H-M   'P 1'
_cell_length_a   8.13948730
_cell_length_b   8.13948735
_cell_length_c   8.13948837
_cell_angle_alpha   111.94701847
_cell_angle_beta   109.58191431
_cell_angle_gamma   106.92362928
_symmetry_Int_Tables_number   1
_chemical_formula_structural   Lu12GaCo4Pb
_chemical_formula_sum   'Lu12 Ga1 Co4 Pb1'
_cell_volume   414.31852147
_cell_formula_units_Z   1
loop_
 _symmetry_equiv_pos_site_id
 _symmetry_equiv_pos_as_xyz
  1  'x, y, z'
loop_
 _atom_site_type_symbol
 _atom_site_label
 _atom_site_symmetry_multiplicity
 _atom_site_fract_x
 _atom_site_fract_y
 _atom_site_fract_z
 _atom_site_occupancy
  Lu  Lu0  1  0.563489  0.267173  0.296316  1
  Lu  Lu1  1  0.970857  0.267173  0.703683  1
  Lu  Lu2  1  0.436511  0.732827  0.703684  1
  Lu  Lu3  1  0.029142  0.732827  0.296316  1
  Lu  Lu4  1  0.324239  0.510663  0.186424  1
  Lu  Lu5  1  0.324238  0.137814  0.813574  1
  Lu  Lu6  1  0.675762  0.862186  0.186424  1
  Lu  Lu7  1  0.675761  0.489336  0.813574  1
  Lu  Lu8  1  0.180081  0.220939  0.401020  1
  Lu  Lu9  1  0.819919  0.779061  0.598981  1
  Lu  Lu10  1  0.819919  0.220938  0.040858  1
  Lu  Lu11  1  0.180081  0.779062  0.959143  1
  Ga  Ga12  1  0.000000  0.500000  0.500000  1
  Co  Co13  1  0.657499  0.500000  0.157499  1
  Co  Co14  1  0.342501  0.500000  0.842501  1
  Co  Co15  1  0.115568  0.115568  0.000000  1
  Co  Co16  1  0.884432  0.884432  0.000000  1
  Pb  Pb17  1  0.500000  0.000000  0.500000  1
