# generated using pymatgen
data_Ba8SmUSe12
_symmetry_space_group_name_H-M   'P 1'
_cell_length_a   9.08048771
_cell_length_b   9.08048723
_cell_length_c   9.08048901
_cell_angle_alpha   89.52089496
_cell_angle_beta   89.52089986
_cell_angle_gamma   89.52090047
_symmetry_Int_Tables_number   1
_chemical_formula_structural   Ba8SmUSe12
_chemical_formula_sum   'Ba8 Sm1 U1 Se12'
_cell_volume   748.65592237
_cell_formula_units_Z   1
loop_
 _symmetry_equiv_pos_site_id
 _symmetry_equiv_pos_as_xyz
  1  'x, y, z'
loop_
 _atom_site_type_symbol
 _atom_site_label
 _atom_site_symmetry_multiplicity
 _atom_site_fract_x
 _atom_site_fract_y
 _atom_site_fract_z
 _atom_site_occupancy
  Ba  Ba0  1  0.871612  0.622388  0.255595  1
  Ba  Ba1  1  0.255595  0.871612  0.622388  1
  Ba  Ba2  1  0.622388  0.255595  0.871612  1
  Ba  Ba3  1  0.744405  0.128388  0.377612  1
  Ba  Ba4  1  0.377612  0.744405  0.128388  1
  Ba  Ba5  1  0.128388  0.377612  0.744405  1
  Ba  Ba6  1  0.254606  0.254606  0.254606  1
  Ba  Ba7  1  0.745394  0.745394  0.745394  1
  Sm  Sm8  1  0.500000  0.500000  0.500000  1
  U  U9  1  0.000000  0.000000  0.000000  1
  Se  Se10  1  0.194831  0.564127  0.419868  1
  Se  Se11  1  0.419868  0.194831  0.564127  1
  Se  Se12  1  0.564127  0.419868  0.194831  1
  Se  Se13  1  0.926724  0.058898  0.709208  1
  Se  Se14  1  0.709208  0.926724  0.058898  1
  Se  Se15  1  0.058898  0.709208  0.926724  1
  Se  Se16  1  0.805169  0.435873  0.580132  1
  Se  Se17  1  0.580132  0.805169  0.435873  1
  Se  Se18  1  0.435873  0.580132  0.805169  1
  Se  Se19  1  0.073276  0.941102  0.290792  1
  Se  Se20  1  0.290792  0.073276  0.941102  1
  Se  Se21  1  0.941102  0.290792  0.073276  1
