# generated using pymatgen
data_Pr4Be4Si3Ge
_symmetry_space_group_name_H-M   'P 1'
_cell_length_a   3.97685500
_cell_length_b   3.97685472
_cell_length_c   17.28984800
_cell_angle_alpha   90.00000000
_cell_angle_beta   90.00000000
_cell_angle_gamma   119.99997737
_symmetry_Int_Tables_number   1
_chemical_formula_structural   Pr4Be4Si3Ge
_chemical_formula_sum   'Pr4 Be4 Si3 Ge1'
_cell_volume   236.81073644
_cell_formula_units_Z   1
loop_
 _symmetry_equiv_pos_site_id
 _symmetry_equiv_pos_as_xyz
  1  'x, y, z'
loop_
 _atom_site_type_symbol
 _atom_site_label
 _atom_site_symmetry_multiplicity
 _atom_site_fract_x
 _atom_site_fract_y
 _atom_site_fract_z
 _atom_site_occupancy
  Pr  Pr0  1  0.000000  0.000000  0.250562  1
  Pr  Pr1  1  0.000000  0.000000  0.748308  1
  Pr  Pr2  1  0.000000  0.000000  0.001702  1
  Pr  Pr3  1  0.000000  0.000000  0.499528  1
  Be  Be4  1  0.333333  0.666667  0.125333  1
  Be  Be5  1  0.666667  0.333333  0.874847  1
  Be  Be6  1  0.666667  0.333333  0.624288  1
  Be  Be7  1  0.333333  0.666667  0.375381  1
  Si  Si8  1  0.333333  0.666667  0.624451  1
  Si  Si9  1  0.666667  0.333333  0.375068  1
  Si  Si10  1  0.666667  0.333333  0.125757  1
  Ge  Ge11  1  0.333333  0.666667  0.874774  1
