# generated using pymatgen
data_K2FeNiF7
_symmetry_space_group_name_H-M   'P 1'
_cell_length_a   7.68696105
_cell_length_b   7.68696092
_cell_length_c   7.68696019
_cell_angle_alpha   120.74939005
_cell_angle_beta   116.98995671
_cell_angle_gamma   91.99898027
_symmetry_Int_Tables_number   1
_chemical_formula_structural   K2FeNiF7
_chemical_formula_sum   'K4 Fe2 Ni2 F14'
_cell_volume   326.03165647
_cell_formula_units_Z   2
loop_
 _symmetry_equiv_pos_site_id
 _symmetry_equiv_pos_as_xyz
  1  'x, y, z'
loop_
 _atom_site_type_symbol
 _atom_site_label
 _atom_site_symmetry_multiplicity
 _atom_site_fract_x
 _atom_site_fract_y
 _atom_site_fract_z
 _atom_site_occupancy
  K  K0  1  0.000000  0.000000  0.500000  1
  K  K1  1  0.000000  0.000000  0.000000  1
  K  K2  1  0.000000  0.500000  0.000000  1
  K  K3  1  0.500000  0.500000  0.000000  1
  Fe  Fe4  1  0.000000  0.500000  0.500000  1
  Fe  Fe5  1  0.500000  0.000000  0.500000  1
  Ni  Ni6  1  0.500000  0.500000  0.500000  1
  Ni  Ni7  1  0.500000  0.000000  0.000000  1
  F  F8  1  0.404684  0.250000  0.154684  1
  F  F9  1  0.123744  0.413369  0.710375  1
  F  F10  1  0.189950  0.427333  0.385216  1
  F  F11  1  0.542117  0.304734  0.614784  1
  F  F12  1  0.797007  0.086631  0.710375  1
  F  F13  1  0.457883  0.072667  0.762617  1
  F  F14  1  0.189950  0.804734  0.762617  1
  F  F15  1  0.542117  0.927333  0.237383  1
  F  F16  1  0.595316  0.750000  0.845316  1
  F  F17  1  0.810050  0.195266  0.237383  1
  F  F18  1  0.876256  0.586631  0.289625  1
  F  F19  1  0.810050  0.572667  0.614784  1
  F  F20  1  0.457883  0.695266  0.385216  1
  F  F21  1  0.202993  0.913369  0.289625  1
