# generated using pymatgen
data_Li4LuTh3Si8
_symmetry_space_group_name_H-M   'P 1'
_cell_length_a   3.83811400
_cell_length_b   7.74440487
_cell_length_c   10.34178868
_cell_angle_alpha   89.99634863
_cell_angle_beta   90.00000000
_cell_angle_gamma   90.00000000
_symmetry_Int_Tables_number   1
_chemical_formula_structural   Li4LuTh3Si8
_chemical_formula_sum   'Li4 Lu1 Th3 Si8'
_cell_volume   307.39838247
_cell_formula_units_Z   1
loop_
 _symmetry_equiv_pos_site_id
 _symmetry_equiv_pos_as_xyz
  1  'x, y, z'
loop_
 _atom_site_type_symbol
 _atom_site_label
 _atom_site_symmetry_multiplicity
 _atom_site_fract_x
 _atom_site_fract_y
 _atom_site_fract_z
 _atom_site_occupancy
  Li  Li0  1  0.250000  0.989914  0.395837  1
  Li  Li1  1  0.250000  0.488753  0.108123  1
  Li  Li2  1  0.750000  0.011144  0.600686  1
  Li  Li3  1  0.750000  0.510713  0.895598  1
  Lu  Lu4  1  0.750000  0.367194  0.363468  1
  Th  Th5  1  0.250000  0.141674  0.862832  1
  Th  Th6  1  0.250000  0.634826  0.637221  1
  Th  Th7  1  0.750000  0.862397  0.138811  1
  Si  Si8  1  0.250000  0.238490  0.560502  1
  Si  Si9  1  0.250000  0.733927  0.931242  1
  Si  Si10  1  0.750000  0.757441  0.431149  1
  Si  Si11  1  0.750000  0.269669  0.072180  1
  Si  Si12  1  0.250000  0.653520  0.317019  1
  Si  Si13  1  0.250000  0.164168  0.187162  1
  Si  Si14  1  0.750000  0.335827  0.681069  1
  Si  Si15  1  0.750000  0.840342  0.817099  1
