# generated using pymatgen
data_Nd8Si12AgIr2Rh
_symmetry_space_group_name_H-M   'P 1'
_cell_length_a   8.27722800
_cell_length_b   8.27719009
_cell_length_c   8.49742200
_cell_angle_alpha   89.99995847
_cell_angle_beta   90.00011075
_cell_angle_gamma   119.99988773
_symmetry_Int_Tables_number   1
_chemical_formula_structural   Nd8Si12AgIr2Rh
_chemical_formula_sum   'Nd8 Si12 Ag1 Ir2 Rh1'
_cell_volume   504.18063063
_cell_formula_units_Z   1
loop_
 _symmetry_equiv_pos_site_id
 _symmetry_equiv_pos_as_xyz
  1  'x, y, z'
loop_
 _atom_site_type_symbol
 _atom_site_label
 _atom_site_symmetry_multiplicity
 _atom_site_fract_x
 _atom_site_fract_y
 _atom_site_fract_z
 _atom_site_occupancy
  Nd  Nd0  1  0.000000  0.000002  0.750700  1
  Nd  Nd1  1  0.000001  0.000000  0.249940  1
  Nd  Nd2  1  0.496311  0.503688  0.745022  1
  Nd  Nd3  1  0.496310  0.992620  0.745021  1
  Nd  Nd4  1  0.007378  0.503688  0.745022  1
  Nd  Nd5  1  0.498089  0.501909  0.254877  1
  Nd  Nd6  1  0.003819  0.501908  0.254876  1
  Nd  Nd7  1  0.498091  0.996181  0.254874  1
  Si  Si8  1  0.839924  0.160077  0.000612  1
  Si  Si9  1  0.839925  0.679847  0.000613  1
  Si  Si10  1  0.320154  0.160076  0.000613  1
  Si  Si11  1  0.832440  0.167560  0.500386  1
  Si  Si12  1  0.832440  0.664879  0.500386  1
  Si  Si13  1  0.335121  0.167559  0.500386  1
  Si  Si14  1  0.166493  0.833507  0.499650  1
  Si  Si15  1  0.667012  0.833506  0.499650  1
  Si  Si16  1  0.166493  0.332987  0.499649  1
  Si  Si17  1  0.168218  0.831781  0.999918  1
  Si  Si18  1  0.663562  0.831782  0.999918  1
  Si  Si19  1  0.168219  0.336438  0.999918  1
  Ag  Ag20  1  0.666667  0.333334  0.995909  1
  Ir  Ir21  1  0.666668  0.333334  0.502459  1
  Ir  Ir22  1  0.333333  0.666667  0.497654  1
  Rh  Rh23  1  0.333337  0.666665  0.001944  1
