# generated using pymatgen
data_Ca2Yb3V3O12
_symmetry_space_group_name_H-M   'P 1'
_cell_length_a   11.26397557
_cell_length_b   11.26386457
_cell_length_c   11.26400000
_cell_angle_alpha   109.62712936
_cell_angle_beta   109.11815552
_cell_angle_gamma   109.67030361
_symmetry_Int_Tables_number   1
_chemical_formula_structural   Ca2Yb3V3O12
_chemical_formula_sum   'Ca8 Yb12 V12 O48'
_cell_volume   1100.09502751
_cell_formula_units_Z   4
loop_
 _symmetry_equiv_pos_site_id
 _symmetry_equiv_pos_as_xyz
  1  'x, y, z'
loop_
 _atom_site_type_symbol
 _atom_site_label
 _atom_site_symmetry_multiplicity
 _atom_site_fract_x
 _atom_site_fract_y
 _atom_site_fract_z
 _atom_site_occupancy
  Ca  Ca0  1  0.875000  0.625000  0.250000  1
  Ca  Ca1  1  0.875000  0.625000  0.750000  1
  Ca  Ca2  1  0.375000  0.125000  0.750000  1
  Ca  Ca3  1  0.375000  0.625000  0.750000  1
  Ca  Ca4  1  0.375000  0.625000  0.250000  1
  Ca  Ca5  1  0.375000  0.125000  0.250000  1
  Ca  Ca6  1  0.875000  0.125000  0.250000  1
  Ca  Ca7  1  0.875000  0.125000  0.750000  1
  Yb  Yb8  1  0.003658  0.503652  0.499998  1
  Yb  Yb9  1  0.246353  0.246348  0.000012  1
  Yb  Yb10  1  0.503647  0.003652  0.499988  1
  Yb  Yb11  1  0.746342  0.746348  0.000002  1
  Yb  Yb12  1  0.125003  0.003296  0.378298  1
  Yb  Yb13  1  0.000329  0.374995  0.125333  1
  Yb  Yb14  1  0.500333  0.374994  0.625335  1
  Yb  Yb15  1  0.124996  0.503299  0.878291  1
  Yb  Yb16  1  0.249667  0.875006  0.874665  1
  Yb  Yb17  1  0.625004  0.746701  0.621709  1
  Yb  Yb18  1  0.749671  0.875005  0.374667  1
  Yb  Yb19  1  0.624997  0.246704  0.121702  1
  V  V20  1  0.997359  0.997355  0.000003  1
  V  V21  1  0.999674  0.875003  0.624675  1
  V  V22  1  0.250372  0.374992  0.375369  1
  V  V23  1  0.125001  0.752184  0.127185  1
  V  V24  1  0.125015  0.252164  0.627162  1
  V  V25  1  0.252637  0.752654  0.499982  1
  V  V26  1  0.497363  0.497346  0.000018  1
  V  V27  1  0.624999  0.497816  0.372815  1
  V  V28  1  0.499628  0.875008  0.124631  1
  V  V29  1  0.624985  0.997836  0.872838  1
  V  V30  1  0.750326  0.374997  0.875325  1
  V  V31  1  0.752641  0.252645  0.499997  1
  O  O32  1  0.980010  0.753546  0.153738  1
  O  O33  1  0.997858  0.141126  0.971924  1
  O  O34  1  0.907394  0.351454  0.884616  1
  O  O35  1  0.970908  0.995921  0.144979  1
  O  O36  1  0.966840  0.851458  0.444067  1
  O  O37  1  0.981722  0.108615  0.455357  1
  O  O38  1  0.069789  0.351585  0.342487  1
  O  O39  1  0.283205  0.227214  0.384654  1
  O  O40  1  0.240903  0.398416  0.218203  1
  O  O41  1  0.153250  0.608626  0.126911  1
  O  O42  1  0.180269  0.022713  0.781849  1
  O  O43  1  0.899088  0.424074  0.644997  1
  O  O44  1  0.080798  0.608868  0.356730  1
  O  O45  1  0.099807  0.253531  0.773512  1
  O  O46  1  0.268270  0.223651  0.626897  1
  O  O47  1  0.169164  0.025947  0.028069  1
  O  O48  1  0.150191  0.423710  0.653721  1
  O  O49  1  0.009140  0.727295  0.657562  1
  O  O50  1  0.269982  0.923725  0.273534  1
  O  O51  1  0.407446  0.522782  0.555993  1
  O  O52  1  0.399071  0.754082  0.474989  1
  O  O53  1  0.252127  0.724052  0.643219  1
  O  O54  1  0.470923  0.325937  0.975013  1
  O  O55  1  0.096749  0.723659  0.955398  1
  O  O56  1  0.653251  0.526341  0.544602  1
  O  O57  1  0.279077  0.924063  0.524987  1
  O  O58  1  0.497873  0.525948  0.856781  1
  O  O59  1  0.350929  0.495918  0.025011  1
  O  O60  1  0.342554  0.727218  0.944007  1
  O  O61  1  0.480018  0.326275  0.226466  1
  O  O62  1  0.740860  0.522705  0.842438  1
  O  O63  1  0.599809  0.826290  0.846279  1
  O  O64  1  0.580836  0.224053  0.471931  1
  O  O65  1  0.481730  0.026349  0.873103  1
  O  O66  1  0.650193  0.996469  0.726488  1
  O  O67  1  0.669202  0.641132  0.143270  1
  O  O68  1  0.850912  0.825926  0.855003  1
  O  O69  1  0.569731  0.227287  0.718151  1
  O  O70  1  0.509097  0.851584  0.281797  1
  O  O71  1  0.596750  0.641374  0.373089  1
  O  O72  1  0.466795  0.022786  0.115346  1
  O  O73  1  0.680211  0.898415  0.157513  1
  O  O74  1  0.768278  0.141385  0.044643  1
  O  O75  1  0.783160  0.398542  0.055933  1
  O  O76  1  0.779092  0.254079  0.355021  1
  O  O77  1  0.842606  0.898546  0.615384  1
  O  O78  1  0.752142  0.108874  0.528076  1
  O  O79  1  0.769990  0.496454  0.346262  1
