# generated using pymatgen
data_Na2In2Te3
_symmetry_space_group_name_H-M   'P 1'
_cell_length_a   7.92311732
_cell_length_b   7.92311733
_cell_length_c   9.60529200
_cell_angle_alpha   82.11955290
_cell_angle_beta   82.11956019
_cell_angle_gamma   120.15505874
_symmetry_Int_Tables_number   1
_chemical_formula_structural   Na2In2Te3
_chemical_formula_sum   'Na4 In4 Te6'
_cell_volume   501.29711214
_cell_formula_units_Z   2
loop_
 _symmetry_equiv_pos_site_id
 _symmetry_equiv_pos_as_xyz
  1  'x, y, z'
loop_
 _atom_site_type_symbol
 _atom_site_label
 _atom_site_symmetry_multiplicity
 _atom_site_fract_x
 _atom_site_fract_y
 _atom_site_fract_z
 _atom_site_occupancy
  Na  Na0  1  0.668190  0.331810  0.000000  1
  Na  Na1  1  0.331810  0.668190  0.000000  1
  Na  Na2  1  0.000000  0.000000  0.000000  1
  Na  Na3  1  0.500000  0.500000  0.500000  1
  In  In4  1  0.883676  0.216507  0.348232  1
  In  In5  1  0.783493  0.116324  0.651768  1
  In  In6  1  0.216507  0.883676  0.348232  1
  In  In7  1  0.116324  0.783493  0.651768  1
  Te  Te8  1  0.410387  0.082788  0.772127  1
  Te  Te9  1  0.082788  0.410387  0.772127  1
  Te  Te10  1  0.917212  0.589613  0.227873  1
  Te  Te11  1  0.736448  0.736448  0.772671  1
  Te  Te12  1  0.589613  0.917212  0.227873  1
  Te  Te13  1  0.263552  0.263552  0.227329  1
