# generated using pymatgen
data_DyTmFe6(SiB)2
_symmetry_space_group_name_H-M   'P 1'
_cell_length_a   5.12717100
_cell_length_b   5.12673312
_cell_length_c   6.63260100
_cell_angle_alpha   90.00000000
_cell_angle_beta   90.00000000
_cell_angle_gamma   120.00281895
_symmetry_Int_Tables_number   1
_chemical_formula_structural   DyTmFe6(SiB)2
_chemical_formula_sum   'Dy1 Tm1 Fe6 Si2 B2'
_cell_volume   150.98043740
_cell_formula_units_Z   1
loop_
 _symmetry_equiv_pos_site_id
 _symmetry_equiv_pos_as_xyz
  1  'x, y, z'
loop_
 _atom_site_type_symbol
 _atom_site_label
 _atom_site_symmetry_multiplicity
 _atom_site_fract_x
 _atom_site_fract_y
 _atom_site_fract_z
 _atom_site_occupancy
  Dy  Dy0  1  0.999982  0.000000  0.000000  1
  Tm  Tm1  1  0.999984  0.000000  0.500000  1
  Fe  Fe2  1  0.499984  0.000000  0.283302  1
  Fe  Fe3  1  0.499983  0.500000  0.283319  1
  Fe  Fe4  1  0.999983  0.500000  0.283319  1
  Fe  Fe5  1  0.499984  0.000000  0.716698  1
  Fe  Fe6  1  0.499983  0.500000  0.716681  1
  Fe  Fe7  1  0.999983  0.500000  0.716681  1
  Si  Si8  1  0.333316  0.666665  0.000000  1
  Si  Si9  1  0.666651  0.333335  0.000000  1
  B  B10  1  0.333322  0.666677  0.500000  1
  B  B11  1  0.666644  0.333323  0.500000  1
