# generated using pymatgen
data_La4Y11Er5Bi12
_symmetry_space_group_name_H-M   'P 1'
_cell_length_a   8.31381284
_cell_length_b   9.53737105
_cell_length_c   12.16129400
_cell_angle_alpha   90.00486608
_cell_angle_beta   90.04733866
_cell_angle_gamma   89.99628334
_symmetry_Int_Tables_number   1
_chemical_formula_structural   La4Y11Er5Bi12
_chemical_formula_sum   'La4 Y11 Er5 Bi12'
_cell_volume   964.29199089
_cell_formula_units_Z   1
loop_
 _symmetry_equiv_pos_site_id
 _symmetry_equiv_pos_as_xyz
  1  'x, y, z'
loop_
 _atom_site_type_symbol
 _atom_site_label
 _atom_site_symmetry_multiplicity
 _atom_site_fract_x
 _atom_site_fract_y
 _atom_site_fract_z
 _atom_site_occupancy
  La  La0  1  0.183204  0.749576  0.721490  1
  La  La1  1  0.682723  0.750133  0.778695  1
  La  La2  1  0.817111  0.250290  0.278737  1
  La  La3  1  0.317555  0.250931  0.220947  1
  Y  Y4  1  0.807022  0.062275  0.560957  1
  Y  Y5  1  0.691936  0.937280  0.060155  1
  Y  Y6  1  0.192997  0.562151  0.439296  1
  Y  Y7  1  0.692821  0.561791  0.060563  1
  Y  Y8  1  0.192898  0.937999  0.439148  1
  Y  Y9  1  0.307260  0.061709  0.939549  1
  Y  Y10  1  0.807031  0.438169  0.560877  1
  Y  Y11  1  0.352940  0.750364  0.217142  1
  Y  Y12  1  0.852457  0.750373  0.282552  1
  Y  Y13  1  0.646659  0.250809  0.783001  1
  Y  Y14  1  0.148062  0.251158  0.717941  1
  Er  Er15  1  0.024094  0.749983  0.988227  1
  Er  Er16  1  0.524103  0.750168  0.511974  1
  Er  Er17  1  0.976494  0.250433  0.011656  1
  Er  Er18  1  0.475928  0.250283  0.488088  1
  Er  Er19  1  0.307207  0.434490  0.939176  1
  Bi  Bi20  1  0.433968  0.009922  0.670014  1
  Bi  Bi21  1  0.934535  0.490644  0.830195  1
  Bi  Bi22  1  0.565874  0.510012  0.329998  1
  Bi  Bi23  1  0.065895  0.990595  0.169884  1
  Bi  Bi24  1  0.565926  0.990635  0.330105  1
  Bi  Bi25  1  0.065968  0.509991  0.169766  1
  Bi  Bi26  1  0.433884  0.490571  0.669979  1
  Bi  Bi27  1  0.934112  0.010025  0.830092  1
  Bi  Bi28  1  0.404835  0.747079  0.963943  1
  Bi  Bi29  1  0.906247  0.750185  0.535481  1
  Bi  Bi30  1  0.594378  0.249924  0.035597  1
  Bi  Bi31  1  0.093882  0.250052  0.464771  1
