# generated using pymatgen
data_HoTm(Hf4Sn3)2
_symmetry_space_group_name_H-M   'P 1'
_cell_length_a   8.60503251
_cell_length_b   8.60503301
_cell_length_c   5.82192300
_cell_angle_alpha   90.00000000
_cell_angle_beta   90.00000000
_cell_angle_gamma   121.36621181
_symmetry_Int_Tables_number   1
_chemical_formula_structural   HoTm(Hf4Sn3)2
_chemical_formula_sum   'Ho1 Tm1 Hf8 Sn6'
_cell_volume   368.09262183
_cell_formula_units_Z   1
loop_
 _symmetry_equiv_pos_site_id
 _symmetry_equiv_pos_as_xyz
  1  'x, y, z'
loop_
 _atom_site_type_symbol
 _atom_site_label
 _atom_site_symmetry_multiplicity
 _atom_site_fract_x
 _atom_site_fract_y
 _atom_site_fract_z
 _atom_site_occupancy
  Ho  Ho0  1  0.771852  0.771852  0.750000  1
  Tm  Tm1  1  0.227973  0.227973  0.250000  1
  Hf  Hf2  1  0.251575  0.000698  0.750000  1
  Hf  Hf3  1  0.000698  0.251575  0.750000  1
  Hf  Hf4  1  0.748153  0.999612  0.250000  1
  Hf  Hf5  1  0.999612  0.748153  0.250000  1
  Hf  Hf6  1  0.665798  0.334577  0.000054  1
  Hf  Hf7  1  0.334577  0.665798  0.000054  1
  Hf  Hf8  1  0.334577  0.665798  0.499946  1
  Hf  Hf9  1  0.665798  0.334577  0.499946  1
  Sn  Sn10  1  0.391338  0.391338  0.750000  1
  Sn  Sn11  1  0.606419  0.003212  0.750000  1
  Sn  Sn12  1  0.003212  0.606419  0.750000  1
  Sn  Sn13  1  0.608338  0.608338  0.250000  1
  Sn  Sn14  1  0.392935  0.997144  0.250000  1
  Sn  Sn15  1  0.997144  0.392935  0.250000  1
