# generated using pymatgen
data_La5Zr3(P3Pd4)4
_symmetry_space_group_name_H-M   'P 1'
_cell_length_a   13.25733300
_cell_length_b   13.25733224
_cell_length_c   4.11612200
_cell_angle_alpha   90.00000000
_cell_angle_beta   90.00000000
_cell_angle_gamma   120.00000439
_symmetry_Int_Tables_number   1
_chemical_formula_structural   La5Zr3(P3Pd4)4
_chemical_formula_sum   'La5 Zr3 P12 Pd16'
_cell_volume   626.51454286
_cell_formula_units_Z   1
loop_
 _symmetry_equiv_pos_site_id
 _symmetry_equiv_pos_as_xyz
  1  'x, y, z'
loop_
 _atom_site_type_symbol
 _atom_site_label
 _atom_site_symmetry_multiplicity
 _atom_site_fract_x
 _atom_site_fract_y
 _atom_site_fract_z
 _atom_site_occupancy
  La  La0  1  0.189620  0.189620  0.500000  1
  La  La1  1  0.810380  0.000000  0.500000  1
  La  La2  1  0.000000  0.810380  0.500000  1
  La  La3  1  0.333333  0.666667  0.000000  1
  La  La4  1  0.666667  0.333333  0.000000  1
  Zr  Zr5  1  0.556890  0.556890  0.000000  1
  Zr  Zr6  1  0.443110  0.000000  0.000000  1
  Zr  Zr7  1  0.000000  0.443110  0.000000  1
  P  P8  1  0.822924  0.822924  0.000000  1
  P  P9  1  0.177076  0.000000  0.000000  1
  P  P10  1  0.000000  0.177076  0.000000  1
  P  P11  1  0.163059  0.478012  0.500000  1
  P  P12  1  0.521988  0.685047  0.500000  1
  P  P13  1  0.314953  0.836941  0.500000  1
  P  P14  1  0.685047  0.521988  0.500000  1
  P  P15  1  0.836941  0.314953  0.500000  1
  P  P16  1  0.478012  0.163059  0.500000  1
  P  P17  1  0.362909  0.362909  0.000000  1
  P  P18  1  0.637091  0.000000  0.000000  1
  P  P19  1  0.000000  0.637091  0.000000  1
  Pd  Pd20  1  0.723213  0.723213  0.500000  1
  Pd  Pd21  1  0.276787  0.000000  0.500000  1
  Pd  Pd22  1  0.000000  0.276787  0.500000  1
  Pd  Pd23  1  0.185147  0.376518  0.000000  1
  Pd  Pd24  1  0.623482  0.808629  0.000000  1
  Pd  Pd25  1  0.191371  0.814853  0.000000  1
  Pd  Pd26  1  0.808629  0.623482  0.000000  1
  Pd  Pd27  1  0.814853  0.191371  0.000000  1
  Pd  Pd28  1  0.376518  0.185147  0.000000  1
  Pd  Pd29  1  0.359136  0.487977  0.500000  1
  Pd  Pd30  1  0.512023  0.871158  0.500000  1
  Pd  Pd31  1  0.128842  0.640864  0.500000  1
  Pd  Pd32  1  0.871158  0.512023  0.500000  1
  Pd  Pd33  1  0.640864  0.128842  0.500000  1
  Pd  Pd34  1  0.487977  0.359136  0.500000  1
  Pd  Pd35  1  0.000000  0.000000  0.000000  1
