# generated using pymatgen
data_Lu2ZnNiRu
_symmetry_space_group_name_H-M   'P 1'
_cell_length_a   5.32660680
_cell_length_b   5.32660631
_cell_length_c   5.32660621
_cell_angle_alpha   135.21894110
_cell_angle_beta   116.52578684
_cell_angle_gamma   81.00175839
_symmetry_Int_Tables_number   1
_chemical_formula_structural   Lu2ZnNiRu
_chemical_formula_sum   'Lu2 Zn1 Ni1 Ru1'
_cell_volume   92.10580282
_cell_formula_units_Z   1
loop_
 _symmetry_equiv_pos_site_id
 _symmetry_equiv_pos_as_xyz
  1  'x, y, z'
loop_
 _atom_site_type_symbol
 _atom_site_label
 _atom_site_symmetry_multiplicity
 _atom_site_fract_x
 _atom_site_fract_y
 _atom_site_fract_z
 _atom_site_occupancy
  Lu  Lu0  1  0.699676  0.205796  0.493881  1
  Lu  Lu1  1  0.288085  0.794204  0.493881  1
  Zn  Zn2  1  0.995397  0.000000  0.995397  1
  Ni  Ni3  1  0.731942  0.500000  0.231942  1
  Ru  Ru4  1  0.284899  0.500000  0.784899  1
