# generated using pymatgen
data_K3Li(SnPb)2
_symmetry_space_group_name_H-M   'P 1'
_cell_length_a   8.79318778
_cell_length_b   8.79318842
_cell_length_c   10.41396600
_cell_angle_alpha   90.00000000
_cell_angle_beta   90.00000000
_cell_angle_gamma   133.80177041
_symmetry_Int_Tables_number   1
_chemical_formula_structural   K3Li(SnPb)2
_chemical_formula_sum   'K6 Li2 Sn4 Pb4'
_cell_volume   581.15096146
_cell_formula_units_Z   2
loop_
 _symmetry_equiv_pos_site_id
 _symmetry_equiv_pos_as_xyz
  1  'x, y, z'
loop_
 _atom_site_type_symbol
 _atom_site_label
 _atom_site_symmetry_multiplicity
 _atom_site_fract_x
 _atom_site_fract_y
 _atom_site_fract_z
 _atom_site_occupancy
  K  K0  1  0.228788  0.771212  0.250000  1
  K  K1  1  0.771212  0.228788  0.750000  1
  K  K2  1  0.615084  0.384916  0.046581  1
  K  K3  1  0.384916  0.615084  0.953419  1
  K  K4  1  0.384916  0.615084  0.546581  1
  K  K5  1  0.615084  0.384916  0.453419  1
  Li  Li6  1  0.000000  0.000000  0.000000  1
  Li  Li7  1  0.000000  0.000000  0.500000  1
  Sn  Sn8  1  0.830011  0.169989  0.107800  1
  Sn  Sn9  1  0.169989  0.830011  0.892200  1
  Sn  Sn10  1  0.169989  0.830011  0.607800  1
  Sn  Sn11  1  0.830011  0.169989  0.392200  1
  Pb  Pb12  1  0.202846  0.279776  0.250000  1
  Pb  Pb13  1  0.797154  0.720224  0.750000  1
  Pb  Pb14  1  0.720224  0.797154  0.250000  1
  Pb  Pb15  1  0.279776  0.202846  0.750000  1
