# generated using pymatgen
data_Hf6Tl4NiBr18
_symmetry_space_group_name_H-M   'P 1'
_cell_length_a   10.45293785
_cell_length_b   10.64618140
_cell_length_c   10.72194100
_cell_angle_alpha   118.31842388
_cell_angle_beta   100.94822743
_cell_angle_gamma   103.76693519
_symmetry_Int_Tables_number   1
_chemical_formula_structural   Hf6Tl4NiBr18
_chemical_formula_sum   'Hf6 Tl4 Ni1 Br18'
_cell_volume   954.08883787
_cell_formula_units_Z   1
loop_
 _symmetry_equiv_pos_site_id
 _symmetry_equiv_pos_as_xyz
  1  'x, y, z'
loop_
 _atom_site_type_symbol
 _atom_site_label
 _atom_site_symmetry_multiplicity
 _atom_site_fract_x
 _atom_site_fract_y
 _atom_site_fract_z
 _atom_site_occupancy
  Hf  Hf0  1  0.155547  0.056923  0.238447  1
  Hf  Hf1  1  0.844453  0.943077  0.761553  1
  Hf  Hf2  1  0.859541  0.130364  0.136562  1
  Hf  Hf3  1  0.140459  0.869636  0.863438  1
  Hf  Hf4  1  0.148534  0.245500  0.045429  1
  Hf  Hf5  1  0.851466  0.754500  0.954571  1
  Tl  Tl6  1  0.655428  0.537664  0.228163  1
  Tl  Tl7  1  0.344572  0.462336  0.771837  1
  Tl  Tl8  1  0.688581  0.226125  0.563456  1
  Tl  Tl9  1  0.311419  0.773875  0.436544  1
  Ni  Ni10  1  0.000000  0.000000  0.000000  1
  Br  Br11  1  0.009274  0.411802  0.197505  1
  Br  Br12  1  0.990726  0.588198  0.802495  1
  Br  Br13  1  0.333603  0.334098  0.313289  1
  Br  Br14  1  0.666397  0.665902  0.686711  1
  Br  Br15  1  0.325493  0.522994  0.101366  1
  Br  Br16  1  0.674507  0.477006  0.898634  1
  Br  Br17  1  0.006407  0.794841  0.213312  1
  Br  Br18  1  0.993593  0.205159  0.786688  1
  Br  Br19  1  0.702975  0.275201  0.288256  1
  Br  Br20  1  0.297025  0.724799  0.711744  1
  Br  Br21  1  0.318667  0.128653  0.904803  1
  Br  Br22  1  0.681333  0.871347  0.095197  1
  Br  Br23  1  0.018937  0.206385  0.412374  1
  Br  Br24  1  0.981063  0.793615  0.587626  1
  Br  Br25  1  0.324484  0.923586  0.113266  1
  Br  Br26  1  0.675516  0.076414  0.886734  1
  Br  Br27  1  0.340339  0.123713  0.507274  1
  Br  Br28  1  0.659661  0.876287  0.492726  1
