# generated using pymatgen
data_HoCu3SiPd
_symmetry_space_group_name_H-M   'P 1'
_cell_length_a   4.93639094
_cell_length_b   4.93639099
_cell_length_c   4.93639131
_cell_angle_alpha   61.03241154
_cell_angle_beta   61.03240982
_cell_angle_gamma   61.03240392
_symmetry_Int_Tables_number   1
_chemical_formula_structural   HoCu3SiPd
_chemical_formula_sum   'Ho1 Cu3 Si1 Pd1'
_cell_volume   87.03528010
_cell_formula_units_Z   1
loop_
 _symmetry_equiv_pos_site_id
 _symmetry_equiv_pos_as_xyz
  1  'x, y, z'
loop_
 _atom_site_type_symbol
 _atom_site_label
 _atom_site_symmetry_multiplicity
 _atom_site_fract_x
 _atom_site_fract_y
 _atom_site_fract_z
 _atom_site_occupancy
  Ho  Ho0  1  0.247951  0.247951  0.247951  1
  Cu  Cu1  1  0.625897  0.625897  0.124952  1
  Cu  Cu2  1  0.625897  0.124952  0.625897  1
  Cu  Cu3  1  0.124952  0.625897  0.625897  1
  Si  Si4  1  0.629513  0.629513  0.629513  1
  Pd  Pd5  1  0.995789  0.995789  0.995789  1
