# generated using pymatgen
data_PrNd3(BiO4)4
_symmetry_space_group_name_H-M   'P 1'
_cell_length_a   5.68540655
_cell_length_b   7.97239982
_cell_length_c   8.01720931
_cell_angle_alpha   82.22330168
_cell_angle_beta   89.99399507
_cell_angle_gamma   89.91559260
_symmetry_Int_Tables_number   1
_chemical_formula_structural   PrNd3(BiO4)4
_chemical_formula_sum   'Pr1 Nd3 Bi4 O16'
_cell_volume   360.04819410
_cell_formula_units_Z   1
loop_
 _symmetry_equiv_pos_site_id
 _symmetry_equiv_pos_as_xyz
  1  'x, y, z'
loop_
 _atom_site_type_symbol
 _atom_site_label
 _atom_site_symmetry_multiplicity
 _atom_site_fract_x
 _atom_site_fract_y
 _atom_site_fract_z
 _atom_site_occupancy
  Pr  Pr0  1  0.732475  0.137914  0.107827  1
  Nd  Nd1  1  0.268251  0.862203  0.891263  1
  Nd  Nd2  1  0.231200  0.861415  0.391902  1
  Nd  Nd3  1  0.769524  0.137922  0.608318  1
  Bi  Bi4  1  0.771475  0.662500  0.686339  1
  Bi  Bi5  1  0.728278  0.662568  0.186505  1
  Bi  Bi6  1  0.271780  0.337600  0.812849  1
  Bi  Bi7  1  0.228757  0.337622  0.314255  1
  O  O8  1  0.101095  0.577025  0.813075  1
  O  O9  1  0.609483  0.674372  0.930936  1
  O  O10  1  0.399507  0.576702  0.313933  1
  O  O11  1  0.499931  0.838754  0.620070  1
  O  O12  1  0.890538  0.674756  0.430911  1
  O  O13  1  0.998961  0.839093  0.119952  1
  O  O14  1  0.990367  0.887082  0.668055  1
  O  O15  1  0.490683  0.112444  0.831017  1
  O  O16  1  0.507429  0.886786  0.167812  1
  O  O17  1  0.010342  0.112436  0.333920  1
  O  O18  1  0.002317  0.160008  0.877871  1
  O  O19  1  0.108395  0.327218  0.568848  1
  O  O20  1  0.499719  0.161229  0.380824  1
  O  O21  1  0.601966  0.422857  0.687181  1
  O  O22  1  0.388252  0.326120  0.068871  1
  O  O23  1  0.899273  0.423372  0.187466  1
