# generated using pymatgen
data_Ti8Al14GaOs4Ru2Rh
_symmetry_space_group_name_H-M   'P 1'
_cell_length_a   8.64268660
_cell_length_b   8.64444234
_cell_length_c   8.66946400
_cell_angle_alpha   119.90226679
_cell_angle_beta   119.80151880
_cell_angle_gamma   90.10680475
_symmetry_Int_Tables_number   1
_chemical_formula_structural   Ti8Al14GaOs4Ru2Rh
_chemical_formula_sum   'Ti8 Al14 Ga1 Os4 Ru2 Rh1'
_cell_volume   459.61702682
_cell_formula_units_Z   1
loop_
 _symmetry_equiv_pos_site_id
 _symmetry_equiv_pos_as_xyz
  1  'x, y, z'
loop_
 _atom_site_type_symbol
 _atom_site_label
 _atom_site_symmetry_multiplicity
 _atom_site_fract_x
 _atom_site_fract_y
 _atom_site_fract_z
 _atom_site_occupancy
  Ti  Ti0  1  0.782343  0.283973  0.068762  1
  Ti  Ti1  1  0.223424  0.292223  0.503529  1
  Ti  Ti2  1  0.216550  0.716798  0.508586  1
  Ti  Ti3  1  0.224352  0.723100  0.930844  1
  Ti  Ti4  1  0.791263  0.722513  0.500482  1
  Ti  Ti5  1  0.774245  0.273644  0.490034  1
  Ti  Ti6  1  0.375562  0.121698  0.743024  1
  Ti  Ti7  1  0.377321  0.632886  0.255917  1
  Al  Al8  1  0.151427  0.342750  0.185302  1
  Al  Al9  1  0.156384  0.974289  0.817984  1
  Al  Al10  1  0.150172  0.345803  0.806930  1
  Al  Al11  1  0.532654  0.345382  0.190763  1
  Al  Al12  1  0.847995  0.652888  0.806310  1
  Al  Al13  1  0.849029  0.035068  0.191223  1
  Al  Al14  1  0.843880  0.654176  0.183585  1
  Al  Al15  1  0.477880  0.658797  0.818764  1
  Al  Al16  1  0.375922  0.120642  0.257646  1
  Al  Al17  1  0.861751  0.123166  0.743884  1
  Al  Al18  1  0.620109  0.874581  0.255559  1
  Al  Al19  1  0.622460  0.363180  0.744681  1
  Al  Al20  1  0.621851  0.877673  0.741843  1
  Al  Al21  1  0.136149  0.877767  0.256756  1
  Ga  Ga22  1  0.996208  0.495616  0.499860  1
  Os  Os23  1  0.998666  0.997294  0.500942  1
  Os  Os24  1  0.499511  0.000095  0.000819  1
  Os  Os25  1  0.497845  0.497378  0.999189  1
  Os  Os26  1  0.496679  0.498284  0.498672  1
  Ru  Ru27  1  0.000332  0.499771  0.000049  1
  Ru  Ru28  1  0.999127  0.999668  0.998765  1
  Rh  Rh29  1  0.498909  0.998896  0.499293  1
