# generated using pymatgen
data_K5HfAsP2
_symmetry_space_group_name_H-M   'P 1'
_cell_length_a   8.37460700
_cell_length_b   9.05544487
_cell_length_c   17.60946701
_cell_angle_alpha   60.20593014
_cell_angle_beta   90.00000000
_cell_angle_gamma   90.00000000
_symmetry_Int_Tables_number   1
_chemical_formula_structural   K5HfAsP2
_chemical_formula_sum   'K20 Hf4 As4 P8'
_cell_volume   1158.90686225
_cell_formula_units_Z   4
loop_
 _symmetry_equiv_pos_site_id
 _symmetry_equiv_pos_as_xyz
  1  'x, y, z'
loop_
 _atom_site_type_symbol
 _atom_site_label
 _atom_site_symmetry_multiplicity
 _atom_site_fract_x
 _atom_site_fract_y
 _atom_site_fract_z
 _atom_site_occupancy
  K  K0  1  0.164676  0.844424  0.743500  1
  K  K1  1  0.664676  0.155576  0.756500  1
  K  K2  1  0.835324  0.155576  0.256500  1
  K  K3  1  0.335324  0.844424  0.243500  1
  K  K4  1  0.171550  0.170124  0.415635  1
  K  K5  1  0.671550  0.829876  0.084365  1
  K  K6  1  0.828450  0.829876  0.584365  1
  K  K7  1  0.328450  0.170124  0.915635  1
  K  K8  1  0.011372  0.082849  0.091742  1
  K  K9  1  0.511372  0.917151  0.408258  1
  K  K10  1  0.988628  0.917151  0.908258  1
  K  K11  1  0.488628  0.082849  0.591742  1
  K  K12  1  0.516545  0.265019  0.077980  1
  K  K13  1  0.016545  0.734981  0.422020  1
  K  K14  1  0.483455  0.734981  0.922020  1
  K  K15  1  0.983455  0.265019  0.577980  1
  K  K16  1  0.977329  0.550058  0.257371  1
  K  K17  1  0.477329  0.449942  0.242629  1
  K  K18  1  0.022671  0.449942  0.742629  1
  K  K19  1  0.522671  0.550058  0.757371  1
  Hf  Hf20  1  0.370985  0.491914  0.580466  1
  Hf  Hf21  1  0.870985  0.508086  0.919534  1
  Hf  Hf22  1  0.629015  0.508086  0.419534  1
  Hf  Hf23  1  0.129015  0.491914  0.080466  1
  As  As24  1  0.251424  0.762143  0.078260  1
  As  As25  1  0.751424  0.237857  0.421740  1
  As  As26  1  0.748576  0.237857  0.921740  1
  As  As27  1  0.248576  0.762143  0.578260  1
  P  P28  1  0.323968  0.488493  0.437243  1
  P  P29  1  0.823968  0.511507  0.062757  1
  P  P30  1  0.676032  0.511507  0.562757  1
  P  P31  1  0.176032  0.488493  0.937243  1
  P  P32  1  0.213016  0.219349  0.214076  1
  P  P33  1  0.713016  0.780651  0.285924  1
  P  P34  1  0.786984  0.780651  0.785924  1
  P  P35  1  0.286984  0.219349  0.714076  1
