# generated using pymatgen
data_Sr5CrMoN7
_symmetry_space_group_name_H-M   'P 1'
_cell_length_a   6.45141988
_cell_length_b   9.10904793
_cell_length_c   9.22314603
_cell_angle_alpha   114.63605244
_cell_angle_beta   96.65330973
_cell_angle_gamma   89.57577966
_symmetry_Int_Tables_number   1
_chemical_formula_structural   Sr5CrMoN7
_chemical_formula_sum   'Sr10 Cr2 Mo2 N14'
_cell_volume   488.85291630
_cell_formula_units_Z   2
loop_
 _symmetry_equiv_pos_site_id
 _symmetry_equiv_pos_as_xyz
  1  'x, y, z'
loop_
 _atom_site_type_symbol
 _atom_site_label
 _atom_site_symmetry_multiplicity
 _atom_site_fract_x
 _atom_site_fract_y
 _atom_site_fract_z
 _atom_site_occupancy
  Sr  Sr0  1  0.845291  0.586089  0.333784  1
  Sr  Sr1  1  0.267289  0.979140  0.560409  1
  Sr  Sr2  1  0.705289  0.413086  0.844260  1
  Sr  Sr3  1  0.294711  0.586914  0.155740  1
  Sr  Sr4  1  0.404266  0.787181  0.915000  1
  Sr  Sr5  1  0.595734  0.212819  0.085000  1
  Sr  Sr6  1  0.154709  0.413911  0.666216  1
  Sr  Sr7  1  0.892133  0.839987  0.757956  1
  Sr  Sr8  1  0.107867  0.160013  0.242044  1
  Sr  Sr9  1  0.732711  0.020860  0.439591  1
  Cr  Cr10  1  0.571580  0.365035  0.476414  1
  Cr  Cr11  1  0.428420  0.634965  0.523586  1
  Mo  Mo12  1  0.120018  0.215080  0.912443  1
  Mo  Mo13  1  0.879982  0.784920  0.087557  1
  N  N14  1  0.537131  0.550304  0.667238  1
  N  N15  1  0.462869  0.449696  0.332762  1
  N  N16  1  0.174270  0.688961  0.554087  1
  N  N17  1  0.825730  0.311039  0.445913  1
  N  N18  1  0.417555  0.205861  0.470701  1
  N  N19  1  0.582445  0.794139  0.529299  1
  N  N20  1  0.948950  0.132412  0.712431  1
  N  N21  1  0.051050  0.867588  0.287569  1
  N  N22  1  0.233318  0.048633  0.960865  1
  N  N23  1  0.766682  0.951367  0.039135  1
  N  N24  1  0.352165  0.330275  0.898803  1
  N  N25  1  0.968184  0.347040  0.080421  1
  N  N26  1  0.031816  0.652960  0.919579  1
  N  N27  1  0.647835  0.669725  0.101197  1
