# generated using pymatgen
data_Sr2ErPaO6
_symmetry_space_group_name_H-M   'P 1'
_cell_length_a   6.14517200
_cell_length_b   6.00292442
_cell_length_c   10.47703051
_cell_angle_alpha   54.91884622
_cell_angle_beta   90.00000000
_cell_angle_gamma   90.00000000
_symmetry_Int_Tables_number   1
_chemical_formula_structural   Sr2ErPaO6
_chemical_formula_sum   'Sr4 Er2 Pa2 O12'
_cell_volume   316.27748345
_cell_formula_units_Z   2
loop_
 _symmetry_equiv_pos_site_id
 _symmetry_equiv_pos_as_xyz
  1  'x, y, z'
loop_
 _atom_site_type_symbol
 _atom_site_label
 _atom_site_symmetry_multiplicity
 _atom_site_fract_x
 _atom_site_fract_y
 _atom_site_fract_z
 _atom_site_occupancy
  Sr  Sr0  1  0.455739  0.260954  0.750691  1
  Sr  Sr1  1  0.955739  0.739046  0.749309  1
  Sr  Sr2  1  0.044261  0.260954  0.250691  1
  Sr  Sr3  1  0.544261  0.739046  0.249309  1
  Er  Er4  1  0.500000  0.000000  0.500000  1
  Er  Er5  1  0.000000  0.000000  0.000000  1
  Pa  Pa6  1  0.000000  0.500000  0.500000  1
  Pa  Pa7  1  0.500000  0.500000  0.000000  1
  O  O8  1  0.198950  0.742045  0.551541  1
  O  O9  1  0.698950  0.257955  0.948459  1
  O  O10  1  0.801050  0.257955  0.448459  1
  O  O11  1  0.301050  0.742045  0.051541  1
  O  O12  1  0.708198  0.643263  0.555295  1
  O  O13  1  0.208198  0.356737  0.944705  1
  O  O14  1  0.291802  0.356737  0.444705  1
  O  O15  1  0.791802  0.643263  0.055295  1
  O  O16  1  0.039062  0.153607  0.745959  1
  O  O17  1  0.539062  0.846393  0.754041  1
  O  O18  1  0.960938  0.846393  0.254041  1
  O  O19  1  0.460938  0.153607  0.245959  1
