# generated using pymatgen
data_UIrSe4
_symmetry_space_group_name_H-M   'P 1'
_cell_length_a   7.54405103
_cell_length_b   7.54405090
_cell_length_c   5.95358284
_cell_angle_alpha   70.43020535
_cell_angle_beta   70.43021481
_cell_angle_gamma   29.74422155
_symmetry_Int_Tables_number   1
_chemical_formula_structural   UIrSe4
_chemical_formula_sum   'U1 Ir1 Se4'
_cell_volume   157.68746205
_cell_formula_units_Z   1
loop_
 _symmetry_equiv_pos_site_id
 _symmetry_equiv_pos_as_xyz
  1  'x, y, z'
loop_
 _atom_site_type_symbol
 _atom_site_label
 _atom_site_symmetry_multiplicity
 _atom_site_fract_x
 _atom_site_fract_y
 _atom_site_fract_z
 _atom_site_occupancy
  U  U0  1  0.000000  0.000000  0.000000  1
  Ir  Ir1  1  0.500000  0.500000  0.500000  1
  Se  Se2  1  0.888378  0.888378  0.470799  1
  Se  Se3  1  0.623737  0.623737  0.068232  1
  Se  Se4  1  0.111622  0.111622  0.529201  1
  Se  Se5  1  0.376263  0.376263  0.931768  1
