# generated using pymatgen
data_Tb3Sn3PdPtRh
_symmetry_space_group_name_H-M   'P 1'
_cell_length_a   7.70784500
_cell_length_b   7.70784425
_cell_length_c   3.83316400
_cell_angle_alpha   90.00000000
_cell_angle_beta   90.00000000
_cell_angle_gamma   119.99999893
_symmetry_Int_Tables_number   1
_chemical_formula_structural   Tb3Sn3PdPtRh
_chemical_formula_sum   'Tb3 Sn3 Pd1 Pt1 Rh1'
_cell_volume   197.22135585
_cell_formula_units_Z   1
loop_
 _symmetry_equiv_pos_site_id
 _symmetry_equiv_pos_as_xyz
  1  'x, y, z'
loop_
 _atom_site_type_symbol
 _atom_site_label
 _atom_site_symmetry_multiplicity
 _atom_site_fract_x
 _atom_site_fract_y
 _atom_site_fract_z
 _atom_site_occupancy
  Tb  Tb0  1  0.404277  0.004491  0.500000  1
  Tb  Tb1  1  0.995509  0.399786  0.500000  1
  Tb  Tb2  1  0.600214  0.595723  0.500000  1
  Sn  Sn3  1  0.739826  0.996792  0.000000  1
  Sn  Sn4  1  0.003208  0.743035  0.000000  1
  Sn  Sn5  1  0.256965  0.260174  0.000000  1
  Pd  Pd6  1  0.333333  0.666667  0.000000  1
  Pt  Pt7  1  0.666667  0.333333  0.000000  1
  Rh  Rh8  1  0.000000  0.000000  0.500000  1
