# generated using pymatgen
data_DyLu19(Ir3Os)3
_symmetry_space_group_name_H-M   'P 1'
_cell_length_a   10.62863501
_cell_length_b   10.62922704
_cell_length_c   6.30402200
_cell_angle_alpha   89.99533191
_cell_angle_beta   90.00192448
_cell_angle_gamma   90.00197304
_symmetry_Int_Tables_number   1
_chemical_formula_structural   DyLu19(Ir3Os)3
_chemical_formula_sum   'Dy1 Lu19 Ir9 Os3'
_cell_volume   712.19167905
_cell_formula_units_Z   1
loop_
 _symmetry_equiv_pos_site_id
 _symmetry_equiv_pos_as_xyz
  1  'x, y, z'
loop_
 _atom_site_type_symbol
 _atom_site_label
 _atom_site_symmetry_multiplicity
 _atom_site_fract_x
 _atom_site_fract_y
 _atom_site_fract_z
 _atom_site_occupancy
  Dy  Dy0  1  0.087098  0.290874  0.122408  1
  Lu  Lu1  1  0.294513  0.084988  0.376232  1
  Lu  Lu2  1  0.293772  0.914367  0.876898  1
  Lu  Lu3  1  0.706085  0.085429  0.876218  1
  Lu  Lu4  1  0.706041  0.914091  0.376043  1
  Lu  Lu5  1  0.585605  0.793821  0.876352  1
  Lu  Lu6  1  0.585672  0.206177  0.375854  1
  Lu  Lu7  1  0.414387  0.793687  0.376028  1
  Lu  Lu8  1  0.414622  0.206143  0.876147  1
  Lu  Lu9  1  0.208446  0.414396  0.625900  1
  Lu  Lu10  1  0.207780  0.587388  0.121125  1
  Lu  Lu11  1  0.791738  0.413968  0.121167  1
  Lu  Lu12  1  0.791386  0.586549  0.625982  1
  Lu  Lu13  1  0.913275  0.707709  0.121349  1
  Lu  Lu14  1  0.913152  0.292085  0.625703  1
  Lu  Lu15  1  0.086431  0.708633  0.625689  1
  Lu  Lu16  1  0.999733  0.999827  0.499370  1
  Lu  Lu17  1  0.999480  0.999080  0.999202  1
  Lu  Lu18  1  0.500076  0.500212  0.999739  1
  Lu  Lu19  1  0.500383  0.500196  0.499724  1
  Ir  Ir20  1  0.846950  0.152777  0.251066  1
  Ir  Ir21  1  0.847604  0.846893  0.749751  1
  Ir  Ir22  1  0.152874  0.152019  0.746221  1
  Ir  Ir23  1  0.151730  0.846404  0.250149  1
  Ir  Ir24  1  0.652961  0.347681  0.749627  1
  Ir  Ir25  1  0.653772  0.651666  0.249993  1
  Ir  Ir26  1  0.348208  0.348336  0.251690  1
  Ir  Ir27  1  0.347144  0.652279  0.749592  1
  Ir  Ir28  1  0.999321  0.501349  0.378852  1
  Os  Os29  1  0.500147  0.999835  0.125658  1
  Os  Os30  1  0.500045  0.999711  0.626263  1
  Os  Os31  1  0.999572  0.501431  0.874006  1
