# generated using pymatgen
data_Dy4B8OsRu3
_symmetry_space_group_name_H-M   'P 1'
_cell_length_a   5.91750717
_cell_length_b   5.32654700
_cell_length_c   6.36207746
_cell_angle_alpha   90.00000000
_cell_angle_beta   89.72392584
_cell_angle_gamma   90.00000000
_symmetry_Int_Tables_number   1
_chemical_formula_structural   Dy4B8OsRu3
_chemical_formula_sum   'Dy4 B8 Os1 Ru3'
_cell_volume   200.52959085
_cell_formula_units_Z   1
loop_
 _symmetry_equiv_pos_site_id
 _symmetry_equiv_pos_as_xyz
  1  'x, y, z'
loop_
 _atom_site_type_symbol
 _atom_site_label
 _atom_site_symmetry_multiplicity
 _atom_site_fract_x
 _atom_site_fract_y
 _atom_site_fract_z
 _atom_site_occupancy
  Dy  Dy0  1  0.010664  0.250000  0.336748  1
  Dy  Dy1  1  0.511178  0.250000  0.164776  1
  Dy  Dy2  1  0.989548  0.750000  0.661409  1
  Dy  Dy3  1  0.488969  0.750000  0.836425  1
  B  B4  1  0.367709  0.083103  0.540441  1
  B  B5  1  0.869259  0.415797  0.962169  1
  B  B6  1  0.630342  0.585120  0.462026  1
  B  B7  1  0.132025  0.916831  0.037778  1
  B  B8  1  0.630342  0.914880  0.462026  1
  B  B9  1  0.132025  0.583169  0.037778  1
  B  B10  1  0.367709  0.416897  0.540441  1
  B  B11  1  0.869259  0.084203  0.962169  1
  Os  Os12  1  0.181282  0.250000  0.816941  1
  Ru  Ru13  1  0.682267  0.250000  0.681612  1
  Ru  Ru14  1  0.818870  0.750000  0.180114  1
  Ru  Ru15  1  0.318550  0.750000  0.317145  1
