# generated using pymatgen
data_YHoTmRh9
_symmetry_space_group_name_H-M   'P 1'
_cell_length_a   5.25591700
_cell_length_b   5.25591793
_cell_length_c   17.55095800
_cell_angle_alpha   90.00000000
_cell_angle_beta   90.00000000
_cell_angle_gamma   119.99998788
_symmetry_Int_Tables_number   1
_chemical_formula_structural   YHoTmRh9
_chemical_formula_sum   'Y2 Ho2 Tm2 Rh18'
_cell_volume   419.88328364
_cell_formula_units_Z   2
loop_
 _symmetry_equiv_pos_site_id
 _symmetry_equiv_pos_as_xyz
  1  'x, y, z'
loop_
 _atom_site_type_symbol
 _atom_site_label
 _atom_site_symmetry_multiplicity
 _atom_site_fract_x
 _atom_site_fract_y
 _atom_site_fract_z
 _atom_site_occupancy
  Y  Y0  1  0.333333  0.666667  0.750105  1
  Y  Y1  1  0.666667  0.333333  0.249895  1
  Ho  Ho2  1  0.666667  0.333333  0.458114  1
  Ho  Ho3  1  0.333333  0.666667  0.541886  1
  Tm  Tm4  1  0.333333  0.666667  0.958117  1
  Tm  Tm5  1  0.666667  0.333333  0.041883  1
  Rh  Rh6  1  0.167335  0.832665  0.374537  1
  Rh  Rh7  1  0.167335  0.334670  0.374537  1
  Rh  Rh8  1  0.665330  0.832665  0.374537  1
  Rh  Rh9  1  0.832665  0.167335  0.625463  1
  Rh  Rh10  1  0.832665  0.665330  0.625463  1
  Rh  Rh11  1  0.334670  0.167335  0.625463  1
  Rh  Rh12  1  0.832589  0.167411  0.874832  1
  Rh  Rh13  1  0.832589  0.665179  0.874832  1
  Rh  Rh14  1  0.334821  0.167411  0.874832  1
  Rh  Rh15  1  0.167411  0.832589  0.125168  1
  Rh  Rh16  1  0.167411  0.334821  0.125168  1
  Rh  Rh17  1  0.665179  0.832589  0.125168  1
  Rh  Rh18  1  0.333333  0.666667  0.249981  1
  Rh  Rh19  1  0.666667  0.333333  0.750019  1
  Rh  Rh20  1  0.000000  0.000000  0.249917  1
  Rh  Rh21  1  0.000000  0.000000  0.750083  1
  Rh  Rh22  1  0.000000  0.000000  0.500000  1
  Rh  Rh23  1  0.000000  0.000000  0.000000  1
