# generated using pymatgen
data_Sc4AlZnSi4
_symmetry_space_group_name_H-M   'P 1'
_cell_length_a   6.62316100
_cell_length_b   6.62316100
_cell_length_c   3.98586000
_cell_angle_alpha   90.00000000
_cell_angle_beta   90.00000000
_cell_angle_gamma   90.00000000
_symmetry_Int_Tables_number   1
_chemical_formula_structural   Sc4AlZnSi4
_chemical_formula_sum   'Sc4 Al1 Zn1 Si4'
_cell_volume   174.84477759
_cell_formula_units_Z   1
loop_
 _symmetry_equiv_pos_site_id
 _symmetry_equiv_pos_as_xyz
  1  'x, y, z'
loop_
 _atom_site_type_symbol
 _atom_site_label
 _atom_site_symmetry_multiplicity
 _atom_site_fract_x
 _atom_site_fract_y
 _atom_site_fract_z
 _atom_site_occupancy
  Sc  Sc0  1  0.824509  0.675680  0.500000  1
  Sc  Sc1  1  0.175491  0.324320  0.500000  1
  Sc  Sc2  1  0.675680  0.175491  0.500000  1
  Sc  Sc3  1  0.324320  0.824509  0.500000  1
  Al  Al4  1  0.500000  0.500000  0.000000  1
  Zn  Zn5  1  0.000000  0.000000  0.000000  1
  Si  Si6  1  0.626367  0.874494  0.000000  1
  Si  Si7  1  0.373633  0.125506  0.000000  1
  Si  Si8  1  0.874494  0.373633  0.000000  1
  Si  Si9  1  0.125506  0.626367  0.000000  1
