# generated using pymatgen
data_La3NdDy4(TeO6)4
_symmetry_space_group_name_H-M   'P 1'
_cell_length_a   5.46528200
_cell_length_b   9.34326100
_cell_length_c   10.21657072
_cell_angle_alpha   89.89140094
_cell_angle_beta   89.94617290
_cell_angle_gamma   90.12766732
_symmetry_Int_Tables_number   1
_chemical_formula_structural   La3NdDy4(TeO6)4
_chemical_formula_sum   'La3 Nd1 Dy4 Te4 O24'
_cell_volume   521.69196799
_cell_formula_units_Z   1
loop_
 _symmetry_equiv_pos_site_id
 _symmetry_equiv_pos_as_xyz
  1  'x, y, z'
loop_
 _atom_site_type_symbol
 _atom_site_label
 _atom_site_symmetry_multiplicity
 _atom_site_fract_x
 _atom_site_fract_y
 _atom_site_fract_z
 _atom_site_occupancy
  La  La0  1  0.030853  0.219078  0.857949  1
  La  La1  1  0.530623  0.279479  0.143123  1
  La  La2  1  0.968384  0.720299  0.641992  1
  Nd  Nd3  1  0.465858  0.780747  0.360249  1
  Dy  Dy4  1  0.020421  0.104207  0.456419  1
  Dy  Dy5  1  0.519744  0.397397  0.542529  1
  Dy  Dy6  1  0.980293  0.603407  0.043334  1
  Dy  Dy7  1  0.478743  0.895834  0.957216  1
  Te  Te8  1  0.535181  0.009641  0.641820  1
  Te  Te9  1  0.035516  0.491750  0.356781  1
  Te  Te10  1  0.465046  0.510027  0.857283  1
  Te  Te11  1  0.964245  0.988337  0.144295  1
  O  O12  1  0.256727  0.424887  0.995974  1
  O  O13  1  0.755723  0.073098  0.005425  1
  O  O14  1  0.741707  0.924935  0.502389  1
  O  O15  1  0.245030  0.577637  0.494780  1
  O  O16  1  0.226088  0.105550  0.064855  1
  O  O17  1  0.726540  0.393096  0.935187  1
  O  O18  1  0.771886  0.608382  0.433503  1
  O  O19  1  0.274993  0.892283  0.561960  1
  O  O20  1  0.307206  0.357617  0.332806  1
  O  O21  1  0.808446  0.142233  0.667036  1
  O  O22  1  0.690770  0.855537  0.171899  1
  O  O23  1  0.193340  0.643478  0.832273  1
  O  O24  1  0.164422  0.948165  0.295784  1
  O  O25  1  0.662214  0.551423  0.704618  1
  O  O26  1  0.839764  0.448683  0.204609  1
  O  O27  1  0.336391  0.049733  0.794055  1
  O  O28  1  0.179007  0.634352  0.241901  1
  O  O29  1  0.674360  0.866751  0.757500  1
  O  O30  1  0.827000  0.133229  0.258212  1
  O  O31  1  0.324804  0.367022  0.742016  1
  O  O32  1  0.100470  0.838670  0.033108  1
  O  O33  1  0.603901  0.660962  0.966685  1
  O  O34  1  0.897295  0.340799  0.467312  1
  O  O35  1  0.397008  0.161272  0.533123  1
