# generated using pymatgen
data_Er8V5Si16W7
_symmetry_space_group_name_H-M   'P 1'
_cell_length_a   6.68298080
_cell_length_b   6.86667048
_cell_length_c   12.90010226
_cell_angle_alpha   90.01970300
_cell_angle_beta   89.98003846
_cell_angle_gamma   90.01501156
_symmetry_Int_Tables_number   1
_chemical_formula_structural   Er8V5Si16W7
_chemical_formula_sum   'Er8 V5 Si16 W7'
_cell_volume   591.98336882
_cell_formula_units_Z   1
loop_
 _symmetry_equiv_pos_site_id
 _symmetry_equiv_pos_as_xyz
  1  'x, y, z'
loop_
 _atom_site_type_symbol
 _atom_site_label
 _atom_site_symmetry_multiplicity
 _atom_site_fract_x
 _atom_site_fract_y
 _atom_site_fract_z
 _atom_site_occupancy
  Er  Er0  1  0.499092  0.329383  0.094636  1
  Er  Er1  1  0.999500  0.170061  0.406403  1
  Er  Er2  1  0.502467  0.670501  0.593464  1
  Er  Er3  1  0.001480  0.829562  0.906225  1
  Er  Er4  1  0.504292  0.666962  0.905787  1
  Er  Er5  1  0.004341  0.833020  0.593395  1
  Er  Er6  1  0.497142  0.331483  0.406108  1
  Er  Er7  1  0.997455  0.167916  0.095026  1
  V  V8  1  0.835320  0.333696  0.625834  1
  V  V9  1  0.333937  0.165419  0.874313  1
  V  V10  1  0.165342  0.667706  0.125651  1
  V  V11  1  0.667708  0.833573  0.373996  1
  V  V12  1  0.165185  0.666918  0.374359  1
  Si  Si13  1  0.664682  0.044218  0.542681  1
  Si  Si14  1  0.165899  0.455922  0.957036  1
  Si  Si15  1  0.334212  0.955360  0.042319  1
  Si  Si16  1  0.837124  0.545908  0.456446  1
  Si  Si17  1  0.339510  0.951691  0.454320  1
  Si  Si18  1  0.840826  0.543100  0.044456  1
  Si  Si19  1  0.658723  0.042689  0.955455  1
  Si  Si20  1  0.159988  0.460247  0.542622  1
  Si  Si21  1  0.535810  0.370977  0.749403  1
  Si  Si22  1  0.035996  0.128441  0.750096  1
  Si  Si23  1  0.460261  0.629948  0.252025  1
  Si  Si24  1  0.965286  0.868897  0.252023  1
  Si  Si25  1  0.800745  0.629377  0.747643  1
  Si  Si26  1  0.300732  0.870694  0.751655  1
  Si  Si27  1  0.198691  0.375414  0.250006  1
  Si  Si28  1  0.699118  0.127712  0.252235  1
  W  W29  1  0.666988  0.833467  0.124985  1
  W  W30  1  0.832456  0.334743  0.875797  1
  W  W31  1  0.331204  0.165359  0.623807  1
  W  W32  1  0.663135  0.006815  0.749643  1
  W  W33  1  0.163107  0.493193  0.749649  1
  W  W34  1  0.335828  0.991574  0.249849  1
  W  W35  1  0.836423  0.508051  0.250652  1
