# generated using pymatgen
data_Nd2P7(Ru5Rh)2
_symmetry_space_group_name_H-M   'P 1'
_cell_length_a   9.47410359
_cell_length_b   9.52576365
_cell_length_c   3.96329000
_cell_angle_alpha   90.00000000
_cell_angle_beta   90.00000000
_cell_angle_gamma   120.15608680
_symmetry_Int_Tables_number   1
_chemical_formula_structural   Nd2P7(Ru5Rh)2
_chemical_formula_sum   'Nd2 P7 Ru10 Rh2'
_cell_volume   309.27099366
_cell_formula_units_Z   1
loop_
 _symmetry_equiv_pos_site_id
 _symmetry_equiv_pos_as_xyz
  1  'x, y, z'
loop_
 _atom_site_type_symbol
 _atom_site_label
 _atom_site_symmetry_multiplicity
 _atom_site_fract_x
 _atom_site_fract_y
 _atom_site_fract_z
 _atom_site_occupancy
  Nd  Nd0  1  0.667482  0.332784  0.500000  1
  Nd  Nd1  1  0.330910  0.665504  0.000000  1
  P  P2  1  0.604227  0.713231  0.500000  1
  P  P3  1  0.999974  0.001997  0.000000  1
  P  P4  1  0.281542  0.886051  0.500000  1
  P  P5  1  0.108327  0.399130  0.500000  1
  P  P6  1  0.888788  0.580124  0.000000  1
  P  P7  1  0.420012  0.302372  0.000000  1
  P  P8  1  0.697089  0.114881  0.000000  1
  Ru  Ru9  1  0.913188  0.124905  0.500000  1
  Ru  Ru10  1  0.214078  0.088858  0.500000  1
  Ru  Ru11  1  0.876823  0.791896  0.500000  1
  Ru  Ru12  1  0.727856  0.890038  0.000000  1
  Ru  Ru13  1  0.108931  0.841169  0.000000  1
  Ru  Ru14  1  0.163219  0.271479  0.000000  1
  Ru  Ru15  1  0.428226  0.062259  0.000000  1
  Ru  Ru16  1  0.937234  0.362151  0.000000  1
  Ru  Ru17  1  0.637216  0.572370  0.000000  1
  Ru  Ru18  1  0.049277  0.611862  0.500000  1
  Rh  Rh19  1  0.555934  0.945167  0.500000  1
  Rh  Rh20  1  0.389669  0.441771  0.500000  1
