# generated using pymatgen
data_ZrNbB2SbRu5
_symmetry_space_group_name_H-M   'P 1'
_cell_length_a   9.52299054
_cell_length_b   9.52299084
_cell_length_c   3.07432500
_cell_angle_alpha   90.00000000
_cell_angle_beta   90.00000000
_cell_angle_gamma   90.35633842
_symmetry_Int_Tables_number   1
_chemical_formula_structural   ZrNbB2SbRu5
_chemical_formula_sum   'Zr2 Nb2 B4 Sb2 Ru10'
_cell_volume   278.79700051
_cell_formula_units_Z   2
loop_
 _symmetry_equiv_pos_site_id
 _symmetry_equiv_pos_as_xyz
  1  'x, y, z'
loop_
 _atom_site_type_symbol
 _atom_site_label
 _atom_site_symmetry_multiplicity
 _atom_site_fract_x
 _atom_site_fract_y
 _atom_site_fract_z
 _atom_site_occupancy
  Zr  Zr0  1  0.824175  0.675825  0.000000  1
  Zr  Zr1  1  0.175825  0.324175  0.000000  1
  Nb  Nb2  1  0.324961  0.824961  0.000000  1
  Nb  Nb3  1  0.675039  0.175039  0.000000  1
  B  B4  1  0.620594  0.879406  0.000000  1
  B  B5  1  0.379406  0.120594  0.000000  1
  B  B6  1  0.121587  0.621587  0.000000  1
  B  B7  1  0.878413  0.378413  0.000000  1
  Sb  Sb8  1  0.500000  0.500000  0.000000  1
  Sb  Sb9  1  0.000000  0.000000  0.000000  1
  Ru  Ru10  1  0.565082  0.722382  0.500000  1
  Ru  Ru11  1  0.434918  0.277618  0.500000  1
  Ru  Ru12  1  0.075514  0.781924  0.500000  1
  Ru  Ru13  1  0.924486  0.218076  0.500000  1
  Ru  Ru14  1  0.281924  0.575514  0.500000  1
  Ru  Ru15  1  0.718076  0.424486  0.500000  1
  Ru  Ru16  1  0.222382  0.065082  0.500000  1
  Ru  Ru17  1  0.777618  0.934918  0.500000  1
  Ru  Ru18  1  0.500000  0.000000  0.500000  1
  Ru  Ru19  1  0.000000  0.500000  0.500000  1
