# generated using pymatgen
data_Tb11Pr5Mg2(AgIr2)2
_symmetry_space_group_name_H-M   'P 1'
_cell_length_a   9.77925727
_cell_length_b   9.77139016
_cell_length_c   9.75944634
_cell_angle_alpha   60.06905969
_cell_angle_beta   60.06683985
_cell_angle_gamma   60.35275605
_symmetry_Int_Tables_number   1
_chemical_formula_structural   Tb11Pr5Mg2(AgIr2)2
_chemical_formula_sum   'Tb11 Pr5 Mg2 Ag2 Ir4'
_cell_volume   661.85755222
_cell_formula_units_Z   1
loop_
 _symmetry_equiv_pos_site_id
 _symmetry_equiv_pos_as_xyz
  1  'x, y, z'
loop_
 _atom_site_type_symbol
 _atom_site_label
 _atom_site_symmetry_multiplicity
 _atom_site_fract_x
 _atom_site_fract_y
 _atom_site_fract_z
 _atom_site_occupancy
  Tb  Tb0  1  0.346686  0.346749  0.345892  1
  Tb  Tb1  1  0.346509  0.348164  0.962233  1
  Tb  Tb2  1  0.347135  0.958882  0.349530  1
  Tb  Tb3  1  0.957165  0.348496  0.348942  1
  Tb  Tb4  1  0.812387  0.185597  0.186870  1
  Tb  Tb5  1  0.184367  0.813336  0.814956  1
  Tb  Tb6  1  0.183983  0.812633  0.188258  1
  Tb  Tb7  1  0.813012  0.186153  0.812937  1
  Tb  Tb8  1  0.185006  0.187603  0.812882  1
  Tb  Tb9  1  0.809279  0.809099  0.191414  1
  Tb  Tb10  1  0.938114  0.556836  0.558348  1
  Pr  Pr11  1  0.558524  0.937709  0.942315  1
  Pr  Pr12  1  0.561535  0.935151  0.561238  1
  Pr  Pr13  1  0.938100  0.558314  0.939104  1
  Pr  Pr14  1  0.561304  0.558939  0.937664  1
  Pr  Pr15  1  0.938959  0.936427  0.559498  1
  Mg  Mg16  1  0.581028  0.275915  0.571193  1
  Mg  Mg17  1  0.275183  0.581062  0.570669  1
  Ag  Ag18  1  0.584190  0.579145  0.581529  1
  Ag  Ag19  1  0.580110  0.580299  0.257618  1
  Ir  Ir20  1  0.141198  0.141237  0.141813  1
  Ir  Ir21  1  0.140464  0.144872  0.576465  1
  Ir  Ir22  1  0.139296  0.576398  0.145894  1
  Ir  Ir23  1  0.576466  0.140984  0.142740  1
