# generated using pymatgen
data_Li3Ac2CeGe3
_symmetry_space_group_name_H-M   'P 1'
_cell_length_a   7.53858200
_cell_length_b   7.53858234
_cell_length_c   4.51313400
_cell_angle_alpha   90.00000000
_cell_angle_beta   90.00000000
_cell_angle_gamma   119.20975023
_symmetry_Int_Tables_number   1
_chemical_formula_structural   Li3Ac2CeGe3
_chemical_formula_sum   'Li3 Ac2 Ce1 Ge3'
_cell_volume   223.86785554
_cell_formula_units_Z   1
loop_
 _symmetry_equiv_pos_site_id
 _symmetry_equiv_pos_as_xyz
  1  'x, y, z'
loop_
 _atom_site_type_symbol
 _atom_site_label
 _atom_site_symmetry_multiplicity
 _atom_site_fract_x
 _atom_site_fract_y
 _atom_site_fract_z
 _atom_site_occupancy
  Li  Li0  1  0.231836  0.009503  0.500000  1
  Li  Li1  1  0.764778  0.764778  0.500000  1
  Li  Li2  1  0.009503  0.231836  0.500000  1
  Ac  Ac3  1  0.997070  0.580350  0.000000  1
  Ac  Ac4  1  0.580350  0.997070  0.000000  1
  Ce  Ce5  1  0.413853  0.413853  0.000000  1
  Ge  Ge6  1  0.337534  0.651618  0.500000  1
  Ge  Ge7  1  0.651618  0.337534  0.500000  1
  Ge  Ge8  1  0.013458  0.013458  0.000000  1
