# generated using pymatgen
data_YEr4In4CuPd
_symmetry_space_group_name_H-M   'P 1'
_cell_length_a   3.61228500
_cell_length_b   8.05291149
_cell_length_c   18.08558519
_cell_angle_alpha   90.08856635
_cell_angle_beta   90.00000000
_cell_angle_gamma   90.00000000
_symmetry_Int_Tables_number   1
_chemical_formula_structural   YEr4In4CuPd
_chemical_formula_sum   'Y2 Er8 In8 Cu2 Pd2'
_cell_volume   526.09839896
_cell_formula_units_Z   2
loop_
 _symmetry_equiv_pos_site_id
 _symmetry_equiv_pos_as_xyz
  1  'x, y, z'
loop_
 _atom_site_type_symbol
 _atom_site_label
 _atom_site_symmetry_multiplicity
 _atom_site_fract_x
 _atom_site_fract_y
 _atom_site_fract_z
 _atom_site_occupancy
  Y  Y0  1  0.000000  0.500000  0.500000  1
  Y  Y1  1  0.000000  0.000000  0.000000  1
  Er  Er2  1  0.000000  0.739587  0.279755  1
  Er  Er3  1  0.000000  0.260413  0.720245  1
  Er  Er4  1  0.000000  0.759800  0.780048  1
  Er  Er5  1  0.000000  0.240200  0.219952  1
  Er  Er6  1  0.000000  0.614308  0.083375  1
  Er  Er7  1  0.000000  0.385692  0.916625  1
  Er  Er8  1  0.000000  0.885560  0.582775  1
  Er  Er9  1  0.000000  0.114440  0.417225  1
  In  In10  1  0.500000  0.710108  0.930568  1
  In  In11  1  0.500000  0.289892  0.069432  1
  In  In12  1  0.500000  0.789413  0.431301  1
  In  In13  1  0.500000  0.210587  0.568699  1
  In  In14  1  0.500000  0.581361  0.650601  1
  In  In15  1  0.500000  0.418639  0.349399  1
  In  In16  1  0.500000  0.917936  0.149069  1
  In  In17  1  0.500000  0.082064  0.850931  1
  Cu  Cu18  1  0.500000  0.523808  0.196708  1
  Cu  Cu19  1  0.500000  0.476192  0.803292  1
  Pd  Pd20  1  0.500000  0.975457  0.696845  1
  Pd  Pd21  1  0.500000  0.024543  0.303155  1
