# generated using pymatgen
data_Hf10In2Sb5
_symmetry_space_group_name_H-M   'P 1'
_cell_length_a   5.86641536
_cell_length_b   8.60322666
_cell_length_c   8.57883918
_cell_angle_alpha   120.09408583
_cell_angle_beta   89.91072834
_cell_angle_gamma   90.17804267
_symmetry_Int_Tables_number   1
_chemical_formula_structural   Hf10In2Sb5
_chemical_formula_sum   'Hf10 In2 Sb5'
_cell_volume   374.60943583
_cell_formula_units_Z   1
loop_
 _symmetry_equiv_pos_site_id
 _symmetry_equiv_pos_as_xyz
  1  'x, y, z'
loop_
 _atom_site_type_symbol
 _atom_site_label
 _atom_site_symmetry_multiplicity
 _atom_site_fract_x
 _atom_site_fract_y
 _atom_site_fract_z
 _atom_site_occupancy
  Hf  Hf0  1  0.499914  0.333009  0.668722  1
  Hf  Hf1  1  0.499914  0.664287  0.331278  1
  Hf  Hf2  1  0.002625  0.666005  0.332677  1
  Hf  Hf3  1  0.002625  0.333329  0.667323  1
  Hf  Hf4  1  0.773546  0.267986  0.000000  1
  Hf  Hf5  1  0.782488  0.736047  0.735300  1
  Hf  Hf6  1  0.782488  0.000745  0.264700  1
  Hf  Hf7  1  0.219345  0.730087  0.000000  1
  Hf  Hf8  1  0.221682  0.268156  0.268730  1
  Hf  Hf9  1  0.221682  0.999427  0.731270  1
  In  In10  1  0.260591  0.613596  0.613623  1
  In  In11  1  0.260591  0.999972  0.386377  1
  Sb  Sb12  1  0.739866  0.613008  0.000000  1
  Sb  Sb13  1  0.741274  0.390713  0.392188  1
  Sb  Sb14  1  0.741274  0.998525  0.607812  1
  Sb  Sb15  1  0.254392  0.386422  0.000000  1
  Sb  Sb16  1  0.495701  0.998689  0.000000  1
