# generated using pymatgen
data_Tb8Dy2Si5Ge
_symmetry_space_group_name_H-M   'P 1'
_cell_length_a   8.50381100
_cell_length_b   8.50808724
_cell_length_c   6.40558100
_cell_angle_alpha   89.99842857
_cell_angle_beta   90.00000000
_cell_angle_gamma   119.98337136
_symmetry_Int_Tables_number   1
_chemical_formula_structural   Tb8Dy2Si5Ge
_chemical_formula_sum   'Tb8 Dy2 Si5 Ge1'
_cell_volume   401.42779402
_cell_formula_units_Z   1
loop_
 _symmetry_equiv_pos_site_id
 _symmetry_equiv_pos_as_xyz
  1  'x, y, z'
loop_
 _atom_site_type_symbol
 _atom_site_label
 _atom_site_symmetry_multiplicity
 _atom_site_fract_x
 _atom_site_fract_y
 _atom_site_fract_z
 _atom_site_occupancy
  Tb  Tb0  1  0.668031  0.334964  0.000762  1
  Tb  Tb1  1  0.333067  0.665036  0.499238  1
  Tb  Tb2  1  0.243481  0.000000  0.250000  1
  Tb  Tb3  1  0.243892  0.245528  0.750017  1
  Tb  Tb4  1  0.998364  0.754472  0.749983  1
  Tb  Tb5  1  0.999768  0.243860  0.249992  1
  Tb  Tb6  1  0.755908  0.756140  0.250008  1
  Tb  Tb7  1  0.757268  0.000000  0.750000  1
  Dy  Dy8  1  0.333053  0.665003  0.000802  1
  Dy  Dy9  1  0.668051  0.334997  0.499198  1
  Si  Si10  1  0.605895  0.000000  0.250000  1
  Si  Si11  1  0.605608  0.605821  0.750007  1
  Si  Si12  1  0.999787  0.394179  0.749993  1
  Si  Si13  1  0.000235  0.606075  0.250019  1
  Si  Si14  1  0.394159  0.393925  0.249981  1
  Ge  Ge15  1  0.393430  0.000000  0.750000  1
