# generated using pymatgen
data_SmScB6Os
_symmetry_space_group_name_H-M   'P 1'
_cell_length_a   3.60165800
_cell_length_b   9.03789600
_cell_length_c   11.46471500
_cell_angle_alpha   90.00000000
_cell_angle_beta   90.00000000
_cell_angle_gamma   90.00000000
_symmetry_Int_Tables_number   1
_chemical_formula_structural   SmScB6Os
_chemical_formula_sum   'Sm4 Sc4 B24 Os4'
_cell_volume   373.19264345
_cell_formula_units_Z   4
loop_
 _symmetry_equiv_pos_site_id
 _symmetry_equiv_pos_as_xyz
  1  'x, y, z'
loop_
 _atom_site_type_symbol
 _atom_site_label
 _atom_site_symmetry_multiplicity
 _atom_site_fract_x
 _atom_site_fract_y
 _atom_site_fract_z
 _atom_site_occupancy
  Sm  Sm0  1  0.000000  0.820646  0.085215  1
  Sm  Sm1  1  0.000000  0.179354  0.914785  1
  Sm  Sm2  1  0.000000  0.320646  0.414785  1
  Sm  Sm3  1  0.000000  0.679354  0.585215  1
  Sc  Sc4  1  0.000000  0.445487  0.126130  1
  Sc  Sc5  1  0.000000  0.554513  0.873870  1
  Sc  Sc6  1  0.000000  0.945487  0.373870  1
  Sc  Sc7  1  0.000000  0.054513  0.626130  1
  B  B8  1  0.500000  0.056372  0.068877  1
  B  B9  1  0.500000  0.943628  0.931123  1
  B  B10  1  0.500000  0.556372  0.431123  1
  B  B11  1  0.500000  0.443628  0.568877  1
  B  B12  1  0.500000  0.253799  0.082828  1
  B  B13  1  0.500000  0.746201  0.917172  1
  B  B14  1  0.500000  0.753799  0.417172  1
  B  B15  1  0.500000  0.246201  0.582828  1
  B  B16  1  0.500000  0.293850  0.234569  1
  B  B17  1  0.500000  0.706150  0.765431  1
  B  B18  1  0.500000  0.793850  0.265431  1
  B  B19  1  0.500000  0.206150  0.734569  1
  B  B20  1  0.500000  0.128816  0.317219  1
  B  B21  1  0.500000  0.871184  0.682781  1
  B  B22  1  0.500000  0.628816  0.182781  1
  B  B23  1  0.500000  0.371184  0.817219  1
  B  B24  1  0.500000  0.483172  0.284747  1
  B  B25  1  0.500000  0.516828  0.715253  1
  B  B26  1  0.500000  0.983172  0.215253  1
  B  B27  1  0.500000  0.016828  0.784747  1
  B  B28  1  0.500000  0.098008  0.473793  1
  B  B29  1  0.500000  0.901992  0.526207  1
  B  B30  1  0.500000  0.598008  0.026207  1
  B  B31  1  0.500000  0.401992  0.973793  1
  Os  Os32  1  0.000000  0.140699  0.182322  1
  Os  Os33  1  0.000000  0.859301  0.817678  1
  Os  Os34  1  0.000000  0.640699  0.317678  1
  Os  Os35  1  0.000000  0.359301  0.682322  1
