# generated using pymatgen
data_Ac7La(Tm3Si4)4
_symmetry_space_group_name_H-M   'P 1'
_cell_length_a   7.87453897
_cell_length_b   7.86680960
_cell_length_c   14.58519500
_cell_angle_alpha   89.94197450
_cell_angle_beta   90.11171701
_cell_angle_gamma   90.09837833
_symmetry_Int_Tables_number   1
_chemical_formula_structural   Ac7La(Tm3Si4)4
_chemical_formula_sum   'Ac7 La1 Tm12 Si16'
_cell_volume   903.51283992
_cell_formula_units_Z   1
loop_
 _symmetry_equiv_pos_site_id
 _symmetry_equiv_pos_as_xyz
  1  'x, y, z'
loop_
 _atom_site_type_symbol
 _atom_site_label
 _atom_site_symmetry_multiplicity
 _atom_site_fract_x
 _atom_site_fract_y
 _atom_site_fract_z
 _atom_site_occupancy
  Ac  Ac0  1  0.990616  0.647655  0.040306  1
  Ac  Ac1  1  0.009097  0.351219  0.537960  1
  Ac  Ac2  1  0.647623  0.990450  0.960372  1
  Ac  Ac3  1  0.146890  0.510290  0.789067  1
  Ac  Ac4  1  0.853343  0.490069  0.290488  1
  Ac  Ac5  1  0.510285  0.147747  0.211611  1
  Ac  Ac6  1  0.488845  0.853610  0.709939  1
  La  La7  1  0.356685  0.006568  0.458896  1
  Tm  Tm8  1  0.357693  0.494585  0.373736  1
  Tm  Tm9  1  0.858793  0.003370  0.376997  1
  Tm  Tm10  1  0.996205  0.142936  0.124558  1
  Tm  Tm11  1  0.004144  0.858915  0.622564  1
  Tm  Tm12  1  0.643010  0.504709  0.873610  1
  Tm  Tm13  1  0.493422  0.356066  0.624946  1
  Tm  Tm14  1  0.504632  0.642383  0.127251  1
  Tm  Tm15  1  0.142561  0.995744  0.876257  1
  Tm  Tm16  1  0.677017  0.680381  0.500415  1
  Tm  Tm17  1  0.820189  0.180224  0.749258  1
  Tm  Tm18  1  0.181231  0.822092  0.250957  1
  Tm  Tm19  1  0.320782  0.321353  0.000024  1
  Si  Si20  1  0.066403  0.716736  0.436515  1
  Si  Si21  1  0.938834  0.286200  0.935993  1
  Si  Si22  1  0.709695  0.060038  0.562588  1
  Si  Si23  1  0.214445  0.437703  0.186664  1
  Si  Si24  1  0.784720  0.561394  0.685400  1
  Si  Si25  1  0.438579  0.214731  0.813755  1
  Si  Si26  1  0.560197  0.787276  0.315452  1
  Si  Si27  1  0.286658  0.938635  0.064348  1
  Si  Si28  1  0.853257  0.797779  0.806476  1
  Si  Si29  1  0.148847  0.199981  0.310457  1
  Si  Si30  1  0.797240  0.853608  0.193621  1
  Si  Si31  1  0.296851  0.650324  0.555315  1
  Si  Si32  1  0.703279  0.353699  0.057555  1
  Si  Si33  1  0.642300  0.291756  0.441874  1
  Si  Si34  1  0.353560  0.702814  0.943201  1
  Si  Si35  1  0.202072  0.146960  0.691574  1
