# generated using pymatgen
data_Nd2GdCd3Pb2Au
_symmetry_space_group_name_H-M   'P 1'
_cell_length_a   7.68587812
_cell_length_b   7.68587662
_cell_length_c   4.69002900
_cell_angle_alpha   90.00000000
_cell_angle_beta   90.00000000
_cell_angle_gamma   119.66175953
_symmetry_Int_Tables_number   1
_chemical_formula_structural   Nd2GdCd3Pb2Au
_chemical_formula_sum   'Nd2 Gd1 Cd3 Pb2 Au1'
_cell_volume   240.74829259
_cell_formula_units_Z   1
loop_
 _symmetry_equiv_pos_site_id
 _symmetry_equiv_pos_as_xyz
  1  'x, y, z'
loop_
 _atom_site_type_symbol
 _atom_site_label
 _atom_site_symmetry_multiplicity
 _atom_site_fract_x
 _atom_site_fract_y
 _atom_site_fract_z
 _atom_site_occupancy
  Nd  Nd0  1  0.597173  0.999745  0.000000  1
  Nd  Nd1  1  0.999745  0.597173  0.000000  1
  Gd  Gd2  1  0.400115  0.400115  0.000000  1
  Cd  Cd3  1  0.233167  0.999716  0.500000  1
  Cd  Cd4  1  0.999716  0.233167  0.500000  1
  Cd  Cd5  1  0.767966  0.767966  0.500000  1
  Pb  Pb6  1  0.334367  0.663935  0.500000  1
  Pb  Pb7  1  0.663935  0.334367  0.500000  1
  Au  Au8  1  0.003817  0.003817  0.000000  1
