# generated using pymatgen
data_Ce5Co2P12Ru17
_symmetry_space_group_name_H-M   'P 1'
_cell_length_a   12.55668122
_cell_length_b   12.59421733
_cell_length_c   3.93839200
_cell_angle_alpha   90.00000000
_cell_angle_beta   90.00000000
_cell_angle_gamma   120.09893750
_symmetry_Int_Tables_number   1
_chemical_formula_structural   Ce5Co2P12Ru17
_chemical_formula_sum   'Ce5 Co2 P12 Ru17'
_cell_volume   538.84243079
_cell_formula_units_Z   1
loop_
 _symmetry_equiv_pos_site_id
 _symmetry_equiv_pos_as_xyz
  1  'x, y, z'
loop_
 _atom_site_type_symbol
 _atom_site_label
 _atom_site_symmetry_multiplicity
 _atom_site_fract_x
 _atom_site_fract_y
 _atom_site_fract_z
 _atom_site_occupancy
  Ce  Ce0  1  0.667841  0.333467  0.000000  1
  Ce  Ce1  1  0.332159  0.665627  0.000000  1
  Ce  Ce2  1  0.185596  0.185919  0.500000  1
  Ce  Ce3  1  0.814404  0.000323  0.500000  1
  Ce  Ce4  1  0.000000  0.812168  0.500000  1
  Co  Co5  1  0.000000  0.280255  0.500000  1
  Co  Co6  1  0.000000  0.002441  0.000000  1
  P  P7  1  0.372743  0.373491  0.000000  1
  P  P8  1  0.627257  0.000748  0.000000  1
  P  P9  1  0.000000  0.625331  0.000000  1
  P  P10  1  0.836945  0.308201  0.500000  1
  P  P11  1  0.693674  0.524345  0.500000  1
  P  P12  1  0.476684  0.169346  0.500000  1
  P  P13  1  0.306326  0.830670  0.500000  1
  P  P14  1  0.523316  0.692661  0.500000  1
  P  P15  1  0.163055  0.471256  0.500000  1
  P  P16  1  0.822640  0.822794  0.000000  1
  P  P17  1  0.177360  0.000154  0.000000  1
  P  P18  1  0.000000  0.179940  0.000000  1
  Ru  Ru19  1  0.554856  0.557125  0.000000  1
  Ru  Ru20  1  0.445144  0.002268  0.000000  1
  Ru  Ru21  1  0.000000  0.441714  0.000000  1
  Ru  Ru22  1  0.822356  0.193542  0.000000  1
  Ru  Ru23  1  0.808953  0.626223  0.000000  1
  Ru  Ru24  1  0.373321  0.183277  0.000000  1
  Ru  Ru25  1  0.191047  0.817270  0.000000  1
  Ru  Ru26  1  0.626679  0.809956  0.000000  1
  Ru  Ru27  1  0.177644  0.371186  0.000000  1
  Ru  Ru28  1  0.637990  0.127676  0.500000  1
  Ru  Ru29  1  0.874309  0.507597  0.500000  1
  Ru  Ru30  1  0.491992  0.366124  0.500000  1
  Ru  Ru31  1  0.125691  0.633288  0.500000  1
  Ru  Ru32  1  0.508008  0.874132  0.500000  1
  Ru  Ru33  1  0.362010  0.489687  0.500000  1
  Ru  Ru34  1  0.719452  0.719627  0.500000  1
  Ru  Ru35  1  0.280548  0.000174  0.500000  1
