# generated using pymatgen
data_Ho5SiGeSe3
_symmetry_space_group_name_H-M   'P 1'
_cell_length_a   7.10623191
_cell_length_b   7.10623254
_cell_length_c   7.10303878
_cell_angle_alpha   99.09207474
_cell_angle_beta   99.79297967
_cell_angle_gamma   132.22447766
_symmetry_Int_Tables_number   1
_chemical_formula_structural   Ho5SiGeSe3
_chemical_formula_sum   'Ho5 Si1 Ge1 Se3'
_cell_volume   242.83803577
_cell_formula_units_Z   1
loop_
 _symmetry_equiv_pos_site_id
 _symmetry_equiv_pos_as_xyz
  1  'x, y, z'
loop_
 _atom_site_type_symbol
 _atom_site_label
 _atom_site_symmetry_multiplicity
 _atom_site_fract_x
 _atom_site_fract_y
 _atom_site_fract_z
 _atom_site_occupancy
  Ho  Ho0  1  0.395271  0.787155  0.182426  1
  Ho  Ho1  1  0.002526  0.995095  0.997621  1
  Ho  Ho2  1  0.597131  0.207107  0.804237  1
  Ho  Ho3  1  0.207327  0.411298  0.618625  1
  Ho  Ho4  1  0.797846  0.599505  0.397353  1
  Si  Si5  1  0.502729  0.501475  0.004203  1
  Ge  Ge6  1  0.095986  0.697955  0.793940  1
  Se  Se7  1  0.695690  0.899417  0.595106  1
  Se  Se8  1  0.300402  0.099287  0.399690  1
  Se  Se9  1  0.905092  0.301706  0.206799  1
