# generated using pymatgen
data_Pr3Ho5CdInIr2
_symmetry_space_group_name_H-M   'P 1'
_cell_length_a   9.76114113
_cell_length_b   9.76114016
_cell_length_c   9.71769800
_cell_angle_alpha   60.14711316
_cell_angle_beta   60.14711644
_cell_angle_gamma   60.28047222
_symmetry_Int_Tables_number   1
_chemical_formula_structural   Pr3Ho5CdInIr2
_chemical_formula_sum   'Pr6 Ho10 Cd2 In2 Ir4'
_cell_volume   657.54864880
_cell_formula_units_Z   2
loop_
 _symmetry_equiv_pos_site_id
 _symmetry_equiv_pos_as_xyz
  1  'x, y, z'
loop_
 _atom_site_type_symbol
 _atom_site_label
 _atom_site_symmetry_multiplicity
 _atom_site_fract_x
 _atom_site_fract_y
 _atom_site_fract_z
 _atom_site_occupancy
  Pr  Pr0  1  0.943229  0.558343  0.558010  1
  Pr  Pr1  1  0.558343  0.943229  0.940418  1
  Pr  Pr2  1  0.558343  0.943229  0.558010  1
  Pr  Pr3  1  0.943229  0.558343  0.940418  1
  Pr  Pr4  1  0.558463  0.558463  0.941537  1
  Pr  Pr5  1  0.941969  0.941969  0.558031  1
  Ho  Ho6  1  0.347040  0.347040  0.345691  1
  Ho  Ho7  1  0.347040  0.347040  0.960227  1
  Ho  Ho8  1  0.348190  0.958249  0.346780  1
  Ho  Ho9  1  0.958249  0.348190  0.346780  1
  Ho  Ho10  1  0.810553  0.187915  0.189361  1
  Ho  Ho11  1  0.187915  0.810553  0.812171  1
  Ho  Ho12  1  0.187915  0.810553  0.189361  1
  Ho  Ho13  1  0.810553  0.187915  0.812171  1
  Ho  Ho14  1  0.186528  0.186528  0.813472  1
  Ho  Ho15  1  0.809644  0.809644  0.190356  1
  Cd  Cd16  1  0.578136  0.262278  0.579792  1
  Cd  Cd17  1  0.262278  0.578136  0.579792  1
  In  In18  1  0.579558  0.579558  0.580491  1
  In  In19  1  0.579558  0.579558  0.260392  1
  Ir  Ir20  1  0.141573  0.141573  0.140139  1
  Ir  Ir21  1  0.141573  0.141573  0.576715  1
  Ir  Ir22  1  0.142012  0.578106  0.139941  1
  Ir  Ir23  1  0.578106  0.142012  0.139941  1
