# generated using pymatgen
data_Sc6Ga7Co16
_symmetry_space_group_name_H-M   'P 1'
_cell_length_a   8.26784683
_cell_length_b   8.27698444
_cell_length_c   8.26560500
_cell_angle_alpha   59.99497747
_cell_angle_beta   59.95453948
_cell_angle_gamma   59.99023044
_symmetry_Int_Tables_number   1
_chemical_formula_structural   Sc6Ga7Co16
_chemical_formula_sum   'Sc6 Ga7 Co16'
_cell_volume   399.78477586
_cell_formula_units_Z   1
loop_
 _symmetry_equiv_pos_site_id
 _symmetry_equiv_pos_as_xyz
  1  'x, y, z'
loop_
 _atom_site_type_symbol
 _atom_site_label
 _atom_site_symmetry_multiplicity
 _atom_site_fract_x
 _atom_site_fract_y
 _atom_site_fract_z
 _atom_site_occupancy
  Sc  Sc0  1  0.721077  0.721536  0.278805  1
  Sc  Sc1  1  0.278652  0.721467  0.278725  1
  Sc  Sc2  1  0.721220  0.278435  0.278970  1
  Sc  Sc3  1  0.278923  0.278464  0.721195  1
  Sc  Sc4  1  0.721348  0.278533  0.721275  1
  Sc  Sc5  1  0.278780  0.721565  0.721030  1
  Ga  Ga6  1  0.000000  0.000000  0.000000  1
  Ga  Ga7  1  0.000000  0.000000  0.500000  1
  Ga  Ga8  1  0.500000  0.000000  0.500000  1
  Ga  Ga9  1  0.000000  0.500000  0.500000  1
  Ga  Ga10  1  0.500000  0.500000  0.000000  1
  Ga  Ga11  1  0.000000  0.500000  0.000000  1
  Ga  Ga12  1  0.500000  0.000000  0.000000  1
  Co  Co13  1  0.876239  0.876246  0.371282  1
  Co  Co14  1  0.876210  0.371383  0.876206  1
  Co  Co15  1  0.371311  0.876244  0.876232  1
  Co  Co16  1  0.876222  0.876244  0.876236  1
  Co  Co17  1  0.123761  0.123754  0.628718  1
  Co  Co18  1  0.123790  0.628617  0.123794  1
  Co  Co19  1  0.628689  0.123756  0.123768  1
  Co  Co20  1  0.123778  0.123756  0.123764  1
  Co  Co21  1  0.676172  0.676469  0.971102  1
  Co  Co22  1  0.676167  0.971416  0.676157  1
  Co  Co23  1  0.971165  0.676448  0.676141  1
  Co  Co24  1  0.676145  0.676443  0.676129  1
  Co  Co25  1  0.323828  0.323531  0.028898  1
  Co  Co26  1  0.323833  0.028584  0.323843  1
  Co  Co27  1  0.028835  0.323552  0.323859  1
  Co  Co28  1  0.323855  0.323557  0.323871  1
