# generated using pymatgen
data_TmLu(Co3Si2)2
_symmetry_space_group_name_H-M   'P 1'
_cell_length_a   6.20322817
_cell_length_b   6.20322672
_cell_length_c   6.20322785
_cell_angle_alpha   130.64649189
_cell_angle_beta   112.67021765
_cell_angle_gamma   87.89009718
_symmetry_Int_Tables_number   1
_chemical_formula_structural   TmLu(Co3Si2)2
_chemical_formula_sum   'Tm1 Lu1 Co6 Si4'
_cell_volume   159.10208227
_cell_formula_units_Z   1
loop_
 _symmetry_equiv_pos_site_id
 _symmetry_equiv_pos_as_xyz
  1  'x, y, z'
loop_
 _atom_site_type_symbol
 _atom_site_label
 _atom_site_symmetry_multiplicity
 _atom_site_fract_x
 _atom_site_fract_y
 _atom_site_fract_z
 _atom_site_occupancy
  Tm  Tm0  1  0.250000  0.531379  0.281379  1
  Lu  Lu1  1  0.750000  0.468881  0.718881  1
  Co  Co2  1  0.999585  0.000052  0.499638  1
  Co  Co3  1  0.500415  0.000052  0.000466  1
  Co  Co4  1  0.723636  0.000065  0.723579  1
  Co  Co5  1  0.223514  0.499943  0.723579  1
  Co  Co6  1  0.276486  0.000065  0.276428  1
  Co  Co7  1  0.776364  0.499943  0.276428  1
  Si  Si8  1  0.080946  0.874707  0.793761  1
  Si  Si9  1  0.919013  0.125063  0.206050  1
  Si  Si10  1  0.580987  0.787038  0.206050  1
  Si  Si11  1  0.419054  0.212813  0.793761  1
