# generated using pymatgen
data_Lu2Sc3P12Ir12Ru7
_symmetry_space_group_name_H-M   'P 1'
_cell_length_a   12.58993915
_cell_length_b   12.57501826
_cell_length_c   3.92289100
_cell_angle_alpha   90.00000000
_cell_angle_beta   90.00000000
_cell_angle_gamma   120.28799482
_symmetry_Int_Tables_number   1
_chemical_formula_structural   Lu2Sc3P12Ir12Ru7
_chemical_formula_sum   'Lu2 Sc3 P12 Ir12 Ru7'
_cell_volume   536.29218052
_cell_formula_units_Z   1
loop_
 _symmetry_equiv_pos_site_id
 _symmetry_equiv_pos_as_xyz
  1  'x, y, z'
loop_
 _atom_site_type_symbol
 _atom_site_label
 _atom_site_symmetry_multiplicity
 _atom_site_fract_x
 _atom_site_fract_y
 _atom_site_fract_z
 _atom_site_occupancy
  Lu  Lu0  1  0.332971  0.666705  0.000000  1
  Lu  Lu1  1  0.668449  0.335738  0.000000  1
  Sc  Sc2  1  0.816425  0.997324  0.500000  1
  Sc  Sc3  1  0.998802  0.813924  0.500000  1
  Sc  Sc4  1  0.182734  0.183638  0.500000  1
  P  P5  1  0.175185  0.995728  0.000000  1
  P  P6  1  0.002296  0.177822  0.000000  1
  P  P7  1  0.820450  0.820572  0.000000  1
  P  P8  1  0.172348  0.480859  0.500000  1
  P  P9  1  0.518355  0.691332  0.500000  1
  P  P10  1  0.309262  0.828662  0.500000  1
  P  P11  1  0.691573  0.519980  0.500000  1
  P  P12  1  0.831490  0.314516  0.500000  1
  P  P13  1  0.483853  0.171382  0.500000  1
  P  P14  1  0.637759  0.995047  0.000000  1
  P  P15  1  0.000682  0.641896  0.000000  1
  P  P16  1  0.356975  0.362115  0.000000  1
  Ir  Ir17  1  0.362722  0.491790  0.500000  1
  Ir  Ir18  1  0.507668  0.871529  0.500000  1
  Ir  Ir19  1  0.131831  0.637273  0.500000  1
  Ir  Ir20  1  0.870077  0.509643  0.500000  1
  Ir  Ir21  1  0.641723  0.135059  0.500000  1
  Ir  Ir22  1  0.494595  0.360575  0.500000  1
  Ir  Ir23  1  0.817470  0.186820  0.000000  1
  Ir  Ir24  1  0.370088  0.183068  0.000000  1
  Ir  Ir25  1  0.286548  0.002188  0.500000  1
  Ir  Ir26  1  0.998098  0.283914  0.500000  1
  Ir  Ir27  1  0.714047  0.714605  0.500000  1
  Ir  Ir28  1  0.999749  0.999270  0.000000  1
  Ru  Ru29  1  0.457636  0.004708  0.000000  1
  Ru  Ru30  1  0.996980  0.453366  0.000000  1
  Ru  Ru31  1  0.546200  0.543562  0.000000  1
  Ru  Ru32  1  0.179100  0.374173  0.000000  1
  Ru  Ru33  1  0.623709  0.804668  0.000000  1
  Ru  Ru34  1  0.194721  0.819968  0.000000  1
  Ru  Ru35  1  0.807430  0.626581  0.000000  1
