# generated using pymatgen
data_Rb8Er2O7
_symmetry_space_group_name_H-M   'P 1'
_cell_length_a   18.91163800
_cell_length_b   7.22614019
_cell_length_c   7.28551975
_cell_angle_alpha   61.04159299
_cell_angle_beta   90.00000000
_cell_angle_gamma   90.00000000
_symmetry_Int_Tables_number   1
_chemical_formula_structural   Rb8Er2O7
_chemical_formula_sum   'Rb16 Er4 O14'
_cell_volume   871.14396867
_cell_formula_units_Z   2
loop_
 _symmetry_equiv_pos_site_id
 _symmetry_equiv_pos_as_xyz
  1  'x, y, z'
loop_
 _atom_site_type_symbol
 _atom_site_label
 _atom_site_symmetry_multiplicity
 _atom_site_fract_x
 _atom_site_fract_y
 _atom_site_fract_z
 _atom_site_occupancy
  Rb  Rb0  1  0.503753  0.025787  0.239488  1
  Rb  Rb1  1  0.003753  0.474213  0.760512  1
  Rb  Rb2  1  0.496247  0.974213  0.760512  1
  Rb  Rb3  1  0.996247  0.525787  0.239488  1
  Rb  Rb4  1  0.703728  0.045520  0.222823  1
  Rb  Rb5  1  0.203728  0.454480  0.777177  1
  Rb  Rb6  1  0.296272  0.954480  0.777177  1
  Rb  Rb7  1  0.796272  0.545520  0.222823  1
  Rb  Rb8  1  0.088919  0.995916  0.356791  1
  Rb  Rb9  1  0.588919  0.504084  0.643209  1
  Rb  Rb10  1  0.911081  0.004084  0.643209  1
  Rb  Rb11  1  0.411081  0.495916  0.356791  1
  Rb  Rb12  1  0.808448  0.452979  0.783058  1
  Rb  Rb13  1  0.308448  0.047021  0.216942  1
  Rb  Rb14  1  0.191552  0.547021  0.216942  1
  Rb  Rb15  1  0.691552  0.952979  0.783058  1
  Er  Er16  1  0.598327  0.498573  0.151971  1
  Er  Er17  1  0.098327  0.001427  0.848029  1
  Er  Er18  1  0.401673  0.501427  0.848029  1
  Er  Er19  1  0.901673  0.998573  0.151971  1
  O  O20  1  0.500000  0.500000  0.000000  1
  O  O21  1  0.000000  0.000000  0.000000  1
  O  O22  1  0.180921  0.006517  0.044952  1
  O  O23  1  0.680921  0.493483  0.955048  1
  O  O24  1  0.819079  0.993483  0.955048  1
  O  O25  1  0.319079  0.506517  0.044952  1
  O  O26  1  0.893482  0.280630  0.175030  1
  O  O27  1  0.393482  0.219370  0.824970  1
  O  O28  1  0.106518  0.719370  0.824970  1
  O  O29  1  0.606518  0.780630  0.175030  1
  O  O30  1  0.600650  0.222075  0.451093  1
  O  O31  1  0.100650  0.277925  0.548907  1
  O  O32  1  0.399350  0.777925  0.548907  1
  O  O33  1  0.899350  0.722075  0.451093  1
