# generated using pymatgen
data_Li4MnSi2S7
_symmetry_space_group_name_H-M   'P 1'
_cell_length_a   8.99847403
_cell_length_b   8.99847504
_cell_length_c   10.12517582
_cell_angle_alpha   85.52442342
_cell_angle_beta   85.52442304
_cell_angle_gamma   43.33352899
_symmetry_Int_Tables_number   1
_chemical_formula_structural   Li4MnSi2S7
_chemical_formula_sum   'Li8 Mn2 Si4 S14'
_cell_volume   560.63808692
_cell_formula_units_Z   2
loop_
 _symmetry_equiv_pos_site_id
 _symmetry_equiv_pos_as_xyz
  1  'x, y, z'
loop_
 _atom_site_type_symbol
 _atom_site_label
 _atom_site_symmetry_multiplicity
 _atom_site_fract_x
 _atom_site_fract_y
 _atom_site_fract_z
 _atom_site_occupancy
  Li  Li0  1  0.560266  0.277930  0.294032  1
  Li  Li1  1  0.277930  0.560266  0.794032  1
  Li  Li2  1  0.026447  0.677863  0.138407  1
  Li  Li3  1  0.677863  0.026447  0.638407  1
  Li  Li4  1  0.976065  0.307668  0.220467  1
  Li  Li5  1  0.307668  0.976065  0.720467  1
  Li  Li6  1  0.896241  0.527195  0.857536  1
  Li  Li7  1  0.527195  0.896241  0.357536  1
  Mn  Mn8  1  0.816386  0.169499  0.943342  1
  Mn  Mn9  1  0.169499  0.816386  0.443342  1
  Si  Si10  1  0.451078  0.112221  0.018670  1
  Si  Si11  1  0.112221  0.451078  0.518670  1
  Si  Si12  1  0.394847  0.745331  0.080888  1
  Si  Si13  1  0.745331  0.394847  0.580888  1
  S  S14  1  0.505093  0.850656  0.937515  1
  S  S15  1  0.850656  0.505093  0.437515  1
  S  S16  1  0.666942  0.408178  0.125096  1
  S  S17  1  0.408178  0.666942  0.625096  1
  S  S18  1  0.273877  0.918142  0.259055  1
  S  S19  1  0.918142  0.273877  0.759055  1
  S  S20  1  0.155441  0.796734  0.987320  1
  S  S21  1  0.796734  0.155441  0.487320  1
  S  S22  1  0.644882  0.989608  0.183944  1
  S  S23  1  0.989608  0.644882  0.683944  1
  S  S24  1  0.115165  0.382227  0.048643  1
  S  S25  1  0.382227  0.115165  0.548643  1
  S  S26  1  0.571289  0.176446  0.858106  1
  S  S27  1  0.176446  0.571289  0.358106  1
