# generated using pymatgen
data_Ce4PrNd5(Bi3Br)2
_symmetry_space_group_name_H-M   'P 1'
_cell_length_a   9.66010300
_cell_length_b   9.66010312
_cell_length_c   6.65894500
_cell_angle_alpha   90.00000000
_cell_angle_beta   90.00000000
_cell_angle_gamma   119.99286083
_symmetry_Int_Tables_number   1
_chemical_formula_structural   Ce4PrNd5(Bi3Br)2
_chemical_formula_sum   'Ce4 Pr1 Nd5 Bi6 Br2'
_cell_volume   538.18404350
_cell_formula_units_Z   1
loop_
 _symmetry_equiv_pos_site_id
 _symmetry_equiv_pos_as_xyz
  1  'x, y, z'
loop_
 _atom_site_type_symbol
 _atom_site_label
 _atom_site_symmetry_multiplicity
 _atom_site_fract_x
 _atom_site_fract_y
 _atom_site_fract_z
 _atom_site_occupancy
  Ce  Ce0  1  0.333377  0.666813  0.500042  1
  Ce  Ce1  1  0.666813  0.333377  0.500042  1
  Ce  Ce2  1  0.666813  0.333377  0.999958  1
  Ce  Ce3  1  0.333377  0.666813  0.999958  1
  Pr  Pr4  1  0.274286  0.274286  0.250000  1
  Nd  Nd5  1  0.274378  0.999943  0.750000  1
  Nd  Nd6  1  0.725871  0.000133  0.250000  1
  Nd  Nd7  1  0.999943  0.274378  0.750000  1
  Nd  Nd8  1  0.000133  0.725871  0.250000  1
  Nd  Nd9  1  0.725560  0.725560  0.750000  1
  Bi  Bi10  1  0.615907  0.000047  0.750000  1
  Bi  Bi11  1  0.384396  0.999490  0.250000  1
  Bi  Bi12  1  0.000047  0.615907  0.750000  1
  Bi  Bi13  1  0.999490  0.384396  0.250000  1
  Bi  Bi14  1  0.384250  0.384250  0.750000  1
  Bi  Bi15  1  0.616659  0.616659  0.250000  1
  Br  Br16  1  0.999350  0.999350  0.500486  1
  Br  Br17  1  0.999350  0.999350  0.999514  1
