# generated using pymatgen
data_PrDyAl6Si4Pt
_symmetry_space_group_name_H-M   'P 1'
_cell_length_a   4.19088660
_cell_length_b   4.19082620
_cell_length_c   17.33107441
_cell_angle_alpha   96.74624409
_cell_angle_beta   83.25483984
_cell_angle_gamma   120.02811627
_symmetry_Int_Tables_number   1
_chemical_formula_structural   PrDyAl6Si4Pt
_chemical_formula_sum   'Pr1 Dy1 Al6 Si4 Pt1'
_cell_volume   261.10050991
_cell_formula_units_Z   1
loop_
 _symmetry_equiv_pos_site_id
 _symmetry_equiv_pos_as_xyz
  1  'x, y, z'
loop_
 _atom_site_type_symbol
 _atom_site_label
 _atom_site_symmetry_multiplicity
 _atom_site_fract_x
 _atom_site_fract_y
 _atom_site_fract_z
 _atom_site_occupancy
  Pr  Pr0  1  0.566012  0.433905  0.302414  1
  Dy  Dy1  1  0.433535  0.566543  0.699059  1
  Al  Al2  1  0.319457  0.680590  0.043110  1
  Al  Al3  1  0.949747  0.050189  0.146025  1
  Al  Al4  1  0.184238  0.815733  0.449665  1
  Al  Al5  1  0.812709  0.187297  0.560138  1
  Al  Al6  1  0.051845  0.948215  0.848277  1
  Al  Al7  1  0.682644  0.317361  0.950954  1
  Si  Si8  1  0.267110  0.732781  0.195526  1
  Si  Si9  1  0.862925  0.137101  0.412494  1
  Si  Si10  1  0.133727  0.866233  0.598015  1
  Si  Si11  1  0.734911  0.265160  0.797576  1
  Pt  Pt12  1  0.001139  0.998893  0.996747  1
