# generated using pymatgen
data_Tb2MnCo8TcP6
_symmetry_space_group_name_H-M   'P 1'
_cell_length_a   3.69001400
_cell_length_b   10.37268400
_cell_length_c   11.83940600
_cell_angle_alpha   90.00000000
_cell_angle_beta   90.00000000
_cell_angle_gamma   90.00000000
_symmetry_Int_Tables_number   1
_chemical_formula_structural   Tb2MnCo8TcP6
_chemical_formula_sum   'Tb4 Mn2 Co16 Tc2 P12'
_cell_volume   453.15739871
_cell_formula_units_Z   2
loop_
 _symmetry_equiv_pos_site_id
 _symmetry_equiv_pos_as_xyz
  1  'x, y, z'
loop_
 _atom_site_type_symbol
 _atom_site_label
 _atom_site_symmetry_multiplicity
 _atom_site_fract_x
 _atom_site_fract_y
 _atom_site_fract_z
 _atom_site_occupancy
  Tb  Tb0  1  0.250000  0.582921  0.703734  1
  Tb  Tb1  1  0.250000  0.917079  0.203734  1
  Tb  Tb2  1  0.750000  0.416436  0.294860  1
  Tb  Tb3  1  0.750000  0.083564  0.794860  1
  Mn  Mn4  1  0.750000  0.289452  0.012196  1
  Mn  Mn5  1  0.750000  0.210548  0.512196  1
  Co  Co6  1  0.250000  0.406234  0.487857  1
  Co  Co7  1  0.250000  0.093766  0.987857  1
  Co  Co8  1  0.750000  0.592741  0.510302  1
  Co  Co9  1  0.750000  0.907259  0.010302  1
  Co  Co10  1  0.250000  0.221132  0.176600  1
  Co  Co11  1  0.250000  0.278868  0.676600  1
  Co  Co12  1  0.750000  0.778632  0.822884  1
  Co  Co13  1  0.750000  0.721368  0.322884  1
  Co  Co14  1  0.250000  0.885811  0.701228  1
  Co  Co15  1  0.250000  0.614189  0.201228  1
  Co  Co16  1  0.750000  0.116651  0.300707  1
  Co  Co17  1  0.750000  0.383349  0.800707  1
  Co  Co18  1  0.250000  0.464612  0.932247  1
  Co  Co19  1  0.250000  0.035388  0.432247  1
  Co  Co20  1  0.750000  0.533809  0.068163  1
  Co  Co21  1  0.750000  0.966191  0.568163  1
  Tc  Tc22  1  0.250000  0.709965  0.989667  1
  Tc  Tc23  1  0.250000  0.790035  0.489667  1
  P  P24  1  0.250000  0.418090  0.111959  1
  P  P25  1  0.250000  0.081910  0.611959  1
  P  P26  1  0.750000  0.578790  0.886828  1
  P  P27  1  0.750000  0.921210  0.386828  1
  P  P28  1  0.250000  0.270273  0.867092  1
  P  P29  1  0.250000  0.229727  0.367092  1
  P  P30  1  0.750000  0.729163  0.133574  1
  P  P31  1  0.750000  0.770837  0.633574  1
  P  P32  1  0.250000  0.597121  0.391384  1
  P  P33  1  0.250000  0.902879  0.891384  1
  P  P34  1  0.750000  0.400144  0.608716  1
  P  P35  1  0.750000  0.099856  0.108716  1
