# generated using pymatgen
data_La4Al4IrRhAu2
_symmetry_space_group_name_H-M   'P 1'
_cell_length_a   4.34565100
_cell_length_b   7.42696228
_cell_length_c   16.71008379
_cell_angle_alpha   89.93326186
_cell_angle_beta   90.00000000
_cell_angle_gamma   90.00000000
_symmetry_Int_Tables_number   1
_chemical_formula_structural   La4Al4IrRhAu2
_chemical_formula_sum   'La8 Al8 Ir2 Rh2 Au4'
_cell_volume   539.31735545
_cell_formula_units_Z   2
loop_
 _symmetry_equiv_pos_site_id
 _symmetry_equiv_pos_as_xyz
  1  'x, y, z'
loop_
 _atom_site_type_symbol
 _atom_site_label
 _atom_site_symmetry_multiplicity
 _atom_site_fract_x
 _atom_site_fract_y
 _atom_site_fract_z
 _atom_site_occupancy
  La  La0  1  0.250000  0.522325  0.782271  1
  La  La1  1  0.750000  0.477675  0.217729  1
  La  La2  1  0.750000  0.976890  0.282824  1
  La  La3  1  0.250000  0.023110  0.717176  1
  La  La4  1  0.250000  0.650163  0.552721  1
  La  La5  1  0.750000  0.349837  0.447279  1
  La  La6  1  0.750000  0.849998  0.052622  1
  La  La7  1  0.250000  0.150002  0.947378  1
  Al  Al8  1  0.250000  0.662277  0.355733  1
  Al  Al9  1  0.750000  0.337723  0.644267  1
  Al  Al10  1  0.750000  0.836922  0.856124  1
  Al  Al11  1  0.250000  0.163078  0.143876  1
  Al  Al12  1  0.250000  0.503897  0.057293  1
  Al  Al13  1  0.750000  0.496103  0.942707  1
  Al  Al14  1  0.750000  0.995645  0.557533  1
  Al  Al15  1  0.250000  0.004355  0.442467  1
  Ir  Ir16  1  0.250000  0.708479  0.928357  1
  Ir  Ir17  1  0.750000  0.291521  0.071643  1
  Rh  Rh18  1  0.750000  0.794532  0.427135  1
  Rh  Rh19  1  0.250000  0.205468  0.572865  1
  Au  Au20  1  0.250000  0.773071  0.181916  1
  Au  Au21  1  0.750000  0.226929  0.818084  1
  Au  Au22  1  0.750000  0.727209  0.681579  1
  Au  Au23  1  0.250000  0.272791  0.318421  1
