# generated using pymatgen
data_Ho5Lu5(InSb)4
_symmetry_space_group_name_H-M   'P 1'
_cell_length_a   8.63084873
_cell_length_b   8.79775491
_cell_length_c   8.01009502
_cell_angle_alpha   90.02820407
_cell_angle_beta   90.06182007
_cell_angle_gamma   125.21931586
_symmetry_Int_Tables_number   1
_chemical_formula_structural   Ho5Lu5(InSb)4
_chemical_formula_sum   'Ho5 Lu5 In4 Sb4'
_cell_volume   496.88756638
_cell_formula_units_Z   1
loop_
 _symmetry_equiv_pos_site_id
 _symmetry_equiv_pos_as_xyz
  1  'x, y, z'
loop_
 _atom_site_type_symbol
 _atom_site_label
 _atom_site_symmetry_multiplicity
 _atom_site_fract_x
 _atom_site_fract_y
 _atom_site_fract_z
 _atom_site_occupancy
  Ho  Ho0  1  0.816695  0.537105  0.168983  1
  Ho  Ho1  1  0.528129  0.800515  0.165443  1
  Ho  Ho2  1  0.184163  0.463553  0.830725  1
  Ho  Ho3  1  0.684449  0.962827  0.668382  1
  Ho  Ho4  1  0.314655  0.036133  0.332041  1
  Lu  Lu5  1  0.028341  0.296689  0.335694  1
  Lu  Lu6  1  0.970804  0.702099  0.664257  1
  Lu  Lu7  1  0.472419  0.201997  0.836237  1
  Lu  Lu8  1  0.000381  0.000527  0.999457  1
  Lu  Lu9  1  0.499753  0.499157  0.500388  1
  In  In10  1  0.370702  0.369176  0.129660  1
  In  In11  1  0.629296  0.629652  0.869515  1
  In  In12  1  0.130472  0.130451  0.630468  1
  In  In13  1  0.870878  0.869288  0.370230  1
  Sb  Sb14  1  0.791714  0.198608  0.007672  1
  Sb  Sb15  1  0.209313  0.804434  0.989479  1
  Sb  Sb16  1  0.711030  0.303122  0.509022  1
  Sb  Sb17  1  0.286807  0.694666  0.492346  1
