# generated using pymatgen
data_Tb2Pa(GaNi)3
_symmetry_space_group_name_H-M   'P 1'
_cell_length_a   7.09263200
_cell_length_b   7.02344964
_cell_length_c   3.76228900
_cell_angle_alpha   90.00000000
_cell_angle_beta   90.00000000
_cell_angle_gamma   120.32638036
_symmetry_Int_Tables_number   1
_chemical_formula_structural   Tb2Pa(GaNi)3
_chemical_formula_sum   'Tb2 Pa1 Ga3 Ni3'
_cell_volume   161.77184925
_cell_formula_units_Z   1
loop_
 _symmetry_equiv_pos_site_id
 _symmetry_equiv_pos_as_xyz
  1  'x, y, z'
loop_
 _atom_site_type_symbol
 _atom_site_label
 _atom_site_symmetry_multiplicity
 _atom_site_fract_x
 _atom_site_fract_y
 _atom_site_fract_z
 _atom_site_occupancy
  Tb  Tb0  1  0.414530  0.412590  0.499999  1
  Tb  Tb1  1  0.001940  0.587410  0.499999  1
  Pa  Pa2  1  0.581410  0.000000  0.499999  1
  Ga  Ga3  1  0.236155  0.000000  0.000000  1
  Ga  Ga4  1  0.004925  0.249683  0.000000  1
  Ga  Ga5  1  0.755241  0.750317  0.000000  1
  Ni  Ni6  1  0.663753  0.307116  0.000000  1
  Ni  Ni7  1  0.356636  0.692884  0.000000  1
  Ni  Ni8  1  0.985408  0.000000  0.499999  1
