# generated using pymatgen
data_La8Zn8AgIr7
_symmetry_space_group_name_H-M   'P 1'
_cell_length_a   4.08434400
_cell_length_b   7.48690019
_cell_length_c   16.70413400
_cell_angle_alpha   90.12973044
_cell_angle_beta   90.00000000
_cell_angle_gamma   90.00000000
_symmetry_Int_Tables_number   1
_chemical_formula_structural   La8Zn8AgIr7
_chemical_formula_sum   'La8 Zn8 Ag1 Ir7'
_cell_volume   510.79567168
_cell_formula_units_Z   1
loop_
 _symmetry_equiv_pos_site_id
 _symmetry_equiv_pos_as_xyz
  1  'x, y, z'
loop_
 _atom_site_type_symbol
 _atom_site_label
 _atom_site_symmetry_multiplicity
 _atom_site_fract_x
 _atom_site_fract_y
 _atom_site_fract_z
 _atom_site_occupancy
  La  La0  1  0.750000  0.327739  0.439142  1
  La  La1  1  0.250000  0.039487  0.710015  1
  La  La2  1  0.250000  0.572285  0.780421  1
  La  La3  1  0.250000  0.668992  0.556259  1
  La  La4  1  0.750000  0.825244  0.062027  1
  La  La5  1  0.250000  0.162702  0.951279  1
  La  La6  1  0.750000  0.451902  0.218340  1
  La  La7  1  0.750000  0.951622  0.282784  1
  Zn  Zn8  1  0.250000  0.125156  0.150773  1
  Zn  Zn9  1  0.250000  0.997935  0.439601  1
  Zn  Zn10  1  0.750000  0.870630  0.852082  1
  Zn  Zn11  1  0.750000  0.000741  0.557455  1
  Zn  Zn12  1  0.250000  0.499802  0.061116  1
  Zn  Zn13  1  0.750000  0.378128  0.645596  1
  Zn  Zn14  1  0.750000  0.504964  0.941998  1
  Zn  Zn15  1  0.250000  0.626506  0.350726  1
  Ag  Ag16  1  0.750000  0.259427  0.813478  1
  Ir  Ir17  1  0.250000  0.243289  0.313176  1
  Ir  Ir18  1  0.250000  0.740468  0.935697  1
  Ir  Ir19  1  0.250000  0.238024  0.565774  1
  Ir  Ir20  1  0.250000  0.742490  0.187025  1
  Ir  Ir21  1  0.750000  0.759219  0.434203  1
  Ir  Ir22  1  0.750000  0.258086  0.064785  1
  Ir  Ir23  1  0.750000  0.755165  0.686245  1
