# generated using pymatgen
data_NiSn(BrO3)6
_symmetry_space_group_name_H-M   'P 1'
_cell_length_a   9.15242900
_cell_length_b   9.15242923
_cell_length_c   5.71740600
_cell_angle_alpha   90.00000000
_cell_angle_beta   90.00000000
_cell_angle_gamma   120.00000277
_symmetry_Int_Tables_number   1
_chemical_formula_structural   NiSn(BrO3)6
_chemical_formula_sum   'Ni1 Sn1 Br6 O18'
_cell_volume   414.76528599
_cell_formula_units_Z   1
loop_
 _symmetry_equiv_pos_site_id
 _symmetry_equiv_pos_as_xyz
  1  'x, y, z'
loop_
 _atom_site_type_symbol
 _atom_site_label
 _atom_site_symmetry_multiplicity
 _atom_site_fract_x
 _atom_site_fract_y
 _atom_site_fract_z
 _atom_site_occupancy
  Ni  Ni0  1  0.666667  0.333333  0.129788  1
  Sn  Sn1  1  0.333333  0.666667  0.635120  1
  Br  Br2  1  0.346577  0.319147  0.461124  1
  Br  Br3  1  0.972569  0.653423  0.461124  1
  Br  Br4  1  0.013019  0.335692  0.963043  1
  Br  Br5  1  0.322673  0.986981  0.963043  1
  Br  Br6  1  0.664308  0.677327  0.963043  1
  Br  Br7  1  0.680853  0.027431  0.461124  1
  O  O8  1  0.811122  0.279167  0.900908  1
  O  O9  1  0.533489  0.810949  0.404572  1
  O  O10  1  0.277461  0.466511  0.404572  1
  O  O11  1  0.720833  0.531955  0.900908  1
  O  O12  1  0.468045  0.188878  0.900908  1
  O  O13  1  0.189051  0.722539  0.404572  1
  O  O14  1  0.429288  0.883814  0.842758  1
  O  O15  1  0.542650  0.423147  0.341386  1
  O  O16  1  0.833231  0.056563  0.283661  1
  O  O17  1  0.777015  0.834085  0.785574  1
  O  O18  1  0.057071  0.222985  0.785574  1
  O  O19  1  0.943437  0.776667  0.283661  1
  O  O20  1  0.223333  0.166769  0.283661  1
  O  O21  1  0.880497  0.457350  0.341386  1
  O  O22  1  0.576853  0.119503  0.341386  1
  O  O23  1  0.454526  0.570712  0.842758  1
  O  O24  1  0.116186  0.545474  0.842758  1
  O  O25  1  0.165915  0.942929  0.785574  1
