# generated using pymatgen
data_Ba4In13Pt9
_symmetry_space_group_name_H-M   'P 1'
_cell_length_a   12.66244002
_cell_length_b   12.66145347
_cell_length_c   4.53457300
_cell_angle_alpha   90.00000000
_cell_angle_beta   90.00000000
_cell_angle_gamma   119.99744563
_symmetry_Int_Tables_number   1
_chemical_formula_structural   Ba4In13Pt9
_chemical_formula_sum   'Ba4 In13 Pt9'
_cell_volume   629.62095263
_cell_formula_units_Z   1
loop_
 _symmetry_equiv_pos_site_id
 _symmetry_equiv_pos_as_xyz
  1  'x, y, z'
loop_
 _atom_site_type_symbol
 _atom_site_label
 _atom_site_symmetry_multiplicity
 _atom_site_fract_x
 _atom_site_fract_y
 _atom_site_fract_z
 _atom_site_occupancy
  Ba  Ba0  1  0.204533  0.795514  0.500000  1
  Ba  Ba1  1  0.591033  0.795516  0.500000  1
  Ba  Ba2  1  0.204532  0.409018  0.500000  1
  Ba  Ba3  1  0.666563  0.333280  0.000000  1
  In  In4  1  0.952781  0.289977  0.000000  1
  In  In5  1  0.710045  0.662806  0.000000  1
  In  In6  1  0.952782  0.662803  0.000000  1
  In  In7  1  0.337162  0.047217  0.000000  1
  In  In8  1  0.164073  0.082036  0.500000  1
  In  In9  1  0.917925  0.835865  0.500000  1
  In  In10  1  0.710045  0.047238  0.000000  1
  In  In11  1  0.532930  0.065804  0.500000  1
  In  In12  1  0.917926  0.082060  0.500000  1
  In  In13  1  0.337162  0.289945  0.000000  1
  In  In14  1  0.532930  0.467126  0.500000  1
  In  In15  1  0.934201  0.467101  0.500000  1
  In  In16  1  0.333371  0.666686  0.000000  1
  Pt  Pt17  1  0.457689  0.542322  0.000000  1
  Pt  Pt18  1  0.845306  0.922654  0.000000  1
  Pt  Pt19  1  0.457689  0.915366  0.000000  1
  Pt  Pt20  1  0.077327  0.154690  0.000000  1
  Pt  Pt21  1  0.077328  0.922638  0.000000  1
  Pt  Pt22  1  0.792716  0.585421  0.500000  1
  Pt  Pt23  1  0.084698  0.542350  0.000000  1
  Pt  Pt24  1  0.792717  0.207295  0.500000  1
  Pt  Pt25  1  0.414540  0.207269  0.500000  1
