# generated using pymatgen
data_Ho4Er16FeCo3Bi8
_symmetry_space_group_name_H-M   'P 1'
_cell_length_a   7.92392735
_cell_length_b   8.84889400
_cell_length_c   12.31292510
_cell_angle_alpha   90.00000000
_cell_angle_beta   89.95935048
_cell_angle_gamma   90.00000000
_symmetry_Int_Tables_number   1
_chemical_formula_structural   Ho4Er16FeCo3Bi8
_chemical_formula_sum   'Ho4 Er16 Fe1 Co3 Bi8'
_cell_volume   863.35738109
_cell_formula_units_Z   1
loop_
 _symmetry_equiv_pos_site_id
 _symmetry_equiv_pos_as_xyz
  1  'x, y, z'
loop_
 _atom_site_type_symbol
 _atom_site_label
 _atom_site_symmetry_multiplicity
 _atom_site_fract_x
 _atom_site_fract_y
 _atom_site_fract_z
 _atom_site_occupancy
  Ho  Ho0  1  0.114331  0.250000  0.189028  1
  Ho  Ho1  1  0.385657  0.250000  0.688356  1
  Ho  Ho2  1  0.947192  0.250000  0.502491  1
  Ho  Ho3  1  0.554401  0.250000  0.002688  1
  Er  Er4  1  0.346193  0.750000  0.700390  1
  Er  Er5  1  0.652795  0.250000  0.300731  1
  Er  Er6  1  0.847090  0.250000  0.800129  1
  Er  Er7  1  0.152242  0.750000  0.199211  1
  Er  Er8  1  0.887002  0.750000  0.811624  1
  Er  Er9  1  0.613669  0.750000  0.312280  1
  Er  Er10  1  0.675101  0.537812  0.563154  1
  Er  Er11  1  0.325123  0.461752  0.436898  1
  Er  Er12  1  0.173730  0.464453  0.937642  1
  Er  Er13  1  0.325123  0.038248  0.436898  1
  Er  Er14  1  0.824919  0.539113  0.062731  1
  Er  Er15  1  0.675101  0.962188  0.563154  1
  Er  Er16  1  0.824919  0.960887  0.062731  1
  Er  Er17  1  0.173730  0.035547  0.937642  1
  Er  Er18  1  0.053191  0.750000  0.497232  1
  Er  Er19  1  0.445079  0.750000  0.996827  1
  Fe  Fe20  1  0.069351  0.750000  0.990830  1
  Co  Co21  1  0.932687  0.250000  0.008273  1
  Co  Co22  1  0.566174  0.250000  0.508209  1
  Co  Co23  1  0.433909  0.750000  0.492186  1
  Bi  Bi24  1  0.572101  0.509619  0.826441  1
  Bi  Bi25  1  0.428833  0.490808  0.173205  1
  Bi  Bi26  1  0.071691  0.490870  0.673154  1
  Bi  Bi27  1  0.428833  0.009192  0.173205  1
  Bi  Bi28  1  0.928020  0.509684  0.326531  1
  Bi  Bi29  1  0.572101  0.990381  0.826441  1
  Bi  Bi30  1  0.928020  0.990316  0.326531  1
  Bi  Bi31  1  0.071691  0.009130  0.673154  1
