# generated using pymatgen
data_Pr6Al24Ru3Pt2Rh3
_symmetry_space_group_name_H-M   'P 1'
_cell_length_a   8.93383916
_cell_length_b   8.93991152
_cell_length_c   9.68936257
_cell_angle_alpha   90.02778092
_cell_angle_beta   89.94554105
_cell_angle_gamma   119.77345963
_symmetry_Int_Tables_number   1
_chemical_formula_structural   Pr6Al24Ru3Pt2Rh3
_chemical_formula_sum   'Pr6 Al24 Ru3 Pt2 Rh3'
_cell_volume   671.71317769
_cell_formula_units_Z   1
loop_
 _symmetry_equiv_pos_site_id
 _symmetry_equiv_pos_as_xyz
  1  'x, y, z'
loop_
 _atom_site_type_symbol
 _atom_site_label
 _atom_site_symmetry_multiplicity
 _atom_site_fract_x
 _atom_site_fract_y
 _atom_site_fract_z
 _atom_site_occupancy
  Pr  Pr0  1  0.190583  0.380121  0.251549  1
  Pr  Pr1  1  0.809417  0.619879  0.748451  1
  Pr  Pr2  1  0.619960  0.810477  0.249747  1
  Pr  Pr3  1  0.380040  0.189523  0.750253  1
  Pr  Pr4  1  0.191377  0.810812  0.248745  1
  Pr  Pr5  1  0.808623  0.189188  0.751255  1
  Al  Al6  1  0.331288  0.662897  0.023888  1
  Al  Al7  1  0.668712  0.337103  0.976112  1
  Al  Al8  1  0.667706  0.329658  0.523511  1
  Al  Al9  1  0.332294  0.670342  0.476489  1
  Al  Al10  1  0.160474  0.326350  0.574603  1
  Al  Al11  1  0.839526  0.673650  0.425397  1
  Al  Al12  1  0.673493  0.841329  0.573250  1
  Al  Al13  1  0.836584  0.673783  0.074049  1
  Al  Al14  1  0.326507  0.158671  0.426750  1
  Al  Al15  1  0.163416  0.326217  0.925951  1
  Al  Al16  1  0.165258  0.838041  0.575240  1
  Al  Al17  1  0.325896  0.166918  0.074834  1
  Al  Al18  1  0.834742  0.161959  0.424760  1
  Al  Al19  1  0.674104  0.833082  0.925166  1
  Al  Al20  1  0.840297  0.166684  0.076749  1
  Al  Al21  1  0.159703  0.833316  0.923251  1
  Al  Al22  1  0.564251  0.127707  0.253985  1
  Al  Al23  1  0.435749  0.872293  0.746015  1
  Al  Al24  1  0.874574  0.437183  0.249973  1
  Al  Al25  1  0.125426  0.562817  0.750027  1
  Al  Al26  1  0.564046  0.436621  0.246660  1
  Al  Al27  1  0.435954  0.563379  0.753340  1
  Al  Al28  1  0.999629  0.001444  0.250144  1
  Al  Al29  1  0.000371  0.998556  0.749856  1
  Ru  Ru30  1  0.500000  0.000000  0.500000  1
  Ru  Ru31  1  0.000000  0.000000  0.000000  1
  Ru  Ru32  1  0.000000  0.000000  0.500000  1
  Pt  Pt33  1  0.500000  0.000000  0.000000  1
  Pt  Pt34  1  0.500000  0.500000  0.500000  1
  Rh  Rh35  1  0.000000  0.500000  0.000000  1
  Rh  Rh36  1  0.500000  0.500000  0.000000  1
  Rh  Rh37  1  0.000000  0.500000  0.500000  1
