# generated using pymatgen
data_LuMo3(PO4)4
_symmetry_space_group_name_H-M   'P 1'
_cell_length_a   4.88224455
_cell_length_b   6.97751169
_cell_length_c   9.04392780
_cell_angle_alpha   90.01262842
_cell_angle_beta   89.87692752
_cell_angle_gamma   90.00781424
_symmetry_Int_Tables_number   1
_chemical_formula_structural   LuMo3(PO4)4
_chemical_formula_sum   'Lu1 Mo3 P4 O16'
_cell_volume   308.08898556
_cell_formula_units_Z   1
loop_
 _symmetry_equiv_pos_site_id
 _symmetry_equiv_pos_as_xyz
  1  'x, y, z'
loop_
 _atom_site_type_symbol
 _atom_site_label
 _atom_site_symmetry_multiplicity
 _atom_site_fract_x
 _atom_site_fract_y
 _atom_site_fract_z
 _atom_site_occupancy
  Lu  Lu0  1  0.000000  0.000000  0.000000  1
  Mo  Mo1  1  0.500000  0.500000  0.500000  1
  Mo  Mo2  1  0.000000  0.500000  0.000000  1
  Mo  Mo3  1  0.500000  0.000000  0.500000  1
  P  P4  1  0.987819  0.747627  0.675559  1
  P  P5  1  0.490871  0.255160  0.821257  1
  P  P6  1  0.012181  0.252373  0.324441  1
  P  P7  1  0.509129  0.744840  0.178743  1
  O  O8  1  0.147810  0.436658  0.376465  1
  O  O9  1  0.649615  0.560747  0.128806  1
  O  O10  1  0.850356  0.934204  0.627701  1
  O  O11  1  0.356858  0.070117  0.874494  1
  O  O12  1  0.852190  0.563342  0.623535  1
  O  O13  1  0.350385  0.439253  0.871194  1
  O  O14  1  0.149644  0.065796  0.372299  1
  O  O15  1  0.643142  0.929883  0.125506  1
  O  O16  1  0.204371  0.742576  0.121098  1
  O  O17  1  0.705681  0.249784  0.383201  1
  O  O18  1  0.795629  0.257424  0.878902  1
  O  O19  1  0.294319  0.750216  0.616799  1
  O  O20  1  0.526237  0.748997  0.353755  1
  O  O21  1  0.023332  0.253602  0.149731  1
  O  O22  1  0.473763  0.251003  0.646245  1
  O  O23  1  0.976668  0.746398  0.850269  1
