# generated using pymatgen
data_Hf6TaTc12W5
_symmetry_space_group_name_H-M   'P 1'
_cell_length_a   4.49646000
_cell_length_b   6.39184600
_cell_length_c   13.61399800
_cell_angle_alpha   90.00000000
_cell_angle_beta   90.00013958
_cell_angle_gamma   90.00000000
_symmetry_Int_Tables_number   1
_chemical_formula_structural   Hf6TaTc12W5
_chemical_formula_sum   'Hf6 Ta1 Tc12 W5'
_cell_volume   391.27555820
_cell_formula_units_Z   1
loop_
 _symmetry_equiv_pos_site_id
 _symmetry_equiv_pos_as_xyz
  1  'x, y, z'
loop_
 _atom_site_type_symbol
 _atom_site_label
 _atom_site_symmetry_multiplicity
 _atom_site_fract_x
 _atom_site_fract_y
 _atom_site_fract_z
 _atom_site_occupancy
  Hf  Hf0  1  0.999998  0.500000  0.000000  1
  Hf  Hf1  1  0.499992  0.000000  0.166941  1
  Hf  Hf2  1  0.999989  0.500000  0.333027  1
  Hf  Hf3  1  0.500001  0.000000  0.499999  1
  Hf  Hf4  1  0.000011  0.500000  0.666973  1
  Hf  Hf5  1  0.500008  0.000000  0.833060  1
  Ta  Ta6  1  0.000000  0.000000  0.999999  1
  Tc  Tc7  1  0.500000  0.252608  0.000002  1
  Tc  Tc8  1  0.500000  0.747393  0.000002  1
  Tc  Tc9  1  0.999990  0.251384  0.168375  1
  Tc  Tc10  1  0.999990  0.748616  0.168375  1
  Tc  Tc11  1  0.499990  0.249538  0.333945  1
  Tc  Tc12  1  0.499990  0.750461  0.333945  1
  Tc  Tc13  1  0.000001  0.250651  0.499997  1
  Tc  Tc14  1  0.000001  0.749350  0.499997  1
  Tc  Tc15  1  0.500011  0.249541  0.666052  1
  Tc  Tc16  1  0.500011  0.750458  0.666052  1
  Tc  Tc17  1  0.000011  0.251382  0.831627  1
  Tc  Tc18  1  0.000011  0.748618  0.831627  1
  W  W19  1  0.499989  0.500000  0.166152  1
  W  W20  1  0.999991  0.000000  0.333257  1
  W  W21  1  0.500001  0.500000  0.500003  1
  W  W22  1  0.000010  0.000000  0.666744  1
  W  W23  1  0.500010  0.500000  0.833845  1
