# generated using pymatgen
data_SrBr37
_symmetry_space_group_name_H-M   'P 1'
_cell_length_a   14.20848141
_cell_length_b   15.29732181
_cell_length_c   14.42416200
_cell_angle_alpha   103.00376457
_cell_angle_beta   48.80056783
_cell_angle_gamma   81.50743146
_symmetry_Int_Tables_number   1
_chemical_formula_structural   SrBr37
_chemical_formula_sum   'Sr1 Br37'
_cell_volume   2102.91272627
_cell_formula_units_Z   1
loop_
 _symmetry_equiv_pos_site_id
 _symmetry_equiv_pos_as_xyz
  1  'x, y, z'
loop_
 _atom_site_type_symbol
 _atom_site_label
 _atom_site_symmetry_multiplicity
 _atom_site_fract_x
 _atom_site_fract_y
 _atom_site_fract_z
 _atom_site_occupancy
  Sr  Sr0  1  0.500000  0.000000  0.000000  1
  Br  Br1  1  0.779855  0.300076  0.137989  1
  Br  Br2  1  0.220145  0.699924  0.862011  1
  Br  Br3  1  0.738179  0.084822  0.365661  1
  Br  Br4  1  0.261821  0.915178  0.634339  1
  Br  Br5  1  0.123600  0.349963  0.165903  1
  Br  Br6  1  0.876400  0.650037  0.834097  1
  Br  Br7  1  0.862143  0.524474  0.245318  1
  Br  Br8  1  0.137857  0.475526  0.754682  1
  Br  Br9  1  0.684982  0.275103  0.522797  1
  Br  Br10  1  0.315018  0.724897  0.477203  1
  Br  Br11  1  0.036618  0.143637  0.497206  1
  Br  Br12  1  0.963382  0.856363  0.502794  1
  Br  Br13  1  0.971066  0.009947  0.290537  1
  Br  Br14  1  0.028934  0.990053  0.709463  1
  Br  Br15  1  0.946269  0.337088  0.608867  1
  Br  Br16  1  0.053731  0.662912  0.391133  1
  Br  Br17  1  0.572191  0.431010  0.235654  1
  Br  Br18  1  0.427809  0.568990  0.764346  1
  Br  Br19  1  0.172730  0.479656  0.280215  1
  Br  Br20  1  0.827270  0.520344  0.719785  1
  Br  Br21  1  0.000000  0.500000  0.000000  1
  Br  Br22  1  0.558525  0.952493  0.160641  1
  Br  Br23  1  0.441475  0.047507  0.839359  1
  Br  Br24  1  0.301907  0.049236  0.325980  1
  Br  Br25  1  0.698093  0.950764  0.674020  1
  Br  Br26  1  0.524851  0.136233  0.417308  1
  Br  Br27  1  0.475149  0.863767  0.582692  1
  Br  Br28  1  0.103921  0.216802  0.059682  1
  Br  Br29  1  0.896079  0.783198  0.940318  1
  Br  Br30  1  0.663586  0.687113  0.401641  1
  Br  Br31  1  0.336414  0.312887  0.598359  1
  Br  Br32  1  0.899974  0.146596  0.920405  1
  Br  Br33  1  0.100026  0.853404  0.079595  1
  Br  Br34  1  0.421179  0.214414  0.102080  1
  Br  Br35  1  0.578821  0.785586  0.897920  1
  Br  Br36  1  0.655137  0.427940  0.649099  1
  Br  Br37  1  0.344863  0.572060  0.350901  1
