# generated using pymatgen
data_Ac3LaSi4
_symmetry_space_group_name_H-M   'P 1'
_cell_length_a   7.39318639
_cell_length_b   7.39318639
_cell_length_c   6.74261100
_cell_angle_alpha   90.00000000
_cell_angle_beta   90.00000000
_cell_angle_gamma   142.81776365
_symmetry_Int_Tables_number   1
_chemical_formula_structural   Ac3LaSi4
_chemical_formula_sum   'Ac3 La1 Si4'
_cell_volume   222.73141467
_cell_formula_units_Z   1
loop_
 _symmetry_equiv_pos_site_id
 _symmetry_equiv_pos_as_xyz
  1  'x, y, z'
loop_
 _atom_site_type_symbol
 _atom_site_label
 _atom_site_symmetry_multiplicity
 _atom_site_fract_x
 _atom_site_fract_y
 _atom_site_fract_z
 _atom_site_occupancy
  Ac  Ac0  1  0.276167  0.723833  0.250000  1
  Ac  Ac1  1  0.725175  0.274825  0.750000  1
  Ac  Ac2  1  0.550292  0.449708  0.250000  1
  La  La3  1  0.451642  0.548358  0.750000  1
  Si  Si4  1  0.085647  0.914353  0.932671  1
  Si  Si5  1  0.912715  0.087285  0.059640  1
  Si  Si6  1  0.912715  0.087285  0.440360  1
  Si  Si7  1  0.085647  0.914353  0.567329  1
