# generated using pymatgen
data_Ce3Y(CuSi3)2
_symmetry_space_group_name_H-M   'P 1'
_cell_length_a   8.12567308
_cell_length_b   8.05959131
_cell_length_c   5.80401951
_cell_angle_alpha   69.59601559
_cell_angle_beta   68.37808694
_cell_angle_gamma   42.02588189
_symmetry_Int_Tables_number   1
_chemical_formula_structural   Ce3Y(CuSi3)2
_chemical_formula_sum   'Ce3 Y1 Cu2 Si6'
_cell_volume   234.84067697
_cell_formula_units_Z   1
loop_
 _symmetry_equiv_pos_site_id
 _symmetry_equiv_pos_as_xyz
  1  'x, y, z'
loop_
 _atom_site_type_symbol
 _atom_site_label
 _atom_site_symmetry_multiplicity
 _atom_site_fract_x
 _atom_site_fract_y
 _atom_site_fract_z
 _atom_site_occupancy
  Ce  Ce0  1  0.243816  0.756183  0.243818  1
  Ce  Ce1  1  0.249643  0.250357  0.249642  1
  Ce  Ce2  1  0.749642  0.750358  0.749642  1
  Y  Y3  1  0.756810  0.243190  0.756811  1
  Cu  Cu4  1  0.666665  0.665661  0.334340  1
  Cu  Cu5  1  0.334339  0.333334  0.666667  1
  Si  Si6  1  0.831074  0.832134  0.167867  1
  Si  Si7  1  0.829418  0.338956  0.170652  1
  Si  Si8  1  0.661044  0.170582  0.339026  1
  Si  Si9  1  0.339024  0.829349  0.661045  1
  Si  Si10  1  0.170650  0.660976  0.829419  1
  Si  Si11  1  0.167866  0.168925  0.831076  1
