# generated using pymatgen
data_Ce12Tm8Ir11Os
_symmetry_space_group_name_H-M   'P 1'
_cell_length_a   10.99269723
_cell_length_b   11.04716323
_cell_length_c   6.25831400
_cell_angle_alpha   90.00000000
_cell_angle_beta   90.00000000
_cell_angle_gamma   89.97679042
_symmetry_Int_Tables_number   1
_chemical_formula_structural   Ce12Tm8Ir11Os
_chemical_formula_sum   'Ce12 Tm8 Ir11 Os1'
_cell_volume   759.99782762
_cell_formula_units_Z   1
loop_
 _symmetry_equiv_pos_site_id
 _symmetry_equiv_pos_as_xyz
  1  'x, y, z'
loop_
 _atom_site_type_symbol
 _atom_site_label
 _atom_site_symmetry_multiplicity
 _atom_site_fract_x
 _atom_site_fract_y
 _atom_site_fract_z
 _atom_site_occupancy
  Ce  Ce0  1  0.290263  0.090180  0.377173  1
  Ce  Ce1  1  0.290112  0.909847  0.880770  1
  Ce  Ce2  1  0.709888  0.090153  0.880770  1
  Ce  Ce3  1  0.709737  0.909820  0.377173  1
  Ce  Ce4  1  0.592275  0.787184  0.884306  1
  Ce  Ce5  1  0.592206  0.212668  0.380742  1
  Ce  Ce6  1  0.407794  0.787332  0.380742  1
  Ce  Ce7  1  0.407725  0.212816  0.884306  1
  Ce  Ce8  1  0.205967  0.411104  0.618013  1
  Ce  Ce9  1  0.205869  0.588767  0.117787  1
  Ce  Ce10  1  0.794131  0.411233  0.117787  1
  Ce  Ce11  1  0.794033  0.588896  0.618013  1
  Tm  Tm12  1  0.915429  0.712607  0.118227  1
  Tm  Tm13  1  0.915378  0.287347  0.618336  1
  Tm  Tm14  1  0.084622  0.712653  0.618336  1
  Tm  Tm15  1  0.084571  0.287393  0.118227  1
  Tm  Tm16  1  0.000000  0.000000  0.496503  1
  Tm  Tm17  1  0.000000  0.000000  0.996353  1
  Tm  Tm18  1  0.500000  0.500000  0.008099  1
  Tm  Tm19  1  0.500000  0.500000  0.508157  1
  Ir  Ir20  1  0.847017  0.152316  0.244152  1
  Ir  Ir21  1  0.846469  0.848004  0.743496  1
  Ir  Ir22  1  0.153531  0.151996  0.743496  1
  Ir  Ir23  1  0.152983  0.847684  0.244152  1
  Ir  Ir24  1  0.655334  0.344771  0.754591  1
  Ir  Ir25  1  0.655700  0.654913  0.255242  1
  Ir  Ir26  1  0.344300  0.345087  0.255242  1
  Ir  Ir27  1  0.344666  0.655229  0.754591  1
  Ir  Ir28  1  0.500000  0.000000  0.621987  1
  Ir  Ir29  1  0.000000  0.500000  0.880215  1
  Ir  Ir30  1  0.000000  0.500000  0.380289  1
  Os  Os31  1  0.500000  0.000000  0.122728  1
