# generated using pymatgen
data_Ho7Lu(Sc3Si4)4
_symmetry_space_group_name_H-M   'P 1'
_cell_length_a   7.07652139
_cell_length_b   7.36526061
_cell_length_c   13.96221764
_cell_angle_alpha   89.96914180
_cell_angle_beta   89.98415272
_cell_angle_gamma   89.96516446
_symmetry_Int_Tables_number   1
_chemical_formula_structural   Ho7Lu(Sc3Si4)4
_chemical_formula_sum   'Ho7 Lu1 Sc12 Si16'
_cell_volume   727.71643923
_cell_formula_units_Z   1
loop_
 _symmetry_equiv_pos_site_id
 _symmetry_equiv_pos_as_xyz
  1  'x, y, z'
loop_
 _atom_site_type_symbol
 _atom_site_label
 _atom_site_symmetry_multiplicity
 _atom_site_fract_x
 _atom_site_fract_y
 _atom_site_fract_z
 _atom_site_occupancy
  Ho  Ho0  1  0.988078  0.824755  0.903334  1
  Ho  Ho1  1  0.487767  0.675389  0.903214  1
  Ho  Ho2  1  0.987897  0.824632  0.596932  1
  Ho  Ho3  1  0.512181  0.324259  0.096959  1
  Ho  Ho4  1  0.012086  0.175424  0.403274  1
  Ho  Ho5  1  0.512027  0.324555  0.402877  1
  Ho  Ho6  1  0.487941  0.675407  0.596951  1
  Lu  Lu7  1  0.012183  0.175936  0.097383  1
  Sc  Sc8  1  0.160806  0.502872  0.750031  1
  Sc  Sc9  1  0.839483  0.496881  0.249762  1
  Sc  Sc10  1  0.339003  0.003073  0.249814  1
  Sc  Sc11  1  0.660665  0.997268  0.749980  1
  Sc  Sc12  1  0.330588  0.176783  0.625089  1
  Sc  Sc13  1  0.669405  0.823189  0.374729  1
  Sc  Sc14  1  0.169381  0.676832  0.374752  1
  Sc  Sc15  1  0.669678  0.823656  0.125091  1
  Sc  Sc16  1  0.830734  0.323205  0.625088  1
  Sc  Sc17  1  0.330439  0.176804  0.875027  1
  Sc  Sc18  1  0.830997  0.322762  0.875025  1
  Sc  Sc19  1  0.169123  0.677063  0.125091  1
  Si  Si20  1  0.033098  0.116868  0.750057  1
  Si  Si21  1  0.967057  0.883781  0.249751  1
  Si  Si22  1  0.466929  0.617032  0.249962  1
  Si  Si23  1  0.533136  0.383068  0.750059  1
  Si  Si24  1  0.285320  0.873126  0.749991  1
  Si  Si25  1  0.715421  0.127093  0.249521  1
  Si  Si26  1  0.214101  0.372392  0.249529  1
  Si  Si27  1  0.785290  0.626800  0.749992  1
  Si  Si28  1  0.158103  0.464889  0.539430  1
  Si  Si29  1  0.841837  0.535167  0.460567  1
  Si  Si30  1  0.342094  0.964802  0.460529  1
  Si  Si31  1  0.842339  0.534284  0.039677  1
  Si  Si32  1  0.658059  0.035148  0.539403  1
  Si  Si33  1  0.157755  0.464099  0.960837  1
  Si  Si34  1  0.658424  0.035203  0.960662  1
  Si  Si35  1  0.340574  0.965503  0.039629  1
