# generated using pymatgen
data_Er3Sc2(In2Cu)2
_symmetry_space_group_name_H-M   'P 1'
_cell_length_a   3.58836600
_cell_length_b   7.83996500
_cell_length_c   17.55717000
_cell_angle_alpha   90.00000000
_cell_angle_beta   90.00000000
_cell_angle_gamma   90.00000000
_symmetry_Int_Tables_number   1
_chemical_formula_structural   Er3Sc2(In2Cu)2
_chemical_formula_sum   'Er6 Sc4 In8 Cu4'
_cell_volume   493.92996172
_cell_formula_units_Z   2
loop_
 _symmetry_equiv_pos_site_id
 _symmetry_equiv_pos_as_xyz
  1  'x, y, z'
loop_
 _atom_site_type_symbol
 _atom_site_label
 _atom_site_symmetry_multiplicity
 _atom_site_fract_x
 _atom_site_fract_y
 _atom_site_fract_z
 _atom_site_occupancy
  Er  Er0  1  0.000000  0.000000  0.000000  1
  Er  Er1  1  0.000000  0.500000  0.500000  1
  Er  Er2  1  0.000000  0.761582  0.786781  1
  Er  Er3  1  0.000000  0.238418  0.213219  1
  Er  Er4  1  0.000000  0.261582  0.713219  1
  Er  Er5  1  0.000000  0.738418  0.286781  1
  Sc  Sc6  1  0.000000  0.879105  0.585332  1
  Sc  Sc7  1  0.000000  0.120895  0.414668  1
  Sc  Sc8  1  0.000000  0.379105  0.914668  1
  Sc  Sc9  1  0.000000  0.620895  0.085332  1
  In  In10  1  0.500000  0.810347  0.439868  1
  In  In11  1  0.500000  0.189653  0.560132  1
  In  In12  1  0.500000  0.310347  0.060132  1
  In  In13  1  0.500000  0.689653  0.939868  1
  In  In14  1  0.500000  0.909025  0.152178  1
  In  In15  1  0.500000  0.090975  0.847822  1
  In  In16  1  0.500000  0.409025  0.347822  1
  In  In17  1  0.500000  0.590975  0.652178  1
  Cu  Cu18  1  0.500000  0.967570  0.695705  1
  Cu  Cu19  1  0.500000  0.032430  0.304295  1
  Cu  Cu20  1  0.500000  0.467570  0.804295  1
  Cu  Cu21  1  0.500000  0.532430  0.195705  1
