# generated using pymatgen
data_Dy2Ho2Tm2GaCo2
_symmetry_space_group_name_H-M   'P 1'
_cell_length_a   8.23529771
_cell_length_b   8.23529646
_cell_length_c   8.23529707
_cell_angle_alpha   106.98946340
_cell_angle_beta   109.29734595
_cell_angle_gamma   112.16861753
_symmetry_Int_Tables_number   1
_chemical_formula_structural   Dy2Ho2Tm2GaCo2
_chemical_formula_sum   'Dy4 Ho4 Tm4 Ga2 Co4'
_cell_volume   429.06380612
_cell_formula_units_Z   2
loop_
 _symmetry_equiv_pos_site_id
 _symmetry_equiv_pos_as_xyz
  1  'x, y, z'
loop_
 _atom_site_type_symbol
 _atom_site_label
 _atom_site_symmetry_multiplicity
 _atom_site_fract_x
 _atom_site_fract_y
 _atom_site_fract_z
 _atom_site_occupancy
  Dy  Dy0  1  0.698647  0.262029  0.960676  1
  Dy  Dy1  1  0.301353  0.737971  0.039324  1
  Dy  Dy2  1  0.698647  0.737971  0.436620  1
  Dy  Dy3  1  0.301353  0.262029  0.563380  1
  Ho  Ho4  1  0.600725  0.780944  0.819780  1
  Ho  Ho5  1  0.961163  0.780944  0.180220  1
  Ho  Ho6  1  0.038837  0.219056  0.819780  1
  Ho  Ho7  1  0.399275  0.219056  0.180220  1
  Tm  Tm8  1  0.811504  0.138755  0.327251  1
  Tm  Tm9  1  0.811504  0.484251  0.672749  1
  Tm  Tm10  1  0.188496  0.861245  0.672749  1
  Tm  Tm11  1  0.188496  0.515749  0.327251  1
  Ga  Ga12  1  0.500000  0.500000  0.000000  1
  Ga  Ga13  1  0.500000  0.000000  0.500000  1
  Co  Co14  1  0.841552  0.500000  0.341552  1
  Co  Co15  1  0.158448  0.500000  0.658448  1
  Co  Co16  1  0.000000  0.115608  0.115608  1
  Co  Co17  1  0.000000  0.884392  0.884392  1
