# generated using pymatgen
data_KUSe2
_symmetry_space_group_name_H-M   'P 1'
_cell_length_a   8.21338373
_cell_length_b   8.21338335
_cell_length_c   8.21338477
_cell_angle_alpha   29.58913392
_cell_angle_beta   29.58914209
_cell_angle_gamma   29.58913025
_symmetry_Int_Tables_number   1
_chemical_formula_structural   KUSe2
_chemical_formula_sum   'K1 U1 Se2'
_cell_volume   119.58923057
_cell_formula_units_Z   1
loop_
 _symmetry_equiv_pos_site_id
 _symmetry_equiv_pos_as_xyz
  1  'x, y, z'
loop_
 _atom_site_type_symbol
 _atom_site_label
 _atom_site_symmetry_multiplicity
 _atom_site_fract_x
 _atom_site_fract_y
 _atom_site_fract_z
 _atom_site_occupancy
  K  K0  1  0.500000  0.500000  0.500000  1
  U  U1  1  0.000000  0.000000  0.000000  1
  Se  Se2  1  0.736627  0.736627  0.736627  1
  Se  Se3  1  0.263373  0.263373  0.263373  1
