# generated using pymatgen
data_Dy4YTm3Au4
_symmetry_space_group_name_H-M   'P 1'
_cell_length_a   4.90908600
_cell_length_b   7.13473816
_cell_length_c   8.90165200
_cell_angle_alpha   90.09181317
_cell_angle_beta   90.00000000
_cell_angle_gamma   90.00000000
_symmetry_Int_Tables_number   1
_chemical_formula_structural   Dy4YTm3Au4
_chemical_formula_sum   'Dy4 Y1 Tm3 Au4'
_cell_volume   311.78034570
_cell_formula_units_Z   1
loop_
 _symmetry_equiv_pos_site_id
 _symmetry_equiv_pos_as_xyz
  1  'x, y, z'
loop_
 _atom_site_type_symbol
 _atom_site_label
 _atom_site_symmetry_multiplicity
 _atom_site_fract_x
 _atom_site_fract_y
 _atom_site_fract_z
 _atom_site_occupancy
  Dy  Dy0  1  0.750000  0.647915  0.419463  1
  Dy  Dy1  1  0.250000  0.484984  0.176130  1
  Dy  Dy2  1  0.750000  0.514442  0.823402  1
  Dy  Dy3  1  0.750000  0.014951  0.677417  1
  Y  Y4  1  0.250000  0.987535  0.323535  1
  Tm  Tm5  1  0.250000  0.851890  0.920927  1
  Tm  Tm6  1  0.250000  0.352424  0.580644  1
  Tm  Tm7  1  0.750000  0.148538  0.078599  1
  Au  Au8  1  0.250000  0.252832  0.899792  1
  Au  Au9  1  0.250000  0.753833  0.603083  1
  Au  Au10  1  0.750000  0.747005  0.096977  1
  Au  Au11  1  0.750000  0.243650  0.400031  1
