# generated using pymatgen
data_ErZr3(Al3Co)6
_symmetry_space_group_name_H-M   'P 1'
_cell_length_a   7.28574313
_cell_length_b   7.29348555
_cell_length_c   9.08822600
_cell_angle_alpha   90.00000000
_cell_angle_beta   90.00000000
_cell_angle_gamma   119.42323291
_symmetry_Int_Tables_number   1
_chemical_formula_structural   ErZr3(Al3Co)6
_chemical_formula_sum   'Er1 Zr3 Al18 Co6'
_cell_volume   420.64291323
_cell_formula_units_Z   1
loop_
 _symmetry_equiv_pos_site_id
 _symmetry_equiv_pos_as_xyz
  1  'x, y, z'
loop_
 _atom_site_type_symbol
 _atom_site_label
 _atom_site_symmetry_multiplicity
 _atom_site_fract_x
 _atom_site_fract_y
 _atom_site_fract_z
 _atom_site_occupancy
  Er  Er0  1  0.992644  0.672733  0.250000  1
  Zr  Zr1  1  0.007411  0.327214  0.750000  1
  Zr  Zr2  1  0.672054  0.993035  0.250000  1
  Zr  Zr3  1  0.327251  0.007324  0.750000  1
  Al  Al4  1  0.994701  0.332759  0.071497  1
  Al  Al5  1  0.004956  0.664770  0.924480  1
  Al  Al6  1  0.004956  0.664770  0.575520  1
  Al  Al7  1  0.337218  0.996658  0.428552  1
  Al  Al8  1  0.994701  0.332759  0.428503  1
  Al  Al9  1  0.665163  0.005404  0.573528  1
  Al  Al10  1  0.665163  0.005404  0.926472  1
  Al  Al11  1  0.337218  0.996658  0.071448  1
  Al  Al12  1  0.343138  0.560538  0.250000  1
  Al  Al13  1  0.660423  0.438529  0.750000  1
  Al  Al14  1  0.555720  0.334692  0.250000  1
  Al  Al15  1  0.439807  0.661367  0.750000  1
  Al  Al16  1  0.330166  0.330062  0.548323  1
  Al  Al17  1  0.667990  0.669927  0.454547  1
  Al  Al18  1  0.667990  0.669927  0.045453  1
  Al  Al19  1  0.330166  0.330062  0.951677  1
  Al  Al20  1  0.120405  0.123609  0.250000  1
  Al  Al21  1  0.880864  0.881557  0.750000  1
  Co  Co22  1  0.671335  0.327773  0.999100  1
  Co  Co23  1  0.327822  0.671518  0.998558  1
  Co  Co24  1  0.327822  0.671518  0.501442  1
  Co  Co25  1  0.671335  0.327773  0.500900  1
  Co  Co26  1  0.000792  0.000831  0.998913  1
  Co  Co27  1  0.000792  0.000831  0.501087  1
