# generated using pymatgen
data_Eu4NiSn4Rh3
_symmetry_space_group_name_H-M   'P 1'
_cell_length_a   7.44305069
_cell_length_b   4.55207300
_cell_length_c   8.10064505
_cell_angle_alpha   90.00000000
_cell_angle_beta   90.33573321
_cell_angle_gamma   90.00000000
_symmetry_Int_Tables_number   1
_chemical_formula_structural   Eu4NiSn4Rh3
_chemical_formula_sum   'Eu4 Ni1 Sn4 Rh3'
_cell_volume   274.45575483
_cell_formula_units_Z   1
loop_
 _symmetry_equiv_pos_site_id
 _symmetry_equiv_pos_as_xyz
  1  'x, y, z'
loop_
 _atom_site_type_symbol
 _atom_site_label
 _atom_site_symmetry_multiplicity
 _atom_site_fract_x
 _atom_site_fract_y
 _atom_site_fract_z
 _atom_site_occupancy
  Eu  Eu0  1  0.528941  0.250000  0.178179  1
  Eu  Eu1  1  0.028388  0.250000  0.320332  1
  Eu  Eu2  1  0.974233  0.750000  0.680516  1
  Eu  Eu3  1  0.472458  0.750000  0.818852  1
  Ni  Ni4  1  0.208231  0.750000  0.113116  1
  Sn  Sn5  1  0.848459  0.750000  0.072045  1
  Sn  Sn6  1  0.342184  0.750000  0.423543  1
  Sn  Sn7  1  0.653944  0.250000  0.570413  1
  Sn  Sn8  1  0.159326  0.250000  0.935846  1
  Rh  Rh9  1  0.713585  0.750000  0.386408  1
  Rh  Rh10  1  0.283233  0.250000  0.612603  1
  Rh  Rh11  1  0.787018  0.250000  0.888151  1
