# generated using pymatgen
data_Tb6TiAl23(OsRu3)2
_symmetry_space_group_name_H-M   'P 1'
_cell_length_a   8.87282990
_cell_length_b   8.87283073
_cell_length_c   9.58519503
_cell_angle_alpha   90.00735499
_cell_angle_beta   89.99264672
_cell_angle_gamma   120.30961034
_symmetry_Int_Tables_number   1
_chemical_formula_structural   Tb6TiAl23(OsRu3)2
_chemical_formula_sum   'Tb6 Ti1 Al23 Os2 Ru6'
_cell_volume   651.46716618
_cell_formula_units_Z   1
loop_
 _symmetry_equiv_pos_site_id
 _symmetry_equiv_pos_as_xyz
  1  'x, y, z'
loop_
 _atom_site_type_symbol
 _atom_site_label
 _atom_site_symmetry_multiplicity
 _atom_site_fract_x
 _atom_site_fract_y
 _atom_site_fract_z
 _atom_site_occupancy
  Tb  Tb0  1  0.196858  0.387789  0.250177  1
  Tb  Tb1  1  0.804171  0.613036  0.748435  1
  Tb  Tb2  1  0.612211  0.803142  0.250177  1
  Tb  Tb3  1  0.386964  0.195829  0.748435  1
  Tb  Tb4  1  0.192357  0.807643  0.251473  1
  Tb  Tb5  1  0.807912  0.192088  0.748501  1
  Ti  Ti6  1  0.331838  0.668162  0.992159  1
  Al  Al7  1  0.666910  0.333090  0.984265  1
  Al  Al8  1  0.666990  0.333010  0.513904  1
  Al  Al9  1  0.333192  0.666808  0.483890  1
  Al  Al10  1  0.161569  0.323914  0.576260  1
  Al  Al11  1  0.837973  0.675297  0.423652  1
  Al  Al12  1  0.676086  0.838431  0.576260  1
  Al  Al13  1  0.837837  0.674705  0.077029  1
  Al  Al14  1  0.324703  0.162027  0.423652  1
  Al  Al15  1  0.159447  0.318076  0.924712  1
  Al  Al16  1  0.161198  0.838802  0.577504  1
  Al  Al17  1  0.325295  0.162163  0.077029  1
  Al  Al18  1  0.838307  0.161693  0.422499  1
  Al  Al19  1  0.681924  0.840553  0.924712  1
  Al  Al20  1  0.838045  0.161955  0.078061  1
  Al  Al21  1  0.158001  0.841999  0.923814  1
  Al  Al22  1  0.561752  0.122267  0.252566  1
  Al  Al23  1  0.440134  0.881681  0.749820  1
  Al  Al24  1  0.877733  0.438248  0.252566  1
  Al  Al25  1  0.118319  0.559866  0.749820  1
  Al  Al26  1  0.563267  0.436733  0.252520  1
  Al  Al27  1  0.439244  0.560756  0.750557  1
  Al  Al28  1  0.999579  0.000421  0.249554  1
  Al  Al29  1  0.000174  0.999826  0.748931  1
  Os  Os30  1  0.498384  0.501616  0.003408  1
  Os  Os31  1  0.499720  0.500280  0.502876  1
  Ru  Ru32  1  0.498580  0.996731  0.002810  1
  Ru  Ru33  1  0.003269  0.501420  0.002810  1
  Ru  Ru34  1  0.499491  0.999293  0.503060  1
  Ru  Ru35  1  0.000707  0.500509  0.503060  1
  Ru  Ru36  1  0.999941  0.000059  0.000107  1
  Ru  Ru37  1  0.999920  0.000080  0.498937  1
