# generated using pymatgen
data_Tb8SbPd13Pt11
_symmetry_space_group_name_H-M   'P 1'
_cell_length_a   8.40808500
_cell_length_b   8.42497200
_cell_length_c   8.44029600
_cell_angle_alpha   90.00000000
_cell_angle_beta   90.00000000
_cell_angle_gamma   90.00000000
_symmetry_Int_Tables_number   1
_chemical_formula_structural   Tb8SbPd13Pt11
_chemical_formula_sum   'Tb8 Sb1 Pd13 Pt11'
_cell_volume   597.89268111
_cell_formula_units_Z   1
loop_
 _symmetry_equiv_pos_site_id
 _symmetry_equiv_pos_as_xyz
  1  'x, y, z'
loop_
 _atom_site_type_symbol
 _atom_site_label
 _atom_site_symmetry_multiplicity
 _atom_site_fract_x
 _atom_site_fract_y
 _atom_site_fract_z
 _atom_site_occupancy
  Tb  Tb0  1  0.745662  0.746235  0.254449  1
  Tb  Tb1  1  0.745662  0.253765  0.745551  1
  Tb  Tb2  1  0.254546  0.745818  0.744673  1
  Tb  Tb3  1  0.745662  0.746235  0.745551  1
  Tb  Tb4  1  0.745662  0.253765  0.254449  1
  Tb  Tb5  1  0.254546  0.254182  0.744673  1
  Tb  Tb6  1  0.254546  0.745818  0.255327  1
  Tb  Tb7  1  0.254546  0.254182  0.255327  1
  Sb  Sb8  1  0.999601  0.000000  0.000000  1
  Pd  Pd9  1  0.000179  0.000000  0.303871  1
  Pd  Pd10  1  0.499613  0.735502  0.000000  1
  Pd  Pd11  1  0.746858  0.500000  0.500000  1
  Pd  Pd12  1  0.305441  0.000000  0.000000  1
  Pd  Pd13  1  0.000179  0.000000  0.696129  1
  Pd  Pd14  1  0.999954  0.500000  0.263443  1
  Pd  Pd15  1  0.000057  0.305432  0.000000  1
  Pd  Pd16  1  0.000057  0.694568  0.000000  1
  Pd  Pd17  1  0.693976  0.000000  0.000000  1
  Pd  Pd18  1  0.263687  0.500000  0.000000  1
  Pd  Pd19  1  0.262605  0.000000  0.500000  1
  Pd  Pd20  1  0.999954  0.500000  0.736557  1
  Pd  Pd21  1  0.499613  0.264498  0.000000  1
  Pt  Pt22  1  0.737163  0.000000  0.500000  1
  Pt  Pt23  1  0.736091  0.500000  0.000000  1
  Pt  Pt24  1  0.499859  0.000000  0.736533  1
  Pt  Pt25  1  0.000174  0.736666  0.500000  1
  Pt  Pt26  1  0.499859  0.000000  0.263467  1
  Pt  Pt27  1  0.000174  0.263334  0.500000  1
  Pt  Pt28  1  0.253320  0.500000  0.500000  1
  Pt  Pt29  1  0.500275  0.500000  0.746801  1
  Pt  Pt30  1  0.500275  0.500000  0.253199  1
  Pt  Pt31  1  0.500101  0.253815  0.500000  1
  Pt  Pt32  1  0.500101  0.746185  0.500000  1
