# generated using pymatgen
data_Li3Mn(Al2Ir)4
_symmetry_space_group_name_H-M   'P 1'
_cell_length_a   4.27952614
_cell_length_b   5.96935300
_cell_length_c   8.58012327
_cell_angle_alpha   90.00000000
_cell_angle_beta   90.02887658
_cell_angle_gamma   90.00000000
_symmetry_Int_Tables_number   1
_chemical_formula_structural   Li3Mn(Al2Ir)4
_chemical_formula_sum   'Li3 Mn1 Al8 Ir4'
_cell_volume   219.18781997
_cell_formula_units_Z   1
loop_
 _symmetry_equiv_pos_site_id
 _symmetry_equiv_pos_as_xyz
  1  'x, y, z'
loop_
 _atom_site_type_symbol
 _atom_site_label
 _atom_site_symmetry_multiplicity
 _atom_site_fract_x
 _atom_site_fract_y
 _atom_site_fract_z
 _atom_site_occupancy
  Li  Li0  1  0.747318  0.749999  0.378273  1
  Li  Li1  1  0.252700  0.250000  0.625051  1
  Li  Li2  1  0.752565  0.749999  0.871644  1
  Mn  Mn3  1  0.248472  0.250000  0.125022  1
  Al  Al4  1  0.748311  0.504872  0.124985  1
  Al  Al5  1  0.748311  0.995130  0.124985  1
  Al  Al6  1  0.247914  0.000320  0.377025  1
  Al  Al7  1  0.247914  0.499680  0.377025  1
  Al  Al8  1  0.751664  0.492993  0.624981  1
  Al  Al9  1  0.751664  0.007009  0.624981  1
  Al  Al10  1  0.251900  0.000312  0.873013  1
  Al  Al11  1  0.251900  0.499688  0.873013  1
  Ir  Ir12  1  0.248208  0.749999  0.125019  1
  Ir  Ir13  1  0.747974  0.250000  0.368860  1
  Ir  Ir14  1  0.251536  0.749999  0.625017  1
  Ir  Ir15  1  0.751648  0.250000  0.881112  1
