# generated using pymatgen
data_Er4Al17Ga(Ir2Pt)2
_symmetry_space_group_name_H-M   'P 1'
_cell_length_a   7.56196228
_cell_length_b   7.56239398
_cell_length_c   9.45121723
_cell_angle_alpha   89.94185093
_cell_angle_beta   89.93988264
_cell_angle_gamma   119.74979442
_symmetry_Int_Tables_number   1
_chemical_formula_structural   Er4Al17Ga(Ir2Pt)2
_chemical_formula_sum   'Er4 Al17 Ga1 Ir4 Pt2'
_cell_volume   469.24614376
_cell_formula_units_Z   1
loop_
 _symmetry_equiv_pos_site_id
 _symmetry_equiv_pos_as_xyz
  1  'x, y, z'
loop_
 _atom_site_type_symbol
 _atom_site_label
 _atom_site_symmetry_multiplicity
 _atom_site_fract_x
 _atom_site_fract_y
 _atom_site_fract_z
 _atom_site_occupancy
  Er  Er0  1  0.997121  0.669792  0.751235  1
  Er  Er1  1  0.007103  0.333324  0.248525  1
  Er  Er2  1  0.669818  0.995867  0.751265  1
  Er  Er3  1  0.329411  0.001424  0.248601  1
  Al  Al4  1  0.126119  0.125967  0.750507  1
  Al  Al5  1  0.874524  0.875750  0.249417  1
  Al  Al6  1  0.000190  0.330919  0.577269  1
  Al  Al7  1  0.998445  0.668879  0.422661  1
  Al  Al8  1  0.999225  0.665403  0.074391  1
  Al  Al9  1  0.334417  0.999725  0.925296  1
  Al  Al10  1  0.999349  0.334481  0.925493  1
  Al  Al11  1  0.665892  0.000658  0.074327  1
  Al  Al12  1  0.668974  0.999717  0.422698  1
  Al  Al13  1  0.331073  0.001163  0.577470  1
  Al  Al14  1  0.332438  0.332005  0.051750  1
  Al  Al15  1  0.667814  0.667894  0.944729  1
  Al  Al16  1  0.669208  0.669385  0.561990  1
  Al  Al17  1  0.330950  0.330907  0.440707  1
  Al  Al18  1  0.339383  0.546083  0.753151  1
  Al  Al19  1  0.658606  0.451041  0.246963  1
  Al  Al20  1  0.546735  0.339148  0.753023  1
  Ga  Ga21  1  0.457172  0.658856  0.247301  1
  Ir  Ir22  1  0.326985  0.672315  0.997969  1
  Ir  Ir23  1  0.671662  0.328344  0.000094  1
  Ir  Ir24  1  0.999322  0.999805  0.499869  1
  Ir  Ir25  1  0.999454  0.999764  0.000044  1
  Pt  Pt26  1  0.672090  0.328317  0.499924  1
  Pt  Pt27  1  0.326520  0.673071  0.503334  1
