# generated using pymatgen
data_Er3Tm(B6Os)2
_symmetry_space_group_name_H-M   'P 1'
_cell_length_a   3.62652700
_cell_length_b   9.09367009
_cell_length_c   11.47052811
_cell_angle_alpha   90.01603774
_cell_angle_beta   90.00000000
_cell_angle_gamma   90.00000000
_symmetry_Int_Tables_number   1
_chemical_formula_structural   Er3Tm(B6Os)2
_chemical_formula_sum   'Er6 Tm2 B24 Os4'
_cell_volume   378.28010953
_cell_formula_units_Z   2
loop_
 _symmetry_equiv_pos_site_id
 _symmetry_equiv_pos_as_xyz
  1  'x, y, z'
loop_
 _atom_site_type_symbol
 _atom_site_label
 _atom_site_symmetry_multiplicity
 _atom_site_fract_x
 _atom_site_fract_y
 _atom_site_fract_z
 _atom_site_occupancy
  Er  Er0  1  0.000000  0.322059  0.413856  1
  Er  Er1  1  0.000000  0.677941  0.586144  1
  Er  Er2  1  0.000000  0.821732  0.086023  1
  Er  Er3  1  0.000000  0.178268  0.913977  1
  Er  Er4  1  0.000000  0.944063  0.373044  1
  Er  Er5  1  0.000000  0.055937  0.626957  1
  Tm  Tm6  1  0.000000  0.444087  0.126733  1
  Tm  Tm7  1  0.000000  0.555913  0.873266  1
  B  B8  1  0.500000  0.553559  0.433315  1
  B  B9  1  0.500000  0.446441  0.566685  1
  B  B10  1  0.500000  0.053877  0.066500  1
  B  B11  1  0.500000  0.946123  0.933500  1
  B  B12  1  0.500000  0.748135  0.420208  1
  B  B13  1  0.500000  0.251865  0.579792  1
  B  B14  1  0.500000  0.248827  0.079649  1
  B  B15  1  0.500000  0.751173  0.920351  1
  B  B16  1  0.500000  0.791338  0.266123  1
  B  B17  1  0.500000  0.208662  0.733877  1
  B  B18  1  0.500000  0.291939  0.233514  1
  B  B19  1  0.500000  0.708060  0.766486  1
  B  B20  1  0.500000  0.631331  0.184785  1
  B  B21  1  0.500000  0.368669  0.815215  1
  B  B22  1  0.500000  0.131961  0.314825  1
  B  B23  1  0.500000  0.868039  0.685175  1
  B  B24  1  0.500000  0.982790  0.212921  1
  B  B25  1  0.500000  0.017210  0.787079  1
  B  B26  1  0.500000  0.482424  0.286648  1
  B  B27  1  0.500000  0.517576  0.713352  1
  B  B28  1  0.500000  0.606439  0.029525  1
  B  B29  1  0.500000  0.393561  0.970475  1
  B  B30  1  0.500000  0.107758  0.470153  1
  B  B31  1  0.500000  0.892242  0.529847  1
  Os  Os32  1  0.000000  0.637077  0.321076  1
  Os  Os33  1  0.000000  0.362923  0.678924  1
  Os  Os34  1  0.000000  0.137874  0.178467  1
  Os  Os35  1  0.000000  0.862126  0.821533  1
