# generated using pymatgen
data_Sc10BiPb5O2
_symmetry_space_group_name_H-M   'P 1'
_cell_length_a   8.62567676
_cell_length_b   8.62567513
_cell_length_c   8.63649145
_cell_angle_alpha   126.13451509
_cell_angle_beta   126.13451174
_cell_angle_gamma   79.58103250
_symmetry_Int_Tables_number   1
_chemical_formula_structural   Sc10BiPb5O2
_chemical_formula_sum   'Sc10 Bi1 Pb5 O2'
_cell_volume   405.18501845
_cell_formula_units_Z   1
loop_
 _symmetry_equiv_pos_site_id
 _symmetry_equiv_pos_as_xyz
  1  'x, y, z'
loop_
 _atom_site_type_symbol
 _atom_site_label
 _atom_site_symmetry_multiplicity
 _atom_site_fract_x
 _atom_site_fract_y
 _atom_site_fract_z
 _atom_site_occupancy
  Sc  Sc0  1  0.995854  0.198645  0.501663  1
  Sc  Sc1  1  0.801024  0.301024  0.793829  1
  Sc  Sc2  1  0.492805  0.992805  0.793829  1
  Sc  Sc3  1  0.505181  0.005181  0.204152  1
  Sc  Sc4  1  0.005809  0.803017  0.501663  1
  Sc  Sc5  1  0.498319  0.500190  0.998509  1
  Sc  Sc6  1  0.198971  0.698971  0.204152  1
  Sc  Sc7  1  0.698645  0.495854  0.501663  1
  Sc  Sc8  1  0.303017  0.505809  0.501663  1
  Sc  Sc9  1  0.000190  0.998319  0.998509  1
  Bi  Bi10  1  0.848994  0.348994  0.197987  1
  Pb  Pb11  1  0.152106  0.652106  0.804213  1
  Pb  Pb12  1  0.349113  0.150426  0.499539  1
  Pb  Pb13  1  0.750251  0.750251  0.000502  1
  Pb  Pb14  1  0.650426  0.849113  0.499539  1
  Pb  Pb15  1  0.250251  0.250251  0.000502  1
  O  O16  1  0.749796  0.249796  0.499044  1
  O  O17  1  0.249247  0.749247  0.499044  1
