# generated using pymatgen
data_Y3(Cd2Sn)2
_symmetry_space_group_name_H-M   'P 1'
_cell_length_a   7.56818800
_cell_length_b   7.56818881
_cell_length_c   4.57717200
_cell_angle_alpha   90.00000000
_cell_angle_beta   90.00000000
_cell_angle_gamma   119.99999647
_symmetry_Int_Tables_number   1
_chemical_formula_structural   Y3(Cd2Sn)2
_chemical_formula_sum   'Y3 Cd4 Sn2'
_cell_volume   227.04489921
_cell_formula_units_Z   1
loop_
 _symmetry_equiv_pos_site_id
 _symmetry_equiv_pos_as_xyz
  1  'x, y, z'
loop_
 _atom_site_type_symbol
 _atom_site_label
 _atom_site_symmetry_multiplicity
 _atom_site_fract_x
 _atom_site_fract_y
 _atom_site_fract_z
 _atom_site_occupancy
  Y  Y0  1  0.000000  0.577186  0.000000  1
  Y  Y1  1  0.577186  0.000000  0.000000  1
  Y  Y2  1  0.422814  0.422814  0.000000  1
  Cd  Cd3  1  0.000000  0.240574  0.500000  1
  Cd  Cd4  1  0.759426  0.759426  0.500000  1
  Cd  Cd5  1  0.240574  0.000000  0.500000  1
  Cd  Cd6  1  0.000000  0.000000  0.000000  1
  Sn  Sn7  1  0.333333  0.666667  0.500000  1
  Sn  Sn8  1  0.666667  0.333333  0.500000  1
