# generated using pymatgen
data_Hf4Al7Cu
_symmetry_space_group_name_H-M   'P 1'
_cell_length_a   5.26997700
_cell_length_b   5.20872555
_cell_length_c   8.61865100
_cell_angle_alpha   90.00000000
_cell_angle_beta   90.00000000
_cell_angle_gamma   120.38975965
_symmetry_Int_Tables_number   1
_chemical_formula_structural   Hf4Al7Cu
_chemical_formula_sum   'Hf4 Al7 Cu1'
_cell_volume   204.07556435
_cell_formula_units_Z   1
loop_
 _symmetry_equiv_pos_site_id
 _symmetry_equiv_pos_as_xyz
  1  'x, y, z'
loop_
 _atom_site_type_symbol
 _atom_site_label
 _atom_site_symmetry_multiplicity
 _atom_site_fract_x
 _atom_site_fract_y
 _atom_site_fract_z
 _atom_site_occupancy
  Hf  Hf0  1  0.335126  0.670253  0.433538  1
  Hf  Hf1  1  0.665686  0.331371  0.933618  1
  Hf  Hf2  1  0.665686  0.331371  0.566382  1
  Hf  Hf3  1  0.335126  0.670253  0.066462  1
  Al  Al4  1  0.830314  0.171606  0.250000  1
  Al  Al5  1  0.341293  0.171606  0.250000  1
  Al  Al6  1  0.647102  0.814227  0.750000  1
  Al  Al7  1  0.007277  0.014555  0.990985  1
  Al  Al8  1  0.007277  0.014555  0.509015  1
  Al  Al9  1  0.830998  0.661995  0.250000  1
  Al  Al10  1  0.167124  0.814227  0.750000  1
  Cu  Cu11  1  0.166990  0.333981  0.750000  1
