# generated using pymatgen
data_SrPr6FeI12
_symmetry_space_group_name_H-M   'P 1'
_cell_length_a   10.11688624
_cell_length_b   10.11688610
_cell_length_c   10.11688607
_cell_angle_alpha   106.48777440
_cell_angle_beta   106.48778015
_cell_angle_gamma   106.48776275
_symmetry_Int_Tables_number   1
_chemical_formula_structural   SrPr6FeI12
_chemical_formula_sum   'Sr1 Pr6 Fe1 I12'
_cell_volume   874.12524405
_cell_formula_units_Z   1
loop_
 _symmetry_equiv_pos_site_id
 _symmetry_equiv_pos_as_xyz
  1  'x, y, z'
loop_
 _atom_site_type_symbol
 _atom_site_label
 _atom_site_symmetry_multiplicity
 _atom_site_fract_x
 _atom_site_fract_y
 _atom_site_fract_z
 _atom_site_occupancy
  Sr  Sr0  1  0.500000  0.500000  0.500000  1
  Pr  Pr1  1  0.094440  0.295246  0.021134  1
  Pr  Pr2  1  0.021134  0.094440  0.295246  1
  Pr  Pr3  1  0.295246  0.021134  0.094440  1
  Pr  Pr4  1  0.905560  0.704754  0.978866  1
  Pr  Pr5  1  0.978866  0.905560  0.704754  1
  Pr  Pr6  1  0.704754  0.978866  0.905560  1
  Fe  Fe7  1  0.000000  0.000000  0.000000  1
  I  I8  1  0.452770  0.372073  0.144160  1
  I  I9  1  0.144160  0.452770  0.372073  1
  I  I10  1  0.372073  0.144160  0.452770  1
  I  I11  1  0.547230  0.627927  0.855840  1
  I  I12  1  0.855840  0.547230  0.627927  1
  I  I13  1  0.627927  0.855840  0.547230  1
  I  I14  1  0.774503  0.319255  0.926567  1
  I  I15  1  0.926567  0.774503  0.319255  1
  I  I16  1  0.319255  0.926567  0.774503  1
  I  I17  1  0.225497  0.680745  0.073433  1
  I  I18  1  0.073433  0.225497  0.680745  1
  I  I19  1  0.680745  0.073433  0.225497  1
