# generated using pymatgen
data_Sc22Fe2Ru5Au
_symmetry_space_group_name_H-M   'P 1'
_cell_length_a   9.47563628
_cell_length_b   9.39294335
_cell_length_c   9.47563546
_cell_angle_alpha   60.28826480
_cell_angle_beta   59.77336498
_cell_angle_gamma   60.28826586
_symmetry_Int_Tables_number   1
_chemical_formula_structural   Sc22Fe2Ru5Au
_chemical_formula_sum   'Sc22 Fe2 Ru5 Au1'
_cell_volume   597.89685727
_cell_formula_units_Z   1
loop_
 _symmetry_equiv_pos_site_id
 _symmetry_equiv_pos_as_xyz
  1  'x, y, z'
loop_
 _atom_site_type_symbol
 _atom_site_label
 _atom_site_symmetry_multiplicity
 _atom_site_fract_x
 _atom_site_fract_y
 _atom_site_fract_z
 _atom_site_occupancy
  Sc  Sc0  1  0.809620  0.808156  0.190380  1
  Sc  Sc1  1  0.192068  0.807932  0.192068  1
  Sc  Sc2  1  0.809620  0.191844  0.190380  1
  Sc  Sc3  1  0.190380  0.191844  0.809620  1
  Sc  Sc4  1  0.807932  0.192068  0.807932  1
  Sc  Sc5  1  0.190380  0.808156  0.809620  1
  Sc  Sc6  1  0.605123  0.618064  0.158749  1
  Sc  Sc7  1  0.611263  0.156270  0.611263  1
  Sc  Sc8  1  0.158749  0.618064  0.605123  1
  Sc  Sc9  1  0.611263  0.621204  0.611263  1
  Sc  Sc10  1  0.394877  0.381936  0.841251  1
  Sc  Sc11  1  0.388737  0.843730  0.388737  1
  Sc  Sc12  1  0.841251  0.381936  0.394877  1
  Sc  Sc13  1  0.388737  0.378796  0.388737  1
  Sc  Sc14  1  0.844190  0.841890  0.472029  1
  Sc  Sc15  1  0.834734  0.477688  0.834734  1
  Sc  Sc16  1  0.472029  0.841890  0.844190  1
  Sc  Sc17  1  0.834734  0.852843  0.834734  1
  Sc  Sc18  1  0.155810  0.158110  0.527971  1
  Sc  Sc19  1  0.165266  0.522312  0.165266  1
  Sc  Sc20  1  0.527971  0.158110  0.155810  1
  Sc  Sc21  1  0.165266  0.147157  0.165266  1
  Fe  Fe22  1  0.000000  0.000000  0.000000  1
  Fe  Fe23  1  0.500000  0.500000  0.500000  1
  Ru  Ru24  1  0.000000  0.000000  0.500000  1
  Ru  Ru25  1  0.500000  0.000000  0.500000  1
  Ru  Ru26  1  0.000000  0.500000  0.500000  1
  Ru  Ru27  1  0.500000  0.500000  0.000000  1
  Ru  Ru28  1  0.500000  0.000000  0.000000  1
  Au  Au29  1  0.000000  0.500000  0.000000  1
