# generated using pymatgen
data_TbScP7IrRu11
_symmetry_space_group_name_H-M   'P 1'
_cell_length_a   9.36266058
_cell_length_b   9.40425506
_cell_length_c   3.93523300
_cell_angle_alpha   90.00000000
_cell_angle_beta   90.00000000
_cell_angle_gamma   119.72910994
_symmetry_Int_Tables_number   1
_chemical_formula_structural   TbScP7IrRu11
_chemical_formula_sum   'Tb1 Sc1 P7 Ir1 Ru11'
_cell_volume   300.88724756
_cell_formula_units_Z   1
loop_
 _symmetry_equiv_pos_site_id
 _symmetry_equiv_pos_as_xyz
  1  'x, y, z'
loop_
 _atom_site_type_symbol
 _atom_site_label
 _atom_site_symmetry_multiplicity
 _atom_site_fract_x
 _atom_site_fract_y
 _atom_site_fract_z
 _atom_site_occupancy
  Tb  Tb0  1  0.331732  0.663781  0.000000  1
  Sc  Sc1  1  0.667444  0.334575  0.500000  1
  P  P2  1  0.600686  0.714517  0.500000  1
  P  P3  1  0.999490  0.000075  0.000000  1
  P  P4  1  0.277093  0.879611  0.500000  1
  P  P5  1  0.117799  0.399104  0.500000  1
  P  P6  1  0.883954  0.572097  0.000000  1
  P  P7  1  0.430399  0.312678  0.000000  1
  P  P8  1  0.692157  0.121812  0.000000  1
  Ir  Ir9  1  0.552548  0.947124  0.500000  1
  Ru  Ru10  1  0.394578  0.441689  0.500000  1
  Ru  Ru11  1  0.913674  0.122957  0.500000  1
  Ru  Ru12  1  0.208289  0.085545  0.500000  1
  Ru  Ru13  1  0.878037  0.794374  0.500000  1
  Ru  Ru14  1  0.725925  0.893788  0.000000  1
  Ru  Ru15  1  0.108751  0.835493  0.000000  1
  Ru  Ru16  1  0.165104  0.271968  0.000000  1
  Ru  Ru17  1  0.429294  0.071812  0.000000  1
  Ru  Ru18  1  0.931098  0.357382  0.000000  1
  Ru  Ru19  1  0.644414  0.574993  0.000000  1
  Ru  Ru20  1  0.047535  0.604627  0.500000  1
