# generated using pymatgen
data_PrNd4ZrRuO12
_symmetry_space_group_name_H-M   'P 1'
_cell_length_a   7.16023030
_cell_length_b   7.16022971
_cell_length_c   7.65691049
_cell_angle_alpha   74.50836735
_cell_angle_beta   74.50836971
_cell_angle_gamma   50.73168183
_symmetry_Int_Tables_number   1
_chemical_formula_structural   PrNd4ZrRuO12
_chemical_formula_sum   'Pr1 Nd4 Zr1 Ru1 O12'
_cell_volume   290.33607005
_cell_formula_units_Z   1
loop_
 _symmetry_equiv_pos_site_id
 _symmetry_equiv_pos_as_xyz
  1  'x, y, z'
loop_
 _atom_site_type_symbol
 _atom_site_label
 _atom_site_symmetry_multiplicity
 _atom_site_fract_x
 _atom_site_fract_y
 _atom_site_fract_z
 _atom_site_occupancy
  Pr  Pr0  1  0.005925  0.994075  0.500000  1
  Nd  Nd1  1  0.297931  0.306612  0.359949  1
  Nd  Nd2  1  0.693388  0.702069  0.640051  1
  Nd  Nd3  1  0.686820  0.702181  0.166763  1
  Nd  Nd4  1  0.297819  0.313180  0.833237  1
  Zr  Zr5  1  0.770642  0.229358  0.000000  1
  Ru  Ru6  1  0.255810  0.744190  0.000000  1
  O  O7  1  0.092453  0.596953  0.574890  1
  O  O8  1  0.022452  0.977024  0.182940  1
  O  O9  1  0.403047  0.907547  0.425110  1
  O  O10  1  0.493511  0.508095  0.181011  1
  O  O11  1  0.099094  0.583830  0.081108  1
  O  O12  1  0.901449  0.407733  0.421823  1
  O  O13  1  0.022976  0.977548  0.817060  1
  O  O14  1  0.592267  0.098550  0.578177  1
  O  O15  1  0.491905  0.506489  0.818989  1
  O  O16  1  0.561400  0.105060  0.082168  1
  O  O17  1  0.416170  0.900906  0.918892  1
  O  O18  1  0.894940  0.438600  0.917832  1
