# generated using pymatgen
data_Ca3Ga2SnIr2
_symmetry_space_group_name_H-M   'P 1'
_cell_length_a   5.93496000
_cell_length_b   8.17748500
_cell_length_c   15.17514400
_cell_angle_alpha   90.00000000
_cell_angle_beta   90.00000000
_cell_angle_gamma   90.00000000
_symmetry_Int_Tables_number   1
_chemical_formula_structural   Ca3Ga2SnIr2
_chemical_formula_sum   'Ca12 Ga8 Sn4 Ir8'
_cell_volume   736.49596751
_cell_formula_units_Z   4
loop_
 _symmetry_equiv_pos_site_id
 _symmetry_equiv_pos_as_xyz
  1  'x, y, z'
loop_
 _atom_site_type_symbol
 _atom_site_label
 _atom_site_symmetry_multiplicity
 _atom_site_fract_x
 _atom_site_fract_y
 _atom_site_fract_z
 _atom_site_occupancy
  Ca  Ca0  1  0.891770  0.452634  0.104080  1
  Ca  Ca1  1  0.391770  0.047366  0.895920  1
  Ca  Ca2  1  0.608230  0.952634  0.395920  1
  Ca  Ca3  1  0.108230  0.547366  0.604080  1
  Ca  Ca4  1  0.108230  0.547366  0.895920  1
  Ca  Ca5  1  0.608230  0.952634  0.104080  1
  Ca  Ca6  1  0.391770  0.047366  0.604080  1
  Ca  Ca7  1  0.891770  0.452634  0.395920  1
  Ca  Ca8  1  0.373592  0.296400  0.250000  1
  Ca  Ca9  1  0.873592  0.203600  0.750000  1
  Ca  Ca10  1  0.126408  0.796400  0.250000  1
  Ca  Ca11  1  0.626408  0.703600  0.750000  1
  Ga  Ga12  1  0.378866  0.324474  0.039087  1
  Ga  Ga13  1  0.878866  0.175526  0.960913  1
  Ga  Ga14  1  0.121134  0.824474  0.460913  1
  Ga  Ga15  1  0.621134  0.675526  0.539087  1
  Ga  Ga16  1  0.621134  0.675526  0.960913  1
  Ga  Ga17  1  0.121134  0.824474  0.039087  1
  Ga  Ga18  1  0.878866  0.175526  0.539087  1
  Ga  Ga19  1  0.378866  0.324474  0.460913  1
  Sn  Sn20  1  0.894479  0.147005  0.250000  1
  Sn  Sn21  1  0.394479  0.352995  0.750000  1
  Sn  Sn22  1  0.605521  0.647005  0.250000  1
  Sn  Sn23  1  0.105521  0.852995  0.750000  1
  Ir  Ir24  1  0.119738  0.111553  0.094279  1
  Ir  Ir25  1  0.619738  0.388447  0.905721  1
  Ir  Ir26  1  0.380262  0.611553  0.405721  1
  Ir  Ir27  1  0.880262  0.888447  0.594279  1
  Ir  Ir28  1  0.880262  0.888447  0.905721  1
  Ir  Ir29  1  0.380262  0.611553  0.094279  1
  Ir  Ir30  1  0.619738  0.388447  0.594279  1
  Ir  Ir31  1  0.119738  0.111553  0.405721  1
