# generated using pymatgen
data_Zr4Al23CuPt9
_symmetry_space_group_name_H-M   'P 1'
_cell_length_a   7.45890472
_cell_length_b   7.47051179
_cell_length_c   12.93309400
_cell_angle_alpha   84.45860046
_cell_angle_beta   78.71789820
_cell_angle_gamma   59.95257640
_symmetry_Int_Tables_number   1
_chemical_formula_structural   Zr4Al23CuPt9
_chemical_formula_sum   'Zr4 Al23 Cu1 Pt9'
_cell_volume   611.75232216
_cell_formula_units_Z   1
loop_
 _symmetry_equiv_pos_site_id
 _symmetry_equiv_pos_as_xyz
  1  'x, y, z'
loop_
 _atom_site_type_symbol
 _atom_site_label
 _atom_site_symmetry_multiplicity
 _atom_site_fract_x
 _atom_site_fract_y
 _atom_site_fract_z
 _atom_site_occupancy
  Zr  Zr0  1  0.391022  0.166560  0.812564  1
  Zr  Zr1  1  0.611268  0.830927  0.185416  1
  Zr  Zr2  1  0.730216  0.500958  0.812226  1
  Zr  Zr3  1  0.267545  0.501515  0.188574  1
  Al  Al4  1  0.329832  0.156175  0.054756  1
  Al  Al5  1  0.145735  0.832810  0.565011  1
  Al  Al6  1  0.853967  0.167022  0.437117  1
  Al  Al7  1  0.479781  0.167112  0.562223  1
  Al  Al8  1  0.519402  0.833071  0.439103  1
  Al  Al9  1  0.222556  0.164692  0.322039  1
  Al  Al10  1  0.776954  0.834799  0.677481  1
  Al  Al11  1  0.435824  0.504177  0.680182  1
  Al  Al12  1  0.563009  0.495847  0.321903  1
  Al  Al13  1  0.105767  0.162576  0.678404  1
  Al  Al14  1  0.892043  0.837907  0.323817  1
  Al  Al15  1  0.357010  0.497508  0.940538  1
  Al  Al16  1  0.647459  0.512313  0.054794  1
  Al  Al17  1  0.018148  0.169176  0.949665  1
  Al  Al18  1  0.976801  0.831231  0.043256  1
  Al  Al19  1  0.186534  0.500107  0.439778  1
  Al  Al20  1  0.812574  0.500031  0.562154  1
  Al  Al21  1  0.729466  0.165550  0.183010  1
  Al  Al22  1  0.269489  0.836293  0.817620  1
  Al  Al23  1  0.050825  0.631171  0.819828  1
  Al  Al24  1  0.941905  0.371173  0.184487  1
  Al  Al25  1  0.844044  0.042815  0.820552  1
  Al  Al26  1  0.149581  0.951521  0.183457  1
  Cu  Cu27  1  0.687605  0.834694  0.930567  1
  Pt  Pt28  1  0.120399  0.490889  0.640822  1
  Pt  Pt29  1  0.879182  0.509920  0.361334  1
  Pt  Pt30  1  0.656145  0.184712  0.001468  1
  Pt  Pt31  1  0.335867  0.827054  0.001724  1
  Pt  Pt32  1  0.535864  0.166612  0.361435  1
  Pt  Pt33  1  0.462531  0.833510  0.639074  1
  Pt  Pt34  1  0.778389  0.175817  0.639304  1
  Pt  Pt35  1  0.222224  0.823402  0.362687  1
  Pt  Pt36  1  0.013035  0.488353  0.001633  1
