# generated using pymatgen
data_NaSr4Tl(TeO6)2
_symmetry_space_group_name_H-M   'P 1'
_cell_length_a   5.84069472
_cell_length_b   5.94608484
_cell_length_c   8.28982797
_cell_angle_alpha   89.90678498
_cell_angle_beta   89.99182052
_cell_angle_gamma   89.92673141
_symmetry_Int_Tables_number   1
_chemical_formula_structural   NaSr4Tl(TeO6)2
_chemical_formula_sum   'Na1 Sr4 Tl1 Te2 O12'
_cell_volume   287.89902403
_cell_formula_units_Z   1
loop_
 _symmetry_equiv_pos_site_id
 _symmetry_equiv_pos_as_xyz
  1  'x, y, z'
loop_
 _atom_site_type_symbol
 _atom_site_label
 _atom_site_symmetry_multiplicity
 _atom_site_fract_x
 _atom_site_fract_y
 _atom_site_fract_z
 _atom_site_occupancy
  Na  Na0  1  0.500000  0.500000  0.000000  1
  Sr  Sr1  1  0.009036  0.460217  0.235615  1
  Sr  Sr2  1  0.990964  0.539783  0.764385  1
  Sr  Sr3  1  0.487517  0.950043  0.234093  1
  Sr  Sr4  1  0.512483  0.049957  0.765907  1
  Tl  Tl5  1  0.000000  0.000000  0.500000  1
  Te  Te6  1  0.000000  0.000000  0.000000  1
  Te  Te7  1  0.500000  0.500000  0.500000  1
  O  O8  1  0.910853  0.031980  0.234257  1
  O  O9  1  0.089147  0.968020  0.765743  1
  O  O10  1  0.587854  0.529445  0.278055  1
  O  O11  1  0.412146  0.470556  0.721945  1
  O  O12  1  0.186959  0.737871  0.043941  1
  O  O13  1  0.813041  0.262129  0.956059  1
  O  O14  1  0.318645  0.226516  0.442310  1
  O  O15  1  0.681355  0.773484  0.557690  1
  O  O16  1  0.262482  0.191057  0.034684  1
  O  O17  1  0.737518  0.808943  0.965316  1
  O  O18  1  0.225303  0.688676  0.449216  1
  O  O19  1  0.774697  0.311324  0.550784  1
