# generated using pymatgen
data_Dy3Y5(LuIn5)4
_symmetry_space_group_name_H-M   'P 1'
_cell_length_a   6.54318102
_cell_length_b   10.35364202
_cell_length_c   12.17509802
_cell_angle_alpha   90.00389080
_cell_angle_beta   89.99550875
_cell_angle_gamma   90.00653126
_symmetry_Int_Tables_number   1
_chemical_formula_structural   Dy3Y5(LuIn5)4
_chemical_formula_sum   'Dy3 Y5 Lu4 In20'
_cell_volume   824.81118445
_cell_formula_units_Z   1
loop_
 _symmetry_equiv_pos_site_id
 _symmetry_equiv_pos_as_xyz
  1  'x, y, z'
loop_
 _atom_site_type_symbol
 _atom_site_label
 _atom_site_symmetry_multiplicity
 _atom_site_fract_x
 _atom_site_fract_y
 _atom_site_fract_z
 _atom_site_occupancy
  Dy  Dy0  1  0.887084  0.488937  0.142054  1
  Dy  Dy1  1  0.612898  0.011059  0.642080  1
  Dy  Dy2  1  0.112909  0.988972  0.857936  1
  Y  Y3  1  0.387042  0.511068  0.357856  1
  Y  Y4  1  0.112916  0.511054  0.858012  1
  Y  Y5  1  0.387114  0.988929  0.357980  1
  Y  Y6  1  0.887075  0.011082  0.142000  1
  Y  Y7  1  0.612946  0.488916  0.642065  1
  Lu  Lu8  1  0.352691  0.750026  0.052276  1
  Lu  Lu9  1  0.147309  0.750020  0.552283  1
  Lu  Lu10  1  0.647343  0.250011  0.947739  1
  Lu  Lu11  1  0.852669  0.249950  0.447752  1
  In  In12  1  0.610190  0.749980  0.505739  1
  In  In13  1  0.889742  0.750000  0.005710  1
  In  In14  1  0.389826  0.250034  0.494196  1
  In  In15  1  0.110212  0.250011  0.994276  1
  In  In16  1  0.650320  0.749967  0.241638  1
  In  In17  1  0.849736  0.750064  0.741610  1
  In  In18  1  0.349742  0.250008  0.758396  1
  In  In19  1  0.150188  0.249991  0.258407  1
  In  In20  1  0.117765  0.750033  0.278041  1
  In  In21  1  0.382208  0.749955  0.778002  1
  In  In22  1  0.882153  0.250020  0.722007  1
  In  In23  1  0.617865  0.250029  0.222053  1
  In  In24  1  0.871496  0.542958  0.401298  1
  In  In25  1  0.628578  0.956969  0.901402  1
  In  In26  1  0.128518  0.043022  0.598650  1
  In  In27  1  0.371473  0.456991  0.098602  1
  In  In28  1  0.128450  0.456913  0.598673  1
  In  In29  1  0.371514  0.043076  0.098546  1
  In  In30  1  0.871609  0.956993  0.401323  1
  In  In31  1  0.628417  0.542962  0.901397  1
