# generated using pymatgen
data_Ho20HgBi8Os3
_symmetry_space_group_name_H-M   'P 1'
_cell_length_a   7.99348462
_cell_length_b   9.11744100
_cell_length_c   12.37577192
_cell_angle_alpha   90.00000000
_cell_angle_beta   89.96718432
_cell_angle_gamma   90.00000000
_symmetry_Int_Tables_number   1
_chemical_formula_structural   Ho20HgBi8Os3
_chemical_formula_sum   'Ho20 Hg1 Bi8 Os3'
_cell_volume   901.94764998
_cell_formula_units_Z   1
loop_
 _symmetry_equiv_pos_site_id
 _symmetry_equiv_pos_as_xyz
  1  'x, y, z'
loop_
 _atom_site_type_symbol
 _atom_site_label
 _atom_site_symmetry_multiplicity
 _atom_site_fract_x
 _atom_site_fract_y
 _atom_site_fract_z
 _atom_site_occupancy
  Ho  Ho0  1  0.324488  0.750000  0.725681  1
  Ho  Ho1  1  0.661135  0.250000  0.289772  1
  Ho  Ho2  1  0.841205  0.250000  0.792187  1
  Ho  Ho3  1  0.156995  0.750000  0.205215  1
  Ho  Ho4  1  0.875214  0.750000  0.803466  1
  Ho  Ho5  1  0.119026  0.250000  0.194044  1
  Ho  Ho6  1  0.378065  0.250000  0.692732  1
  Ho  Ho7  1  0.637559  0.750000  0.292879  1
  Ho  Ho8  1  0.682564  0.527930  0.568057  1
  Ho  Ho9  1  0.321445  0.439778  0.433643  1
  Ho  Ho10  1  0.173621  0.460591  0.937488  1
  Ho  Ho11  1  0.321445  0.060222  0.433643  1
  Ho  Ho12  1  0.825537  0.544131  0.062234  1
  Ho  Ho13  1  0.682564  0.972070  0.568057  1
  Ho  Ho14  1  0.825537  0.955869  0.062234  1
  Ho  Ho15  1  0.173621  0.039409  0.937488  1
  Ho  Ho16  1  0.034996  0.750000  0.500998  1
  Ho  Ho17  1  0.949569  0.250000  0.501986  1
  Ho  Ho18  1  0.561126  0.250000  0.002906  1
  Ho  Ho19  1  0.446406  0.750000  0.999297  1
  Hg  Hg20  1  0.422910  0.750000  0.487128  1
  Bi  Bi21  1  0.567719  0.508695  0.827491  1
  Bi  Bi22  1  0.431246  0.490997  0.173729  1
  Bi  Bi23  1  0.073056  0.490039  0.670910  1
  Bi  Bi24  1  0.431246  0.009003  0.173729  1
  Bi  Bi25  1  0.929758  0.509505  0.329133  1
  Bi  Bi26  1  0.567719  0.991305  0.827491  1
  Bi  Bi27  1  0.929758  0.990495  0.329133  1
  Bi  Bi28  1  0.073056  0.009961  0.670910  1
  Os  Os29  1  0.078258  0.750000  0.985409  1
  Os  Os30  1  0.925007  0.250000  0.010763  1
  Os  Os31  1  0.578152  0.250000  0.510168  1
