# generated using pymatgen
data_CaY2ErB16
_symmetry_space_group_name_H-M   'P 1'
_cell_length_a   7.11267680
_cell_length_b   7.11267544
_cell_length_c   4.02960100
_cell_angle_alpha   90.00000000
_cell_angle_beta   90.00000000
_cell_angle_gamma   89.99768810
_symmetry_Int_Tables_number   1
_chemical_formula_structural   CaY2ErB16
_chemical_formula_sum   'Ca1 Y2 Er1 B16'
_cell_volume   203.85816530
_cell_formula_units_Z   1
loop_
 _symmetry_equiv_pos_site_id
 _symmetry_equiv_pos_as_xyz
  1  'x, y, z'
loop_
 _atom_site_type_symbol
 _atom_site_label
 _atom_site_symmetry_multiplicity
 _atom_site_fract_x
 _atom_site_fract_y
 _atom_site_fract_z
 _atom_site_occupancy
  Ca  Ca0  1  0.180797  0.680797  0.000000  1
  Y  Y1  1  0.681834  0.818204  0.000000  1
  Y  Y2  1  0.318204  0.181834  0.000000  1
  Er  Er3  1  0.819003  0.319003  0.000000  1
  B  B4  1  0.324322  0.461097  0.500000  1
  B  B5  1  0.676925  0.537226  0.500000  1
  B  B6  1  0.539274  0.324393  0.500000  1
  B  B7  1  0.462776  0.675530  0.500000  1
  B  B8  1  0.999890  0.999639  0.202913  1
  B  B9  1  0.499639  0.499890  0.797087  1
  B  B10  1  0.999890  0.999639  0.797087  1
  B  B11  1  0.499639  0.499890  0.202913  1
  B  B12  1  0.587195  0.087195  0.500000  1
  B  B13  1  0.085940  0.412728  0.500000  1
  B  B14  1  0.912728  0.585940  0.500000  1
  B  B15  1  0.413697  0.913697  0.500000  1
  B  B16  1  0.037226  0.176925  0.500000  1
  B  B17  1  0.175530  0.962776  0.500000  1
  B  B18  1  0.824393  0.039274  0.500000  1
  B  B19  1  0.961097  0.824322  0.500000  1
