# generated using pymatgen
data_Ce2P4IrRuRh2
_symmetry_space_group_name_H-M   'P 1'
_cell_length_a   4.17578700
_cell_length_b   4.17490500
_cell_length_c   9.48916800
_cell_angle_alpha   90.00000000
_cell_angle_beta   90.00000000
_cell_angle_gamma   90.00000000
_symmetry_Int_Tables_number   1
_chemical_formula_structural   Ce2P4IrRuRh2
_chemical_formula_sum   'Ce2 P4 Ir1 Ru1 Rh2'
_cell_volume   165.42954342
_cell_formula_units_Z   1
loop_
 _symmetry_equiv_pos_site_id
 _symmetry_equiv_pos_as_xyz
  1  'x, y, z'
loop_
 _atom_site_type_symbol
 _atom_site_label
 _atom_site_symmetry_multiplicity
 _atom_site_fract_x
 _atom_site_fract_y
 _atom_site_fract_z
 _atom_site_occupancy
  Ce  Ce0  1  0.000000  0.500000  0.243943  1
  Ce  Ce1  1  0.500000  0.000000  0.756560  1
  P  P2  1  0.000000  0.000000  0.999314  1
  P  P3  1  0.500000  0.500000  0.999259  1
  P  P4  1  0.000000  0.500000  0.634771  1
  P  P5  1  0.500000  0.000000  0.364997  1
  Ir  Ir6  1  0.500000  0.000000  0.114202  1
  Ru  Ru7  1  0.000000  0.000000  0.500091  1
  Rh  Rh8  1  0.500000  0.500000  0.500165  1
  Rh  Rh9  1  0.000000  0.500000  0.886697  1
