# generated using pymatgen
data_PrSm4(RhO6)2
_symmetry_space_group_name_H-M   'P 1'
_cell_length_a   7.02755994
_cell_length_b   7.02756050
_cell_length_c   7.50730227
_cell_angle_alpha   74.54760249
_cell_angle_beta   74.54759696
_cell_angle_gamma   50.96706412
_symmetry_Int_Tables_number   1
_chemical_formula_structural   PrSm4(RhO6)2
_chemical_formula_sum   'Pr1 Sm4 Rh2 O12'
_cell_volume   275.17011224
_cell_formula_units_Z   1
loop_
 _symmetry_equiv_pos_site_id
 _symmetry_equiv_pos_as_xyz
  1  'x, y, z'
loop_
 _atom_site_type_symbol
 _atom_site_label
 _atom_site_symmetry_multiplicity
 _atom_site_fract_x
 _atom_site_fract_y
 _atom_site_fract_z
 _atom_site_occupancy
  Pr  Pr0  1  0.000000  0.000000  0.500000  1
  Sm  Sm1  1  0.304503  0.304503  0.358051  1
  Sm  Sm2  1  0.695497  0.695497  0.641949  1
  Sm  Sm3  1  0.693039  0.693039  0.166478  1
  Sm  Sm4  1  0.306961  0.306961  0.833522  1
  Rh  Rh5  1  0.753573  0.246427  0.000000  1
  Rh  Rh6  1  0.246427  0.753573  0.000000  1
  O  O7  1  0.095449  0.591873  0.578296  1
  O  O8  1  0.998837  0.998837  0.175363  1
  O  O9  1  0.408127  0.904551  0.421704  1
  O  O10  1  0.500137  0.500137  0.181969  1
  O  O11  1  0.099701  0.574901  0.080534  1
  O  O12  1  0.904551  0.408127  0.421704  1
  O  O13  1  0.001163  0.001163  0.824637  1
  O  O14  1  0.591873  0.095448  0.578296  1
  O  O15  1  0.499863  0.499863  0.818031  1
  O  O16  1  0.574901  0.099701  0.080534  1
  O  O17  1  0.425099  0.900299  0.919466  1
  O  O18  1  0.900299  0.425099  0.919466  1
