# generated using pymatgen
data_Y3Sc7Si20(Ir3Pt)2
_symmetry_space_group_name_H-M   'P 1'
_cell_length_a   12.45352906
_cell_length_b   12.49351095
_cell_length_c   4.15265800
_cell_angle_alpha   90.00000000
_cell_angle_beta   90.00000000
_cell_angle_gamma   90.10893450
_symmetry_Int_Tables_number   1
_chemical_formula_structural   Y3Sc7Si20(Ir3Pt)2
_chemical_formula_sum   'Y3 Sc7 Si20 Ir6 Pt2'
_cell_volume   646.10383789
_cell_formula_units_Z   1
loop_
 _symmetry_equiv_pos_site_id
 _symmetry_equiv_pos_as_xyz
  1  'x, y, z'
loop_
 _atom_site_type_symbol
 _atom_site_label
 _atom_site_symmetry_multiplicity
 _atom_site_fract_x
 _atom_site_fract_y
 _atom_site_fract_z
 _atom_site_occupancy
  Y  Y0  1  0.115388  0.614112  0.500000  1
  Y  Y1  1  0.884817  0.385637  0.500000  1
  Y  Y2  1  0.614410  0.885287  0.500000  1
  Sc  Sc3  1  0.385026  0.115270  0.500000  1
  Sc  Sc4  1  0.673209  0.174706  0.500000  1
  Sc  Sc5  1  0.325290  0.826756  0.500000  1
  Sc  Sc6  1  0.176216  0.325636  0.500000  1
  Sc  Sc7  1  0.824687  0.673428  0.500000  1
  Sc  Sc8  1  0.000531  0.000082  0.000000  1
  Sc  Sc9  1  0.499951  0.499536  0.000000  1
  Si  Si10  1  0.566428  0.067230  0.000000  1
  Si  Si11  1  0.432304  0.934020  0.000000  1
  Si  Si12  1  0.068826  0.434108  0.000000  1
  Si  Si13  1  0.931432  0.565399  0.000000  1
  Si  Si14  1  0.205908  0.165343  0.000000  1
  Si  Si15  1  0.796072  0.834404  0.000000  1
  Si  Si16  1  0.168115  0.800434  0.000000  1
  Si  Si17  1  0.698383  0.335320  0.000000  1
  Si  Si18  1  0.832123  0.200584  0.000000  1
  Si  Si19  1  0.300479  0.664345  0.000000  1
  Si  Si20  1  0.663823  0.699035  0.000000  1
  Si  Si21  1  0.336452  0.299922  0.000000  1
  Si  Si22  1  0.008354  0.148062  0.500000  1
  Si  Si23  1  0.993539  0.852205  0.500000  1
  Si  Si24  1  0.152287  0.993730  0.500000  1
  Si  Si25  1  0.505819  0.346822  0.500000  1
  Si  Si26  1  0.849763  0.010027  0.500000  1
  Si  Si27  1  0.489973  0.651050  0.500000  1
  Si  Si28  1  0.650500  0.507573  0.500000  1
  Si  Si29  1  0.349305  0.490866  0.500000  1
  Ir  Ir30  1  0.245183  0.980577  0.000000  1
  Ir  Ir31  1  0.519977  0.253568  0.000000  1
  Ir  Ir32  1  0.756417  0.020962  0.000000  1
  Ir  Ir33  1  0.478338  0.744857  0.000000  1
  Ir  Ir34  1  0.742610  0.521361  0.000000  1
  Ir  Ir35  1  0.257295  0.477945  0.000000  1
  Pt  Pt36  1  0.022233  0.243014  0.000000  1
  Pt  Pt37  1  0.978538  0.756788  0.000000  1
