# generated using pymatgen
data_Er4GaSn5Ir7
_symmetry_space_group_name_H-M   'P 1'
_cell_length_a   7.52693123
_cell_length_b   7.52693213
_cell_length_c   7.52693173
_cell_angle_alpha   109.02130553
_cell_angle_beta   109.69664218
_cell_angle_gamma   109.69664560
_symmetry_Int_Tables_number   1
_chemical_formula_structural   Er4GaSn5Ir7
_chemical_formula_sum   'Er4 Ga1 Sn5 Ir7'
_cell_volume   328.25548028
_cell_formula_units_Z   1
loop_
 _symmetry_equiv_pos_site_id
 _symmetry_equiv_pos_as_xyz
  1  'x, y, z'
loop_
 _atom_site_type_symbol
 _atom_site_label
 _atom_site_symmetry_multiplicity
 _atom_site_fract_x
 _atom_site_fract_y
 _atom_site_fract_z
 _atom_site_occupancy
  Er  Er0  1  0.000000  0.988839  0.523996  1
  Er  Er1  1  0.000000  0.523996  0.988839  1
  Er  Er2  1  0.464844  0.988839  0.988839  1
  Er  Er3  1  0.535156  0.523996  0.523996  1
  Ga  Ga4  1  0.000000  0.664882  0.664882  1
  Sn  Sn5  1  0.687206  0.699135  0.011929  1
  Sn  Sn6  1  0.312794  0.011929  0.324723  1
  Sn  Sn7  1  0.000000  0.295959  0.295959  1
  Sn  Sn8  1  0.312794  0.324723  0.011929  1
  Sn  Sn9  1  0.687206  0.011929  0.699135  1
  Ir  Ir10  1  0.754257  0.248955  0.494697  1
  Ir  Ir11  1  0.754257  0.494697  0.248955  1
  Ir  Ir12  1  0.500000  0.258515  0.758515  1
  Ir  Ir13  1  0.245743  0.494697  0.740439  1
  Ir  Ir14  1  0.245743  0.740439  0.494697  1
  Ir  Ir15  1  0.500000  0.758515  0.258515  1
  Ir  Ir16  1  0.000000  0.969955  0.969955  1
