# generated using pymatgen
data_Cu3NiBi4(TeO6)4
_symmetry_space_group_name_H-M   'P 1'
_cell_length_a   5.22301584
_cell_length_b   9.04663403
_cell_length_c   9.96971816
_cell_angle_alpha   89.99770932
_cell_angle_beta   90.00529988
_cell_angle_gamma   90.00327024
_symmetry_Int_Tables_number   1
_chemical_formula_structural   Cu3NiBi4(TeO6)4
_chemical_formula_sum   'Cu3 Ni1 Bi4 Te4 O24'
_cell_volume   471.07628617
_cell_formula_units_Z   1
loop_
 _symmetry_equiv_pos_site_id
 _symmetry_equiv_pos_as_xyz
  1  'x, y, z'
loop_
 _atom_site_type_symbol
 _atom_site_label
 _atom_site_symmetry_multiplicity
 _atom_site_fract_x
 _atom_site_fract_y
 _atom_site_fract_z
 _atom_site_occupancy
  Cu  Cu0  1  0.500103  0.833528  0.750006  1
  Cu  Cu1  1  0.499919  0.165928  0.249999  1
  Cu  Cu2  1  0.000062  0.332994  0.749999  1
  Ni  Ni3  1  0.999927  0.667223  0.250000  1
  Bi  Bi4  1  0.995933  0.997577  0.495295  1
  Bi  Bi5  1  0.503365  0.502468  0.495567  1
  Bi  Bi6  1  0.004047  0.997580  0.004703  1
  Bi  Bi7  1  0.496610  0.502469  0.004433  1
  Te  Te8  1  0.500055  0.167311  0.750001  1
  Te  Te9  1  0.000084  0.666066  0.750001  1
  Te  Te10  1  0.999933  0.333542  0.249997  1
  Te  Te11  1  0.499941  0.833126  0.249998  1
  O  O12  1  0.630959  0.003711  0.640601  1
  O  O13  1  0.131464  0.503497  0.640647  1
  O  O14  1  0.680272  0.314028  0.640549  1
  O  O15  1  0.178001  0.813493  0.640715  1
  O  O16  1  0.190067  0.182862  0.640965  1
  O  O17  1  0.689653  0.682450  0.640390  1
  O  O18  1  0.177917  0.183553  0.141647  1
  O  O19  1  0.670857  0.686880  0.138505  1
  O  O20  1  0.134390  0.491864  0.138856  1
  O  O21  1  0.635166  0.997502  0.141348  1
  O  O22  1  0.688668  0.317360  0.140923  1
  O  O23  1  0.192109  0.822966  0.139622  1
  O  O24  1  0.865487  0.491852  0.361129  1
  O  O25  1  0.364703  0.997491  0.358635  1
  O  O26  1  0.821931  0.183536  0.358352  1
  O  O27  1  0.329003  0.686860  0.361494  1
  O  O28  1  0.311178  0.317356  0.359085  1
  O  O29  1  0.807748  0.822962  0.360393  1
  O  O30  1  0.319841  0.314007  0.859452  1
  O  O31  1  0.822190  0.813472  0.859293  1
  O  O32  1  0.369168  0.003698  0.859415  1
  O  O33  1  0.868667  0.503493  0.859359  1
  O  O34  1  0.810056  0.182859  0.859019  1
  O  O35  1  0.310527  0.682438  0.859606  1
