# generated using pymatgen
data_TbYGa(AsRh2)6
_symmetry_space_group_name_H-M   'P 1'
_cell_length_a   9.97062300
_cell_length_b   9.97062341
_cell_length_c   3.96251200
_cell_angle_alpha   90.00000000
_cell_angle_beta   90.00000000
_cell_angle_gamma   120.00000194
_symmetry_Int_Tables_number   1
_chemical_formula_structural   TbYGa(AsRh2)6
_chemical_formula_sum   'Tb1 Y1 Ga1 As6 Rh12'
_cell_volume   341.15035109
_cell_formula_units_Z   1
loop_
 _symmetry_equiv_pos_site_id
 _symmetry_equiv_pos_as_xyz
  1  'x, y, z'
loop_
 _atom_site_type_symbol
 _atom_site_label
 _atom_site_symmetry_multiplicity
 _atom_site_fract_x
 _atom_site_fract_y
 _atom_site_fract_z
 _atom_site_occupancy
  Tb  Tb0  1  0.333333  0.666667  0.751470  1
  Y  Y1  1  0.000000  0.000000  0.249728  1
  Ga  Ga2  1  0.666667  0.333333  0.580885  1
  As  As3  1  0.953094  0.216592  0.750736  1
  As  As4  1  0.783408  0.736502  0.750736  1
  As  As5  1  0.263498  0.046906  0.750736  1
  As  As6  1  0.379363  0.448562  0.251413  1
  As  As7  1  0.551438  0.930801  0.251413  1
  As  As8  1  0.069199  0.620637  0.251413  1
  Rh  Rh9  1  0.732582  0.951143  0.751699  1
  Rh  Rh10  1  0.048857  0.781439  0.751699  1
  Rh  Rh11  1  0.218561  0.267418  0.751699  1
  Rh  Rh12  1  0.602905  0.717661  0.250584  1
  Rh  Rh13  1  0.282339  0.885245  0.250584  1
  Rh  Rh14  1  0.114755  0.397095  0.250584  1
  Rh  Rh15  1  0.945306  0.456712  0.752130  1
  Rh  Rh16  1  0.543288  0.488594  0.752130  1
  Rh  Rh17  1  0.511406  0.054694  0.752130  1
  Rh  Rh18  1  0.400224  0.213912  0.250805  1
  Rh  Rh19  1  0.786088  0.186312  0.250805  1
  Rh  Rh20  1  0.813688  0.599776  0.250805  1
