# generated using pymatgen
data_Tb4Tm12Cd4NiRu3
_symmetry_space_group_name_H-M   'P 1'
_cell_length_a   9.52315016
_cell_length_b   9.57504351
_cell_length_c   9.57504266
_cell_angle_alpha   59.67164372
_cell_angle_beta   59.43288774
_cell_angle_gamma   59.43288852
_symmetry_Int_Tables_number   1
_chemical_formula_structural   Tb4Tm12Cd4NiRu3
_chemical_formula_sum   'Tb4 Tm12 Cd4 Ni1 Ru3'
_cell_volume   610.52037182
_cell_formula_units_Z   1
loop_
 _symmetry_equiv_pos_site_id
 _symmetry_equiv_pos_as_xyz
  1  'x, y, z'
loop_
 _atom_site_type_symbol
 _atom_site_label
 _atom_site_symmetry_multiplicity
 _atom_site_fract_x
 _atom_site_fract_y
 _atom_site_fract_z
 _atom_site_occupancy
  Tb  Tb0  1  0.557926  0.937610  0.567006  1
  Tb  Tb1  1  0.940580  0.558288  0.939678  1
  Tb  Tb2  1  0.557926  0.567006  0.937610  1
  Tb  Tb3  1  0.940580  0.939678  0.558288  1
  Tm  Tm4  1  0.351516  0.346201  0.346201  1
  Tm  Tm5  1  0.351070  0.345196  0.961467  1
  Tm  Tm6  1  0.351070  0.961467  0.345196  1
  Tm  Tm7  1  0.960048  0.346647  0.346647  1
  Tm  Tm8  1  0.812061  0.186645  0.186645  1
  Tm  Tm9  1  0.182997  0.812824  0.812824  1
  Tm  Tm10  1  0.187228  0.811719  0.187938  1
  Tm  Tm11  1  0.809840  0.188607  0.811181  1
  Tm  Tm12  1  0.187228  0.187938  0.811719  1
  Tm  Tm13  1  0.809840  0.811181  0.188607  1
  Tm  Tm14  1  0.941056  0.557648  0.557648  1
  Tm  Tm15  1  0.557424  0.938745  0.938745  1
  Cd  Cd16  1  0.578920  0.580293  0.580293  1
  Cd  Cd17  1  0.579076  0.581617  0.257663  1
  Cd  Cd18  1  0.579076  0.257663  0.581617  1
  Cd  Cd19  1  0.258094  0.579711  0.579711  1
  Ni  Ni20  1  0.578745  0.142309  0.142309  1
  Ru  Ru21  1  0.143315  0.139540  0.139540  1
  Ru  Ru22  1  0.142192  0.144038  0.577428  1
  Ru  Ru23  1  0.142192  0.577428  0.144038  1
