# generated using pymatgen
data_TmBi3(SbO4)4
_symmetry_space_group_name_H-M   'P 1'
_cell_length_a   5.23097335
_cell_length_b   5.24504870
_cell_length_c   13.76821000
_cell_angle_alpha   68.13304510
_cell_angle_beta   90.05434967
_cell_angle_gamma   89.93786644
_symmetry_Int_Tables_number   1
_chemical_formula_structural   TmBi3(SbO4)4
_chemical_formula_sum   'Tm1 Bi3 Sb4 O16'
_cell_volume   350.57483900
_cell_formula_units_Z   1
loop_
 _symmetry_equiv_pos_site_id
 _symmetry_equiv_pos_as_xyz
  1  'x, y, z'
loop_
 _atom_site_type_symbol
 _atom_site_label
 _atom_site_symmetry_multiplicity
 _atom_site_fract_x
 _atom_site_fract_y
 _atom_site_fract_z
 _atom_site_occupancy
  Tm  Tm0  1  0.249500  0.333056  0.168915  1
  Bi  Bi1  1  0.754747  0.674168  0.326955  1
  Bi  Bi2  1  0.747883  0.667828  0.827535  1
  Bi  Bi3  1  0.248507  0.325898  0.672434  1
  Sb  Sb4  1  0.747504  0.928559  0.071622  1
  Sb  Sb5  1  0.753068  0.930268  0.565887  1
  Sb  Sb6  1  0.247680  0.064304  0.936580  1
  Sb  Sb7  1  0.250917  0.075778  0.427109  1
  O  O8  1  0.428186  0.731520  0.049903  1
  O  O9  1  0.066474  0.746549  0.538468  1
  O  O10  1  0.561551  0.248589  0.961438  1
  O  O11  1  0.940194  0.258393  0.458548  1
  O  O12  1  0.592147  0.034376  0.182142  1
  O  O13  1  0.895722  0.021358  0.683384  1
  O  O14  1  0.391315  0.968475  0.820623  1
  O  O15  1  0.100825  0.988967  0.310907  1
  O  O16  1  0.065602  0.168686  0.051000  1
  O  O17  1  0.438593  0.165532  0.543607  1
  O  O18  1  0.930917  0.837397  0.957077  1
  O  O19  1  0.564212  0.835871  0.452668  1
  O  O20  1  0.906035  0.602599  0.178541  1
  O  O21  1  0.613475  0.597852  0.679308  1
  O  O22  1  0.110422  0.395607  0.822402  1
  O  O23  1  0.394525  0.398367  0.312946  1
