# generated using pymatgen
data_HfSc2(GaPt)3
_symmetry_space_group_name_H-M   'P 1'
_cell_length_a   7.28629652
_cell_length_b   7.28495568
_cell_length_c   6.89670300
_cell_angle_alpha   90.00000000
_cell_angle_beta   90.00000000
_cell_angle_gamma   120.15941786
_symmetry_Int_Tables_number   1
_chemical_formula_structural   HfSc2(GaPt)3
_chemical_formula_sum   'Hf2 Sc4 Ga6 Pt6'
_cell_volume   316.52354146
_cell_formula_units_Z   2
loop_
 _symmetry_equiv_pos_site_id
 _symmetry_equiv_pos_as_xyz
  1  'x, y, z'
loop_
 _atom_site_type_symbol
 _atom_site_label
 _atom_site_symmetry_multiplicity
 _atom_site_fract_x
 _atom_site_fract_y
 _atom_site_fract_z
 _atom_site_occupancy
  Hf  Hf0  1  0.995800  0.602846  0.250000  1
  Hf  Hf1  1  0.606615  0.003762  0.250000  1
  Sc  Sc2  1  0.395820  0.391656  0.250000  1
  Sc  Sc3  1  0.599297  0.997158  0.750000  1
  Sc  Sc4  1  0.398186  0.402299  0.750000  1
  Sc  Sc5  1  0.005918  0.603765  0.750000  1
  Ga  Ga6  1  0.270262  0.002140  0.000627  1
  Ga  Ga7  1  0.270262  0.002140  0.499373  1
  Ga  Ga8  1  0.003139  0.270713  0.499666  1
  Ga  Ga9  1  0.003139  0.270713  0.000334  1
  Ga  Ga10  1  0.725941  0.726531  0.994869  1
  Ga  Ga11  1  0.725941  0.726531  0.505131  1
  Pt  Pt12  1  0.670565  0.333309  0.498069  1
  Pt  Pt13  1  0.001747  0.001484  0.750000  1
  Pt  Pt14  1  0.670565  0.333309  0.001931  1
  Pt  Pt15  1  0.332852  0.670100  0.010886  1
  Pt  Pt16  1  0.332852  0.670100  0.489114  1
  Pt  Pt17  1  0.991099  0.991445  0.250000  1
