# generated using pymatgen
data_Pr3SmGd2Ta2O14
_symmetry_space_group_name_H-M   'P 1'
_cell_length_a   6.64131958
_cell_length_b   6.65135668
_cell_length_c   7.70385475
_cell_angle_alpha   90.03685259
_cell_angle_beta   90.07062020
_cell_angle_gamma   109.17070934
_symmetry_Int_Tables_number   1
_chemical_formula_structural   Pr3SmGd2Ta2O14
_chemical_formula_sum   'Pr3 Sm1 Gd2 Ta2 O14'
_cell_volume   321.43596561
_cell_formula_units_Z   1
loop_
 _symmetry_equiv_pos_site_id
 _symmetry_equiv_pos_as_xyz
  1  'x, y, z'
loop_
 _atom_site_type_symbol
 _atom_site_label
 _atom_site_symmetry_multiplicity
 _atom_site_fract_x
 _atom_site_fract_y
 _atom_site_fract_z
 _atom_site_occupancy
  Pr  Pr0  1  0.998124  0.535420  0.244992  1
  Pr  Pr1  1  0.475168  0.474716  0.998549  1
  Pr  Pr2  1  0.519400  0.522507  0.501065  1
  Sm  Sm3  1  0.465289  0.000056  0.255062  1
  Gd  Gd4  1  0.532462  0.999827  0.754876  1
  Gd  Gd5  1  0.000014  0.466551  0.744837  1
  Ta  Ta6  1  0.002062  0.002440  0.501820  1
  Ta  Ta7  1  0.997075  0.997767  0.997726  1
  O  O8  1  0.938950  0.058077  0.749836  1
  O  O9  1  0.642373  0.355725  0.750057  1
  O  O10  1  0.308161  0.052130  0.537281  1
  O  O11  1  0.943134  0.693160  0.959093  1
  O  O12  1  0.625798  0.363403  0.251215  1
  O  O13  1  0.923887  0.681398  0.530482  1
  O  O14  1  0.320414  0.072269  0.973304  1
  O  O15  1  0.078540  0.320869  0.019647  1
  O  O16  1  0.681404  0.927838  0.474045  1
  O  O17  1  0.365851  0.635310  0.750149  1
  O  O18  1  0.693101  0.946292  0.036154  1
  O  O19  1  0.063824  0.310992  0.470687  1
  O  O20  1  0.366498  0.639646  0.249177  1
  O  O21  1  0.058472  0.943606  0.249946  1
