# generated using pymatgen
data_TbDy2Co(P3Rh4)2
_symmetry_space_group_name_H-M   'P 1'
_cell_length_a   3.86770000
_cell_length_b   11.14410300
_cell_length_c   12.79490500
_cell_angle_alpha   90.00000000
_cell_angle_beta   90.00000000
_cell_angle_gamma   90.00000000
_symmetry_Int_Tables_number   1
_chemical_formula_structural   TbDy2Co(P3Rh4)2
_chemical_formula_sum   'Tb2 Dy4 Co2 P12 Rh16'
_cell_volume   551.48659889
_cell_formula_units_Z   2
loop_
 _symmetry_equiv_pos_site_id
 _symmetry_equiv_pos_as_xyz
  1  'x, y, z'
loop_
 _atom_site_type_symbol
 _atom_site_label
 _atom_site_symmetry_multiplicity
 _atom_site_fract_x
 _atom_site_fract_y
 _atom_site_fract_z
 _atom_site_occupancy
  Tb  Tb0  1  0.000000  0.500000  0.521549  1
  Tb  Tb1  1  0.500000  0.000000  0.478451  1
  Dy  Dy2  1  0.500000  0.815519  0.202049  1
  Dy  Dy3  1  0.500000  0.184481  0.202049  1
  Dy  Dy4  1  0.000000  0.684481  0.797951  1
  Dy  Dy5  1  0.000000  0.315519  0.797951  1
  Co  Co6  1  0.000000  0.500000  0.980353  1
  Co  Co7  1  0.500000  0.000000  0.019647  1
  P  P8  1  0.500000  0.500000  0.881853  1
  P  P9  1  0.000000  0.000000  0.118147  1
  P  P10  1  0.500000  0.500000  0.350766  1
  P  P11  1  0.000000  0.000000  0.649234  1
  P  P12  1  0.500000  0.315657  0.619387  1
  P  P13  1  0.500000  0.684343  0.619387  1
  P  P14  1  0.000000  0.184343  0.380613  1
  P  P15  1  0.000000  0.815657  0.380613  1
  P  P16  1  0.500000  0.852824  0.895720  1
  P  P17  1  0.500000  0.147176  0.895720  1
  P  P18  1  0.000000  0.647176  0.104280  1
  P  P19  1  0.000000  0.352824  0.104280  1
  Rh  Rh20  1  0.500000  0.500000  0.167743  1
  Rh  Rh21  1  0.000000  0.000000  0.832257  1
  Rh  Rh22  1  0.500000  0.500000  0.703595  1
  Rh  Rh23  1  0.000000  0.000000  0.296405  1
  Rh  Rh24  1  0.500000  0.336540  0.993954  1
  Rh  Rh25  1  0.500000  0.663460  0.993954  1
  Rh  Rh26  1  0.000000  0.163460  0.006046  1
  Rh  Rh27  1  0.000000  0.836540  0.006046  1
  Rh  Rh28  1  0.500000  0.293973  0.430155  1
  Rh  Rh29  1  0.500000  0.706027  0.430155  1
  Rh  Rh30  1  0.000000  0.206027  0.569845  1
  Rh  Rh31  1  0.000000  0.793973  0.569845  1
  Rh  Rh32  1  0.500000  0.873449  0.712311  1
  Rh  Rh33  1  0.500000  0.126551  0.712311  1
  Rh  Rh34  1  0.000000  0.626551  0.287689  1
  Rh  Rh35  1  0.000000  0.373449  0.287689  1
