# generated using pymatgen
data_ErCoI18
_symmetry_space_group_name_H-M   'P 1'
_cell_length_a   10.13306445
_cell_length_b   10.18451814
_cell_length_c   10.11365265
_cell_angle_alpha   93.71757417
_cell_angle_beta   93.80168347
_cell_angle_gamma   93.64628924
_symmetry_Int_Tables_number   1
_chemical_formula_structural   ErCoI18
_chemical_formula_sum   'Er1 Co1 I18'
_cell_volume   1036.82573278
_cell_formula_units_Z   1
loop_
 _symmetry_equiv_pos_site_id
 _symmetry_equiv_pos_as_xyz
  1  'x, y, z'
loop_
 _atom_site_type_symbol
 _atom_site_label
 _atom_site_symmetry_multiplicity
 _atom_site_fract_x
 _atom_site_fract_y
 _atom_site_fract_z
 _atom_site_occupancy
  Er  Er0  1  0.500000  0.500000  0.500000  1
  Co  Co1  1  0.000000  0.000000  0.000000  1
  I  I2  1  0.796630  0.480904  0.524543  1
  I  I3  1  0.524260  0.795086  0.480392  1
  I  I4  1  0.481382  0.525355  0.797148  1
  I  I5  1  0.203370  0.519096  0.475457  1
  I  I6  1  0.475740  0.204914  0.519608  1
  I  I7  1  0.518618  0.474645  0.202852  1
  I  I8  1  0.901792  0.360586  0.768258  1
  I  I9  1  0.767942  0.900565  0.361379  1
  I  I10  1  0.361366  0.768103  0.901783  1
  I  I11  1  0.098208  0.639414  0.231742  1
  I  I12  1  0.232058  0.099435  0.638621  1
  I  I13  1  0.638634  0.231897  0.098217  1
  I  I14  1  0.999616  0.968590  0.740594  1
  I  I15  1  0.741184  0.000105  0.967509  1
  I  I16  1  0.967438  0.742490  0.998892  1
  I  I17  1  0.000384  0.031410  0.259406  1
  I  I18  1  0.258816  0.999895  0.032491  1
  I  I19  1  0.032562  0.257510  0.001108  1
