# generated using pymatgen
data_Ho3Sc4USb20
_symmetry_space_group_name_H-M   'P 1'
_cell_length_a   4.20430800
_cell_length_b   13.04320407
_cell_length_c   14.19674768
_cell_angle_alpha   78.72773825
_cell_angle_beta   90.00000000
_cell_angle_gamma   90.00000000
_symmetry_Int_Tables_number   1
_chemical_formula_structural   Ho3Sc4USb20
_chemical_formula_sum   'Ho3 Sc4 U1 Sb20'
_cell_volume   763.49820005
_cell_formula_units_Z   1
loop_
 _symmetry_equiv_pos_site_id
 _symmetry_equiv_pos_as_xyz
  1  'x, y, z'
loop_
 _atom_site_type_symbol
 _atom_site_label
 _atom_site_symmetry_multiplicity
 _atom_site_fract_x
 _atom_site_fract_y
 _atom_site_fract_z
 _atom_site_occupancy
  Ho  Ho0  1  0.750000  0.328809  0.424659  1
  Ho  Ho1  1  0.250000  0.953835  0.353487  1
  Ho  Ho2  1  0.750000  0.048387  0.644112  1
  Sc  Sc3  1  0.250000  0.393377  0.773429  1
  Sc  Sc4  1  0.750000  0.603299  0.227323  1
  Sc  Sc5  1  0.250000  0.658796  0.858936  1
  Sc  Sc6  1  0.750000  0.342248  0.141258  1
  U  U7  1  0.250000  0.669293  0.574693  1
  Sb  Sb8  1  0.250000  0.148361  0.779615  1
  Sb  Sb9  1  0.750000  0.851620  0.220560  1
  Sb  Sb10  1  0.250000  0.140226  0.483151  1
  Sb  Sb11  1  0.750000  0.853108  0.515154  1
  Sb  Sb12  1  0.250000  0.163089  0.159355  1
  Sb  Sb13  1  0.750000  0.838695  0.842052  1
  Sb  Sb14  1  0.250000  0.422362  0.975566  1
  Sb  Sb15  1  0.750000  0.578677  0.023435  1
  Sb  Sb16  1  0.750000  0.032277  0.914921  1
  Sb  Sb17  1  0.250000  0.970175  0.086823  1
  Sb  Sb18  1  0.750000  0.142479  0.313761  1
  Sb  Sb19  1  0.250000  0.857770  0.688089  1
  Sb  Sb20  1  0.750000  0.279354  0.937539  1
  Sb  Sb21  1  0.250000  0.720933  0.062855  1
  Sb  Sb22  1  0.750000  0.288833  0.660568  1
  Sb  Sb23  1  0.250000  0.711132  0.340530  1
  Sb  Sb24  1  0.750000  0.576739  0.736736  1
  Sb  Sb25  1  0.250000  0.426489  0.259855  1
  Sb  Sb26  1  0.750000  0.570226  0.445527  1
  Sb  Sb27  1  0.250000  0.429411  0.556012  1
