# generated using pymatgen
data_Yb5Zr(Si3Ru)8
_symmetry_space_group_name_H-M   'P 1'
_cell_length_a   10.13208720
_cell_length_b   10.13208754
_cell_length_c   8.13487065
_cell_angle_alpha   89.98155442
_cell_angle_beta   89.98155979
_cell_angle_gamma   132.64156755
_symmetry_Int_Tables_number   1
_chemical_formula_structural   Yb5Zr(Si3Ru)8
_chemical_formula_sum   'Yb5 Zr1 Si24 Ru8'
_cell_volume   614.31840262
_cell_formula_units_Z   1
loop_
 _symmetry_equiv_pos_site_id
 _symmetry_equiv_pos_as_xyz
  1  'x, y, z'
loop_
 _atom_site_type_symbol
 _atom_site_label
 _atom_site_symmetry_multiplicity
 _atom_site_fract_x
 _atom_site_fract_y
 _atom_site_fract_z
 _atom_site_occupancy
  Yb  Yb0  1  0.500000  0.500000  0.500000  1
  Yb  Yb1  1  0.002201  0.502360  0.250149  1
  Yb  Yb2  1  0.997799  0.497640  0.749851  1
  Yb  Yb3  1  0.497640  0.997799  0.749851  1
  Yb  Yb4  1  0.502360  0.002201  0.250149  1
  Zr  Zr5  1  0.000000  0.000000  0.000000  1
  Si  Si6  1  0.706226  0.293774  0.000000  1
  Si  Si7  1  0.293774  0.706226  0.000000  1
  Si  Si8  1  0.793913  0.206087  0.500000  1
  Si  Si9  1  0.206087  0.793913  0.500000  1
  Si  Si10  1  0.333984  0.333984  0.168096  1
  Si  Si11  1  0.666016  0.666016  0.831904  1
  Si  Si12  1  0.166628  0.166628  0.667608  1
  Si  Si13  1  0.833372  0.833372  0.332392  1
  Si  Si14  1  0.844836  0.611374  0.004258  1
  Si  Si15  1  0.155164  0.388626  0.995742  1
  Si  Si16  1  0.653709  0.887130  0.505543  1
  Si  Si17  1  0.112870  0.346291  0.494457  1
  Si  Si18  1  0.346291  0.112870  0.494457  1
  Si  Si19  1  0.887130  0.653709  0.505543  1
  Si  Si20  1  0.388626  0.155164  0.995742  1
  Si  Si21  1  0.611374  0.844836  0.004258  1
  Si  Si22  1  0.890377  0.122379  0.270384  1
  Si  Si23  1  0.109623  0.877621  0.729616  1
  Si  Si24  1  0.610020  0.376338  0.770843  1
  Si  Si25  1  0.623662  0.389980  0.229157  1
  Si  Si26  1  0.389980  0.623662  0.229157  1
  Si  Si27  1  0.376338  0.610020  0.770843  1
  Si  Si28  1  0.877621  0.109623  0.729616  1
  Si  Si29  1  0.122379  0.890377  0.270384  1
  Ru  Ru30  1  0.832530  0.167470  0.000000  1
  Ru  Ru31  1  0.167470  0.832530  0.000000  1
  Ru  Ru32  1  0.669209  0.330791  0.500000  1
  Ru  Ru33  1  0.330791  0.669209  0.500000  1
  Ru  Ru34  1  0.125544  0.125544  0.371945  1
  Ru  Ru35  1  0.874456  0.874456  0.628055  1
  Ru  Ru36  1  0.370006  0.370006  0.876601  1
  Ru  Ru37  1  0.629994  0.629994  0.123399  1
