# generated using pymatgen
data_La6TiAlSiSe14
_symmetry_space_group_name_H-M   'P 1'
_cell_length_a   10.63952300
_cell_length_b   10.63952357
_cell_length_c   6.28813200
_cell_angle_alpha   90.00000000
_cell_angle_beta   90.00000000
_cell_angle_gamma   120.00000754
_symmetry_Int_Tables_number   1
_chemical_formula_structural   La6TiAlSiSe14
_chemical_formula_sum   'La6 Ti1 Al1 Si1 Se14'
_cell_volume   616.44819809
_cell_formula_units_Z   1
loop_
 _symmetry_equiv_pos_site_id
 _symmetry_equiv_pos_as_xyz
  1  'x, y, z'
loop_
 _atom_site_type_symbol
 _atom_site_label
 _atom_site_symmetry_multiplicity
 _atom_site_fract_x
 _atom_site_fract_y
 _atom_site_fract_z
 _atom_site_occupancy
  La  La0  1  0.807490  0.699392  0.521917  1
  La  La1  1  0.891903  0.192510  0.521917  1
  La  La2  1  0.300608  0.108097  0.521917  1
  La  La3  1  0.519385  0.966391  0.036784  1
  La  La4  1  0.447007  0.480615  0.036784  1
  La  La5  1  0.033609  0.552993  0.036784  1
  Ti  Ti6  1  0.666667  0.333333  0.326300  1
  Al  Al7  1  0.333333  0.666667  0.446071  1
  Si  Si8  1  0.000000  0.000000  0.939446  1
  Se  Se9  1  0.000000  0.000000  0.302311  1
  Se  Se10  1  0.333333  0.666667  0.822120  1
  Se  Se11  1  0.086042  0.856836  0.802332  1
  Se  Se12  1  0.770793  0.913958  0.802332  1
  Se  Se13  1  0.143164  0.229207  0.802332  1
  Se  Se14  1  0.237994  0.811984  0.302234  1
  Se  Se15  1  0.573990  0.762006  0.302234  1
  Se  Se16  1  0.188016  0.426010  0.302234  1
  Se  Se17  1  0.905980  0.480272  0.553607  1
  Se  Se18  1  0.574293  0.094020  0.553607  1
  Se  Se19  1  0.519728  0.425707  0.553607  1
  Se  Se20  1  0.431572  0.194334  0.085046  1
  Se  Se21  1  0.762761  0.568428  0.085046  1
  Se  Se22  1  0.805666  0.237239  0.085046  1
