# generated using pymatgen
data_Pr2Nd4PtAu7
_symmetry_space_group_name_H-M   'P 1'
_cell_length_a   8.27073199
_cell_length_b   8.28744189
_cell_length_c   8.24412560
_cell_angle_alpha   113.90678205
_cell_angle_beta   113.64195410
_cell_angle_gamma   113.81624528
_symmetry_Int_Tables_number   1
_chemical_formula_structural   Pr2Nd4PtAu7
_chemical_formula_sum   'Pr2 Nd4 Pt1 Au7'
_cell_volume   348.63585717
_cell_formula_units_Z   1
loop_
 _symmetry_equiv_pos_site_id
 _symmetry_equiv_pos_as_xyz
  1  'x, y, z'
loop_
 _atom_site_type_symbol
 _atom_site_label
 _atom_site_symmetry_multiplicity
 _atom_site_fract_x
 _atom_site_fract_y
 _atom_site_fract_z
 _atom_site_occupancy
  Pr  Pr0  1  0.267423  0.387390  0.016186  1
  Pr  Pr1  1  0.387729  0.017041  0.267437  1
  Nd  Nd2  1  0.016772  0.267001  0.387191  1
  Nd  Nd3  1  0.733286  0.612248  0.984242  1
  Nd  Nd4  1  0.612018  0.983031  0.732497  1
  Nd  Nd5  1  0.983408  0.732255  0.611982  1
  Pt  Pt6  1  0.995596  0.996917  0.997467  1
  Au  Au7  1  0.501664  0.502868  0.503373  1
  Au  Au8  1  0.575997  0.237799  0.075823  1
  Au  Au9  1  0.236569  0.076274  0.574520  1
  Au  Au10  1  0.074628  0.573571  0.238013  1
  Au  Au11  1  0.426525  0.761978  0.921836  1
  Au  Au12  1  0.764358  0.924331  0.426485  1
  Au  Au13  1  0.924028  0.427297  0.762947  1
