# generated using pymatgen
data_PrTm(BIr)8
_symmetry_space_group_name_H-M   'P 1'
_cell_length_a   3.98906200
_cell_length_b   7.67229700
_cell_length_c   7.67229700
_cell_angle_alpha   90.00000000
_cell_angle_beta   90.00000000
_cell_angle_gamma   90.00000000
_symmetry_Int_Tables_number   1
_chemical_formula_structural   PrTm(BIr)8
_chemical_formula_sum   'Pr1 Tm1 B8 Ir8'
_cell_volume   234.81270905
_cell_formula_units_Z   1
loop_
 _symmetry_equiv_pos_site_id
 _symmetry_equiv_pos_as_xyz
  1  'x, y, z'
loop_
 _atom_site_type_symbol
 _atom_site_label
 _atom_site_symmetry_multiplicity
 _atom_site_fract_x
 _atom_site_fract_y
 _atom_site_fract_z
 _atom_site_occupancy
  Pr  Pr0  1  0.750000  0.750000  0.750000  1
  Tm  Tm1  1  0.250000  0.250000  0.250000  1
  B  B2  1  0.358257  0.908284  0.031066  1
  B  B3  1  0.358257  0.591716  0.468934  1
  B  B4  1  0.862549  0.525973  0.092407  1
  B  B5  1  0.862549  0.974027  0.407593  1
  B  B6  1  0.637451  0.092407  0.974027  1
  B  B7  1  0.637451  0.407593  0.525973  1
  B  B8  1  0.141743  0.468934  0.908284  1
  B  B9  1  0.141743  0.031066  0.591716  1
  Ir  Ir10  1  0.138870  0.406815  0.639177  1
  Ir  Ir11  1  0.138870  0.093185  0.860823  1
  Ir  Ir12  1  0.638085  0.141864  0.587027  1
  Ir  Ir13  1  0.638085  0.358136  0.912973  1
  Ir  Ir14  1  0.861915  0.587027  0.358136  1
  Ir  Ir15  1  0.861915  0.912973  0.141864  1
  Ir  Ir16  1  0.361130  0.860823  0.406815  1
  Ir  Ir17  1  0.361130  0.639177  0.093185  1
