# generated using pymatgen
data_Li4CaPr3Pd4
_symmetry_space_group_name_H-M   'P 1'
_cell_length_a   4.15910900
_cell_length_b   7.35814687
_cell_length_c   8.60830893
_cell_angle_alpha   90.09908313
_cell_angle_beta   90.00000000
_cell_angle_gamma   90.00000000
_symmetry_Int_Tables_number   1
_chemical_formula_structural   Li4CaPr3Pd4
_chemical_formula_sum   'Li4 Ca1 Pr3 Pd4'
_cell_volume   263.44256717
_cell_formula_units_Z   1
loop_
 _symmetry_equiv_pos_site_id
 _symmetry_equiv_pos_as_xyz
  1  'x, y, z'
loop_
 _atom_site_type_symbol
 _atom_site_label
 _atom_site_symmetry_multiplicity
 _atom_site_fract_x
 _atom_site_fract_y
 _atom_site_fract_z
 _atom_site_occupancy
  Li  Li0  1  0.250000  0.627043  0.552414  1
  Li  Li1  1  0.750000  0.362502  0.440581  1
  Li  Li2  1  0.750000  0.878948  0.061853  1
  Li  Li3  1  0.250000  0.130398  0.946420  1
  Ca  Ca4  1  0.250000  0.039283  0.316648  1
  Pr  Pr5  1  0.250000  0.543285  0.183788  1
  Pr  Pr6  1  0.750000  0.461531  0.814932  1
  Pr  Pr7  1  0.750000  0.957107  0.681006  1
  Pd  Pd8  1  0.250000  0.755018  0.880317  1
  Pd  Pd9  1  0.750000  0.254288  0.116031  1
  Pd  Pd10  1  0.750000  0.739130  0.380088  1
  Pd  Pd11  1  0.250000  0.251469  0.625922  1
