# generated using pymatgen
data_Ho10In5PbO2
_symmetry_space_group_name_H-M   'P 1'
_cell_length_a   9.12908451
_cell_length_b   9.12908445
_cell_length_c   9.12908430
_cell_angle_alpha   127.34713023
_cell_angle_beta   127.34712252
_cell_angle_gamma   77.68506836
_symmetry_Int_Tables_number   1
_chemical_formula_structural   Ho10In5PbO2
_chemical_formula_sum   'Ho10 In5 Pb1 O2'
_cell_volume   466.19277528
_cell_formula_units_Z   1
loop_
 _symmetry_equiv_pos_site_id
 _symmetry_equiv_pos_as_xyz
  1  'x, y, z'
loop_
 _atom_site_type_symbol
 _atom_site_label
 _atom_site_symmetry_multiplicity
 _atom_site_fract_x
 _atom_site_fract_y
 _atom_site_fract_z
 _atom_site_occupancy
  Ho  Ho0  1  0.997449  0.192061  0.496283  1
  Ho  Ho1  1  0.804222  0.307939  0.805389  1
  Ho  Ho2  1  0.501167  0.997449  0.805389  1
  Ho  Ho3  1  0.502551  0.998833  0.194611  1
  Ho  Ho4  1  0.998833  0.804222  0.496283  1
  Ho  Ho5  1  0.503181  0.503181  0.000000  1
  Ho  Ho6  1  0.192061  0.695778  0.194611  1
  Ho  Ho7  1  0.695778  0.501167  0.503717  1
  Ho  Ho8  1  0.307939  0.502551  0.503717  1
  Ho  Ho9  1  0.996819  0.996819  0.000000  1
  In  In10  1  0.865368  0.365368  0.230736  1
  In  In11  1  0.134632  0.634632  0.769264  1
  In  In12  1  0.365368  0.134632  0.500000  1
  In  In13  1  0.750000  0.750000  0.000000  1
  In  In14  1  0.634632  0.865368  0.500000  1
  Pb  Pb15  1  0.250000  0.250000  0.000000  1
  O  O16  1  0.750000  0.250000  0.500000  1
  O  O17  1  0.250000  0.750000  0.500000  1
