# generated using pymatgen
data_ZrSc3AlTc7
_symmetry_space_group_name_H-M   'P 1'
_cell_length_a   5.22025200
_cell_length_b   5.22025213
_cell_length_c   8.67748700
_cell_angle_alpha   90.00000000
_cell_angle_beta   90.00000000
_cell_angle_gamma   119.99999916
_symmetry_Int_Tables_number   1
_chemical_formula_structural   ZrSc3AlTc7
_chemical_formula_sum   'Zr1 Sc3 Al1 Tc7'
_cell_volume   204.78943842
_cell_formula_units_Z   1
loop_
 _symmetry_equiv_pos_site_id
 _symmetry_equiv_pos_as_xyz
  1  'x, y, z'
loop_
 _atom_site_type_symbol
 _atom_site_label
 _atom_site_symmetry_multiplicity
 _atom_site_fract_x
 _atom_site_fract_y
 _atom_site_fract_z
 _atom_site_occupancy
  Zr  Zr0  1  0.333333  0.666667  0.431739  1
  Sc  Sc1  1  0.666667  0.333333  0.567171  1
  Sc  Sc2  1  0.666667  0.333333  0.935727  1
  Sc  Sc3  1  0.333333  0.666667  0.062006  1
  Al  Al4  1  0.000000  0.000000  0.500683  1
  Tc  Tc5  1  0.000000  0.000000  0.001004  1
  Tc  Tc6  1  0.829390  0.170610  0.250250  1
  Tc  Tc7  1  0.829390  0.658781  0.250250  1
  Tc  Tc8  1  0.341219  0.170610  0.250250  1
  Tc  Tc9  1  0.170983  0.829017  0.750307  1
  Tc  Tc10  1  0.170983  0.341964  0.750307  1
  Tc  Tc11  1  0.658036  0.829017  0.750307  1
