# generated using pymatgen
data_Er12Ni4AgSn
_symmetry_space_group_name_H-M   'P 1'
_cell_length_a   8.31141705
_cell_length_b   8.31141668
_cell_length_c   8.31141717
_cell_angle_alpha   112.51576062
_cell_angle_beta   109.31385091
_cell_angle_gamma   106.63776084
_symmetry_Int_Tables_number   1
_chemical_formula_structural   Er12Ni4AgSn
_chemical_formula_sum   'Er12 Ni4 Ag1 Sn1'
_cell_volume   440.81176236
_cell_formula_units_Z   1
loop_
 _symmetry_equiv_pos_site_id
 _symmetry_equiv_pos_as_xyz
  1  'x, y, z'
loop_
 _atom_site_type_symbol
 _atom_site_label
 _atom_site_symmetry_multiplicity
 _atom_site_fract_x
 _atom_site_fract_y
 _atom_site_fract_z
 _atom_site_occupancy
  Er  Er0  1  0.323323  0.130068  0.806745  1
  Er  Er1  1  0.676677  0.483423  0.806745  1
  Er  Er2  1  0.424420  0.725250  0.699170  1
  Er  Er3  1  0.575580  0.274750  0.300830  1
  Er  Er4  1  0.973919  0.274750  0.699170  1
  Er  Er5  1  0.026081  0.725250  0.300830  1
  Er  Er6  1  0.323323  0.516577  0.193255  1
  Er  Er7  1  0.676677  0.869932  0.193255  1
  Er  Er8  1  0.180643  0.793047  0.973691  1
  Er  Er9  1  0.819357  0.793047  0.612404  1
  Er  Er10  1  0.180643  0.206953  0.387596  1
  Er  Er11  1  0.819357  0.206953  0.026309  1
  Ni  Ni12  1  0.874436  0.874436  0.000000  1
  Ni  Ni13  1  0.125564  0.125564  0.000000  1
  Ni  Ni14  1  0.643834  0.500000  0.143834  1
  Ni  Ni15  1  0.356166  0.500000  0.856166  1
  Ag  Ag16  1  0.000000  0.500000  0.500000  1
  Sn  Sn17  1  0.500000  0.000000  0.500000  1
