# generated using pymatgen
data_Dy10Ga2SiSb3
_symmetry_space_group_name_H-M   'P 1'
_cell_length_a   6.46148200
_cell_length_b   8.77321180
_cell_length_c   8.72888769
_cell_angle_alpha   119.98524921
_cell_angle_beta   90.00002054
_cell_angle_gamma   89.99991926
_symmetry_Int_Tables_number   1
_chemical_formula_structural   Dy10Ga2SiSb3
_chemical_formula_sum   'Dy10 Ga2 Si1 Sb3'
_cell_volume   428.59275388
_cell_formula_units_Z   1
loop_
 _symmetry_equiv_pos_site_id
 _symmetry_equiv_pos_as_xyz
  1  'x, y, z'
loop_
 _atom_site_type_symbol
 _atom_site_label
 _atom_site_symmetry_multiplicity
 _atom_site_fract_x
 _atom_site_fract_y
 _atom_site_fract_z
 _atom_site_occupancy
  Dy  Dy0  1  0.500504  0.343643  0.679226  1
  Dy  Dy1  1  0.500468  0.649797  0.315584  1
  Dy  Dy2  1  0.999535  0.649797  0.315583  1
  Dy  Dy3  1  0.999495  0.343644  0.679225  1
  Dy  Dy4  1  0.749999  0.249511  0.011696  1
  Dy  Dy5  1  0.750000  0.751751  0.763865  1
  Dy  Dy6  1  0.750000  0.000967  0.236450  1
  Dy  Dy7  1  0.250000  0.752005  0.999003  1
  Dy  Dy8  1  0.250000  0.243579  0.229840  1
  Dy  Dy9  1  0.250002  0.013388  0.768741  1
  Ga  Ga10  1  0.749997  0.606456  0.001150  1
  Ga  Ga11  1  0.750000  0.393599  0.397113  1
  Si  Si12  1  0.250000  0.394137  0.997410  1
  Sb  Sb13  1  0.750001  0.996487  0.607188  1
  Sb  Sb14  1  0.250001  0.609045  0.604532  1
  Sb  Sb15  1  0.250000  0.002197  0.393392  1
