# generated using pymatgen
data_LiHo3FeSb3O14
_symmetry_space_group_name_H-M   'P 1'
_cell_length_a   7.21316769
_cell_length_b   7.21790146
_cell_length_c   7.21646281
_cell_angle_alpha   118.71844191
_cell_angle_beta   61.26260008
_cell_angle_gamma   118.73165183
_symmetry_Int_Tables_number   1
_chemical_formula_structural   LiHo3FeSb3O14
_chemical_formula_sum   'Li1 Ho3 Fe1 Sb3 O14'
_cell_volume   273.26325380
_cell_formula_units_Z   1
loop_
 _symmetry_equiv_pos_site_id
 _symmetry_equiv_pos_as_xyz
  1  'x, y, z'
loop_
 _atom_site_type_symbol
 _atom_site_label
 _atom_site_symmetry_multiplicity
 _atom_site_fract_x
 _atom_site_fract_y
 _atom_site_fract_z
 _atom_site_occupancy
  Li  Li0  1  0.499977  0.500002  0.999983  1
  Ho  Ho1  1  0.999999  0.499994  0.999995  1
  Ho  Ho2  1  0.499990  0.999996  0.000004  1
  Ho  Ho3  1  0.500011  0.500007  0.499994  1
  Fe  Fe4  1  0.000000  0.999999  0.500002  1
  Sb  Sb5  1  0.500013  0.000004  0.500003  1
  Sb  Sb6  1  0.999992  0.500004  0.499990  1
  Sb  Sb7  1  0.999998  0.000000  0.000009  1
  O  O8  1  0.626576  0.372698  0.127056  1
  O  O9  1  0.373426  0.627295  0.872950  1
  O  O10  1  0.071699  0.327332  0.172580  1
  O  O11  1  0.672128  0.927314  0.172307  1
  O  O12  1  0.672118  0.327618  0.572692  1
  O  O13  1  0.928304  0.672669  0.827425  1
  O  O14  1  0.327876  0.072684  0.827691  1
  O  O15  1  0.327891  0.672391  0.427311  1
  O  O16  1  0.666260  0.916845  0.583113  1
  O  O17  1  0.083884  0.334335  0.583533  1
  O  O18  1  0.083680  0.916636  0.165883  1
  O  O19  1  0.333740  0.083156  0.416888  1
  O  O20  1  0.916116  0.665656  0.416473  1
  O  O21  1  0.916324  0.083368  0.834114  1
