# generated using pymatgen
data_Er12Tm8Fe3CoSb8
_symmetry_space_group_name_H-M   'P 1'
_cell_length_a   7.74167079
_cell_length_b   8.73053900
_cell_length_c   12.07924354
_cell_angle_alpha   90.00000000
_cell_angle_beta   90.15161514
_cell_angle_gamma   90.00000000
_symmetry_Int_Tables_number   1
_chemical_formula_structural   Er12Tm8Fe3CoSb8
_chemical_formula_sum   'Er12 Tm8 Fe3 Co1 Sb8'
_cell_volume   816.42063579
_cell_formula_units_Z   1
loop_
 _symmetry_equiv_pos_site_id
 _symmetry_equiv_pos_as_xyz
  1  'x, y, z'
loop_
 _atom_site_type_symbol
 _atom_site_label
 _atom_site_symmetry_multiplicity
 _atom_site_fract_x
 _atom_site_fract_y
 _atom_site_fract_z
 _atom_site_occupancy
  Er  Er0  1  0.158043  0.750000  0.206794  1
  Er  Er1  1  0.657284  0.250000  0.293196  1
  Er  Er2  1  0.842412  0.250000  0.795614  1
  Er  Er3  1  0.344837  0.750000  0.702469  1
  Er  Er4  1  0.447205  0.750000  0.996082  1
  Er  Er5  1  0.946081  0.250000  0.504436  1
  Er  Er6  1  0.548075  0.250000  0.003342  1
  Er  Er7  1  0.049799  0.750000  0.496140  1
  Er  Er8  1  0.624320  0.750000  0.308535  1
  Er  Er9  1  0.126046  0.250000  0.191785  1
  Er  Er10  1  0.376473  0.250000  0.692134  1
  Er  Er11  1  0.875548  0.750000  0.809501  1
  Tm  Tm12  1  0.826314  0.966896  0.064229  1
  Tm  Tm13  1  0.325339  0.035946  0.435994  1
  Tm  Tm14  1  0.176642  0.459822  0.934097  1
  Tm  Tm15  1  0.675249  0.536564  0.563985  1
  Tm  Tm16  1  0.176642  0.040178  0.934097  1
  Tm  Tm17  1  0.675249  0.963436  0.563985  1
  Tm  Tm18  1  0.826314  0.533104  0.064229  1
  Tm  Tm19  1  0.325339  0.464054  0.435994  1
  Fe  Fe20  1  0.428653  0.750000  0.488457  1
  Fe  Fe21  1  0.929069  0.250000  0.010966  1
  Fe  Fe22  1  0.572313  0.250000  0.510447  1
  Co  Co23  1  0.066761  0.750000  0.992405  1
  Sb  Sb24  1  0.931823  0.993527  0.327821  1
  Sb  Sb25  1  0.431976  0.006081  0.172259  1
  Sb  Sb26  1  0.068198  0.493327  0.672856  1
  Sb  Sb27  1  0.567998  0.507842  0.827609  1
  Sb  Sb28  1  0.068198  0.006673  0.672856  1
  Sb  Sb29  1  0.567998  0.992158  0.827609  1
  Sb  Sb30  1  0.931823  0.506473  0.327821  1
  Sb  Sb31  1  0.431976  0.493919  0.172259  1
