# generated using pymatgen
data_Pr3Tm(P3Rh4)2
_symmetry_space_group_name_H-M   'P 1'
_cell_length_a   3.96907400
_cell_length_b   11.32760800
_cell_length_c   12.98504900
_cell_angle_alpha   90.00000000
_cell_angle_beta   90.00000000
_cell_angle_gamma   90.00000000
_symmetry_Int_Tables_number   1
_chemical_formula_structural   Pr3Tm(P3Rh4)2
_chemical_formula_sum   'Pr6 Tm2 P12 Rh16'
_cell_volume   583.80928846
_cell_formula_units_Z   2
loop_
 _symmetry_equiv_pos_site_id
 _symmetry_equiv_pos_as_xyz
  1  'x, y, z'
loop_
 _atom_site_type_symbol
 _atom_site_label
 _atom_site_symmetry_multiplicity
 _atom_site_fract_x
 _atom_site_fract_y
 _atom_site_fract_z
 _atom_site_occupancy
  Pr  Pr0  1  0.000000  0.500000  0.524140  1
  Pr  Pr1  1  0.500000  0.000000  0.475860  1
  Pr  Pr2  1  0.500000  0.821446  0.204594  1
  Pr  Pr3  1  0.500000  0.178554  0.204594  1
  Pr  Pr4  1  0.000000  0.678554  0.795406  1
  Pr  Pr5  1  0.000000  0.321446  0.795406  1
  Tm  Tm6  1  0.500000  0.500000  0.158721  1
  Tm  Tm7  1  0.000000  0.000000  0.841279  1
  P  P8  1  0.500000  0.500000  0.884130  1
  P  P9  1  0.000000  0.000000  0.115870  1
  P  P10  1  0.500000  0.500000  0.361034  1
  P  P11  1  0.000000  0.000000  0.638966  1
  P  P12  1  0.500000  0.309319  0.615110  1
  P  P13  1  0.500000  0.690681  0.615110  1
  P  P14  1  0.000000  0.190681  0.384890  1
  P  P15  1  0.000000  0.809319  0.384890  1
  P  P16  1  0.500000  0.840228  0.890294  1
  P  P17  1  0.500000  0.159772  0.890294  1
  P  P18  1  0.000000  0.659772  0.109706  1
  P  P19  1  0.000000  0.340228  0.109706  1
  Rh  Rh20  1  0.500000  0.500000  0.703144  1
  Rh  Rh21  1  0.000000  0.000000  0.296856  1
  Rh  Rh22  1  0.000000  0.500000  0.986535  1
  Rh  Rh23  1  0.500000  0.000000  0.013465  1
  Rh  Rh24  1  0.500000  0.331126  0.992765  1
  Rh  Rh25  1  0.500000  0.668874  0.992765  1
  Rh  Rh26  1  0.000000  0.168874  0.007235  1
  Rh  Rh27  1  0.000000  0.831126  0.007235  1
  Rh  Rh28  1  0.500000  0.291540  0.432466  1
  Rh  Rh29  1  0.500000  0.708460  0.432466  1
  Rh  Rh30  1  0.000000  0.208460  0.567534  1
  Rh  Rh31  1  0.000000  0.791540  0.567534  1
  Rh  Rh32  1  0.500000  0.875438  0.704363  1
  Rh  Rh33  1  0.500000  0.124562  0.704363  1
  Rh  Rh34  1  0.000000  0.624562  0.295637  1
  Rh  Rh35  1  0.000000  0.375438  0.295637  1
