# generated using pymatgen
data_Nb3CrSi(TcGe)2
_symmetry_space_group_name_H-M   'P 1'
_cell_length_a   6.88825545
_cell_length_b   6.87888689
_cell_length_c   3.32612300
_cell_angle_alpha   90.00000000
_cell_angle_beta   90.00000000
_cell_angle_gamma   119.95502151
_symmetry_Int_Tables_number   1
_chemical_formula_structural   Nb3CrSi(TcGe)2
_chemical_formula_sum   'Nb3 Cr1 Si1 Tc2 Ge2'
_cell_volume   136.55040999
_cell_formula_units_Z   1
loop_
 _symmetry_equiv_pos_site_id
 _symmetry_equiv_pos_as_xyz
  1  'x, y, z'
loop_
 _atom_site_type_symbol
 _atom_site_label
 _atom_site_symmetry_multiplicity
 _atom_site_fract_x
 _atom_site_fract_y
 _atom_site_fract_z
 _atom_site_occupancy
  Nb  Nb0  1  0.000000  0.589487  0.500000  1
  Nb  Nb1  1  0.610644  0.007713  0.500000  1
  Nb  Nb2  1  0.389356  0.397069  0.500000  1
  Cr  Cr3  1  0.000000  0.251550  0.000000  1
  Si  Si4  1  0.000000  0.004667  0.500000  1
  Tc  Tc5  1  0.749200  0.748589  0.000000  1
  Tc  Tc6  1  0.250800  0.999388  0.000000  1
  Ge  Ge7  1  0.666322  0.333929  0.000000  1
  Ge  Ge8  1  0.333678  0.667608  0.000000  1
