# generated using pymatgen
data_SmLu7Hg4
_symmetry_space_group_name_H-M   'P 1'
_cell_length_a   5.07702200
_cell_length_b   6.83146192
_cell_length_c   9.13593200
_cell_angle_alpha   90.09354628
_cell_angle_beta   90.00000000
_cell_angle_gamma   90.00000000
_symmetry_Int_Tables_number   1
_chemical_formula_structural   SmLu7Hg4
_chemical_formula_sum   'Sm1 Lu7 Hg4'
_cell_volume   316.86551502
_cell_formula_units_Z   1
loop_
 _symmetry_equiv_pos_site_id
 _symmetry_equiv_pos_as_xyz
  1  'x, y, z'
loop_
 _atom_site_type_symbol
 _atom_site_label
 _atom_site_symmetry_multiplicity
 _atom_site_fract_x
 _atom_site_fract_y
 _atom_site_fract_z
 _atom_site_occupancy
  Sm  Sm0  1  0.750000  0.327703  0.923998  1
  Lu  Lu1  1  0.250000  0.012428  0.800106  1
  Lu  Lu2  1  0.250000  0.516284  0.694457  1
  Lu  Lu3  1  0.750000  0.982175  0.200943  1
  Lu  Lu4  1  0.750000  0.483716  0.303377  1
  Lu  Lu5  1  0.250000  0.167777  0.426169  1
  Lu  Lu6  1  0.250000  0.677345  0.076564  1
  Lu  Lu7  1  0.750000  0.826746  0.575333  1
  Hg  Hg8  1  0.250000  0.731195  0.400374  1
  Hg  Hg9  1  0.250000  0.232257  0.105988  1
  Hg  Hg10  1  0.750000  0.264068  0.592400  1
  Hg  Hg11  1  0.750000  0.778308  0.900293  1
