# generated using pymatgen
data_Nd16Cd4OsPd3
_symmetry_space_group_name_H-M   'P 1'
_cell_length_a   10.05523236
_cell_length_b   10.05523226
_cell_length_c   10.05523271
_cell_angle_alpha   59.53938266
_cell_angle_beta   59.53938522
_cell_angle_gamma   59.53938174
_symmetry_Int_Tables_number   1
_chemical_formula_structural   Nd16Cd4OsPd3
_chemical_formula_sum   'Nd16 Cd4 Os1 Pd3'
_cell_volume   711.35915679
_cell_formula_units_Z   1
loop_
 _symmetry_equiv_pos_site_id
 _symmetry_equiv_pos_as_xyz
  1  'x, y, z'
loop_
 _atom_site_type_symbol
 _atom_site_label
 _atom_site_symmetry_multiplicity
 _atom_site_fract_x
 _atom_site_fract_y
 _atom_site_fract_z
 _atom_site_occupancy
  Nd  Nd0  1  0.352082  0.352082  0.352082  1
  Nd  Nd1  1  0.348675  0.348675  0.948341  1
  Nd  Nd2  1  0.348675  0.948341  0.348675  1
  Nd  Nd3  1  0.948341  0.348675  0.348675  1
  Nd  Nd4  1  0.816972  0.188929  0.188929  1
  Nd  Nd5  1  0.188393  0.808651  0.808651  1
  Nd  Nd6  1  0.188929  0.816972  0.188929  1
  Nd  Nd7  1  0.808651  0.188393  0.808651  1
  Nd  Nd8  1  0.188929  0.188929  0.816972  1
  Nd  Nd9  1  0.808651  0.808651  0.188393  1
  Nd  Nd10  1  0.936512  0.564908  0.564908  1
  Nd  Nd11  1  0.557231  0.937870  0.937870  1
  Nd  Nd12  1  0.564908  0.936512  0.564908  1
  Nd  Nd13  1  0.937870  0.557231  0.937870  1
  Nd  Nd14  1  0.564908  0.564908  0.936512  1
  Nd  Nd15  1  0.937870  0.937870  0.557231  1
  Cd  Cd16  1  0.580047  0.580047  0.580047  1
  Cd  Cd17  1  0.580317  0.580317  0.257422  1
  Cd  Cd18  1  0.580317  0.257422  0.580317  1
  Cd  Cd19  1  0.257422  0.580317  0.580317  1
  Os  Os20  1  0.143484  0.143484  0.143484  1
  Pd  Pd21  1  0.145063  0.145063  0.570690  1
  Pd  Pd22  1  0.145063  0.570690  0.145063  1
  Pd  Pd23  1  0.570690  0.145063  0.145063  1
