# generated using pymatgen
data_Ho4Ir3PdO14
_symmetry_space_group_name_H-M   'P 1'
_cell_length_a   7.22136723
_cell_length_b   7.24694959
_cell_length_c   7.24695000
_cell_angle_alpha   60.00000725
_cell_angle_beta   59.88274991
_cell_angle_gamma   59.88275391
_symmetry_Int_Tables_number   1
_chemical_formula_structural   Ho4Ir3PdO14
_chemical_formula_sum   'Ho4 Ir3 Pd1 O14'
_cell_volume   267.69670496
_cell_formula_units_Z   1
loop_
 _symmetry_equiv_pos_site_id
 _symmetry_equiv_pos_as_xyz
  1  'x, y, z'
loop_
 _atom_site_type_symbol
 _atom_site_label
 _atom_site_symmetry_multiplicity
 _atom_site_fract_x
 _atom_site_fract_y
 _atom_site_fract_z
 _atom_site_occupancy
  Ho  Ho0  1  0.625000  0.625000  0.125000  1
  Ho  Ho1  1  0.625000  0.125000  0.625000  1
  Ho  Ho2  1  0.125000  0.625000  0.625000  1
  Ho  Ho3  1  0.625000  0.625000  0.625000  1
  Ir  Ir4  1  0.125000  0.125000  0.625000  1
  Ir  Ir5  1  0.125000  0.625000  0.125000  1
  Ir  Ir6  1  0.125000  0.125000  0.125000  1
  Pd  Pd7  1  0.625000  0.125000  0.125000  1
  O  O8  1  0.463257  0.033162  0.470418  1
  O  O9  1  0.207646  0.787979  0.787979  1
  O  O10  1  0.786743  0.216838  0.216838  1
  O  O11  1  0.207646  0.787979  0.216396  1
  O  O12  1  0.786743  0.779582  0.216838  1
  O  O13  1  0.207646  0.216396  0.787979  1
  O  O14  1  0.463257  0.470418  0.033162  1
  O  O15  1  0.042354  0.462021  0.462021  1
  O  O16  1  0.463257  0.033162  0.033162  1
  O  O17  1  0.042354  0.033604  0.462021  1
  O  O18  1  0.786743  0.216838  0.779582  1
  O  O19  1  0.042354  0.462021  0.033604  1
  O  O20  1  0.499614  0.500128  0.500128  1
  O  O21  1  0.750386  0.749872  0.749872  1
