# generated using pymatgen
data_Dy7Er2Th5Rh6
_symmetry_space_group_name_H-M   'P 1'
_cell_length_a   9.72366304
_cell_length_b   9.72366173
_cell_length_c   6.38026924
_cell_angle_alpha   89.77316373
_cell_angle_beta   90.22684005
_cell_angle_gamma   119.28409375
_symmetry_Int_Tables_number   1
_chemical_formula_structural   Dy7Er2Th5Rh6
_chemical_formula_sum   'Dy7 Er2 Th5 Rh6'
_cell_volume   526.15390577
_cell_formula_units_Z   1
loop_
 _symmetry_equiv_pos_site_id
 _symmetry_equiv_pos_as_xyz
  1  'x, y, z'
loop_
 _atom_site_type_symbol
 _atom_site_label
 _atom_site_symmetry_multiplicity
 _atom_site_fract_x
 _atom_site_fract_y
 _atom_site_fract_z
 _atom_site_occupancy
  Dy  Dy0  1  0.127977  0.872023  0.256732  1
  Dy  Dy1  1  0.460045  0.921556  0.549271  1
  Dy  Dy2  1  0.078444  0.539955  0.549271  1
  Dy  Dy3  1  0.460095  0.539905  0.549912  1
  Dy  Dy4  1  0.537676  0.076666  0.053431  1
  Dy  Dy5  1  0.923334  0.462324  0.053431  1
  Dy  Dy6  1  0.539431  0.460569  0.051872  1
  Er  Er7  1  0.666775  0.333225  0.529861  1
  Er  Er8  1  0.332686  0.667314  0.027898  1
  Th  Th9  1  0.873554  0.743965  0.757857  1
  Th  Th10  1  0.256035  0.126446  0.757857  1
  Th  Th11  1  0.870867  0.129133  0.756652  1
  Th  Th12  1  0.130579  0.255997  0.258340  1
  Th  Th13  1  0.744003  0.869421  0.258340  1
  Rh  Rh14  1  0.183611  0.366598  0.794733  1
  Rh  Rh15  1  0.633402  0.816389  0.794733  1
  Rh  Rh16  1  0.184113  0.815887  0.790826  1
  Rh  Rh17  1  0.808378  0.628283  0.298552  1
  Rh  Rh18  1  0.371717  0.191622  0.298552  1
  Rh  Rh19  1  0.817276  0.182724  0.293317  1
