# generated using pymatgen
data_Y2ErGa6Co5Ni4
_symmetry_space_group_name_H-M   'P 1'
_cell_length_a   8.71347355
_cell_length_b   8.73145759
_cell_length_c   4.07808700
_cell_angle_alpha   90.00000000
_cell_angle_beta   90.00000000
_cell_angle_gamma   120.13413620
_symmetry_Int_Tables_number   1
_chemical_formula_structural   Y2ErGa6Co5Ni4
_chemical_formula_sum   'Y2 Er1 Ga6 Co5 Ni4'
_cell_volume   268.33454340
_cell_formula_units_Z   1
loop_
 _symmetry_equiv_pos_site_id
 _symmetry_equiv_pos_as_xyz
  1  'x, y, z'
loop_
 _atom_site_type_symbol
 _atom_site_label
 _atom_site_symmetry_multiplicity
 _atom_site_fract_x
 _atom_site_fract_y
 _atom_site_fract_z
 _atom_site_occupancy
  Y  Y0  1  0.667970  0.333596  0.500000  1
  Y  Y1  1  0.335507  0.670657  0.500000  1
  Er  Er2  1  0.999790  0.998556  0.000000  1
  Ga  Ga3  1  0.490467  0.490094  0.000000  1
  Ga  Ga4  1  0.509794  0.000291  0.000000  1
  Ga  Ga5  1  0.996702  0.508838  0.000000  1
  Ga  Ga6  1  0.725771  0.726005  0.500000  1
  Ga  Ga7  1  0.273031  0.999109  0.500000  1
  Ga  Ga8  1  0.999978  0.271526  0.500000  1
  Co  Co9  1  0.824073  0.186004  0.000000  1
  Co  Co10  1  0.813971  0.638695  0.000000  1
  Co  Co11  1  0.363702  0.177058  0.000000  1
  Co  Co12  1  0.186055  0.821783  0.000000  1
  Co  Co13  1  0.636665  0.813705  0.000000  1
  Ni  Ni14  1  0.177563  0.368044  0.000000  1
  Ni  Ni15  1  0.294669  0.292752  0.500000  1
  Ni  Ni16  1  0.704599  0.999868  0.500000  1
  Ni  Ni17  1  0.999691  0.703418  0.500000  1
