# generated using pymatgen
data_Cs8KInSb4
_symmetry_space_group_name_H-M   'P 1'
_cell_length_a   11.43972822
_cell_length_b   11.29138959
_cell_length_c   12.11061800
_cell_angle_alpha   90.00000000
_cell_angle_beta   90.00000000
_cell_angle_gamma   119.57196372
_symmetry_Int_Tables_number   1
_chemical_formula_structural   Cs8KInSb4
_chemical_formula_sum   'Cs16 K2 In2 Sb8'
_cell_volume   1360.55816490
_cell_formula_units_Z   2
loop_
 _symmetry_equiv_pos_site_id
 _symmetry_equiv_pos_as_xyz
  1  'x, y, z'
loop_
 _atom_site_type_symbol
 _atom_site_label
 _atom_site_symmetry_multiplicity
 _atom_site_fract_x
 _atom_site_fract_y
 _atom_site_fract_z
 _atom_site_occupancy
  Cs  Cs0  1  0.205936  0.413819  0.542374  1
  Cs  Cs1  1  0.794064  0.207884  0.042374  1
  Cs  Cs2  1  0.416115  0.208873  0.045061  1
  Cs  Cs3  1  0.583885  0.792757  0.545061  1
  Cs  Cs4  1  0.208550  0.791271  0.544177  1
  Cs  Cs5  1  0.791450  0.582722  0.455823  1
  Cs  Cs6  1  0.794064  0.207884  0.457626  1
  Cs  Cs7  1  0.791450  0.582722  0.044177  1
  Cs  Cs8  1  0.416115  0.208873  0.454939  1
  Cs  Cs9  1  0.583885  0.792757  0.954939  1
  Cs  Cs10  1  0.205936  0.413819  0.957626  1
  Cs  Cs11  1  0.208550  0.791271  0.955823  1
  Cs  Cs12  1  0.238440  0.118708  0.750000  1
  Cs  Cs13  1  0.761560  0.880267  0.250000  1
  Cs  Cs14  1  0.117258  0.882310  0.250000  1
  Cs  Cs15  1  0.882742  0.765054  0.750000  1
  K  K16  1  0.120445  0.241750  0.250000  1
  K  K17  1  0.879555  0.121306  0.750000  1
  In  In18  1  0.332970  0.666289  0.250000  1
  In  In19  1  0.667030  0.333318  0.750000  1
  Sb  Sb20  1  0.469878  0.511205  0.250000  1
  Sb  Sb21  1  0.956184  0.470292  0.750000  1
  Sb  Sb22  1  0.530122  0.041327  0.750000  1
  Sb  Sb23  1  0.477956  0.959213  0.250000  1
  Sb  Sb24  1  0.043816  0.514106  0.250000  1
  Sb  Sb25  1  0.522044  0.481258  0.750000  1
  Sb  Sb26  1  0.000000  0.009471  0.000000  1
  Sb  Sb27  1  0.000000  0.009471  0.500000  1
