# generated using pymatgen
data_Tm4CrReOs6
_symmetry_space_group_name_H-M   'P 1'
_cell_length_a   5.43628937
_cell_length_b   5.16565280
_cell_length_c   8.84022900
_cell_angle_alpha   90.00000000
_cell_angle_beta   90.00000000
_cell_angle_gamma   121.65237647
_symmetry_Int_Tables_number   1
_chemical_formula_structural   Tm4CrReOs6
_chemical_formula_sum   'Tm4 Cr1 Re1 Os6'
_cell_volume   211.32320289
_cell_formula_units_Z   1
loop_
 _symmetry_equiv_pos_site_id
 _symmetry_equiv_pos_as_xyz
  1  'x, y, z'
loop_
 _atom_site_type_symbol
 _atom_site_label
 _atom_site_symmetry_multiplicity
 _atom_site_fract_x
 _atom_site_fract_y
 _atom_site_fract_z
 _atom_site_occupancy
  Tm  Tm0  1  0.671138  0.341779  0.563636  1
  Tm  Tm1  1  0.333111  0.666384  0.434764  1
  Tm  Tm2  1  0.333111  0.666384  0.065236  1
  Tm  Tm3  1  0.671138  0.341779  0.936364  1
  Cr  Cr4  1  0.827003  0.653364  0.250000  1
  Re  Re5  1  0.163714  0.326410  0.750000  1
  Os  Os6  1  0.000763  0.002183  0.495420  1
  Os  Os7  1  0.000763  0.002183  0.004580  1
  Os  Os8  1  0.172087  0.822881  0.750000  1
  Os  Os9  1  0.650297  0.822922  0.750000  1
  Os  Os10  1  0.828873  0.177007  0.250000  1
  Os  Os11  1  0.348003  0.176722  0.250000  1
