# generated using pymatgen
data_K3NdIr2O9
_symmetry_space_group_name_H-M   'P 1'
_cell_length_a   6.06761400
_cell_length_b   6.06762964
_cell_length_c   14.81892200
_cell_angle_alpha   90.00000000
_cell_angle_beta   90.00000000
_cell_angle_gamma   120.00001723
_symmetry_Int_Tables_number   1
_chemical_formula_structural   K3NdIr2O9
_chemical_formula_sum   'K6 Nd2 Ir4 O18'
_cell_volume   472.48081372
_cell_formula_units_Z   2
loop_
 _symmetry_equiv_pos_site_id
 _symmetry_equiv_pos_as_xyz
  1  'x, y, z'
loop_
 _atom_site_type_symbol
 _atom_site_label
 _atom_site_symmetry_multiplicity
 _atom_site_fract_x
 _atom_site_fract_y
 _atom_site_fract_z
 _atom_site_occupancy
  K  K0  1  0.333330  0.666665  0.105100  1
  K  K1  1  0.000005  0.999997  0.250000  1
  K  K2  1  0.333330  0.666665  0.394900  1
  K  K3  1  0.666670  0.333339  0.605163  1
  K  K4  1  0.999998  0.000000  0.750000  1
  K  K5  1  0.666670  0.333339  0.894837  1
  Nd  Nd6  1  0.999999  0.999997  0.000044  1
  Nd  Nd7  1  0.999999  0.999997  0.499956  1
  Ir  Ir8  1  0.666668  0.333334  0.160331  1
  Ir  Ir9  1  0.666668  0.333334  0.339669  1
  Ir  Ir10  1  0.333333  0.666665  0.660296  1
  Ir  Ir11  1  0.333333  0.666665  0.839704  1
  O  O12  1  0.817830  0.635627  0.089643  1
  O  O13  1  0.817799  0.182173  0.089643  1
  O  O14  1  0.364375  0.182207  0.089643  1
  O  O15  1  0.523718  0.047468  0.250000  1
  O  O16  1  0.952535  0.476251  0.250000  1
  O  O17  1  0.523753  0.476284  0.250000  1
  O  O18  1  0.817799  0.182173  0.410357  1
  O  O19  1  0.364375  0.182207  0.410357  1
  O  O20  1  0.817830  0.635627  0.410358  1
  O  O21  1  0.182005  0.364049  0.589605  1
  O  O22  1  0.635949  0.817958  0.589604  1
  O  O23  1  0.182041  0.817992  0.589603  1
  O  O24  1  0.476385  0.523577  0.750000  1
  O  O25  1  0.047192  0.523612  0.750000  1
  O  O26  1  0.476422  0.952805  0.750000  1
  O  O27  1  0.182041  0.817992  0.910396  1
  O  O28  1  0.635949  0.817958  0.910396  1
  O  O29  1  0.182005  0.364049  0.910395  1
