# generated using pymatgen
data_TiMn2(NbRu2)3
_symmetry_space_group_name_H-M   'P 1'
_cell_length_a   4.41972300
_cell_length_b   6.27533600
_cell_length_c   13.25499900
_cell_angle_alpha   90.00086138
_cell_angle_beta   89.99965857
_cell_angle_gamma   90.00038619
_symmetry_Int_Tables_number   1
_chemical_formula_structural   TiMn2(NbRu2)3
_chemical_formula_sum   'Ti2 Mn4 Nb6 Ru12'
_cell_volume   367.63066926
_cell_formula_units_Z   2
loop_
 _symmetry_equiv_pos_site_id
 _symmetry_equiv_pos_as_xyz
  1  'x, y, z'
loop_
 _atom_site_type_symbol
 _atom_site_label
 _atom_site_symmetry_multiplicity
 _atom_site_fract_x
 _atom_site_fract_y
 _atom_site_fract_z
 _atom_site_occupancy
  Ti  Ti0  1  0.000001  0.500001  0.998496  1
  Ti  Ti1  1  0.499974  0.999998  0.168151  1
  Mn  Mn2  1  0.999966  0.500001  0.333871  1
  Mn  Mn3  1  0.500008  0.000003  0.500249  1
  Mn  Mn4  1  0.000034  0.500002  0.666466  1
  Mn  Mn5  1  0.500038  0.999998  0.832810  1
  Nb  Nb6  1  0.999996  0.000001  0.994421  1
  Nb  Nb7  1  0.499980  0.499999  0.172206  1
  Nb  Nb8  1  0.999967  0.000000  0.340171  1
  Nb  Nb9  1  0.500003  0.500000  0.500618  1
  Nb  Nb10  1  0.000027  0.000000  0.666054  1
  Nb  Nb11  1  0.500025  0.499998  0.826534  1
  Ru  Ru12  1  0.499997  0.253112  0.002288  1
  Ru  Ru13  1  0.499997  0.746887  0.002288  1
  Ru  Ru14  1  0.999975  0.246799  0.164356  1
  Ru  Ru15  1  0.999973  0.753200  0.164357  1
  Ru  Ru16  1  0.499975  0.246100  0.330378  1
  Ru  Ru17  1  0.499973  0.753900  0.330377  1
  Ru  Ru18  1  0.999993  0.250150  0.500327  1
  Ru  Ru19  1  0.999998  0.749849  0.500327  1
  Ru  Ru20  1  0.500021  0.249749  0.666306  1
  Ru  Ru21  1  0.500021  0.750249  0.666308  1
  Ru  Ru22  1  0.000032  0.253926  0.836322  1
  Ru  Ru23  1  0.000031  0.746075  0.836322  1
