# generated using pymatgen
data_Nb19Al10Mo
_symmetry_space_group_name_H-M   'P 1'
_cell_length_a   9.97809904
_cell_length_b   9.98043804
_cell_length_c   5.20032100
_cell_angle_alpha   90.00000000
_cell_angle_beta   90.00000000
_cell_angle_gamma   90.00962272
_symmetry_Int_Tables_number   1
_chemical_formula_structural   Nb19Al10Mo
_chemical_formula_sum   'Nb19 Al10 Mo1'
_cell_volume   517.87811521
_cell_formula_units_Z   1
loop_
 _symmetry_equiv_pos_site_id
 _symmetry_equiv_pos_as_xyz
  1  'x, y, z'
loop_
 _atom_site_type_symbol
 _atom_site_label
 _atom_site_symmetry_multiplicity
 _atom_site_fract_x
 _atom_site_fract_y
 _atom_site_fract_z
 _atom_site_occupancy
  Nb  Nb0  1  0.391738  0.397177  0.000000  1
  Nb  Nb1  1  0.896929  0.104415  0.500000  1
  Nb  Nb2  1  0.103026  0.895551  0.500000  1
  Nb  Nb3  1  0.602075  0.603146  0.000000  1
  Nb  Nb4  1  0.965996  0.373395  0.500000  1
  Nb  Nb5  1  0.036493  0.626242  0.500000  1
  Nb  Nb6  1  0.876806  0.534087  0.000000  1
  Nb  Nb7  1  0.372268  0.964432  0.500000  1
  Nb  Nb8  1  0.627691  0.035674  0.500000  1
  Nb  Nb9  1  0.464346  0.127771  0.000000  1
  Nb  Nb10  1  0.535737  0.872325  0.000000  1
  Nb  Nb11  1  0.181398  0.182242  0.252383  1
  Nb  Nb12  1  0.681452  0.319226  0.752580  1
  Nb  Nb13  1  0.317969  0.680446  0.752132  1
  Nb  Nb14  1  0.818784  0.818312  0.251972  1
  Nb  Nb15  1  0.317969  0.680446  0.247868  1
  Nb  Nb16  1  0.681452  0.319226  0.247420  1
  Nb  Nb17  1  0.181398  0.182242  0.747617  1
  Nb  Nb18  1  0.818784  0.818312  0.748028  1
  Al  Al19  1  0.000030  0.000127  0.000000  1
  Al  Al20  1  0.499835  0.500052  0.500000  1
  Al  Al21  1  0.261181  0.932952  0.000000  1
  Al  Al22  1  0.432951  0.238517  0.500000  1
  Al  Al23  1  0.566505  0.761310  0.500000  1
  Al  Al24  1  0.738643  0.067063  0.000000  1
  Al  Al25  1  0.237887  0.433484  0.500000  1
  Al  Al26  1  0.761639  0.566841  0.500000  1
  Al  Al27  1  0.934890  0.262524  0.000000  1
  Al  Al28  1  0.067485  0.736914  0.000000  1
  Mo  Mo29  1  0.126646  0.465549  0.000000  1
