# generated using pymatgen
data_Y11Tm9(Ir3Os)3
_symmetry_space_group_name_H-M   'P 1'
_cell_length_a   10.83660959
_cell_length_b   10.83036721
_cell_length_c   6.39069636
_cell_angle_alpha   90.01665314
_cell_angle_beta   90.03459160
_cell_angle_gamma   90.01507046
_symmetry_Int_Tables_number   1
_chemical_formula_structural   Y11Tm9(Ir3Os)3
_chemical_formula_sum   'Y11 Tm9 Ir9 Os3'
_cell_volume   750.04043999
_cell_formula_units_Z   1
loop_
 _symmetry_equiv_pos_site_id
 _symmetry_equiv_pos_as_xyz
  1  'x, y, z'
loop_
 _atom_site_type_symbol
 _atom_site_label
 _atom_site_symmetry_multiplicity
 _atom_site_fract_x
 _atom_site_fract_y
 _atom_site_fract_z
 _atom_site_occupancy
  Y  Y0  1  0.291755  0.086941  0.375322  1
  Y  Y1  1  0.291950  0.913260  0.875648  1
  Y  Y2  1  0.708146  0.086612  0.875673  1
  Y  Y3  1  0.708208  0.912931  0.375754  1
  Y  Y4  1  0.586798  0.791877  0.875949  1
  Y  Y5  1  0.586420  0.207415  0.376171  1
  Y  Y6  1  0.413584  0.792670  0.375556  1
  Y  Y7  1  0.414053  0.207478  0.876070  1
  Y  Y8  1  0.208180  0.413460  0.625753  1
  Y  Y9  1  0.207149  0.586697  0.121540  1
  Y  Y10  1  0.792150  0.413542  0.121729  1
  Tm  Tm11  1  0.793086  0.586083  0.624251  1
  Tm  Tm12  1  0.914013  0.706925  0.120197  1
  Tm  Tm13  1  0.914470  0.292661  0.624453  1
  Tm  Tm14  1  0.084586  0.707694  0.624638  1
  Tm  Tm15  1  0.085245  0.293252  0.120076  1
  Tm  Tm16  1  0.999845  0.999980  0.501610  1
  Tm  Tm17  1  0.999858  0.999733  0.001438  1
  Tm  Tm18  1  0.500121  0.500190  0.000478  1
  Tm  Tm19  1  0.500689  0.500332  0.500404  1
  Ir  Ir20  1  0.852139  0.152705  0.252742  1
  Ir  Ir21  1  0.851646  0.845823  0.750891  1
  Ir  Ir22  1  0.148253  0.152391  0.752351  1
  Ir  Ir23  1  0.147749  0.847214  0.252882  1
  Ir  Ir24  1  0.653578  0.351360  0.747531  1
  Ir  Ir25  1  0.653972  0.649241  0.252238  1
  Ir  Ir26  1  0.347156  0.350442  0.248875  1
  Ir  Ir27  1  0.347570  0.650119  0.748565  1
  Ir  Ir28  1  0.998567  0.500637  0.379151  1
  Os  Os29  1  0.500144  0.999973  0.124005  1
  Os  Os30  1  0.500084  0.999831  0.623943  1
  Os  Os31  1  0.998837  0.500530  0.874116  1
