# generated using pymatgen
data_Sm2Ho5Er3(In2Pd)4
_symmetry_space_group_name_H-M   'P 1'
_cell_length_a   3.61946500
_cell_length_b   8.17063356
_cell_length_c   18.30447165
_cell_angle_alpha   89.99031040
_cell_angle_beta   90.00000000
_cell_angle_gamma   90.00000000
_symmetry_Int_Tables_number   1
_chemical_formula_structural   Sm2Ho5Er3(In2Pd)4
_chemical_formula_sum   'Sm2 Ho5 Er3 In8 Pd4'
_cell_volume   541.32402979
_cell_formula_units_Z   1
loop_
 _symmetry_equiv_pos_site_id
 _symmetry_equiv_pos_as_xyz
  1  'x, y, z'
loop_
 _atom_site_type_symbol
 _atom_site_label
 _atom_site_symmetry_multiplicity
 _atom_site_fract_x
 _atom_site_fract_y
 _atom_site_fract_z
 _atom_site_occupancy
  Sm  Sm0  1  0.000000  0.500022  0.500085  1
  Sm  Sm1  1  0.000000  0.999756  0.999838  1
  Ho  Ho2  1  0.000000  0.739010  0.281155  1
  Ho  Ho3  1  0.000000  0.261073  0.718781  1
  Ho  Ho4  1  0.000000  0.761059  0.781039  1
  Ho  Ho5  1  0.000000  0.239232  0.219144  1
  Ho  Ho6  1  0.000000  0.617632  0.083796  1
  Er  Er7  1  0.000000  0.382360  0.915879  1
  Er  Er8  1  0.000000  0.882490  0.583985  1
  Er  Er9  1  0.000000  0.117361  0.416099  1
  In  In10  1  0.500000  0.704551  0.932127  1
  In  In11  1  0.500000  0.294645  0.067691  1
  In  In12  1  0.500000  0.795387  0.432442  1
  In  In13  1  0.500000  0.204461  0.567430  1
  In  In14  1  0.500000  0.582472  0.651386  1
  In  In15  1  0.500000  0.417583  0.348772  1
  In  In16  1  0.500000  0.918891  0.151505  1
  In  In17  1  0.500000  0.082380  0.848465  1
  Pd  Pd18  1  0.500000  0.522601  0.196002  1
  Pd  Pd19  1  0.500000  0.476948  0.804362  1
  Pd  Pd20  1  0.500000  0.977079  0.695481  1
  Pd  Pd21  1  0.500000  0.023006  0.304537  1
