# generated using pymatgen
data_DyY14Th(CdNi)4
_symmetry_space_group_name_H-M   'P 1'
_cell_length_a   9.59568074
_cell_length_b   9.59556302
_cell_length_c   9.60187317
_cell_angle_alpha   60.07092886
_cell_angle_beta   60.06868714
_cell_angle_gamma   60.04591070
_symmetry_Int_Tables_number   1
_chemical_formula_structural   DyY14Th(CdNi)4
_chemical_formula_sum   'Dy1 Y14 Th1 Cd4 Ni4'
_cell_volume   626.03042012
_cell_formula_units_Z   1
loop_
 _symmetry_equiv_pos_site_id
 _symmetry_equiv_pos_as_xyz
  1  'x, y, z'
loop_
 _atom_site_type_symbol
 _atom_site_label
 _atom_site_symmetry_multiplicity
 _atom_site_fract_x
 _atom_site_fract_y
 _atom_site_fract_z
 _atom_site_occupancy
  Dy  Dy0  1  0.598649  0.598634  0.201125  1
  Y  Y1  1  0.599307  0.199289  0.599399  1
  Y  Y2  1  0.199289  0.599311  0.599397  1
  Y  Y3  1  0.062132  0.439348  0.439189  1
  Y  Y4  1  0.439800  0.062005  0.062247  1
  Y  Y5  1  0.439345  0.062135  0.439188  1
  Y  Y6  1  0.062007  0.439801  0.062243  1
  Y  Y7  1  0.439454  0.439455  0.062235  1
  Y  Y8  1  0.062243  0.062243  0.439595  1
  Y  Y9  1  0.187673  0.814295  0.814541  1
  Y  Y10  1  0.813242  0.186712  0.186206  1
  Y  Y11  1  0.814291  0.187676  0.814540  1
  Y  Y12  1  0.186714  0.813242  0.186206  1
  Y  Y13  1  0.814098  0.814099  0.187679  1
  Y  Y14  1  0.186117  0.186120  0.813711  1
  Th  Th15  1  0.594159  0.594163  0.594295  1
  Cd  Cd16  1  0.830833  0.830835  0.830707  1
  Cd  Cd17  1  0.831697  0.831699  0.505552  1
  Cd  Cd18  1  0.831601  0.505708  0.831693  1
  Cd  Cd19  1  0.505707  0.831602  0.831693  1
  Ni  Ni20  1  0.393594  0.393592  0.392055  1
  Ni  Ni21  1  0.393859  0.393859  0.820317  1
  Ni  Ni22  1  0.394597  0.819585  0.393095  1
  Ni  Ni23  1  0.819590  0.394594  0.393093  1
