# generated using pymatgen
data_Yb3Ho(Al3Rh)2
_symmetry_space_group_name_H-M   'P 1'
_cell_length_a   5.51279700
_cell_length_b   5.51279704
_cell_length_c   8.72745900
_cell_angle_alpha   90.00000000
_cell_angle_beta   90.00000000
_cell_angle_gamma   120.00000579
_symmetry_Int_Tables_number   1
_chemical_formula_structural   Yb3Ho(Al3Rh)2
_chemical_formula_sum   'Yb3 Ho1 Al6 Rh2'
_cell_volume   229.70075757
_cell_formula_units_Z   1
loop_
 _symmetry_equiv_pos_site_id
 _symmetry_equiv_pos_as_xyz
  1  'x, y, z'
loop_
 _atom_site_type_symbol
 _atom_site_label
 _atom_site_symmetry_multiplicity
 _atom_site_fract_x
 _atom_site_fract_y
 _atom_site_fract_z
 _atom_site_occupancy
  Yb  Yb0  1  0.666667  0.333334  0.056337  1
  Yb  Yb1  1  0.666667  0.333334  0.443612  1
  Yb  Yb2  1  0.333334  0.666668  0.554231  1
  Ho  Ho3  1  0.333334  0.666668  0.948110  1
  Al  Al4  1  0.162478  0.324957  0.248241  1
  Al  Al5  1  0.162479  0.837522  0.248241  1
  Al  Al6  1  0.675043  0.837522  0.248241  1
  Al  Al7  1  0.324351  0.162176  0.751333  1
  Al  Al8  1  0.837825  0.162176  0.751333  1
  Al  Al9  1  0.837824  0.675649  0.751333  1
  Rh  Rh10  1  0.000000  0.000000  0.999930  1
  Rh  Rh11  1  0.000000  0.000000  0.499060  1
