# generated using pymatgen
data_CaNd6OsI12
_symmetry_space_group_name_H-M   'P 1'
_cell_length_a   10.06871865
_cell_length_b   10.06871689
_cell_length_c   10.06871702
_cell_angle_alpha   106.94632049
_cell_angle_beta   106.94631899
_cell_angle_gamma   106.94631379
_symmetry_Int_Tables_number   1
_chemical_formula_structural   CaNd6OsI12
_chemical_formula_sum   'Ca1 Nd6 Os1 I12'
_cell_volume   851.33820867
_cell_formula_units_Z   1
loop_
 _symmetry_equiv_pos_site_id
 _symmetry_equiv_pos_as_xyz
  1  'x, y, z'
loop_
 _atom_site_type_symbol
 _atom_site_label
 _atom_site_symmetry_multiplicity
 _atom_site_fract_x
 _atom_site_fract_y
 _atom_site_fract_z
 _atom_site_occupancy
  Ca  Ca0  1  0.500000  0.500000  0.500000  1
  Nd  Nd1  1  0.302954  0.096722  0.027141  1
  Nd  Nd2  1  0.027141  0.302954  0.096722  1
  Nd  Nd3  1  0.096722  0.027140  0.302954  1
  Nd  Nd4  1  0.903278  0.972860  0.697047  1
  Nd  Nd5  1  0.972859  0.697047  0.903279  1
  Nd  Nd6  1  0.697047  0.903278  0.972860  1
  Os  Os7  1  0.000000  0.000000  0.000000  1
  I  I8  1  0.685255  0.228207  0.073569  1
  I  I9  1  0.383186  0.457717  0.156810  1
  I  I10  1  0.073569  0.685254  0.228208  1
  I  I11  1  0.771793  0.926432  0.314745  1
  I  I12  1  0.457717  0.156810  0.383186  1
  I  I13  1  0.156810  0.383186  0.457717  1
  I  I14  1  0.843190  0.616815  0.542283  1
  I  I15  1  0.542283  0.843191  0.616814  1
  I  I16  1  0.228208  0.073569  0.685255  1
  I  I17  1  0.926431  0.314746  0.771793  1
  I  I18  1  0.616815  0.542283  0.843190  1
  I  I19  1  0.314746  0.771793  0.926431  1
