# generated using pymatgen
data_Pa3Zn3OsPd2
_symmetry_space_group_name_H-M   'P 1'
_cell_length_a   7.25003700
_cell_length_b   7.25003656
_cell_length_c   3.88432800
_cell_angle_alpha   90.00000000
_cell_angle_beta   90.00000000
_cell_angle_gamma   119.99999745
_symmetry_Int_Tables_number   1
_chemical_formula_structural   Pa3Zn3OsPd2
_chemical_formula_sum   'Pa3 Zn3 Os1 Pd2'
_cell_volume   176.81819701
_cell_formula_units_Z   1
loop_
 _symmetry_equiv_pos_site_id
 _symmetry_equiv_pos_as_xyz
  1  'x, y, z'
loop_
 _atom_site_type_symbol
 _atom_site_label
 _atom_site_symmetry_multiplicity
 _atom_site_fract_x
 _atom_site_fract_y
 _atom_site_fract_z
 _atom_site_occupancy
  Pa  Pa0  1  0.988559  0.409305  0.000000  1
  Pa  Pa1  1  0.590695  0.579254  0.000000  1
  Pa  Pa2  1  0.420746  0.011441  0.000000  1
  Zn  Zn3  1  0.002775  0.755607  0.500000  1
  Zn  Zn4  1  0.244393  0.247169  0.500000  1
  Zn  Zn5  1  0.752831  0.997225  0.500000  1
  Os  Os6  1  0.666667  0.333333  0.500000  1
  Pd  Pd7  1  0.000000  0.000000  0.000000  1
  Pd  Pd8  1  0.333333  0.666667  0.500000  1
