# generated using pymatgen
data_Ba2TiS5
_symmetry_space_group_name_H-M   'P 1'
_cell_length_a   8.74010900
_cell_length_b   9.03039969
_cell_length_c   11.92739500
_cell_angle_alpha   69.33450011
_cell_angle_beta   90.00000000
_cell_angle_gamma   90.00000000
_symmetry_Int_Tables_number   1
_chemical_formula_structural   Ba2TiS5
_chemical_formula_sum   'Ba8 Ti4 S20'
_cell_volume   880.81754527
_cell_formula_units_Z   4
loop_
 _symmetry_equiv_pos_site_id
 _symmetry_equiv_pos_as_xyz
  1  'x, y, z'
loop_
 _atom_site_type_symbol
 _atom_site_label
 _atom_site_symmetry_multiplicity
 _atom_site_fract_x
 _atom_site_fract_y
 _atom_site_fract_z
 _atom_site_occupancy
  Ba  Ba0  1  0.129261  0.765075  0.174894  1
  Ba  Ba1  1  0.629261  0.734925  0.325106  1
  Ba  Ba2  1  0.870739  0.234925  0.825106  1
  Ba  Ba3  1  0.370739  0.265075  0.674894  1
  Ba  Ba4  1  0.656560  0.312988  0.151987  1
  Ba  Ba5  1  0.156560  0.187012  0.348013  1
  Ba  Ba6  1  0.343440  0.687012  0.848013  1
  Ba  Ba7  1  0.843440  0.812988  0.651987  1
  Ti  Ti8  1  0.795490  0.306818  0.477431  1
  Ti  Ti9  1  0.295490  0.193182  0.022569  1
  Ti  Ti10  1  0.204510  0.693182  0.522569  1
  Ti  Ti11  1  0.704510  0.806818  0.977431  1
  S  S12  1  0.300502  0.545422  0.416675  1
  S  S13  1  0.800502  0.954578  0.083325  1
  S  S14  1  0.699498  0.454578  0.583325  1
  S  S15  1  0.199498  0.045422  0.916675  1
  S  S16  1  0.506404  0.660881  0.095941  1
  S  S17  1  0.006404  0.839119  0.404059  1
  S  S18  1  0.493596  0.339119  0.904059  1
  S  S19  1  0.993596  0.160881  0.595941  1
  S  S20  1  0.887322  0.470851  0.301291  1
  S  S21  1  0.387321  0.029149  0.198709  1
  S  S22  1  0.112679  0.529149  0.698709  1
  S  S23  1  0.612678  0.970851  0.801291  1
  S  S24  1  0.544057  0.239346  0.421136  1
  S  S25  1  0.044057  0.260654  0.078864  1
  S  S26  1  0.455943  0.760654  0.578864  1
  S  S27  1  0.955943  0.739346  0.921136  1
  S  S28  1  0.716160  0.078885  0.413566  1
  S  S29  1  0.216160  0.421115  0.086434  1
  S  S30  1  0.283840  0.921115  0.586434  1
  S  S31  1  0.783840  0.578885  0.913566  1
