# generated using pymatgen
data_Tb2YNb(Co4P3)2
_symmetry_space_group_name_H-M   'P 1'
_cell_length_a   3.71107200
_cell_length_b   10.63085100
_cell_length_c   12.33564400
_cell_angle_alpha   90.00000000
_cell_angle_beta   90.00000000
_cell_angle_gamma   90.00000000
_symmetry_Int_Tables_number   1
_chemical_formula_structural   Tb2YNb(Co4P3)2
_chemical_formula_sum   'Tb4 Y2 Nb2 Co16 P12'
_cell_volume   486.66401970
_cell_formula_units_Z   2
loop_
 _symmetry_equiv_pos_site_id
 _symmetry_equiv_pos_as_xyz
  1  'x, y, z'
loop_
 _atom_site_type_symbol
 _atom_site_label
 _atom_site_symmetry_multiplicity
 _atom_site_fract_x
 _atom_site_fract_y
 _atom_site_fract_z
 _atom_site_occupancy
  Tb  Tb0  1  0.000000  0.500000  0.525963  1
  Tb  Tb1  1  0.500000  0.000000  0.473810  1
  Tb  Tb2  1  0.000000  0.679999  0.794677  1
  Tb  Tb3  1  0.000000  0.320001  0.794677  1
  Y  Y4  1  0.500000  0.820049  0.205261  1
  Y  Y5  1  0.500000  0.179951  0.205261  1
  Nb  Nb6  1  0.500000  0.500000  0.156399  1
  Nb  Nb7  1  0.000000  0.000000  0.843787  1
  Co  Co8  1  0.500000  0.500000  0.701907  1
  Co  Co9  1  0.000000  0.000000  0.298046  1
  Co  Co10  1  0.000000  0.500000  0.985692  1
  Co  Co11  1  0.500000  0.000000  0.014548  1
  Co  Co12  1  0.500000  0.332480  0.991582  1
  Co  Co13  1  0.500000  0.667520  0.991582  1
  Co  Co14  1  0.000000  0.167420  0.008647  1
  Co  Co15  1  0.000000  0.832580  0.008647  1
  Co  Co16  1  0.500000  0.295280  0.432073  1
  Co  Co17  1  0.500000  0.704720  0.432073  1
  Co  Co18  1  0.000000  0.204710  0.567740  1
  Co  Co19  1  0.000000  0.795290  0.567740  1
  Co  Co20  1  0.500000  0.877661  0.704905  1
  Co  Co21  1  0.500000  0.122339  0.704905  1
  Co  Co22  1  0.000000  0.622444  0.294990  1
  Co  Co23  1  0.000000  0.377556  0.294990  1
  P  P24  1  0.500000  0.500000  0.882149  1
  P  P25  1  0.000000  0.000000  0.118239  1
  P  P26  1  0.500000  0.500000  0.354722  1
  P  P27  1  0.000000  0.000000  0.645219  1
  P  P28  1  0.500000  0.310323  0.615215  1
  P  P29  1  0.500000  0.689677  0.615215  1
  P  P30  1  0.000000  0.189466  0.384515  1
  P  P31  1  0.000000  0.810534  0.384515  1
  P  P32  1  0.500000  0.841670  0.893853  1
  P  P33  1  0.500000  0.158330  0.893853  1
  P  P34  1  0.000000  0.658426  0.106302  1
  P  P35  1  0.000000  0.341574  0.106302  1
