# generated using pymatgen
data_LiIrS4
_symmetry_space_group_name_H-M   'P 1'
_cell_length_a   5.76458215
_cell_length_b   5.88350593
_cell_length_c   5.74016000
_cell_angle_alpha   90.00000000
_cell_angle_beta   90.00000000
_cell_angle_gamma   88.77287628
_symmetry_Int_Tables_number   1
_chemical_formula_structural   LiIrS4
_chemical_formula_sum   'Li2 Ir2 S8'
_cell_volume   194.63834891
_cell_formula_units_Z   2
loop_
 _symmetry_equiv_pos_site_id
 _symmetry_equiv_pos_as_xyz
  1  'x, y, z'
loop_
 _atom_site_type_symbol
 _atom_site_label
 _atom_site_symmetry_multiplicity
 _atom_site_fract_x
 _atom_site_fract_y
 _atom_site_fract_z
 _atom_site_occupancy
  Li  Li0  1  0.000000  0.500000  0.500000  1
  Li  Li1  1  0.500000  0.500000  0.000000  1
  Ir  Ir2  1  0.500000  0.000000  0.500000  1
  Ir  Ir3  1  0.000000  0.000000  0.000000  1
  S  S4  1  0.384805  0.097611  0.886965  1
  S  S5  1  0.115195  0.902389  0.386965  1
  S  S6  1  0.898143  0.388553  0.097033  1
  S  S7  1  0.601857  0.611447  0.597033  1
  S  S8  1  0.398143  0.388553  0.402967  1
  S  S9  1  0.101857  0.611447  0.902967  1
  S  S10  1  0.884805  0.097611  0.613035  1
  S  S11  1  0.615195  0.902389  0.113035  1
