# generated using pymatgen
data_Lu7Hf(Ta3Ge4)4
_symmetry_space_group_name_H-M   'P 1'
_cell_length_a   6.92426181
_cell_length_b   7.08217202
_cell_length_c   13.40418859
_cell_angle_alpha   89.90203803
_cell_angle_beta   90.07256608
_cell_angle_gamma   89.96025342
_symmetry_Int_Tables_number   1
_chemical_formula_structural   Lu7Hf(Ta3Ge4)4
_chemical_formula_sum   'Lu7 Hf1 Ta12 Ge16'
_cell_volume   657.32385302
_cell_formula_units_Z   1
loop_
 _symmetry_equiv_pos_site_id
 _symmetry_equiv_pos_as_xyz
  1  'x, y, z'
loop_
 _atom_site_type_symbol
 _atom_site_label
 _atom_site_symmetry_multiplicity
 _atom_site_fract_x
 _atom_site_fract_y
 _atom_site_fract_z
 _atom_site_occupancy
  Lu  Lu0  1  0.993254  0.824179  0.906029  1
  Lu  Lu1  1  0.506531  0.324478  0.093682  1
  Lu  Lu2  1  0.006745  0.175262  0.406583  1
  Lu  Lu3  1  0.506865  0.325653  0.406974  1
  Lu  Lu4  1  0.006589  0.175420  0.093661  1
  Lu  Lu5  1  0.493140  0.675165  0.906690  1
  Lu  Lu6  1  0.992292  0.823906  0.593303  1
  Hf  Hf7  1  0.491084  0.676365  0.594506  1
  Ta  Ta8  1  0.658450  0.168646  0.625281  1
  Ta  Ta9  1  0.159432  0.332081  0.873782  1
  Ta  Ta10  1  0.341317  0.831627  0.126135  1
  Ta  Ta11  1  0.841553  0.668556  0.374105  1
  Ta  Ta12  1  0.342913  0.829946  0.375471  1
  Ta  Ta13  1  0.842005  0.668490  0.125883  1
  Ta  Ta14  1  0.658550  0.168549  0.873362  1
  Ta  Ta15  1  0.160746  0.333543  0.625401  1
  Ta  Ta16  1  0.834764  0.487578  0.749200  1
  Ta  Ta17  1  0.337136  0.011114  0.748713  1
  Ta  Ta18  1  0.164120  0.512448  0.250528  1
  Ta  Ta19  1  0.663470  0.987112  0.250381  1
  Ge  Ge20  1  0.679207  0.961815  0.459317  1
  Ge  Ge21  1  0.179678  0.536924  0.041559  1
  Ge  Ge22  1  0.320133  0.037245  0.958541  1
  Ge  Ge23  1  0.815852  0.465069  0.541775  1
  Ge  Ge24  1  0.321472  0.035628  0.541744  1
  Ge  Ge25  1  0.820640  0.463010  0.958368  1
  Ge  Ge26  1  0.679541  0.963335  0.041483  1
  Ge  Ge27  1  0.181691  0.537188  0.459220  1
  Ge  Ge28  1  0.460038  0.383912  0.749493  1
  Ge  Ge29  1  0.960178  0.117457  0.749805  1
  Ge  Ge30  1  0.540422  0.617037  0.249884  1
  Ge  Ge31  1  0.040759  0.882494  0.250110  1
  Ge  Ge32  1  0.693608  0.853207  0.749171  1
  Ge  Ge33  1  0.195367  0.645924  0.749726  1
  Ge  Ge34  1  0.305261  0.145375  0.250139  1
  Ge  Ge35  1  0.805199  0.354262  0.249993  1
