# generated using pymatgen
data_Y3Ho7In8(PdPt)2
_symmetry_space_group_name_H-M   'P 1'
_cell_length_a   3.61196600
_cell_length_b   8.16123173
_cell_length_c   18.26386282
_cell_angle_alpha   90.08403253
_cell_angle_beta   90.00000000
_cell_angle_gamma   90.00000000
_symmetry_Int_Tables_number   1
_chemical_formula_structural   Y3Ho7In8(PdPt)2
_chemical_formula_sum   'Y3 Ho7 In8 Pd2 Pt2'
_cell_volume   538.38324055
_cell_formula_units_Z   1
loop_
 _symmetry_equiv_pos_site_id
 _symmetry_equiv_pos_as_xyz
  1  'x, y, z'
loop_
 _atom_site_type_symbol
 _atom_site_label
 _atom_site_symmetry_multiplicity
 _atom_site_fract_x
 _atom_site_fract_y
 _atom_site_fract_z
 _atom_site_occupancy
  Y  Y0  1  0.000000  0.118391  0.416075  1
  Y  Y1  1  0.000000  0.999976  0.999994  1
  Y  Y2  1  0.000000  0.500266  0.500047  1
  Ho  Ho3  1  0.000000  0.881896  0.584553  1
  Ho  Ho4  1  0.000000  0.382971  0.914900  1
  Ho  Ho5  1  0.000000  0.617054  0.085093  1
  Ho  Ho6  1  0.000000  0.246038  0.219247  1
  Ho  Ho7  1  0.000000  0.753892  0.780700  1
  Ho  Ho8  1  0.000000  0.260330  0.720360  1
  Ho  Ho9  1  0.000000  0.739665  0.279602  1
  In  In10  1  0.500000  0.422511  0.350874  1
  In  In11  1  0.500000  0.577845  0.649044  1
  In  In12  1  0.500000  0.075682  0.850223  1
  In  In13  1  0.500000  0.924291  0.149767  1
  In  In14  1  0.500000  0.292690  0.066597  1
  In  In15  1  0.500000  0.707343  0.933404  1
  In  In16  1  0.500000  0.206489  0.567240  1
  In  In17  1  0.500000  0.793128  0.432888  1
  Pd  Pd18  1  0.500000  0.024089  0.302946  1
  Pd  Pd19  1  0.500000  0.975466  0.696447  1
  Pt  Pt20  1  0.500000  0.475070  0.803345  1
  Pt  Pt21  1  0.500000  0.524917  0.196654  1
