# generated using pymatgen
data_Tm4CrFe8Ni11P12
_symmetry_space_group_name_H-M   'P 1'
_cell_length_a   3.68518500
_cell_length_b   10.23703377
_cell_length_c   11.88167295
_cell_angle_alpha   90.18257635
_cell_angle_beta   90.00000000
_cell_angle_gamma   90.00000000
_symmetry_Int_Tables_number   1
_chemical_formula_structural   Tm4CrFe8Ni11P12
_chemical_formula_sum   'Tm4 Cr1 Fe8 Ni11 P12'
_cell_volume   448.23815261
_cell_formula_units_Z   1
loop_
 _symmetry_equiv_pos_site_id
 _symmetry_equiv_pos_as_xyz
  1  'x, y, z'
loop_
 _atom_site_type_symbol
 _atom_site_label
 _atom_site_symmetry_multiplicity
 _atom_site_fract_x
 _atom_site_fract_y
 _atom_site_fract_z
 _atom_site_occupancy
  Tm  Tm0  1  0.250000  0.576480  0.706036  1
  Tm  Tm1  1  0.250000  0.923510  0.205864  1
  Tm  Tm2  1  0.750000  0.425422  0.295407  1
  Tm  Tm3  1  0.750000  0.077937  0.791920  1
  Cr  Cr4  1  0.250000  0.702144  0.991222  1
  Fe  Fe5  1  0.250000  0.871725  0.700500  1
  Fe  Fe6  1  0.250000  0.627795  0.203528  1
  Fe  Fe7  1  0.750000  0.129506  0.297719  1
  Fe  Fe8  1  0.750000  0.373097  0.799389  1
  Fe  Fe9  1  0.250000  0.459026  0.933600  1
  Fe  Fe10  1  0.250000  0.039778  0.430869  1
  Fe  Fe11  1  0.750000  0.537072  0.067747  1
  Fe  Fe12  1  0.750000  0.961430  0.566764  1
  Ni  Ni13  1  0.250000  0.787211  0.493698  1
  Ni  Ni14  1  0.750000  0.289442  0.009103  1
  Ni  Ni15  1  0.750000  0.213495  0.506145  1
  Ni  Ni16  1  0.250000  0.408102  0.485315  1
  Ni  Ni17  1  0.250000  0.091249  0.983448  1
  Ni  Ni18  1  0.750000  0.591018  0.516569  1
  Ni  Ni19  1  0.750000  0.907046  0.015182  1
  Ni  Ni20  1  0.250000  0.228451  0.170783  1
  Ni  Ni21  1  0.250000  0.271744  0.670953  1
  Ni  Ni22  1  0.750000  0.773493  0.828745  1
  Ni  Ni23  1  0.750000  0.729187  0.329910  1
  P  P24  1  0.250000  0.434074  0.115709  1
  P  P25  1  0.250000  0.065725  0.612740  1
  P  P26  1  0.750000  0.567885  0.886856  1
  P  P27  1  0.750000  0.935548  0.385163  1
  P  P28  1  0.250000  0.266557  0.861497  1
  P  P29  1  0.250000  0.232920  0.362705  1
  P  P30  1  0.750000  0.730564  0.138546  1
  P  P31  1  0.750000  0.768557  0.636224  1
  P  P32  1  0.250000  0.604726  0.390787  1
  P  P33  1  0.250000  0.898013  0.887492  1
  P  P34  1  0.750000  0.394516  0.611504  1
  P  P35  1  0.750000  0.105558  0.110365  1
