# generated using pymatgen
data_Lu5(In2Cu)2
_symmetry_space_group_name_H-M   'P 1'
_cell_length_a   3.59618400
_cell_length_b   7.91308000
_cell_length_c   17.65034500
_cell_angle_alpha   90.00000000
_cell_angle_beta   90.00000000
_cell_angle_gamma   90.00000000
_symmetry_Int_Tables_number   1
_chemical_formula_structural   Lu5(In2Cu)2
_chemical_formula_sum   'Lu10 In8 Cu4'
_cell_volume   502.27395590
_cell_formula_units_Z   2
loop_
 _symmetry_equiv_pos_site_id
 _symmetry_equiv_pos_as_xyz
  1  'x, y, z'
loop_
 _atom_site_type_symbol
 _atom_site_label
 _atom_site_symmetry_multiplicity
 _atom_site_fract_x
 _atom_site_fract_y
 _atom_site_fract_z
 _atom_site_occupancy
  Lu  Lu0  1  0.000000  0.500000  0.500000  1
  Lu  Lu1  1  0.000000  0.000000  0.000000  1
  Lu  Lu2  1  0.000000  0.736504  0.279705  1
  Lu  Lu3  1  0.000000  0.263496  0.720295  1
  Lu  Lu4  1  0.000000  0.763496  0.779705  1
  Lu  Lu5  1  0.000000  0.236504  0.220295  1
  Lu  Lu6  1  0.000000  0.614752  0.083243  1
  Lu  Lu7  1  0.000000  0.385248  0.916757  1
  Lu  Lu8  1  0.000000  0.885248  0.583243  1
  Lu  Lu9  1  0.000000  0.114752  0.416757  1
  In  In10  1  0.500000  0.711098  0.931606  1
  In  In11  1  0.500000  0.288902  0.068394  1
  In  In12  1  0.500000  0.788902  0.431606  1
  In  In13  1  0.500000  0.211098  0.568394  1
  In  In14  1  0.500000  0.583761  0.649815  1
  In  In15  1  0.500000  0.416239  0.350185  1
  In  In16  1  0.500000  0.916239  0.149815  1
  In  In17  1  0.500000  0.083761  0.850185  1
  Cu  Cu18  1  0.500000  0.521774  0.197370  1
  Cu  Cu19  1  0.500000  0.478226  0.802630  1
  Cu  Cu20  1  0.500000  0.978226  0.697370  1
  Cu  Cu21  1  0.500000  0.021774  0.302630  1
