# generated using pymatgen
data_Ta2V2GaSi
_symmetry_space_group_name_H-M   'P 1'
_cell_length_a   3.38064100
_cell_length_b   6.68601824
_cell_length_c   8.05284519
_cell_angle_alpha   90.56275500
_cell_angle_beta   90.00000000
_cell_angle_gamma   90.00000000
_symmetry_Int_Tables_number   1
_chemical_formula_structural   Ta2V2GaSi
_chemical_formula_sum   'Ta4 V4 Ga2 Si2'
_cell_volume   182.00990062
_cell_formula_units_Z   2
loop_
 _symmetry_equiv_pos_site_id
 _symmetry_equiv_pos_as_xyz
  1  'x, y, z'
loop_
 _atom_site_type_symbol
 _atom_site_label
 _atom_site_symmetry_multiplicity
 _atom_site_fract_x
 _atom_site_fract_y
 _atom_site_fract_z
 _atom_site_occupancy
  Ta  Ta0  1  0.250000  0.545213  0.160949  1
  Ta  Ta1  1  0.750000  0.454787  0.839051  1
  Ta  Ta2  1  0.750000  0.938556  0.672136  1
  Ta  Ta3  1  0.250000  0.061444  0.327864  1
  V  V4  1  0.250000  0.626473  0.565778  1
  V  V5  1  0.750000  0.373527  0.434222  1
  V  V6  1  0.750000  0.873901  0.059373  1
  V  V7  1  0.250000  0.126099  0.940627  1
  Ga  Ga8  1  0.750000  0.752303  0.360594  1
  Ga  Ga9  1  0.250000  0.247697  0.639406  1
  Si  Si10  1  0.250000  0.750943  0.864161  1
  Si  Si11  1  0.750000  0.249057  0.135839  1
