# generated using pymatgen
data_Ta12Al8CrCo2AuC4
_symmetry_space_group_name_H-M   'P 1'
_cell_length_a   8.23428242
_cell_length_b   8.21946613
_cell_length_c   8.23428200
_cell_angle_alpha   60.05950593
_cell_angle_beta   60.16885080
_cell_angle_gamma   60.05950279
_symmetry_Int_Tables_number   1
_chemical_formula_structural   Ta12Al8CrCo2AuC4
_chemical_formula_sum   'Ta12 Al8 Cr1 Co2 Au1 C4'
_cell_volume   394.93194446
_cell_formula_units_Z   1
loop_
 _symmetry_equiv_pos_site_id
 _symmetry_equiv_pos_as_xyz
  1  'x, y, z'
loop_
 _atom_site_type_symbol
 _atom_site_label
 _atom_site_symmetry_multiplicity
 _atom_site_fract_x
 _atom_site_fract_y
 _atom_site_fract_z
 _atom_site_occupancy
  Ta  Ta0  1  0.550970  0.939212  0.570607  1
  Ta  Ta1  1  0.308149  0.699218  0.684603  1
  Ta  Ta2  1  0.687692  0.314196  0.315435  1
  Ta  Ta3  1  0.312280  0.687291  0.313139  1
  Ta  Ta4  1  0.687692  0.682676  0.315435  1
  Ta  Ta5  1  0.308149  0.308029  0.684603  1
  Ta  Ta6  1  0.562308  0.567324  0.934565  1
  Ta  Ta7  1  0.941851  0.550782  0.565397  1
  Ta  Ta8  1  0.562308  0.935804  0.934565  1
  Ta  Ta9  1  0.941851  0.941971  0.565397  1
  Ta  Ta10  1  0.699030  0.310788  0.679393  1
  Ta  Ta11  1  0.937720  0.562709  0.936861  1
  Al  Al12  1  0.927964  0.907325  0.917416  1
  Al  Al13  1  0.004853  0.334857  0.325432  1
  Al  Al14  1  0.322036  0.002705  0.332584  1
  Al  Al15  1  0.320398  0.341688  0.996224  1
  Al  Al16  1  0.927964  0.247295  0.917416  1
  Al  Al17  1  0.929602  0.908312  0.253776  1
  Al  Al18  1  0.245147  0.915143  0.924568  1
  Al  Al19  1  0.322036  0.342675  0.332584  1
  Cr  Cr20  1  0.125000  0.125000  0.625000  1
  Co  Co21  1  0.125000  0.125000  0.125000  1
  Co  Co22  1  0.125000  0.625000  0.125000  1
  Au  Au23  1  0.625000  0.125000  0.125000  1
  C  C24  1  0.625000  0.625000  0.625000  1
  C  C25  1  0.125000  0.625000  0.625000  1
  C  C26  1  0.625000  0.125000  0.625000  1
  C  C27  1  0.625000  0.625000  0.125000  1
