# generated using pymatgen
data_Nd8Ag2PtRh
_symmetry_space_group_name_H-M   'P 1'
_cell_length_a   9.89280979
_cell_length_b   9.89280882
_cell_length_c   9.86090800
_cell_angle_alpha   60.10661996
_cell_angle_beta   60.10662320
_cell_angle_gamma   60.24992457
_symmetry_Int_Tables_number   1
_chemical_formula_structural   Nd8Ag2PtRh
_chemical_formula_sum   'Nd16 Ag4 Pt2 Rh2'
_cell_volume   684.78690158
_cell_formula_units_Z   2
loop_
 _symmetry_equiv_pos_site_id
 _symmetry_equiv_pos_as_xyz
  1  'x, y, z'
loop_
 _atom_site_type_symbol
 _atom_site_label
 _atom_site_symmetry_multiplicity
 _atom_site_fract_x
 _atom_site_fract_y
 _atom_site_fract_z
 _atom_site_occupancy
  Nd  Nd0  1  0.604075  0.604075  0.600524  1
  Nd  Nd1  1  0.604075  0.604075  0.191326  1
  Nd  Nd2  1  0.607591  0.185860  0.603275  1
  Nd  Nd3  1  0.185860  0.607591  0.603275  1
  Nd  Nd4  1  0.057688  0.438697  0.440091  1
  Nd  Nd5  1  0.438697  0.057688  0.063524  1
  Nd  Nd6  1  0.438697  0.057688  0.440091  1
  Nd  Nd7  1  0.057688  0.438697  0.063524  1
  Nd  Nd8  1  0.440032  0.440032  0.059968  1
  Nd  Nd9  1  0.061099  0.061099  0.438901  1
  Nd  Nd10  1  0.186690  0.814633  0.813683  1
  Nd  Nd11  1  0.814633  0.186690  0.184994  1
  Nd  Nd12  1  0.814633  0.186690  0.813683  1
  Nd  Nd13  1  0.186690  0.814633  0.184994  1
  Nd  Nd14  1  0.814693  0.814693  0.185307  1
  Nd  Nd15  1  0.186298  0.186298  0.813702  1
  Ag  Ag16  1  0.831759  0.831759  0.831478  1
  Ag  Ag17  1  0.831759  0.831759  0.505006  1
  Ag  Ag18  1  0.831686  0.505349  0.831483  1
  Ag  Ag19  1  0.505349  0.831686  0.831483  1
  Pt  Pt20  1  0.393443  0.393443  0.394720  1
  Pt  Pt21  1  0.393443  0.393443  0.818393  1
  Rh  Rh22  1  0.392904  0.820518  0.393288  1
  Rh  Rh23  1  0.820518  0.392904  0.393288  1
