# generated using pymatgen
data_Sm4SiI5
_symmetry_space_group_name_H-M   'P 1'
_cell_length_a   9.96206734
_cell_length_b   9.96206767
_cell_length_c   8.89945554
_cell_angle_alpha   77.68116195
_cell_angle_beta   77.68116096
_cell_angle_gamma   24.91016247
_symmetry_Int_Tables_number   1
_chemical_formula_structural   Sm4SiI5
_chemical_formula_sum   'Sm4 Si1 I5'
_cell_volume   363.01554504
_cell_formula_units_Z   1
loop_
 _symmetry_equiv_pos_site_id
 _symmetry_equiv_pos_as_xyz
  1  'x, y, z'
loop_
 _atom_site_type_symbol
 _atom_site_label
 _atom_site_symmetry_multiplicity
 _atom_site_fract_x
 _atom_site_fract_y
 _atom_site_fract_z
 _atom_site_occupancy
  Sm  Sm0  1  0.854467  0.854467  0.074705  1
  Sm  Sm1  1  0.145533  0.145533  0.925295  1
  Sm  Sm2  1  0.500603  0.500603  0.212916  1
  Sm  Sm3  1  0.499397  0.499397  0.787084  1
  Si  Si4  1  0.000000  0.000000  0.000000  1
  I  I5  1  0.671940  0.671940  0.171500  1
  I  I6  1  0.328060  0.328060  0.828500  1
  I  I7  1  0.665839  0.665839  0.661506  1
  I  I8  1  0.334161  0.334161  0.338494  1
  I  I9  1  0.000000  0.000000  0.500000  1
