# generated using pymatgen
data_Dy5Hf4Zr(Si5Ir2)4
_symmetry_space_group_name_H-M   'P 1'
_cell_length_a   12.50380600
_cell_length_b   12.50380600
_cell_length_c   4.16516300
_cell_angle_alpha   90.00000000
_cell_angle_beta   90.00000000
_cell_angle_gamma   90.00000000
_symmetry_Int_Tables_number   1
_chemical_formula_structural   Dy5Hf4Zr(Si5Ir2)4
_chemical_formula_sum   'Dy5 Hf4 Zr1 Si20 Ir8'
_cell_volume   651.20309434
_cell_formula_units_Z   1
loop_
 _symmetry_equiv_pos_site_id
 _symmetry_equiv_pos_as_xyz
  1  'x, y, z'
loop_
 _atom_site_type_symbol
 _atom_site_label
 _atom_site_symmetry_multiplicity
 _atom_site_fract_x
 _atom_site_fract_y
 _atom_site_fract_z
 _atom_site_occupancy
  Dy  Dy0  1  0.000000  0.000000  0.000000  1
  Dy  Dy1  1  0.884367  0.384800  0.500000  1
  Dy  Dy2  1  0.115633  0.615200  0.500000  1
  Dy  Dy3  1  0.384800  0.115633  0.500000  1
  Dy  Dy4  1  0.615200  0.884367  0.500000  1
  Hf  Hf5  1  0.673689  0.175325  0.500000  1
  Hf  Hf6  1  0.326311  0.824675  0.500000  1
  Hf  Hf7  1  0.175325  0.326311  0.500000  1
  Hf  Hf8  1  0.824675  0.673689  0.500000  1
  Zr  Zr9  1  0.500000  0.500000  0.000000  1
  Si  Si10  1  0.565865  0.067707  0.000000  1
  Si  Si11  1  0.434135  0.932293  0.000000  1
  Si  Si12  1  0.067707  0.434135  0.000000  1
  Si  Si13  1  0.932293  0.565865  0.000000  1
  Si  Si14  1  0.665047  0.701287  0.000000  1
  Si  Si15  1  0.334953  0.298713  0.000000  1
  Si  Si16  1  0.163779  0.800365  0.000000  1
  Si  Si17  1  0.836221  0.199635  0.000000  1
  Si  Si18  1  0.298713  0.665047  0.000000  1
  Si  Si19  1  0.701287  0.334953  0.000000  1
  Si  Si20  1  0.199635  0.163779  0.000000  1
  Si  Si21  1  0.800365  0.836221  0.000000  1
  Si  Si22  1  0.652079  0.507757  0.500000  1
  Si  Si23  1  0.347921  0.492243  0.500000  1
  Si  Si24  1  0.157184  0.992682  0.500000  1
  Si  Si25  1  0.842816  0.007318  0.500000  1
  Si  Si26  1  0.492243  0.652079  0.500000  1
  Si  Si27  1  0.507757  0.347921  0.500000  1
  Si  Si28  1  0.007318  0.157184  0.500000  1
  Si  Si29  1  0.992682  0.842816  0.500000  1
  Ir  Ir30  1  0.742806  0.522047  0.000000  1
  Ir  Ir31  1  0.257194  0.477953  0.000000  1
  Ir  Ir32  1  0.246508  0.977529  0.000000  1
  Ir  Ir33  1  0.753492  0.022471  0.000000  1
  Ir  Ir34  1  0.477953  0.742806  0.000000  1
  Ir  Ir35  1  0.522047  0.257194  0.000000  1
  Ir  Ir36  1  0.022471  0.246508  0.000000  1
  Ir  Ir37  1  0.977529  0.753492  0.000000  1
