# generated using pymatgen
data_Li8Tb3Dy5Sn7Sb
_symmetry_space_group_name_H-M   'P 1'
_cell_length_a   9.38695600
_cell_length_b   9.38839399
_cell_length_c   7.29296208
_cell_angle_alpha   90.08415638
_cell_angle_beta   90.00000000
_cell_angle_gamma   119.99493343
_symmetry_Int_Tables_number   1
_chemical_formula_structural   Li8Tb3Dy5Sn7Sb
_chemical_formula_sum   'Li8 Tb3 Dy5 Sn7 Sb1'
_cell_volume   556.63719317
_cell_formula_units_Z   1
loop_
 _symmetry_equiv_pos_site_id
 _symmetry_equiv_pos_as_xyz
  1  'x, y, z'
loop_
 _atom_site_type_symbol
 _atom_site_label
 _atom_site_symmetry_multiplicity
 _atom_site_fract_x
 _atom_site_fract_y
 _atom_site_fract_z
 _atom_site_occupancy
  Li  Li0  1  0.166648  0.333296  0.288116  1
  Li  Li1  1  0.166834  0.833336  0.288618  1
  Li  Li2  1  0.666502  0.833336  0.288618  1
  Li  Li3  1  0.833395  0.666790  0.788893  1
  Li  Li4  1  0.832550  0.166273  0.789890  1
  Li  Li5  1  0.333722  0.166273  0.789890  1
  Li  Li6  1  0.333602  0.667204  0.669852  1
  Li  Li7  1  0.666694  0.333386  0.170328  1
  Tb  Tb8  1  0.512330  0.024659  0.494039  1
  Tb  Tb9  1  0.514899  0.489547  0.492045  1
  Tb  Tb10  1  0.974649  0.489547  0.492045  1
  Dy  Dy11  1  0.487656  0.975314  0.994442  1
  Dy  Dy12  1  0.489686  0.512816  0.995166  1
  Dy  Dy13  1  0.023129  0.512816  0.995166  1
  Dy  Dy14  1  0.998885  0.997770  0.498531  1
  Dy  Dy15  1  0.999068  0.998135  0.001432  1
  Sn  Sn16  1  0.166413  0.832929  0.729902  1
  Sn  Sn17  1  0.666516  0.832929  0.729902  1
  Sn  Sn18  1  0.833399  0.666799  0.229652  1
  Sn  Sn19  1  0.833885  0.167128  0.229502  1
  Sn  Sn20  1  0.333242  0.167128  0.229502  1
  Sn  Sn21  1  0.332860  0.665722  0.261009  1
  Sn  Sn22  1  0.666881  0.333762  0.762856  1
  Sb  Sb23  1  0.166554  0.333108  0.732600  1
