# generated using pymatgen
data_CePa2(AlRh)3
_symmetry_space_group_name_H-M   'P 1'
_cell_length_a   7.11888072
_cell_length_b   7.06789996
_cell_length_c   4.04712200
_cell_angle_alpha   90.00000000
_cell_angle_beta   90.00000000
_cell_angle_gamma   119.77579215
_symmetry_Int_Tables_number   1
_chemical_formula_structural   CePa2(AlRh)3
_chemical_formula_sum   'Ce1 Pa2 Al3 Rh3'
_cell_volume   176.74852504
_cell_formula_units_Z   1
loop_
 _symmetry_equiv_pos_site_id
 _symmetry_equiv_pos_as_xyz
  1  'x, y, z'
loop_
 _atom_site_type_symbol
 _atom_site_label
 _atom_site_symmetry_multiplicity
 _atom_site_fract_x
 _atom_site_fract_y
 _atom_site_fract_z
 _atom_site_occupancy
  Ce  Ce0  1  0.999976  0.581352  0.500000  1
  Pa  Pa1  1  0.419997  0.417974  0.500000  1
  Pa  Pa2  1  0.580019  0.997971  0.500000  1
  Al  Al3  1  0.769685  0.766554  0.000000  1
  Al  Al4  1  0.230319  0.996850  0.000000  1
  Al  Al5  1  0.999979  0.240661  0.000000  1
  Rh  Rh6  1  0.645429  0.313722  0.000000  1
  Rh  Rh7  1  0.354618  0.668388  0.000000  1
  Rh  Rh8  1  0.999977  0.016526  0.500000  1
