# generated using pymatgen
data_Co2HSe2
_symmetry_space_group_name_H-M   'P 1'
_cell_length_a   3.58188543
_cell_length_b   3.58747484
_cell_length_c   7.16605592
_cell_angle_alpha   110.55512213
_cell_angle_beta   77.14689438
_cell_angle_gamma   89.99111072
_symmetry_Int_Tables_number   1
_chemical_formula_structural   Co2HSe2
_chemical_formula_sum   'Co2 H1 Se2'
_cell_volume   83.75092211
_cell_formula_units_Z   1
loop_
 _symmetry_equiv_pos_site_id
 _symmetry_equiv_pos_as_xyz
  1  'x, y, z'
loop_
 _atom_site_type_symbol
 _atom_site_label
 _atom_site_symmetry_multiplicity
 _atom_site_fract_x
 _atom_site_fract_y
 _atom_site_fract_z
 _atom_site_occupancy
  Co  Co0  1  0.254316  0.276745  0.507584  1
  Co  Co1  1  0.754382  0.776677  0.507571  1
  H  H2  1  0.254343  0.776612  0.507380  1
  Se  Se3  1  0.860588  0.108111  0.267946  1
  Se  Se4  1  0.647705  0.445202  0.747288  1
