# generated using pymatgen
data_Gd4MoOs7
_symmetry_space_group_name_H-M   'P 1'
_cell_length_a   5.27155388
_cell_length_b   5.27155487
_cell_length_c   9.00381100
_cell_angle_alpha   90.00000000
_cell_angle_beta   90.00000000
_cell_angle_gamma   117.56259443
_symmetry_Int_Tables_number   1
_chemical_formula_structural   Gd4MoOs7
_chemical_formula_sum   'Gd4 Mo1 Os7'
_cell_volume   221.81216403
_cell_formula_units_Z   1
loop_
 _symmetry_equiv_pos_site_id
 _symmetry_equiv_pos_as_xyz
  1  'x, y, z'
loop_
 _atom_site_type_symbol
 _atom_site_label
 _atom_site_symmetry_multiplicity
 _atom_site_fract_x
 _atom_site_fract_y
 _atom_site_fract_z
 _atom_site_occupancy
  Gd  Gd0  1  0.330282  0.669718  0.437667  1
  Gd  Gd1  1  0.666066  0.333934  0.566136  1
  Gd  Gd2  1  0.666066  0.333934  0.933864  1
  Gd  Gd3  1  0.330282  0.669718  0.062333  1
  Mo  Mo4  1  0.834395  0.165605  0.250000  1
  Os  Os5  1  0.994068  0.005932  0.502260  1
  Os  Os6  1  0.994068  0.005932  0.997740  1
  Os  Os7  1  0.827724  0.654634  0.250000  1
  Os  Os8  1  0.345366  0.172276  0.250000  1
  Os  Os9  1  0.176368  0.823632  0.750000  1
  Os  Os10  1  0.171545  0.336229  0.750000  1
  Os  Os11  1  0.663771  0.828455  0.750000  1
