# generated using pymatgen
data_YLuHf2(Al3Rh)6
_symmetry_space_group_name_H-M   'P 1'
_cell_length_a   7.48878674
_cell_length_b   7.49129832
_cell_length_c   9.34040900
_cell_angle_alpha   90.00000000
_cell_angle_beta   90.00000000
_cell_angle_gamma   119.62396281
_symmetry_Int_Tables_number   1
_chemical_formula_structural   YLuHf2(Al3Rh)6
_chemical_formula_sum   'Y1 Lu1 Hf2 Al18 Rh6'
_cell_volume   455.51037051
_cell_formula_units_Z   1
loop_
 _symmetry_equiv_pos_site_id
 _symmetry_equiv_pos_as_xyz
  1  'x, y, z'
loop_
 _atom_site_type_symbol
 _atom_site_label
 _atom_site_symmetry_multiplicity
 _atom_site_fract_x
 _atom_site_fract_y
 _atom_site_fract_z
 _atom_site_occupancy
  Y  Y0  1  0.006735  0.328721  0.750000  1
  Lu  Lu1  1  0.328481  0.006569  0.750000  1
  Hf  Hf2  1  0.994524  0.672808  0.250000  1
  Hf  Hf3  1  0.671820  0.993641  0.250000  1
  Al  Al4  1  0.121076  0.120992  0.250000  1
  Al  Al5  1  0.870476  0.869397  0.750000  1
  Al  Al6  1  0.996472  0.335008  0.083554  1
  Al  Al7  1  0.000220  0.666162  0.930112  1
  Al  Al8  1  0.000220  0.666162  0.569888  1
  Al  Al9  1  0.335083  0.996787  0.417318  1
  Al  Al10  1  0.996472  0.335008  0.416446  1
  Al  Al11  1  0.664017  0.999051  0.569968  1
  Al  Al12  1  0.664017  0.999051  0.930032  1
  Al  Al13  1  0.335083  0.996787  0.082682  1
  Al  Al14  1  0.334594  0.333633  0.550510  1
  Al  Al15  1  0.669440  0.669323  0.437235  1
  Al  Al16  1  0.669440  0.669323  0.062765  1
  Al  Al17  1  0.334594  0.333633  0.949490  1
  Al  Al18  1  0.339120  0.555720  0.250000  1
  Al  Al19  1  0.660537  0.450794  0.750000  1
  Al  Al20  1  0.556103  0.339149  0.250000  1
  Al  Al21  1  0.452143  0.663018  0.750000  1
  Rh  Rh22  1  0.673009  0.327718  0.002608  1
  Rh  Rh23  1  0.327900  0.673268  0.002725  1
  Rh  Rh24  1  0.327900  0.673268  0.497275  1
  Rh  Rh25  1  0.673009  0.327718  0.497392  1
  Rh  Rh26  1  0.998756  0.998646  0.002184  1
  Rh  Rh27  1  0.998756  0.998646  0.497816  1
