# generated using pymatgen
data_Ho16Mg3InIr3Pd
_symmetry_space_group_name_H-M   'P 1'
_cell_length_a   9.63675923
_cell_length_b   9.69753023
_cell_length_c   9.69753100
_cell_angle_alpha   60.00000077
_cell_angle_beta   59.79117435
_cell_angle_gamma   59.79117544
_symmetry_Int_Tables_number   1
_chemical_formula_structural   Ho16Mg3InIr3Pd
_chemical_formula_sum   'Ho16 Mg3 In1 Ir3 Pd1'
_cell_volume   638.79321292
_cell_formula_units_Z   1
loop_
 _symmetry_equiv_pos_site_id
 _symmetry_equiv_pos_as_xyz
  1  'x, y, z'
loop_
 _atom_site_type_symbol
 _atom_site_label
 _atom_site_symmetry_multiplicity
 _atom_site_fract_x
 _atom_site_fract_y
 _atom_site_fract_z
 _atom_site_occupancy
  Ho  Ho0  1  0.439168  0.432280  0.064277  1
  Ho  Ho1  1  0.654757  0.648917  0.047411  1
  Ho  Ho2  1  0.182873  0.812597  0.191932  1
  Ho  Ho3  1  0.062470  0.436794  0.063943  1
  Ho  Ho4  1  0.182873  0.812597  0.812597  1
  Ho  Ho5  1  0.062470  0.436794  0.436794  1
  Ho  Ho6  1  0.812231  0.188925  0.188925  1
  Ho  Ho7  1  0.654757  0.648917  0.648917  1
  Ho  Ho8  1  0.812231  0.188925  0.809920  1
  Ho  Ho9  1  0.182873  0.191932  0.812597  1
  Ho  Ho10  1  0.038336  0.653888  0.653888  1
  Ho  Ho11  1  0.439168  0.064277  0.064277  1
  Ho  Ho12  1  0.062470  0.063943  0.436794  1
  Ho  Ho13  1  0.654757  0.047411  0.648917  1
  Ho  Ho14  1  0.812231  0.809920  0.188925  1
  Ho  Ho15  1  0.439168  0.064277  0.432280  1
  Mg  Mg16  1  0.421541  0.419695  0.419695  1
  Mg  Mg17  1  0.421541  0.419695  0.739071  1
  Mg  Mg18  1  0.421541  0.739071  0.419695  1
  In  In19  1  0.747041  0.417654  0.417654  1
  Ir  Ir20  1  0.856203  0.859361  0.859361  1
  Ir  Ir21  1  0.856203  0.425072  0.859361  1
  Ir  Ir22  1  0.856203  0.859361  0.425072  1
  Pd  Pd23  1  0.426896  0.857701  0.857701  1
