# generated using pymatgen
data_Hf7Zr3Ga2Sn3Bi2Pb
_symmetry_space_group_name_H-M   'P 1'
_cell_length_a   8.73304500
_cell_length_b   8.72150468
_cell_length_c   5.87085700
_cell_angle_alpha   90.00000000
_cell_angle_beta   90.00000000
_cell_angle_gamma   119.95630531
_symmetry_Int_Tables_number   1
_chemical_formula_structural   Hf7Zr3Ga2Sn3Bi2Pb
_chemical_formula_sum   'Hf7 Zr3 Ga2 Sn3 Bi2 Pb1'
_cell_volume   387.41845097
_cell_formula_units_Z   1
loop_
 _symmetry_equiv_pos_site_id
 _symmetry_equiv_pos_as_xyz
  1  'x, y, z'
loop_
 _atom_site_type_symbol
 _atom_site_label
 _atom_site_symmetry_multiplicity
 _atom_site_fract_x
 _atom_site_fract_y
 _atom_site_fract_z
 _atom_site_occupancy
  Hf  Hf0  1  0.269708  0.270119  0.250000  1
  Hf  Hf1  1  0.729419  0.005151  0.250000  1
  Hf  Hf2  1  0.004588  0.727814  0.250000  1
  Hf  Hf3  1  0.670644  0.333522  0.003929  1
  Hf  Hf4  1  0.327252  0.666164  0.003932  1
  Hf  Hf5  1  0.327252  0.666164  0.496068  1
  Hf  Hf6  1  0.670644  0.333522  0.496071  1
  Zr  Zr7  1  0.745062  0.739855  0.750000  1
  Zr  Zr8  1  0.256640  0.994225  0.750000  1
  Zr  Zr9  1  0.999334  0.262504  0.750000  1
  Ga  Ga10  1  0.999633  0.000112  0.014970  1
  Ga  Ga11  1  0.999633  0.000112  0.485030  1
  Sn  Sn12  1  0.998588  0.605528  0.750000  1
  Sn  Sn13  1  0.385988  0.001433  0.250000  1
  Sn  Sn14  1  0.000510  0.386245  0.250000  1
  Bi  Bi15  1  0.393303  0.392396  0.750000  1
  Bi  Bi16  1  0.605853  0.997789  0.750000  1
  Pb  Pb17  1  0.615950  0.617345  0.250000  1
