# generated using pymatgen
data_Se2IBr
_symmetry_space_group_name_H-M   'P 1'
_cell_length_a   15.92912500
_cell_length_b   5.43669821
_cell_length_c   7.87634260
_cell_angle_alpha   85.30069010
_cell_angle_beta   90.00000000
_cell_angle_gamma   90.00000000
_symmetry_Int_Tables_number   1
_chemical_formula_structural   Se2IBr
_chemical_formula_sum   'Se8 I4 Br4'
_cell_volume   679.81281882
_cell_formula_units_Z   4
loop_
 _symmetry_equiv_pos_site_id
 _symmetry_equiv_pos_as_xyz
  1  'x, y, z'
loop_
 _atom_site_type_symbol
 _atom_site_label
 _atom_site_symmetry_multiplicity
 _atom_site_fract_x
 _atom_site_fract_y
 _atom_site_fract_z
 _atom_site_occupancy
  Se  Se0  1  0.868462  0.948074  0.391293  1
  Se  Se1  1  0.368462  0.551926  0.608707  1
  Se  Se2  1  0.131538  0.051926  0.608707  1
  Se  Se3  1  0.631538  0.448074  0.391293  1
  Se  Se4  1  0.956458  0.164165  0.209202  1
  Se  Se5  1  0.456458  0.335835  0.790798  1
  Se  Se6  1  0.043542  0.835835  0.790798  1
  Se  Se7  1  0.543542  0.664165  0.209202  1
  I  I8  1  0.868070  0.161143  0.677964  1
  I  I9  1  0.368070  0.338857  0.322036  1
  I  I10  1  0.131930  0.838857  0.322036  1
  I  I11  1  0.631930  0.661143  0.677964  1
  Br  Br12  1  0.868556  0.478697  0.054982  1
  Br  Br13  1  0.368556  0.021303  0.945018  1
  Br  Br14  1  0.131444  0.521303  0.945018  1
  Br  Br15  1  0.631444  0.978697  0.054982  1
