# generated using pymatgen
data_La5Sn3H
_symmetry_space_group_name_H-M   'P 1'
_cell_length_a   9.42652549
_cell_length_b   9.42652490
_cell_length_c   9.42652539
_cell_angle_alpha   125.83063764
_cell_angle_beta   125.83063237
_cell_angle_gamma   80.16668030
_symmetry_Int_Tables_number   1
_chemical_formula_structural   La5Sn3H
_chemical_formula_sum   'La10 Sn6 H2'
_cell_volume   531.43050608
_cell_formula_units_Z   2
loop_
 _symmetry_equiv_pos_site_id
 _symmetry_equiv_pos_as_xyz
  1  'x, y, z'
loop_
 _atom_site_type_symbol
 _atom_site_label
 _atom_site_symmetry_multiplicity
 _atom_site_fract_x
 _atom_site_fract_y
 _atom_site_fract_z
 _atom_site_occupancy
  La  La0  1  0.500000  0.500000  0.000000  1
  La  La1  1  0.000000  0.000000  0.000000  1
  La  La2  1  0.513709  0.013709  0.831604  1
  La  La3  1  0.182105  0.682105  0.168396  1
  La  La4  1  0.013709  0.182105  0.500000  1
  La  La5  1  0.682105  0.513709  0.500000  1
  La  La6  1  0.486291  0.986291  0.168396  1
  La  La7  1  0.817895  0.317895  0.831604  1
  La  La8  1  0.986291  0.817895  0.500000  1
  La  La9  1  0.317895  0.486291  0.500000  1
  Sn  Sn10  1  0.250000  0.250000  0.000000  1
  Sn  Sn11  1  0.750000  0.750000  0.000000  1
  Sn  Sn12  1  0.869647  0.369647  0.239295  1
  Sn  Sn13  1  0.130353  0.630353  0.760705  1
  Sn  Sn14  1  0.369647  0.130353  0.500000  1
  Sn  Sn15  1  0.630353  0.869647  0.500000  1
  H  H16  1  0.250000  0.750000  0.500000  1
  H  H17  1  0.750000  0.250000  0.500000  1
