# generated using pymatgen
data_K6Ca5Al12CdF54
_symmetry_space_group_name_H-M   'P 1'
_cell_length_a   7.24485935
_cell_length_b   7.25122400
_cell_length_c   22.99868405
_cell_angle_alpha   90.01339759
_cell_angle_beta   89.96558135
_cell_angle_gamma   119.76956785
_symmetry_Int_Tables_number   1
_chemical_formula_structural   K6Ca5Al12CdF54
_chemical_formula_sum   'K6 Ca5 Al12 Cd1 F54'
_cell_volume   1048.76592739
_cell_formula_units_Z   1
loop_
 _symmetry_equiv_pos_site_id
 _symmetry_equiv_pos_as_xyz
  1  'x, y, z'
loop_
 _atom_site_type_symbol
 _atom_site_label
 _atom_site_symmetry_multiplicity
 _atom_site_fract_x
 _atom_site_fract_y
 _atom_site_fract_z
 _atom_site_occupancy
  K  K0  1  0.010679  0.989395  0.249992  1
  K  K1  1  0.964454  0.006770  0.083460  1
  K  K2  1  0.989245  0.010560  0.750299  1
  K  K3  1  0.006832  0.964432  0.916247  1
  K  K4  1  0.993172  0.035622  0.416555  1
  K  K5  1  0.035490  0.993122  0.583467  1
  Ca  Ca6  1  0.515446  0.515417  0.500040  1
  Ca  Ca7  1  0.988196  0.500469  0.166543  1
  Ca  Ca8  1  0.484520  0.484543  0.999877  1
  Ca  Ca9  1  0.011750  0.499551  0.666723  1
  Ca  Ca10  1  0.499533  0.011804  0.333428  1
  Al  Al11  1  0.001427  0.484277  0.836245  1
  Al  Al12  1  0.520423  0.017542  0.503229  1
  Al  Al13  1  0.982609  0.479740  0.996670  1
  Al  Al14  1  0.484381  0.001576  0.163677  1
  Al  Al15  1  0.496839  0.512552  0.330135  1
  Al  Al16  1  0.998437  0.515651  0.336309  1
  Al  Al17  1  0.480489  0.982684  0.002923  1
  Al  Al18  1  0.017568  0.520487  0.496804  1
  Al  Al19  1  0.487453  0.503179  0.169845  1
  Al  Al20  1  0.512545  0.496950  0.670003  1
  Al  Al21  1  0.503168  0.487386  0.830176  1
  Al  Al22  1  0.514854  0.998481  0.663983  1
  Cd  Cd23  1  0.500398  0.987995  0.833404  1
  F  F24  1  0.460024  0.521422  0.093131  1
  F  F25  1  0.226681  0.335915  0.665445  1
  F  F26  1  0.797410  0.659743  0.677875  1
  F  F27  1  0.521806  0.460662  0.906817  1
  F  F28  1  0.247803  0.714417  0.010752  1
  F  F29  1  0.414479  0.966956  0.925920  1
  F  F30  1  0.485778  0.513353  0.750055  1
  F  F31  1  0.885902  0.671546  0.482672  1
  F  F32  1  0.478348  0.539985  0.406836  1
  F  F33  1  0.202531  0.340182  0.177930  1
  F  F34  1  0.794922  0.130284  0.647685  1
  F  F35  1  0.539933  0.478629  0.593299  1
  F  F36  1  0.752616  0.286437  0.511134  1
  F  F37  1  0.640924  0.859200  0.992731  1
  F  F38  1  0.266559  0.513565  0.844337  1
  F  F39  1  0.006123  0.461501  0.416471  1
  F  F40  1  0.730344  0.480410  0.344319  1
  F  F41  1  0.584330  0.032900  0.426765  1
  F  F42  1  0.232787  0.873289  0.676136  1
  F  F43  1  0.513984  0.486046  0.249991  1
  F  F44  1  0.519609  0.269668  0.155712  1
  F  F45  1  0.671750  0.886025  0.517316  1
  F  F46  1  0.128125  0.767828  0.823985  1
  F  F47  1  0.988148  0.572963  0.260274  1
  F  F48  1  0.741374  0.461502  0.821583  1
  F  F49  1  0.867061  0.203294  0.852760  1
  F  F50  1  0.480850  0.731136  0.656064  1
  F  F51  1  0.659871  0.797322  0.322095  1
  F  F52  1  0.773386  0.664298  0.165461  1
  F  F53  1  0.873285  0.233068  0.323965  1
  F  F54  1  0.544598  0.261530  0.678445  1
  F  F55  1  0.286428  0.752591  0.488839  1
  F  F56  1  0.713453  0.247187  0.988764  1
  F  F57  1  0.130996  0.795669  0.352806  1
  F  F58  1  0.967326  0.416209  0.073062  1
  F  F59  1  0.993791  0.538076  0.916441  1
  F  F60  1  0.328511  0.113242  0.016890  1
  F  F61  1  0.461380  0.006163  0.583570  1
  F  F62  1  0.032773  0.584022  0.573263  1
  F  F63  1  0.011905  0.427100  0.760251  1
  F  F64  1  0.767165  0.126791  0.176035  1
  F  F65  1  0.663792  0.774129  0.834503  1
  F  F66  1  0.359168  0.140900  0.492832  1
  F  F67  1  0.335670  0.226748  0.334535  1
  F  F68  1  0.858958  0.640519  0.007172  1
  F  F69  1  0.455272  0.738175  0.178348  1
  F  F70  1  0.341034  0.201618  0.822154  1
  F  F71  1  0.114235  0.328535  0.982699  1
  F  F72  1  0.140989  0.359367  0.507138  1
  F  F73  1  0.204146  0.868978  0.147228  1
  F  F74  1  0.426877  0.011914  0.239758  1
  F  F75  1  0.574378  0.988188  0.740580  1
  F  F76  1  0.538701  0.993959  0.083482  1
  F  F77  1  0.261804  0.544659  0.321653  1
