# generated using pymatgen
data_La3ZrIn2Ir3
_symmetry_space_group_name_H-M   'P 1'
_cell_length_a   7.56929400
_cell_length_b   7.56929442
_cell_length_c   4.32877700
_cell_angle_alpha   90.00000000
_cell_angle_beta   90.00000000
_cell_angle_gamma   121.94198349
_symmetry_Int_Tables_number   1
_chemical_formula_structural   La3ZrIn2Ir3
_chemical_formula_sum   'La3 Zr1 In2 Ir3'
_cell_volume   210.46067093
_cell_formula_units_Z   1
loop_
 _symmetry_equiv_pos_site_id
 _symmetry_equiv_pos_as_xyz
  1  'x, y, z'
loop_
 _atom_site_type_symbol
 _atom_site_label
 _atom_site_symmetry_multiplicity
 _atom_site_fract_x
 _atom_site_fract_y
 _atom_site_fract_z
 _atom_site_occupancy
  La  La0  1  0.006546  0.582025  0.500000  1
  La  La1  1  0.400461  0.400461  0.500000  1
  La  La2  1  0.582025  0.006546  0.500000  1
  Zr  Zr3  1  0.760273  0.760273  0.000000  1
  In  In4  1  0.998349  0.244680  0.000000  1
  In  In5  1  0.244680  0.998349  0.000000  1
  Ir  Ir6  1  0.356965  0.673494  0.000000  1
  Ir  Ir7  1  0.977205  0.977205  0.500000  1
  Ir  Ir8  1  0.673494  0.356965  0.000000  1
