# generated using pymatgen
data_Ba4La5Y3Se16
_symmetry_space_group_name_H-M   'P 1'
_cell_length_a   4.32468500
_cell_length_b   12.99307633
_cell_length_c   15.52551200
_cell_angle_alpha   89.84051800
_cell_angle_beta   90.00000000
_cell_angle_gamma   90.00000000
_symmetry_Int_Tables_number   1
_chemical_formula_structural   Ba4La5Y3Se16
_chemical_formula_sum   'Ba4 La5 Y3 Se16'
_cell_volume   872.39008030
_cell_formula_units_Z   1
loop_
 _symmetry_equiv_pos_site_id
 _symmetry_equiv_pos_as_xyz
  1  'x, y, z'
loop_
 _atom_site_type_symbol
 _atom_site_label
 _atom_site_symmetry_multiplicity
 _atom_site_fract_x
 _atom_site_fract_y
 _atom_site_fract_z
 _atom_site_occupancy
  Ba  Ba0  1  0.250000  0.756941  0.341942  1
  Ba  Ba1  1  0.250000  0.253581  0.162305  1
  Ba  Ba2  1  0.750000  0.242731  0.655581  1
  Ba  Ba3  1  0.750000  0.744077  0.840216  1
  La  La4  1  0.250000  0.423894  0.390120  1
  La  La5  1  0.250000  0.922549  0.109356  1
  La  La6  1  0.750000  0.579041  0.606879  1
  La  La7  1  0.750000  0.073508  0.888708  1
  La  La8  1  0.250000  0.424704  0.900175  1
  Y  Y9  1  0.250000  0.925719  0.600459  1
  Y  Y10  1  0.750000  0.577171  0.104187  1
  Y  Y11  1  0.750000  0.072819  0.398793  1
  Se  Se12  1  0.250000  0.212361  0.820339  1
  Se  Se13  1  0.250000  0.719722  0.673801  1
  Se  Se14  1  0.750000  0.782477  0.177417  1
  Se  Se15  1  0.750000  0.280378  0.326991  1
  Se  Se16  1  0.250000  0.126963  0.519509  1
  Se  Se17  1  0.250000  0.634485  0.984138  1
  Se  Se18  1  0.750000  0.871690  0.479506  1
  Se  Se19  1  0.750000  0.372211  0.028990  1
  Se  Se20  1  0.250000  0.017981  0.287705  1
  Se  Se21  1  0.250000  0.519175  0.213494  1
  Se  Se22  1  0.750000  0.980417  0.710870  1
  Se  Se23  1  0.750000  0.486403  0.782927  1
  Se  Se24  1  0.250000  0.419363  0.580907  1
  Se  Se25  1  0.250000  0.917132  0.917818  1
  Se  Se26  1  0.750000  0.581855  0.416306  1
  Se  Se27  1  0.750000  0.080650  0.080563  1
