# generated using pymatgen
data_Dy15Ho5GaBi11
_symmetry_space_group_name_H-M   'P 1'
_cell_length_a   8.21632786
_cell_length_b   9.48217700
_cell_length_c   12.03624501
_cell_angle_alpha   89.99824188
_cell_angle_beta   90.27881480
_cell_angle_gamma   89.99850287
_symmetry_Int_Tables_number   1
_chemical_formula_structural   Dy15Ho5GaBi11
_chemical_formula_sum   'Dy15 Ho5 Ga1 Bi11'
_cell_volume   937.71679853
_cell_formula_units_Z   1
loop_
 _symmetry_equiv_pos_site_id
 _symmetry_equiv_pos_as_xyz
  1  'x, y, z'
loop_
 _atom_site_type_symbol
 _atom_site_label
 _atom_site_symmetry_multiplicity
 _atom_site_fract_x
 _atom_site_fract_y
 _atom_site_fract_z
 _atom_site_occupancy
  Dy  Dy0  1  0.355261  0.750019  0.206134  1
  Dy  Dy1  1  0.852583  0.750029  0.284647  1
  Dy  Dy2  1  0.648602  0.250037  0.784435  1
  Dy  Dy3  1  0.148879  0.250039  0.716289  1
  Dy  Dy4  1  0.684035  0.570306  0.054661  1
  Dy  Dy5  1  0.193107  0.935846  0.440111  1
  Dy  Dy6  1  0.309645  0.049462  0.941121  1
  Dy  Dy7  1  0.475355  0.250046  0.488687  1
  Dy  Dy8  1  0.978768  0.249984  0.010551  1
  Dy  Dy9  1  0.525727  0.749988  0.511741  1
  Dy  Dy10  1  0.035861  0.749951  0.989421  1
  Dy  Dy11  1  0.314444  0.250042  0.219543  1
  Dy  Dy12  1  0.812102  0.249988  0.281256  1
  Dy  Dy13  1  0.673244  0.750072  0.788331  1
  Dy  Dy14  1  0.190414  0.749946  0.722267  1
  Ho  Ho15  1  0.807108  0.436084  0.558970  1
  Ho  Ho16  1  0.309617  0.450522  0.941049  1
  Ho  Ho17  1  0.807168  0.063918  0.558956  1
  Ho  Ho18  1  0.683973  0.929597  0.054622  1
  Ho  Ho19  1  0.193103  0.564199  0.440093  1
  Ga  Ga20  1  0.408057  0.749875  0.960620  1
  Bi  Bi21  1  0.908308  0.749886  0.544738  1
  Bi  Bi22  1  0.593016  0.249835  0.042404  1
  Bi  Bi23  1  0.092860  0.250286  0.457479  1
  Bi  Bi24  1  0.564994  0.995456  0.325603  1
  Bi  Bi25  1  0.064214  0.503331  0.175212  1
  Bi  Bi26  1  0.435306  0.495902  0.674943  1
  Bi  Bi27  1  0.934866  0.002735  0.825176  1
  Bi  Bi28  1  0.435333  0.004097  0.674944  1
  Bi  Bi29  1  0.934976  0.497292  0.825171  1
  Bi  Bi30  1  0.564898  0.504561  0.325661  1
  Bi  Bi31  1  0.064175  0.996669  0.175160  1
