# generated using pymatgen
data_Tb3Tm3Th2(CdIr)2
_symmetry_space_group_name_H-M   'P 1'
_cell_length_a   9.70880408
_cell_length_b   9.70880480
_cell_length_c   9.70880500
_cell_angle_alpha   60.00000272
_cell_angle_beta   60.00000028
_cell_angle_gamma   59.99999869
_symmetry_Int_Tables_number   1
_chemical_formula_structural   Tb3Tm3Th2(CdIr)2
_chemical_formula_sum   'Tb6 Tm6 Th4 Cd4 Ir4'
_cell_volume   647.11623089
_cell_formula_units_Z   2
loop_
 _symmetry_equiv_pos_site_id
 _symmetry_equiv_pos_as_xyz
  1  'x, y, z'
loop_
 _atom_site_type_symbol
 _atom_site_label
 _atom_site_symmetry_multiplicity
 _atom_site_fract_x
 _atom_site_fract_y
 _atom_site_fract_z
 _atom_site_occupancy
  Tb  Tb0  1  0.186496  0.813504  0.813504  1
  Tb  Tb1  1  0.813504  0.186496  0.186496  1
  Tb  Tb2  1  0.813504  0.186496  0.813504  1
  Tb  Tb3  1  0.186496  0.813504  0.186496  1
  Tb  Tb4  1  0.813504  0.813504  0.186496  1
  Tb  Tb5  1  0.186496  0.186496  0.813504  1
  Tm  Tm6  1  0.063830  0.436170  0.436170  1
  Tm  Tm7  1  0.436170  0.063830  0.063830  1
  Tm  Tm8  1  0.436170  0.063830  0.436170  1
  Tm  Tm9  1  0.063830  0.436170  0.063830  1
  Tm  Tm10  1  0.436170  0.436170  0.063830  1
  Tm  Tm11  1  0.063830  0.063830  0.436170  1
  Th  Th12  1  0.600254  0.600254  0.600254  1
  Th  Th13  1  0.600254  0.600254  0.199239  1
  Th  Th14  1  0.600254  0.199239  0.600254  1
  Th  Th15  1  0.199239  0.600254  0.600254  1
  Cd  Cd16  1  0.832249  0.832249  0.832249  1
  Cd  Cd17  1  0.832249  0.832249  0.503252  1
  Cd  Cd18  1  0.832249  0.503252  0.832249  1
  Cd  Cd19  1  0.503252  0.832249  0.832249  1
  Ir  Ir20  1  0.392915  0.392915  0.392915  1
  Ir  Ir21  1  0.392915  0.392915  0.821256  1
  Ir  Ir22  1  0.392915  0.821256  0.392915  1
  Ir  Ir23  1  0.821256  0.392915  0.392915  1
