# generated using pymatgen
data_Pr3HfIn2Ir3
_symmetry_space_group_name_H-M   'P 1'
_cell_length_a   7.54331775
_cell_length_b   7.40628033
_cell_length_c   4.31753900
_cell_angle_alpha   90.00000000
_cell_angle_beta   90.00000000
_cell_angle_gamma   119.40084420
_symmetry_Int_Tables_number   1
_chemical_formula_structural   Pr3HfIn2Ir3
_chemical_formula_sum   'Pr3 Hf1 In2 Ir3'
_cell_volume   210.14543656
_cell_formula_units_Z   1
loop_
 _symmetry_equiv_pos_site_id
 _symmetry_equiv_pos_as_xyz
  1  'x, y, z'
loop_
 _atom_site_type_symbol
 _atom_site_label
 _atom_site_symmetry_multiplicity
 _atom_site_fract_x
 _atom_site_fract_y
 _atom_site_fract_z
 _atom_site_occupancy
  Pr  Pr0  1  0.579301  0.585317  0.000000  1
  Pr  Pr1  1  0.420699  0.006017  0.000000  1
  Pr  Pr2  1  0.000000  0.397030  0.000000  1
  Hf  Hf3  1  0.000000  0.758556  0.500000  1
  In  In4  1  0.249865  0.247722  0.500000  1
  In  In5  1  0.750135  0.997857  0.500000  1
  Ir  Ir6  1  0.000000  0.973719  0.000000  1
  Ir  Ir7  1  0.689424  0.361603  0.500000  1
  Ir  Ir8  1  0.310576  0.672181  0.500000  1
