# generated using pymatgen
data_Sr2Zn14Ru3
_symmetry_space_group_name_H-M   'P 1'
_cell_length_a   6.94480708
_cell_length_b   6.94480779
_cell_length_c   6.94480645
_cell_angle_alpha   82.20224277
_cell_angle_beta   82.20224660
_cell_angle_gamma   82.20224535
_symmetry_Int_Tables_number   1
_chemical_formula_structural   Sr2Zn14Ru3
_chemical_formula_sum   'Sr2 Zn14 Ru3'
_cell_volume   326.42989092
_cell_formula_units_Z   1
loop_
 _symmetry_equiv_pos_site_id
 _symmetry_equiv_pos_as_xyz
  1  'x, y, z'
loop_
 _atom_site_type_symbol
 _atom_site_label
 _atom_site_symmetry_multiplicity
 _atom_site_fract_x
 _atom_site_fract_y
 _atom_site_fract_z
 _atom_site_occupancy
  Sr  Sr0  1  0.664463  0.664463  0.664463  1
  Sr  Sr1  1  0.335537  0.335537  0.335537  1
  Zn  Zn2  1  0.344112  0.344112  0.850109  1
  Zn  Zn3  1  0.850109  0.344112  0.344112  1
  Zn  Zn4  1  0.106557  0.106557  0.106557  1
  Zn  Zn5  1  0.893443  0.893443  0.893443  1
  Zn  Zn6  1  0.285106  0.714894  0.000000  1
  Zn  Zn7  1  0.714894  0.000000  0.285106  1
  Zn  Zn8  1  0.000000  0.285106  0.714894  1
  Zn  Zn9  1  0.714894  0.285106  0.000000  1
  Zn  Zn10  1  0.285106  0.000000  0.714894  1
  Zn  Zn11  1  0.000000  0.714894  0.285106  1
  Zn  Zn12  1  0.149891  0.655888  0.655888  1
  Zn  Zn13  1  0.655888  0.655888  0.149891  1
  Zn  Zn14  1  0.655888  0.149891  0.655888  1
  Zn  Zn15  1  0.344112  0.850109  0.344112  1
  Ru  Ru16  1  0.000000  0.000000  0.500000  1
  Ru  Ru17  1  0.000000  0.500000  0.000000  1
  Ru  Ru18  1  0.500000  0.000000  0.000000  1
