# generated using pymatgen
data_K5F13
_symmetry_space_group_name_H-M   'P 1'
_cell_length_a   7.81417916
_cell_length_b   7.81417980
_cell_length_c   7.81417900
_cell_angle_alpha   100.65310989
_cell_angle_beta   100.65311823
_cell_angle_gamma   129.07041546
_symmetry_Int_Tables_number   1
_chemical_formula_structural   K5F13
_chemical_formula_sum   'K5 F13'
_cell_volume   334.45324090
_cell_formula_units_Z   1
loop_
 _symmetry_equiv_pos_site_id
 _symmetry_equiv_pos_as_xyz
  1  'x, y, z'
loop_
 _atom_site_type_symbol
 _atom_site_label
 _atom_site_symmetry_multiplicity
 _atom_site_fract_x
 _atom_site_fract_y
 _atom_site_fract_z
 _atom_site_occupancy
  K  K0  1  0.000000  0.000000  0.000000  1
  K  K1  1  0.837682  0.583114  0.410826  1
  K  K2  1  0.416886  0.827713  0.254568  1
  K  K3  1  0.573144  0.162318  0.745432  1
  K  K4  1  0.172287  0.426856  0.589174  1
  F  F5  1  0.033391  0.373500  0.213581  1
  F  F6  1  0.626500  0.840080  0.659892  1
  F  F7  1  0.180190  0.966609  0.340108  1
  F  F8  1  0.159920  0.819810  0.786419  1
  F  F9  1  0.364524  0.805480  0.895937  1
  F  F10  1  0.750000  0.250000  0.500000  1
  F  F11  1  0.559964  0.779556  0.994912  1
  F  F12  1  0.220444  0.215356  0.780408  1
  F  F13  1  0.434948  0.440036  0.219592  1
  F  F14  1  0.784644  0.565052  0.005088  1
  F  F15  1  0.909543  0.468587  0.104063  1
  F  F16  1  0.531413  0.635476  0.440956  1
  F  F17  1  0.194520  0.090457  0.559044  1
