# generated using pymatgen
data_Nd12Pd2RuPt
_symmetry_space_group_name_H-M   'P 1'
_cell_length_a   6.60750848
_cell_length_b   7.35604093
_cell_length_c   10.00335300
_cell_angle_alpha   90.00000000
_cell_angle_beta   90.00000000
_cell_angle_gamma   89.86746887
_symmetry_Int_Tables_number   1
_chemical_formula_structural   Nd12Pd2RuPt
_chemical_formula_sum   'Nd12 Pd2 Ru1 Pt1'
_cell_volume   486.21270078
_cell_formula_units_Z   1
loop_
 _symmetry_equiv_pos_site_id
 _symmetry_equiv_pos_as_xyz
  1  'x, y, z'
loop_
 _atom_site_type_symbol
 _atom_site_label
 _atom_site_symmetry_multiplicity
 _atom_site_fract_x
 _atom_site_fract_y
 _atom_site_fract_z
 _atom_site_occupancy
  Nd  Nd0  1  0.331304  0.681188  0.058360  1
  Nd  Nd1  1  0.165241  0.176030  0.438229  1
  Nd  Nd2  1  0.665183  0.328458  0.566367  1
  Nd  Nd3  1  0.825731  0.817505  0.935787  1
  Nd  Nd4  1  0.665183  0.328458  0.933633  1
  Nd  Nd5  1  0.825731  0.817505  0.564213  1
  Nd  Nd6  1  0.331304  0.681188  0.441640  1
  Nd  Nd7  1  0.165241  0.176030  0.061771  1
  Nd  Nd8  1  0.864564  0.530464  0.250000  1
  Nd  Nd9  1  0.640635  0.027532  0.250000  1
  Nd  Nd10  1  0.145531  0.473801  0.750000  1
  Nd  Nd11  1  0.370072  0.958269  0.750000  1
  Pd  Pd12  1  0.427821  0.387107  0.250000  1
  Pd  Pd13  1  0.938119  0.114955  0.750000  1
  Ru  Ru14  1  0.568584  0.618060  0.750000  1
  Pt  Pt15  1  0.069754  0.883450  0.250000  1
