# generated using pymatgen
data_Pr16Cd2InAgIr4
_symmetry_space_group_name_H-M   'P 1'
_cell_length_a   10.03971269
_cell_length_b   10.03971292
_cell_length_c   10.02463334
_cell_angle_alpha   60.02539287
_cell_angle_beta   60.02539613
_cell_angle_gamma   60.00174694
_symmetry_Int_Tables_number   1
_chemical_formula_structural   Pr16Cd2InAgIr4
_chemical_formula_sum   'Pr16 Cd2 In1 Ag1 Ir4'
_cell_volume   714.77344315
_cell_formula_units_Z   1
loop_
 _symmetry_equiv_pos_site_id
 _symmetry_equiv_pos_as_xyz
  1  'x, y, z'
loop_
 _atom_site_type_symbol
 _atom_site_label
 _atom_site_symmetry_multiplicity
 _atom_site_fract_x
 _atom_site_fract_y
 _atom_site_fract_z
 _atom_site_occupancy
  Pr  Pr0  1  0.348165  0.348165  0.347753  1
  Pr  Pr1  1  0.349368  0.349368  0.953375  1
  Pr  Pr2  1  0.349434  0.952926  0.349129  1
  Pr  Pr3  1  0.952926  0.349434  0.349129  1
  Pr  Pr4  1  0.808200  0.192675  0.190848  1
  Pr  Pr5  1  0.188712  0.808962  0.809994  1
  Pr  Pr6  1  0.192675  0.808200  0.190848  1
  Pr  Pr7  1  0.808962  0.188712  0.809994  1
  Pr  Pr8  1  0.189459  0.189459  0.810399  1
  Pr  Pr9  1  0.806858  0.806858  0.191665  1
  Pr  Pr10  1  0.938049  0.561057  0.560501  1
  Pr  Pr11  1  0.558839  0.940655  0.938316  1
  Pr  Pr12  1  0.561057  0.938049  0.560501  1
  Pr  Pr13  1  0.940655  0.558839  0.938316  1
  Pr  Pr14  1  0.561605  0.561605  0.935286  1
  Pr  Pr15  1  0.939598  0.939598  0.557925  1
  Cd  Cd16  1  0.579669  0.261659  0.580859  1
  Cd  Cd17  1  0.261659  0.579669  0.580859  1
  In  In18  1  0.580503  0.580503  0.259864  1
  Ag  Ag19  1  0.581499  0.581499  0.581765  1
  Ir  Ir20  1  0.141755  0.141755  0.142050  1
  Ir  Ir21  1  0.142250  0.142250  0.575847  1
  Ir  Ir22  1  0.142154  0.575947  0.142387  1
  Ir  Ir23  1  0.575947  0.142154  0.142387  1
