# generated using pymatgen
data_Zr10In2Bi5
_symmetry_space_group_name_H-M   'P 1'
_cell_length_a   6.03443945
_cell_length_b   8.83285792
_cell_length_c   8.79192596
_cell_angle_alpha   120.15413738
_cell_angle_beta   89.94339730
_cell_angle_gamma   90.11267314
_symmetry_Int_Tables_number   1
_chemical_formula_structural   Zr10In2Bi5
_chemical_formula_sum   'Zr10 In2 Bi5'
_cell_volume   405.20551984
_cell_formula_units_Z   1
loop_
 _symmetry_equiv_pos_site_id
 _symmetry_equiv_pos_as_xyz
  1  'x, y, z'
loop_
 _atom_site_type_symbol
 _atom_site_label
 _atom_site_symmetry_multiplicity
 _atom_site_fract_x
 _atom_site_fract_y
 _atom_site_fract_z
 _atom_site_occupancy
  Zr  Zr0  1  0.497169  0.333344  0.667271  1
  Zr  Zr1  1  0.497169  0.666073  0.332729  1
  Zr  Zr2  1  0.004813  0.669082  0.336374  1
  Zr  Zr3  1  0.004813  0.332709  0.663626  1
  Zr  Zr4  1  0.775213  0.266910  0.000000  1
  Zr  Zr5  1  0.786549  0.737166  0.735055  1
  Zr  Zr6  1  0.786549  0.002110  0.264945  1
  Zr  Zr7  1  0.218893  0.730358  0.000000  1
  Zr  Zr8  1  0.220875  0.268522  0.274960  1
  Zr  Zr9  1  0.220875  0.993563  0.725040  1
  In  In10  1  0.260385  0.614837  0.615747  1
  In  In11  1  0.260385  0.999091  0.384253  1
  Bi  Bi12  1  0.739517  0.613754  0.000000  1
  Bi  Bi13  1  0.739301  0.391304  0.391298  1
  Bi  Bi14  1  0.739301  0.000006  0.608702  1
  Bi  Bi15  1  0.254408  0.382544  0.000000  1
  Bi  Bi16  1  0.493783  0.998633  0.000000  1
