# generated using pymatgen
data_YIO4
_symmetry_space_group_name_H-M   'P 1'
_cell_length_a   5.02870434
_cell_length_b   5.02870492
_cell_length_c   7.23540700
_cell_angle_alpha   90.00000000
_cell_angle_beta   90.00000000
_cell_angle_gamma   94.37377447
_symmetry_Int_Tables_number   1
_chemical_formula_structural   YIO4
_chemical_formula_sum   'Y2 I2 O8'
_cell_volume   182.43518748
_cell_formula_units_Z   2
loop_
 _symmetry_equiv_pos_site_id
 _symmetry_equiv_pos_as_xyz
  1  'x, y, z'
loop_
 _atom_site_type_symbol
 _atom_site_label
 _atom_site_symmetry_multiplicity
 _atom_site_fract_x
 _atom_site_fract_y
 _atom_site_fract_z
 _atom_site_occupancy
  Y  Y0  1  0.000000  0.000000  0.000000  1
  Y  Y1  1  0.000000  0.000000  0.500000  1
  I  I2  1  0.470094  0.529906  0.750000  1
  I  I3  1  0.529906  0.470094  0.250000  1
  O  O4  1  0.309674  0.690326  0.948347  1
  O  O5  1  0.309674  0.690326  0.551653  1
  O  O6  1  0.690326  0.309674  0.051653  1
  O  O7  1  0.690326  0.309674  0.448347  1
  O  O8  1  0.830448  0.763030  0.250000  1
  O  O9  1  0.236970  0.169552  0.250000  1
  O  O10  1  0.763030  0.830448  0.750000  1
  O  O11  1  0.169552  0.236970  0.750000  1
