# generated using pymatgen
data_Y15Ho(In3Os)2
_symmetry_space_group_name_H-M   'P 1'
_cell_length_a   10.41747016
_cell_length_b   10.41747116
_cell_length_c   7.13922037
_cell_angle_alpha   90.06147830
_cell_angle_beta   89.93852475
_cell_angle_gamma   119.95913150
_symmetry_Int_Tables_number   1
_chemical_formula_structural   Y15Ho(In3Os)2
_chemical_formula_sum   'Y15 Ho1 In6 Os2'
_cell_volume   671.25009651
_cell_formula_units_Z   1
loop_
 _symmetry_equiv_pos_site_id
 _symmetry_equiv_pos_as_xyz
  1  'x, y, z'
loop_
 _atom_site_type_symbol
 _atom_site_label
 _atom_site_symmetry_multiplicity
 _atom_site_fract_x
 _atom_site_fract_y
 _atom_site_fract_z
 _atom_site_occupancy
  Y  Y0  1  0.067388  0.533730  0.480352  1
  Y  Y1  1  0.466270  0.932612  0.480352  1
  Y  Y2  1  0.533629  0.466371  0.980318  1
  Y  Y3  1  0.932572  0.466308  0.980281  1
  Y  Y4  1  0.533692  0.067428  0.980281  1
  Y  Y5  1  0.823018  0.176982  0.275505  1
  Y  Y6  1  0.354075  0.177281  0.275711  1
  Y  Y7  1  0.822719  0.645925  0.275711  1
  Y  Y8  1  0.177009  0.822991  0.775504  1
  Y  Y9  1  0.646011  0.822747  0.775223  1
  Y  Y10  1  0.177253  0.353989  0.775223  1
  Y  Y11  1  0.333454  0.666546  0.104754  1
  Y  Y12  1  0.666511  0.333489  0.604520  1
  Y  Y13  1  0.000016  0.999984  0.496959  1
  Y  Y14  1  0.000015  0.999985  0.996865  1
  Ho  Ho15  1  0.465714  0.534286  0.480865  1
  In  In16  1  0.162818  0.837182  0.232444  1
  In  In17  1  0.674248  0.837019  0.232645  1
  In  In18  1  0.162981  0.325752  0.232645  1
  In  In19  1  0.837167  0.162833  0.732483  1
  In  In20  1  0.325603  0.162761  0.732457  1
  In  In21  1  0.837239  0.674397  0.732457  1
  Os  Os22  1  0.333887  0.666113  0.705050  1
  Os  Os23  1  0.666710  0.333290  0.205953  1
