# generated using pymatgen
data_Tm4TiV5O16
_symmetry_space_group_name_H-M   'P 1'
_cell_length_a   5.09674889
_cell_length_b   6.11466672
_cell_length_c   10.30316679
_cell_angle_alpha   89.83738761
_cell_angle_beta   83.63924138
_cell_angle_gamma   90.03476352
_symmetry_Int_Tables_number   1
_chemical_formula_structural   Tm4TiV5O16
_chemical_formula_sum   'Tm4 Ti1 V5 O16'
_cell_volume   319.11928920
_cell_formula_units_Z   1
loop_
 _symmetry_equiv_pos_site_id
 _symmetry_equiv_pos_as_xyz
  1  'x, y, z'
loop_
 _atom_site_type_symbol
 _atom_site_label
 _atom_site_symmetry_multiplicity
 _atom_site_fract_x
 _atom_site_fract_y
 _atom_site_fract_z
 _atom_site_occupancy
  Tm  Tm0  1  0.438936  0.501031  0.224796  1
  Tm  Tm1  1  0.936985  0.001687  0.725639  1
  Tm  Tm2  1  0.063412  0.002329  0.273330  1
  Tm  Tm3  1  0.561208  0.500984  0.774483  1
  Ti  Ti4  1  0.499734  0.225027  0.499727  1
  V  V5  1  0.000139  0.502303  0.499894  1
  V  V6  1  0.499811  0.752526  0.499940  1
  V  V7  1  0.502068  0.002046  0.000272  1
  V  V8  1  0.000709  0.734208  0.998307  1
  V  V9  1  0.997363  0.256054  0.002019  1
  O  O10  1  0.681336  0.012623  0.395356  1
  O  O11  1  0.177808  0.513621  0.895597  1
  O  O12  1  0.825317  0.503778  0.103441  1
  O  O13  1  0.319643  0.009622  0.604942  1
  O  O14  1  0.684526  0.497083  0.394655  1
  O  O15  1  0.183529  0.999385  0.896330  1
  O  O16  1  0.811266  0.988494  0.107269  1
  O  O17  1  0.314528  0.494701  0.605591  1
  O  O18  1  0.288404  0.225793  0.119598  1
  O  O19  1  0.786671  0.726317  0.619465  1
  O  O20  1  0.277889  0.776345  0.113654  1
  O  O21  1  0.781418  0.276326  0.615590  1
  O  O22  1  0.213343  0.726027  0.380099  1
  O  O23  1  0.710262  0.221976  0.881207  1
  O  O24  1  0.219024  0.276617  0.384415  1
  O  O25  1  0.724671  0.773097  0.884385  1
