# generated using pymatgen
data_NdEr3(Rh2O7)2
_symmetry_space_group_name_H-M   'P 1'
_cell_length_a   7.22431417
_cell_length_b   7.22431384
_cell_length_c   7.27114409
_cell_angle_alpha   60.21282389
_cell_angle_beta   60.21282702
_cell_angle_gamma   60.00000226
_symmetry_Int_Tables_number   1
_chemical_formula_structural   NdEr3(Rh2O7)2
_chemical_formula_sum   'Nd1 Er3 Rh4 O14'
_cell_volume   269.19723031
_cell_formula_units_Z   1
loop_
 _symmetry_equiv_pos_site_id
 _symmetry_equiv_pos_as_xyz
  1  'x, y, z'
loop_
 _atom_site_type_symbol
 _atom_site_label
 _atom_site_symmetry_multiplicity
 _atom_site_fract_x
 _atom_site_fract_y
 _atom_site_fract_z
 _atom_site_occupancy
  Nd  Nd0  1  0.125000  0.125000  0.625000  1
  Er  Er1  1  0.125000  0.125000  0.125000  1
  Er  Er2  1  0.125000  0.625000  0.125000  1
  Er  Er3  1  0.625000  0.125000  0.125000  1
  Rh  Rh4  1  0.625000  0.625000  0.625000  1
  Rh  Rh5  1  0.625000  0.625000  0.125000  1
  Rh  Rh6  1  0.125000  0.625000  0.625000  1
  Rh  Rh7  1  0.625000  0.125000  0.625000  1
  O  O8  1  0.254342  0.254342  0.236972  1
  O  O9  1  0.288897  0.711635  0.287833  1
  O  O10  1  0.961646  0.961646  0.529677  1
  O  O11  1  0.547032  0.961646  0.529677  1
  O  O12  1  0.711635  0.711635  0.287833  1
  O  O13  1  0.961646  0.547032  0.529677  1
  O  O14  1  0.702968  0.288354  0.720323  1
  O  O15  1  0.288354  0.288354  0.720323  1
  O  O16  1  0.711635  0.288897  0.287833  1
  O  O17  1  0.288354  0.702968  0.720323  1
  O  O18  1  0.961103  0.538365  0.962167  1
  O  O19  1  0.538365  0.538365  0.962167  1
  O  O20  1  0.995658  0.995658  0.013028  1
  O  O21  1  0.538365  0.961103  0.962167  1
