# generated using pymatgen
data_Ca4YTm3Hg8
_symmetry_space_group_name_H-M   'P 1'
_cell_length_a   7.51643800
_cell_length_b   7.48464400
_cell_length_c   7.41160100
_cell_angle_alpha   90.00000000
_cell_angle_beta   90.00098272
_cell_angle_gamma   90.00000000
_symmetry_Int_Tables_number   1
_chemical_formula_structural   Ca4YTm3Hg8
_chemical_formula_sum   'Ca4 Y1 Tm3 Hg8'
_cell_volume   416.96083051
_cell_formula_units_Z   1
loop_
 _symmetry_equiv_pos_site_id
 _symmetry_equiv_pos_as_xyz
  1  'x, y, z'
loop_
 _atom_site_type_symbol
 _atom_site_label
 _atom_site_symmetry_multiplicity
 _atom_site_fract_x
 _atom_site_fract_y
 _atom_site_fract_z
 _atom_site_occupancy
  Ca  Ca0  1  0.749493  0.250000  0.000120  1
  Ca  Ca1  1  0.249490  0.750000  0.499880  1
  Ca  Ca2  1  0.750489  0.250000  0.500116  1
  Ca  Ca3  1  0.250511  0.750000  0.999880  1
  Y  Y4  1  0.249252  0.250000  0.500014  1
  Tm  Tm5  1  0.250700  0.250000  0.000000  1
  Tm  Tm6  1  0.749312  0.750000  0.000003  1
  Tm  Tm7  1  0.750688  0.750000  0.499983  1
  Hg  Hg8  1  0.999511  0.500870  0.247777  1
  Hg  Hg9  1  0.999511  0.999132  0.247777  1
  Hg  Hg10  1  0.500915  0.999349  0.250576  1
  Hg  Hg11  1  0.500915  0.500651  0.250576  1
  Hg  Hg12  1  0.500515  0.500893  0.749427  1
  Hg  Hg13  1  0.500515  0.999109  0.749427  1
  Hg  Hg14  1  0.999091  0.999365  0.752223  1
  Hg  Hg15  1  0.999091  0.500635  0.752223  1
