# generated using pymatgen
data_YbY(Al3Ni)6
_symmetry_space_group_name_H-M   'P 1'
_cell_length_a   10.09060156
_cell_length_b   10.09060262
_cell_length_c   10.09060302
_cell_angle_alpha   42.36837337
_cell_angle_beta   42.36837339
_cell_angle_gamma   42.36837427
_symmetry_Int_Tables_number   1
_chemical_formula_structural   YbY(Al3Ni)6
_chemical_formula_sum   'Yb1 Y1 Al18 Ni6'
_cell_volume   422.37601284
_cell_formula_units_Z   1
loop_
 _symmetry_equiv_pos_site_id
 _symmetry_equiv_pos_as_xyz
  1  'x, y, z'
loop_
 _atom_site_type_symbol
 _atom_site_label
 _atom_site_symmetry_multiplicity
 _atom_site_fract_x
 _atom_site_fract_y
 _atom_site_fract_z
 _atom_site_occupancy
  Yb  Yb0  1  0.833207  0.833207  0.833207  1
  Y  Y1  1  0.166630  0.166630  0.166630  1
  Al  Al2  1  0.102069  0.432131  0.760988  1
  Al  Al3  1  0.432131  0.760988  0.102069  1
  Al  Al4  1  0.569136  0.896761  0.238738  1
  Al  Al5  1  0.947604  0.947604  0.947604  1
  Al  Al6  1  0.051732  0.051732  0.051732  1
  Al  Al7  1  0.293264  0.708306  0.498518  1
  Al  Al8  1  0.896761  0.238738  0.569136  1
  Al  Al9  1  0.387330  0.387330  0.387330  1
  Al  Al10  1  0.498518  0.293264  0.708306  1
  Al  Al11  1  0.238738  0.569136  0.896761  1
  Al  Al12  1  0.718714  0.718714  0.718714  1
  Al  Al13  1  0.613065  0.613065  0.613065  1
  Al  Al14  1  0.333871  0.000449  0.665668  1
  Al  Al15  1  0.708306  0.498518  0.293264  1
  Al  Al16  1  0.665668  0.333871  0.000449  1
  Al  Al17  1  0.281631  0.281631  0.281631  1
  Al  Al18  1  0.000449  0.665668  0.333871  1
  Al  Al19  1  0.760988  0.102069  0.432131  1
  Ni  Ni20  1  0.417894  0.078250  0.758009  1
  Ni  Ni21  1  0.580905  0.242256  0.922871  1
  Ni  Ni22  1  0.078250  0.758009  0.417894  1
  Ni  Ni23  1  0.758009  0.417894  0.078250  1
  Ni  Ni24  1  0.922871  0.580905  0.242256  1
  Ni  Ni25  1  0.242256  0.922871  0.580905  1
