# generated using pymatgen
data_Sm2MoP4Rh5
_symmetry_space_group_name_H-M   'P 1'
_cell_length_a   3.98373100
_cell_length_b   11.24724000
_cell_length_c   12.89629600
_cell_angle_alpha   90.00000000
_cell_angle_beta   90.00000000
_cell_angle_gamma   90.00000000
_symmetry_Int_Tables_number   1
_chemical_formula_structural   Sm2MoP4Rh5
_chemical_formula_sum   'Sm6 Mo3 P12 Rh15'
_cell_volume   577.83116327
_cell_formula_units_Z   3
loop_
 _symmetry_equiv_pos_site_id
 _symmetry_equiv_pos_as_xyz
  1  'x, y, z'
loop_
 _atom_site_type_symbol
 _atom_site_label
 _atom_site_symmetry_multiplicity
 _atom_site_fract_x
 _atom_site_fract_y
 _atom_site_fract_z
 _atom_site_occupancy
  Sm  Sm0  1  0.000000  0.500000  0.519208  1
  Sm  Sm1  1  0.500000  0.000000  0.479021  1
  Sm  Sm2  1  0.500000  0.815176  0.202072  1
  Sm  Sm3  1  0.500000  0.184824  0.202072  1
  Sm  Sm4  1  0.000000  0.683053  0.795475  1
  Sm  Sm5  1  0.000000  0.316947  0.795475  1
  Mo  Mo6  1  0.500000  0.500000  0.159448  1
  Mo  Mo7  1  0.000000  0.000000  0.843471  1
  Mo  Mo8  1  0.000000  0.500000  0.986506  1
  P  P9  1  0.500000  0.500000  0.876689  1
  P  P10  1  0.000000  0.000000  0.122309  1
  P  P11  1  0.500000  0.500000  0.344267  1
  P  P12  1  0.000000  0.000000  0.657466  1
  P  P13  1  0.500000  0.309688  0.617157  1
  P  P14  1  0.500000  0.690312  0.617157  1
  P  P15  1  0.000000  0.187745  0.383575  1
  P  P16  1  0.000000  0.812255  0.383575  1
  P  P17  1  0.500000  0.848394  0.890210  1
  P  P18  1  0.500000  0.151606  0.890210  1
  P  P19  1  0.000000  0.650478  0.110763  1
  P  P20  1  0.000000  0.349522  0.110763  1
  Rh  Rh21  1  0.500000  0.500000  0.693195  1
  Rh  Rh22  1  0.000000  0.000000  0.302530  1
  Rh  Rh23  1  0.500000  0.000000  0.012968  1
  Rh  Rh24  1  0.500000  0.328721  0.984783  1
  Rh  Rh25  1  0.500000  0.671279  0.984783  1
  Rh  Rh26  1  0.000000  0.166271  0.014196  1
  Rh  Rh27  1  0.000000  0.833729  0.014196  1
  Rh  Rh28  1  0.500000  0.292066  0.431862  1
  Rh  Rh29  1  0.500000  0.707934  0.431862  1
  Rh  Rh30  1  0.000000  0.206817  0.569752  1
  Rh  Rh31  1  0.000000  0.793183  0.569752  1
  Rh  Rh32  1  0.500000  0.877390  0.708796  1
  Rh  Rh33  1  0.500000  0.122610  0.708796  1
  Rh  Rh34  1  0.000000  0.624357  0.292820  1
  Rh  Rh35  1  0.000000  0.375643  0.292820  1
