# generated using pymatgen
data_HoTmB6Ru
_symmetry_space_group_name_H-M   'P 1'
_cell_length_a   3.63129900
_cell_length_b   9.09013500
_cell_length_c   11.47068500
_cell_angle_alpha   90.00000000
_cell_angle_beta   90.00000000
_cell_angle_gamma   90.00000000
_symmetry_Int_Tables_number   1
_chemical_formula_structural   HoTmB6Ru
_chemical_formula_sum   'Ho4 Tm4 B24 Ru4'
_cell_volume   378.63581978
_cell_formula_units_Z   4
loop_
 _symmetry_equiv_pos_site_id
 _symmetry_equiv_pos_as_xyz
  1  'x, y, z'
loop_
 _atom_site_type_symbol
 _atom_site_label
 _atom_site_symmetry_multiplicity
 _atom_site_fract_x
 _atom_site_fract_y
 _atom_site_fract_z
 _atom_site_occupancy
  Ho  Ho0  1  0.000000  0.322225  0.414134  1
  Ho  Ho1  1  0.000000  0.677775  0.585866  1
  Ho  Ho2  1  0.000000  0.822225  0.085866  1
  Ho  Ho3  1  0.000000  0.177775  0.914134  1
  Tm  Tm4  1  0.000000  0.943886  0.372502  1
  Tm  Tm5  1  0.000000  0.056114  0.627498  1
  Tm  Tm6  1  0.000000  0.443886  0.127498  1
  Tm  Tm7  1  0.000000  0.556114  0.872502  1
  B  B8  1  0.500000  0.554177  0.433107  1
  B  B9  1  0.500000  0.445823  0.566893  1
  B  B10  1  0.500000  0.054177  0.066893  1
  B  B11  1  0.500000  0.945823  0.933107  1
  B  B12  1  0.500000  0.748994  0.419772  1
  B  B13  1  0.500000  0.251006  0.580228  1
  B  B14  1  0.500000  0.248994  0.080228  1
  B  B15  1  0.500000  0.751006  0.919772  1
  B  B16  1  0.500000  0.791785  0.265945  1
  B  B17  1  0.500000  0.208215  0.734055  1
  B  B18  1  0.500000  0.291785  0.234055  1
  B  B19  1  0.500000  0.708215  0.765945  1
  B  B20  1  0.500000  0.631552  0.184605  1
  B  B21  1  0.500000  0.368448  0.815395  1
  B  B22  1  0.500000  0.131552  0.315395  1
  B  B23  1  0.500000  0.868448  0.684605  1
  B  B24  1  0.500000  0.983105  0.213180  1
  B  B25  1  0.500000  0.016895  0.786820  1
  B  B26  1  0.500000  0.483105  0.286820  1
  B  B27  1  0.500000  0.516895  0.713180  1
  B  B28  1  0.500000  0.605976  0.029196  1
  B  B29  1  0.500000  0.394024  0.970804  1
  B  B30  1  0.500000  0.105976  0.470804  1
  B  B31  1  0.500000  0.894024  0.529196  1
  Ru  Ru32  1  0.000000  0.638241  0.320683  1
  Ru  Ru33  1  0.000000  0.361759  0.679317  1
  Ru  Ru34  1  0.000000  0.138241  0.179317  1
  Ru  Ru35  1  0.000000  0.861759  0.820683  1
