# generated using pymatgen
data_LaPr5Ta2(Co4P3)4
_symmetry_space_group_name_H-M   'P 1'
_cell_length_a   3.78756100
_cell_length_b   10.80963400
_cell_length_c   12.53033000
_cell_angle_alpha   90.00000000
_cell_angle_beta   90.00000000
_cell_angle_gamma   90.00000000
_symmetry_Int_Tables_number   1
_chemical_formula_structural   LaPr5Ta2(Co4P3)4
_chemical_formula_sum   'La1 Pr5 Ta2 Co16 P12'
_cell_volume   513.01862739
_cell_formula_units_Z   1
loop_
 _symmetry_equiv_pos_site_id
 _symmetry_equiv_pos_as_xyz
  1  'x, y, z'
loop_
 _atom_site_type_symbol
 _atom_site_label
 _atom_site_symmetry_multiplicity
 _atom_site_fract_x
 _atom_site_fract_y
 _atom_site_fract_z
 _atom_site_occupancy
  La  La0  1  0.000000  0.500000  0.528207  1
  Pr  Pr1  1  0.500000  0.000000  0.474007  1
  Pr  Pr2  1  0.500000  0.819768  0.204981  1
  Pr  Pr3  1  0.500000  0.180232  0.204981  1
  Pr  Pr4  1  0.000000  0.680561  0.795261  1
  Pr  Pr5  1  0.000000  0.319439  0.795261  1
  Ta  Ta6  1  0.500000  0.500000  0.152295  1
  Ta  Ta7  1  0.000000  0.000000  0.847311  1
  Co  Co8  1  0.500000  0.500000  0.702590  1
  Co  Co9  1  0.000000  0.000000  0.296234  1
  Co  Co10  1  0.000000  0.500000  0.987624  1
  Co  Co11  1  0.500000  0.000000  0.012174  1
  Co  Co12  1  0.500000  0.332725  0.993473  1
  Co  Co13  1  0.500000  0.667275  0.993473  1
  Co  Co14  1  0.000000  0.167112  0.006442  1
  Co  Co15  1  0.000000  0.832888  0.006442  1
  Co  Co16  1  0.500000  0.294972  0.431522  1
  Co  Co17  1  0.500000  0.705028  0.431522  1
  Co  Co18  1  0.000000  0.203527  0.568662  1
  Co  Co19  1  0.000000  0.796473  0.568662  1
  Co  Co20  1  0.500000  0.881266  0.707536  1
  Co  Co21  1  0.500000  0.118734  0.707536  1
  Co  Co22  1  0.000000  0.619159  0.292254  1
  Co  Co23  1  0.000000  0.380841  0.292254  1
  P  P24  1  0.500000  0.500000  0.886369  1
  P  P25  1  0.000000  0.000000  0.113693  1
  P  P26  1  0.500000  0.500000  0.349561  1
  P  P27  1  0.000000  0.000000  0.649720  1
  P  P28  1  0.500000  0.302771  0.613663  1
  P  P29  1  0.500000  0.697229  0.613663  1
  P  P30  1  0.000000  0.195005  0.386418  1
  P  P31  1  0.000000  0.804995  0.386418  1
  P  P32  1  0.500000  0.843879  0.896427  1
  P  P33  1  0.500000  0.156121  0.896427  1
  P  P34  1  0.000000  0.656371  0.103467  1
  P  P35  1  0.000000  0.343629  0.103467  1
