# generated using pymatgen
data_AcLa11(Si7Br3)2
_symmetry_space_group_name_H-M   'P 1'
_cell_length_a   4.16953900
_cell_length_b   11.98076200
_cell_length_c   16.95178100
_cell_angle_alpha   90.00000000
_cell_angle_beta   90.00000000
_cell_angle_gamma   90.00000000
_symmetry_Int_Tables_number   1
_chemical_formula_structural   AcLa11(Si7Br3)2
_chemical_formula_sum   'Ac1 La11 Si14 Br6'
_cell_volume   846.81358075
_cell_formula_units_Z   1
loop_
 _symmetry_equiv_pos_site_id
 _symmetry_equiv_pos_as_xyz
  1  'x, y, z'
loop_
 _atom_site_type_symbol
 _atom_site_label
 _atom_site_symmetry_multiplicity
 _atom_site_fract_x
 _atom_site_fract_y
 _atom_site_fract_z
 _atom_site_occupancy
  Ac  Ac0  1  0.500000  0.337346  0.500000  1
  La  La1  1  0.000000  0.657289  0.000000  1
  La  La2  1  0.500000  0.358550  0.757001  1
  La  La3  1  0.000000  0.642897  0.744593  1
  La  La4  1  0.500000  0.358550  0.242999  1
  La  La5  1  0.000000  0.642897  0.255407  1
  La  La6  1  0.500000  0.066308  0.880977  1
  La  La7  1  0.000000  0.932511  0.619909  1
  La  La8  1  0.500000  0.066308  0.119023  1
  La  La9  1  0.000000  0.932511  0.380091  1
  La  La10  1  0.500000  0.357600  0.000000  1
  La  La11  1  0.000000  0.642605  0.500000  1
  Si  Si12  1  0.000000  0.153122  0.000000  1
  Si  Si13  1  0.500000  0.847020  0.500000  1
  Si  Si14  1  0.500000  0.563799  0.877365  1
  Si  Si15  1  0.000000  0.438658  0.625497  1
  Si  Si16  1  0.500000  0.563799  0.122635  1
  Si  Si17  1  0.000000  0.438658  0.374503  1
  Si  Si18  1  0.000000  0.255014  0.875855  1
  Si  Si19  1  0.500000  0.745447  0.624437  1
  Si  Si20  1  0.000000  0.255014  0.124145  1
  Si  Si21  1  0.500000  0.745447  0.375563  1
  Si  Si22  1  0.000000  0.458123  0.876140  1
  Si  Si23  1  0.500000  0.543957  0.625252  1
  Si  Si24  1  0.500000  0.543957  0.374748  1
  Si  Si25  1  0.000000  0.458123  0.123860  1
  Br  Br26  1  0.500000  0.108053  0.692222  1
  Br  Br27  1  0.000000  0.892518  0.807482  1
  Br  Br28  1  0.000000  0.131956  0.500000  1
  Br  Br29  1  0.500000  0.861391  0.000000  1
  Br  Br30  1  0.500000  0.108053  0.307778  1
  Br  Br31  1  0.000000  0.892518  0.192518  1
