# generated using pymatgen
data_Zr2Be16Ni
_symmetry_space_group_name_H-M   'P 1'
_cell_length_a   5.70445837
_cell_length_b   5.70445873
_cell_length_c   5.70445893
_cell_angle_alpha   82.85782752
_cell_angle_beta   82.85782613
_cell_angle_gamma   82.85781839
_symmetry_Int_Tables_number   1
_chemical_formula_structural   Zr2Be16Ni
_chemical_formula_sum   'Zr2 Be16 Ni1'
_cell_volume   181.63753698
_cell_formula_units_Z   1
loop_
 _symmetry_equiv_pos_site_id
 _symmetry_equiv_pos_as_xyz
  1  'x, y, z'
loop_
 _atom_site_type_symbol
 _atom_site_label
 _atom_site_symmetry_multiplicity
 _atom_site_fract_x
 _atom_site_fract_y
 _atom_site_fract_z
 _atom_site_occupancy
  Zr  Zr0  1  0.161073  0.161073  0.161073  1
  Zr  Zr1  1  0.839267  0.839267  0.839267  1
  Be  Be2  1  0.499307  0.499307  0.001693  1
  Be  Be3  1  0.001691  0.499306  0.499308  1
  Be  Be4  1  0.499306  0.001691  0.499308  1
  Be  Be5  1  0.782035  0.215609  0.498014  1
  Be  Be6  1  0.498015  0.782034  0.215609  1
  Be  Be7  1  0.215610  0.498013  0.782035  1
  Be  Be8  1  0.215609  0.782035  0.498014  1
  Be  Be9  1  0.498013  0.215610  0.782035  1
  Be  Be10  1  0.782034  0.498015  0.215609  1
  Be  Be11  1  0.600599  0.600599  0.600599  1
  Be  Be12  1  0.159434  0.656915  0.159433  1
  Be  Be13  1  0.159433  0.159433  0.656916  1
  Be  Be14  1  0.656915  0.159434  0.159433  1
  Be  Be15  1  0.341677  0.842793  0.842794  1
  Be  Be16  1  0.842794  0.842794  0.341676  1
  Be  Be17  1  0.842793  0.341677  0.842794  1
  Ni  Ni18  1  0.404391  0.404391  0.404391  1
