# generated using pymatgen
data_Y4Lu8Tl2CoTc2
_symmetry_space_group_name_H-M   'P 1'
_cell_length_a   8.32044780
_cell_length_b   8.32144496
_cell_length_c   8.32044952
_cell_angle_alpha   108.71218096
_cell_angle_beta   108.71093869
_cell_angle_gamma   110.99647692
_symmetry_Int_Tables_number   1
_chemical_formula_structural   Y4Lu8Tl2CoTc2
_chemical_formula_sum   'Y4 Lu8 Tl2 Co1 Tc2'
_cell_volume   443.26633006
_cell_formula_units_Z   1
loop_
 _symmetry_equiv_pos_site_id
 _symmetry_equiv_pos_as_xyz
  1  'x, y, z'
loop_
 _atom_site_type_symbol
 _atom_site_label
 _atom_site_symmetry_multiplicity
 _atom_site_fract_x
 _atom_site_fract_y
 _atom_site_fract_z
 _atom_site_occupancy
  Y  Y0  1  0.300171  0.300169  0.607606  1
  Y  Y1  1  0.692399  0.692395  0.392074  1
  Y  Y2  1  0.692563  0.300169  0.999998  1
  Y  Y3  1  0.300321  0.692395  0.999996  1
  Lu  Lu4  1  0.188171  0.426157  0.237985  1
  Lu  Lu5  1  0.808829  0.573173  0.764344  1
  Lu  Lu6  1  0.188033  0.950005  0.761972  1
  Lu  Lu7  1  0.950202  0.188199  0.762085  1
  Lu  Lu8  1  0.808629  0.044322  0.235693  1
  Lu  Lu9  1  0.044525  0.808812  0.235780  1
  Lu  Lu10  1  0.426115  0.188199  0.237996  1
  Lu  Lu11  1  0.573033  0.808812  0.764287  1
  Tl  Tl12  1  0.997402  0.497147  0.499745  1
  Tl  Tl13  1  0.498187  0.998713  0.500526  1
  Co  Co14  1  0.641071  0.641062  0.999991  1
  Tc  Tc15  1  0.390016  0.389464  0.999448  1
  Tc  Tc16  1  0.000333  0.000808  0.000475  1
