# generated using pymatgen
data_Pr6GdLu(WO6)4
_symmetry_space_group_name_H-M   'P 1'
_cell_length_a   5.40347136
_cell_length_b   9.39734902
_cell_length_c   10.27520731
_cell_angle_alpha   90.82262184
_cell_angle_beta   90.04650026
_cell_angle_gamma   89.81666478
_symmetry_Int_Tables_number   1
_chemical_formula_structural   Pr6GdLu(WO6)4
_chemical_formula_sum   'Pr6 Gd1 Lu1 W4 O24'
_cell_volume   521.70102429
_cell_formula_units_Z   1
loop_
 _symmetry_equiv_pos_site_id
 _symmetry_equiv_pos_as_xyz
  1  'x, y, z'
loop_
 _atom_site_type_symbol
 _atom_site_label
 _atom_site_symmetry_multiplicity
 _atom_site_fract_x
 _atom_site_fract_y
 _atom_site_fract_z
 _atom_site_occupancy
  Pr  Pr0  1  0.475908  0.604338  0.535768  1
  Pr  Pr1  1  0.977283  0.899471  0.464950  1
  Pr  Pr2  1  0.520820  0.103566  0.964696  1
  Pr  Pr3  1  0.024196  0.394314  0.035367  1
  Pr  Pr4  1  0.968295  0.781873  0.866632  1
  Pr  Pr5  1  0.468909  0.714367  0.131187  1
  Gd  Gd6  1  0.539450  0.219659  0.374405  1
  Lu  Lu7  1  0.040626  0.282080  0.625745  1
  W  W8  1  0.457780  0.005951  0.648136  1
  W  W9  1  0.960029  0.497213  0.354322  1
  W  W10  1  0.542450  0.490734  0.844612  1
  W  W11  1  0.042292  0.004750  0.152048  1
  O  O12  1  0.251103  0.101322  0.509185  1
  O  O13  1  0.762872  0.403847  0.496773  1
  O  O14  1  0.753253  0.585704  0.985581  1
  O  O15  1  0.251815  0.909922  0.012038  1
  O  O16  1  0.733173  0.120064  0.571678  1
  O  O17  1  0.229474  0.384413  0.437667  1
  O  O18  1  0.276331  0.608221  0.931440  1
  O  O19  1  0.776436  0.887897  0.067191  1
  O  O20  1  0.188497  0.872083  0.678519  1
  O  O21  1  0.686427  0.627639  0.323101  1
  O  O22  1  0.813912  0.362302  0.804525  1
  O  O23  1  0.310480  0.136317  0.187283  1
  O  O24  1  0.180340  0.860388  0.260895  1
  O  O25  1  0.673548  0.639494  0.738705  1
  O  O26  1  0.809020  0.356911  0.242361  1
  O  O27  1  0.299797  0.146289  0.757700  1
  O  O28  1  0.825470  0.053845  0.290840  1
  O  O29  1  0.320804  0.441941  0.707502  1
  O  O30  1  0.171507  0.543392  0.214095  1
  O  O31  1  0.664572  0.954375  0.788262  1
  O  O32  1  0.934235  0.148509  0.025471  1
  O  O33  1  0.440250  0.349801  0.973426  1
  O  O34  1  0.065548  0.649661  0.475802  1
  O  O35  1  0.563094  0.857348  0.522089  1
