# generated using pymatgen
data_Zr2InTcF15
_symmetry_space_group_name_H-M   'P 1'
_cell_length_a   8.04172064
_cell_length_b   8.04172019
_cell_length_c   8.10709861
_cell_angle_alpha   79.76576563
_cell_angle_beta   79.76576605
_cell_angle_gamma   99.79841214
_symmetry_Int_Tables_number   1
_chemical_formula_structural   Zr2InTcF15
_chemical_formula_sum   'Zr4 In2 Tc2 F30'
_cell_volume   496.58996271
_cell_formula_units_Z   2
loop_
 _symmetry_equiv_pos_site_id
 _symmetry_equiv_pos_as_xyz
  1  'x, y, z'
loop_
 _atom_site_type_symbol
 _atom_site_label
 _atom_site_symmetry_multiplicity
 _atom_site_fract_x
 _atom_site_fract_y
 _atom_site_fract_z
 _atom_site_occupancy
  Zr  Zr0  1  0.750716  0.678535  0.673921  1
  Zr  Zr1  1  0.321465  0.249284  0.826079  1
  Zr  Zr2  1  0.249284  0.321465  0.326079  1
  Zr  Zr3  1  0.678535  0.750716  0.173921  1
  In  In4  1  0.177951  0.822049  0.250000  1
  In  In5  1  0.822049  0.177951  0.750000  1
  Tc  Tc6  1  0.750273  0.249727  0.250000  1
  Tc  Tc7  1  0.249727  0.750273  0.750000  1
  F  F8  1  0.315671  0.350904  0.053069  1
  F  F9  1  0.942857  0.813992  0.151997  1
  F  F10  1  0.847762  0.453601  0.685088  1
  F  F11  1  0.453601  0.847762  0.185088  1
  F  F12  1  0.813992  0.942857  0.651997  1
  F  F13  1  0.350904  0.315671  0.553068  1
  F  F14  1  0.684329  0.649096  0.946931  1
  F  F15  1  0.057143  0.186008  0.848003  1
  F  F16  1  0.152238  0.546399  0.314912  1
  F  F17  1  0.546399  0.152238  0.814912  1
  F  F18  1  0.186008  0.057143  0.348003  1
  F  F19  1  0.649096  0.684329  0.446931  1
  F  F20  1  0.772280  0.283445  0.002090  1
  F  F21  1  0.002981  0.274070  0.217030  1
  F  F22  1  0.781947  0.503277  0.224504  1
  F  F23  1  0.503277  0.781947  0.724504  1
  F  F24  1  0.274070  0.002981  0.717030  1
  F  F25  1  0.283445  0.772280  0.502090  1
  F  F26  1  0.227720  0.716555  0.997910  1
  F  F27  1  0.997019  0.725930  0.782970  1
  F  F28  1  0.218053  0.496723  0.775496  1
  F  F29  1  0.496723  0.218053  0.275496  1
  F  F30  1  0.725930  0.997019  0.282970  1
  F  F31  1  0.716555  0.227720  0.497910  1
  F  F32  1  0.467415  0.532585  0.250000  1
  F  F33  1  0.748132  0.959781  0.969248  1
  F  F34  1  0.040219  0.251868  0.530752  1
  F  F35  1  0.251868  0.040219  0.030752  1
  F  F36  1  0.959781  0.748132  0.469248  1
  F  F37  1  0.532585  0.467415  0.750000  1
