# generated using pymatgen
data_Y7Ho13(Bi2P)4
_symmetry_space_group_name_H-M   'P 1'
_cell_length_a   7.98040102
_cell_length_b   8.96478000
_cell_length_c   12.14706903
_cell_angle_alpha   90.00000000
_cell_angle_beta   90.00744306
_cell_angle_gamma   90.00000000
_symmetry_Int_Tables_number   1
_chemical_formula_structural   Y7Ho13(Bi2P)4
_chemical_formula_sum   'Y7 Ho13 Bi8 P4'
_cell_volume   869.03215736
_cell_formula_units_Z   1
loop_
 _symmetry_equiv_pos_site_id
 _symmetry_equiv_pos_as_xyz
  1  'x, y, z'
loop_
 _atom_site_type_symbol
 _atom_site_label
 _atom_site_symmetry_multiplicity
 _atom_site_fract_x
 _atom_site_fract_y
 _atom_site_fract_z
 _atom_site_occupancy
  Y  Y0  1  0.850148  0.750000  0.794033  1
  Y  Y1  1  0.149904  0.250000  0.206081  1
  Y  Y2  1  0.350099  0.250000  0.706025  1
  Y  Y3  1  0.649911  0.750000  0.293913  1
  Y  Y4  1  0.375695  0.750000  0.699659  1
  Y  Y5  1  0.624223  0.250000  0.300310  1
  Y  Y6  1  0.875717  0.250000  0.800343  1
  Ho  Ho7  1  0.124282  0.750000  0.199526  1
  Ho  Ho8  1  0.958524  0.750000  0.501833  1
  Ho  Ho9  1  0.041596  0.250000  0.498023  1
  Ho  Ho10  1  0.458410  0.250000  0.998122  1
  Ho  Ho11  1  0.541486  0.750000  0.001902  1
  Ho  Ho12  1  0.682329  0.050413  0.563924  1
  Ho  Ho13  1  0.317563  0.949386  0.435993  1
  Ho  Ho14  1  0.182400  0.949461  0.936145  1
  Ho  Ho15  1  0.317563  0.550614  0.435993  1
  Ho  Ho16  1  0.817688  0.050458  0.063962  1
  Ho  Ho17  1  0.682329  0.449587  0.563924  1
  Ho  Ho18  1  0.817688  0.449542  0.063962  1
  Ho  Ho19  1  0.182400  0.550539  0.936145  1
  Bi  Bi20  1  0.576476  0.490681  0.826978  1
  Bi  Bi21  1  0.423308  0.509527  0.173047  1
  Bi  Bi22  1  0.076457  0.509321  0.673031  1
  Bi  Bi23  1  0.423308  0.990473  0.173047  1
  Bi  Bi24  1  0.923714  0.490901  0.326830  1
  Bi  Bi25  1  0.576476  0.009319  0.826978  1
  Bi  Bi26  1  0.923714  0.009099  0.326830  1
  Bi  Bi27  1  0.076457  0.990679  0.673031  1
  P  P28  1  0.575206  0.750000  0.512827  1
  P  P29  1  0.424736  0.250000  0.487113  1
  P  P30  1  0.075201  0.250000  0.987144  1
  P  P31  1  0.924993  0.750000  0.013326  1
