# generated using pymatgen
data_La4YbSm2OsBr12
_symmetry_space_group_name_H-M   'P 1'
_cell_length_a   9.78270795
_cell_length_b   9.79739211
_cell_length_c   9.55371400
_cell_angle_alpha   107.05896302
_cell_angle_beta   108.11214817
_cell_angle_gamma   106.46047018
_symmetry_Int_Tables_number   1
_chemical_formula_structural   La4YbSm2OsBr12
_chemical_formula_sum   'La4 Yb1 Sm2 Os1 Br12'
_cell_volume   758.03674611
_cell_formula_units_Z   1
loop_
 _symmetry_equiv_pos_site_id
 _symmetry_equiv_pos_as_xyz
  1  'x, y, z'
loop_
 _atom_site_type_symbol
 _atom_site_label
 _atom_site_symmetry_multiplicity
 _atom_site_fract_x
 _atom_site_fract_y
 _atom_site_fract_z
 _atom_site_occupancy
  La  La0  1  0.109435  0.024015  0.302578  1
  La  La1  1  0.895355  0.973314  0.699956  1
  La  La2  1  0.976788  0.675462  0.886107  1
  La  La3  1  0.675410  0.889533  0.974103  1
  Yb  Yb4  1  0.497965  0.500787  0.494317  1
  Sm  Sm5  1  0.316500  0.113886  0.029082  1
  Sm  Sm6  1  0.021761  0.312610  0.112051  1
  Os  Os7  1  0.000916  0.998812  0.002058  1
  Br  Br8  1  0.685406  0.220353  0.071714  1
  Br  Br9  1  0.363851  0.450531  0.159265  1
  Br  Br10  1  0.074169  0.678270  0.217483  1
  Br  Br11  1  0.790647  0.934778  0.321739  1
  Br  Br12  1  0.465443  0.178104  0.376352  1
  Br  Br13  1  0.174039  0.380756  0.457828  1
  Br  Br14  1  0.821857  0.617357  0.532735  1
  Br  Br15  1  0.536374  0.824059  0.613690  1
  Br  Br16  1  0.220334  0.072872  0.693154  1
  Br  Br17  1  0.928357  0.314113  0.791675  1
  Br  Br18  1  0.623615  0.542723  0.827141  1
  Br  Br19  1  0.321781  0.797668  0.936978  1
