# generated using pymatgen
data_Sc5Si12Ir16Ru3
_symmetry_space_group_name_H-M   'P 1'
_cell_length_a   12.69137400
_cell_length_b   12.69137425
_cell_length_c   3.95031200
_cell_angle_alpha   90.00000000
_cell_angle_beta   90.00000000
_cell_angle_gamma   120.00000457
_symmetry_Int_Tables_number   1
_chemical_formula_structural   Sc5Si12Ir16Ru3
_chemical_formula_sum   'Sc5 Si12 Ir16 Ru3'
_cell_volume   551.03515013
_cell_formula_units_Z   1
loop_
 _symmetry_equiv_pos_site_id
 _symmetry_equiv_pos_as_xyz
  1  'x, y, z'
loop_
 _atom_site_type_symbol
 _atom_site_label
 _atom_site_symmetry_multiplicity
 _atom_site_fract_x
 _atom_site_fract_y
 _atom_site_fract_z
 _atom_site_occupancy
  Sc  Sc0  1  0.333333  0.666667  0.000000  1
  Sc  Sc1  1  0.666667  0.333333  0.000000  1
  Sc  Sc2  1  0.815052  0.000000  0.500000  1
  Sc  Sc3  1  0.000000  0.815052  0.500000  1
  Sc  Sc4  1  0.184948  0.184948  0.500000  1
  Si  Si5  1  0.179758  0.000000  0.000000  1
  Si  Si6  1  0.000000  0.179758  0.000000  1
  Si  Si7  1  0.820242  0.820242  0.000000  1
  Si  Si8  1  0.168124  0.481479  0.500000  1
  Si  Si9  1  0.518521  0.686644  0.500000  1
  Si  Si10  1  0.313356  0.831876  0.500000  1
  Si  Si11  1  0.686644  0.518521  0.500000  1
  Si  Si12  1  0.831876  0.313356  0.500000  1
  Si  Si13  1  0.481479  0.168124  0.500000  1
  Si  Si14  1  0.631135  0.000000  0.000000  1
  Si  Si15  1  0.000000  0.631135  0.000000  1
  Si  Si16  1  0.368865  0.368865  0.000000  1
  Ir  Ir17  1  0.360476  0.487918  0.500000  1
  Ir  Ir18  1  0.512082  0.872558  0.500000  1
  Ir  Ir19  1  0.127442  0.639524  0.500000  1
  Ir  Ir20  1  0.872558  0.512082  0.500000  1
  Ir  Ir21  1  0.639524  0.127442  0.500000  1
  Ir  Ir22  1  0.487918  0.360476  0.500000  1
  Ir  Ir23  1  0.182656  0.374791  0.000000  1
  Ir  Ir24  1  0.625209  0.807864  0.000000  1
  Ir  Ir25  1  0.192136  0.817344  0.000000  1
  Ir  Ir26  1  0.807864  0.625209  0.000000  1
  Ir  Ir27  1  0.817344  0.192136  0.000000  1
  Ir  Ir28  1  0.374791  0.182656  0.000000  1
  Ir  Ir29  1  0.279540  0.000000  0.500000  1
  Ir  Ir30  1  0.000000  0.279540  0.500000  1
  Ir  Ir31  1  0.720460  0.720460  0.500000  1
  Ir  Ir32  1  0.000000  0.000000  0.000000  1
  Ru  Ru33  1  0.444851  0.000000  0.000000  1
  Ru  Ru34  1  0.000000  0.444851  0.000000  1
  Ru  Ru35  1  0.555149  0.555149  0.000000  1
