# generated using pymatgen
data_Tm3Co7(P3Rh)2
_symmetry_space_group_name_H-M   'P 1'
_cell_length_a   3.69719400
_cell_length_b   10.64192300
_cell_length_c   12.31331300
_cell_angle_alpha   90.00000000
_cell_angle_beta   90.00000000
_cell_angle_gamma   90.00000000
_symmetry_Int_Tables_number   1
_chemical_formula_structural   Tm3Co7(P3Rh)2
_chemical_formula_sum   'Tm6 Co14 P12 Rh4'
_cell_volume   484.47042589
_cell_formula_units_Z   2
loop_
 _symmetry_equiv_pos_site_id
 _symmetry_equiv_pos_as_xyz
  1  'x, y, z'
loop_
 _atom_site_type_symbol
 _atom_site_label
 _atom_site_symmetry_multiplicity
 _atom_site_fract_x
 _atom_site_fract_y
 _atom_site_fract_z
 _atom_site_occupancy
  Tm  Tm0  1  0.000000  0.500000  0.520774  1
  Tm  Tm1  1  0.500000  0.000000  0.479226  1
  Tm  Tm2  1  0.500000  0.814368  0.205831  1
  Tm  Tm3  1  0.500000  0.185632  0.205831  1
  Tm  Tm4  1  0.000000  0.685632  0.794169  1
  Tm  Tm5  1  0.000000  0.314368  0.794169  1
  Co  Co6  1  0.000000  0.500000  0.988350  1
  Co  Co7  1  0.500000  0.000000  0.011650  1
  Co  Co8  1  0.500000  0.332012  0.993705  1
  Co  Co9  1  0.500000  0.667988  0.993705  1
  Co  Co10  1  0.000000  0.167988  0.006295  1
  Co  Co11  1  0.000000  0.832012  0.006295  1
  Co  Co12  1  0.500000  0.300370  0.430027  1
  Co  Co13  1  0.500000  0.699630  0.430027  1
  Co  Co14  1  0.000000  0.199630  0.569973  1
  Co  Co15  1  0.000000  0.800370  0.569973  1
  Co  Co16  1  0.500000  0.879466  0.709290  1
  Co  Co17  1  0.500000  0.120534  0.709290  1
  Co  Co18  1  0.000000  0.620534  0.290710  1
  Co  Co19  1  0.000000  0.379466  0.290710  1
  P  P20  1  0.500000  0.500000  0.889357  1
  P  P21  1  0.000000  0.000000  0.110643  1
  P  P22  1  0.500000  0.500000  0.351570  1
  P  P23  1  0.000000  0.000000  0.648430  1
  P  P24  1  0.500000  0.303293  0.613875  1
  P  P25  1  0.500000  0.696707  0.613875  1
  P  P26  1  0.000000  0.196707  0.386125  1
  P  P27  1  0.000000  0.803293  0.386125  1
  P  P28  1  0.500000  0.843882  0.893655  1
  P  P29  1  0.500000  0.156118  0.893655  1
  P  P30  1  0.000000  0.656118  0.106345  1
  P  P31  1  0.000000  0.343882  0.106345  1
  Rh  Rh32  1  0.500000  0.500000  0.160726  1
  Rh  Rh33  1  0.000000  0.000000  0.839274  1
  Rh  Rh34  1  0.500000  0.500000  0.702952  1
  Rh  Rh35  1  0.000000  0.000000  0.297048  1
