# generated using pymatgen
data_Tb6HoTm13Pb16
_symmetry_space_group_name_H-M   'P 1'
_cell_length_a   8.16212617
_cell_length_b   15.51775896
_cell_length_c   8.22614284
_cell_angle_alpha   90.01157822
_cell_angle_beta   89.92507756
_cell_angle_gamma   90.15448687
_symmetry_Int_Tables_number   1
_chemical_formula_structural   Tb6HoTm13Pb16
_chemical_formula_sum   'Tb6 Ho1 Tm13 Pb16'
_cell_volume   1041.90133088
_cell_formula_units_Z   1
loop_
 _symmetry_equiv_pos_site_id
 _symmetry_equiv_pos_as_xyz
  1  'x, y, z'
loop_
 _atom_site_type_symbol
 _atom_site_label
 _atom_site_symmetry_multiplicity
 _atom_site_fract_x
 _atom_site_fract_y
 _atom_site_fract_z
 _atom_site_occupancy
  Tb  Tb0  1  0.963744  0.900263  0.823253  1
  Tb  Tb1  1  0.536428  0.099502  0.323504  1
  Tb  Tb2  1  0.036986  0.400367  0.176222  1
  Tb  Tb3  1  0.537021  0.400459  0.323925  1
  Tb  Tb4  1  0.036410  0.099471  0.176616  1
  Tb  Tb5  1  0.463874  0.900539  0.676513  1
  Ho  Ho6  1  0.962957  0.599820  0.823509  1
  Tm  Tm7  1  0.623274  0.621613  0.158110  1
  Tm  Tm8  1  0.123838  0.878261  0.341937  1
  Tm  Tm9  1  0.376430  0.121625  0.841795  1
  Tm  Tm10  1  0.877163  0.378656  0.658609  1
  Tm  Tm11  1  0.377259  0.378860  0.841332  1
  Tm  Tm12  1  0.876251  0.121554  0.658259  1
  Tm  Tm13  1  0.623568  0.878075  0.158001  1
  Tm  Tm14  1  0.123231  0.621574  0.342046  1
  Tm  Tm15  1  0.461823  0.600127  0.675703  1
  Tm  Tm16  1  0.791489  0.749539  0.495252  1
  Tm  Tm17  1  0.291801  0.749606  0.004952  1
  Tm  Tm18  1  0.208311  0.250163  0.505114  1
  Tm  Tm19  1  0.708273  0.250129  0.994793  1
  Pb  Pb20  1  0.717958  0.457374  0.965660  1
  Pb  Pb21  1  0.216949  0.042784  0.534948  1
  Pb  Pb22  1  0.283229  0.957001  0.034664  1
  Pb  Pb23  1  0.781330  0.543153  0.467351  1
  Pb  Pb24  1  0.282742  0.543199  0.033016  1
  Pb  Pb25  1  0.783282  0.957042  0.464930  1
  Pb  Pb26  1  0.716933  0.042708  0.965322  1
  Pb  Pb27  1  0.218028  0.457893  0.535160  1
  Pb  Pb28  1  0.428736  0.749987  0.372928  1
  Pb  Pb29  1  0.928885  0.749972  0.127443  1
  Pb  Pb30  1  0.571117  0.250087  0.627467  1
  Pb  Pb31  1  0.071083  0.249990  0.872251  1
  Pb  Pb32  1  0.651262  0.749113  0.845303  1
  Pb  Pb33  1  0.152230  0.749573  0.653939  1
  Pb  Pb34  1  0.348115  0.250028  0.153631  1
  Pb  Pb35  1  0.847985  0.249895  0.346543  1
