# generated using pymatgen
data_Sm3AgHg3Rh2
_symmetry_space_group_name_H-M   'P 1'
_cell_length_a   7.79390800
_cell_length_b   7.79390772
_cell_length_c   3.91328300
_cell_angle_alpha   90.00000000
_cell_angle_beta   90.00000000
_cell_angle_gamma   120.00000119
_symmetry_Int_Tables_number   1
_chemical_formula_structural   Sm3AgHg3Rh2
_chemical_formula_sum   'Sm3 Ag1 Hg3 Rh2'
_cell_volume   205.86495290
_cell_formula_units_Z   1
loop_
 _symmetry_equiv_pos_site_id
 _symmetry_equiv_pos_as_xyz
  1  'x, y, z'
loop_
 _atom_site_type_symbol
 _atom_site_label
 _atom_site_symmetry_multiplicity
 _atom_site_fract_x
 _atom_site_fract_y
 _atom_site_fract_z
 _atom_site_occupancy
  Sm  Sm0  1  0.587621  0.000000  0.500000  1
  Sm  Sm1  1  0.000000  0.587621  0.500000  1
  Sm  Sm2  1  0.412379  0.412379  0.500000  1
  Ag  Ag3  1  0.000000  0.000000  0.500000  1
  Hg  Hg4  1  0.269158  0.000000  0.000000  1
  Hg  Hg5  1  0.730842  0.730842  0.000000  1
  Hg  Hg6  1  0.000000  0.269158  0.000000  1
  Rh  Rh7  1  0.666667  0.333333  0.000000  1
  Rh  Rh8  1  0.333333  0.666667  0.000000  1
