# generated using pymatgen
data_Mn2Nb3SiC
_symmetry_space_group_name_H-M   'P 1'
_cell_length_a   8.09800880
_cell_length_b   8.09800929
_cell_length_c   8.09800800
_cell_angle_alpha   59.99999708
_cell_angle_beta   59.99999512
_cell_angle_gamma   60.00000342
_symmetry_Int_Tables_number   1
_chemical_formula_structural   Mn2Nb3SiC
_chemical_formula_sum   'Mn8 Nb12 Si4 C4'
_cell_volume   375.50844134
_cell_formula_units_Z   4
loop_
 _symmetry_equiv_pos_site_id
 _symmetry_equiv_pos_as_xyz
  1  'x, y, z'
loop_
 _atom_site_type_symbol
 _atom_site_label
 _atom_site_symmetry_multiplicity
 _atom_site_fract_x
 _atom_site_fract_y
 _atom_site_fract_z
 _atom_site_occupancy
  Mn  Mn0  1  0.232787  0.922404  0.922404  1
  Mn  Mn1  1  0.922404  0.232787  0.922404  1
  Mn  Mn2  1  0.327596  0.327596  0.327596  1
  Mn  Mn3  1  0.327596  0.017213  0.327596  1
  Mn  Mn4  1  0.327596  0.327596  0.017213  1
  Mn  Mn5  1  0.017213  0.327596  0.327596  1
  Mn  Mn6  1  0.922404  0.922404  0.922404  1
  Mn  Mn7  1  0.922404  0.922404  0.232787  1
  Nb  Nb8  1  0.551835  0.551835  0.948165  1
  Nb  Nb9  1  0.948165  0.948165  0.551835  1
  Nb  Nb10  1  0.698165  0.698165  0.301835  1
  Nb  Nb11  1  0.301835  0.698165  0.698165  1
  Nb  Nb12  1  0.698165  0.301835  0.301835  1
  Nb  Nb13  1  0.301835  0.301835  0.698165  1
  Nb  Nb14  1  0.551835  0.948165  0.551835  1
  Nb  Nb15  1  0.301835  0.698165  0.301835  1
  Nb  Nb16  1  0.948165  0.551835  0.948165  1
  Nb  Nb17  1  0.948165  0.551835  0.551835  1
  Nb  Nb18  1  0.698165  0.301835  0.698165  1
  Nb  Nb19  1  0.551835  0.948165  0.948165  1
  Si  Si20  1  0.125000  0.125000  0.625000  1
  Si  Si21  1  0.125000  0.625000  0.125000  1
  Si  Si22  1  0.625000  0.125000  0.125000  1
  Si  Si23  1  0.125000  0.125000  0.125000  1
  C  C24  1  0.625000  0.625000  0.125000  1
  C  C25  1  0.125000  0.625000  0.625000  1
  C  C26  1  0.625000  0.125000  0.625000  1
  C  C27  1  0.625000  0.625000  0.625000  1
