# generated using pymatgen
data_Pr3Sm(Hf4Sn5)2
_symmetry_space_group_name_H-M   'P 1'
_cell_length_a   11.15391015
_cell_length_b   11.18294390
_cell_length_c   11.18294500
_cell_angle_alpha   148.96323427
_cell_angle_beta   131.77107064
_cell_angle_gamma   58.49184947
_symmetry_Int_Tables_number   1
_chemical_formula_structural   Pr3Sm(Hf4Sn5)2
_chemical_formula_sum   'Pr3 Sm1 Hf8 Sn10'
_cell_volume   532.15452606
_cell_formula_units_Z   1
loop_
 _symmetry_equiv_pos_site_id
 _symmetry_equiv_pos_as_xyz
  1  'x, y, z'
loop_
 _atom_site_type_symbol
 _atom_site_label
 _atom_site_symmetry_multiplicity
 _atom_site_fract_x
 _atom_site_fract_y
 _atom_site_fract_z
 _atom_site_occupancy
  Pr  Pr0  1  0.257647  0.143515  0.114131  1
  Pr  Pr1  1  0.743815  0.857362  0.886454  1
  Pr  Pr2  1  0.028328  0.642496  0.385832  1
  Sm  Sm3  1  0.969942  0.356802  0.613141  1
  Hf  Hf4  1  0.313751  0.561421  0.251655  1
  Hf  Hf5  1  0.688798  0.438422  0.750292  1
  Hf  Hf6  1  0.688798  0.938506  0.250376  1
  Hf  Hf7  1  0.313751  0.062096  0.752329  1
  Hf  Hf8  1  0.672669  0.436521  0.236150  1
  Hf  Hf9  1  0.324629  0.563391  0.761237  1
  Hf  Hf10  1  0.196561  0.936383  0.260178  1
  Hf  Hf11  1  0.803534  0.063621  0.739913  1
  Sn  Sn12  1  0.588394  0.290009  0.298385  1
  Sn  Sn13  1  0.417378  0.710932  0.706446  1
  Sn  Sn14  1  0.995031  0.789255  0.205777  1
  Sn  Sn15  1  0.005381  0.212287  0.793094  1
  Sn  Sn16  1  0.999338  0.249939  0.251346  1
  Sn  Sn17  1  0.999338  0.747992  0.749399  1
  Sn  Sn18  1  0.471998  0.065908  0.406089  1
  Sn  Sn19  1  0.528274  0.934423  0.593852  1
  Sn  Sn20  1  0.658539  0.565848  0.092690  1
  Sn  Sn21  1  0.334104  0.432872  0.901234  1
