# generated using pymatgen
data_DyTm2Al8(SiOs)4
_symmetry_space_group_name_H-M   'P 1'
_cell_length_a   8.69480672
_cell_length_b   8.69480624
_cell_length_c   9.41199600
_cell_angle_alpha   90.00000000
_cell_angle_beta   90.00000000
_cell_angle_gamma   120.15040999
_symmetry_Int_Tables_number   1
_chemical_formula_structural   DyTm2Al8(SiOs)4
_chemical_formula_sum   'Dy2 Tm4 Al16 Si8 Os8'
_cell_volume   615.27883887
_cell_formula_units_Z   2
loop_
 _symmetry_equiv_pos_site_id
 _symmetry_equiv_pos_as_xyz
  1  'x, y, z'
loop_
 _atom_site_type_symbol
 _atom_site_label
 _atom_site_symmetry_multiplicity
 _atom_site_fract_x
 _atom_site_fract_y
 _atom_site_fract_z
 _atom_site_occupancy
  Dy  Dy0  1  0.194220  0.805780  0.250000  1
  Dy  Dy1  1  0.805780  0.194220  0.750000  1
  Tm  Tm2  1  0.192783  0.388398  0.250000  1
  Tm  Tm3  1  0.807217  0.611602  0.750000  1
  Tm  Tm4  1  0.611602  0.807217  0.250000  1
  Tm  Tm5  1  0.388398  0.192783  0.750000  1
  Al  Al6  1  0.165643  0.329807  0.577979  1
  Al  Al7  1  0.834357  0.670193  0.422021  1
  Al  Al8  1  0.670193  0.834357  0.577979  1
  Al  Al9  1  0.834357  0.670193  0.077979  1
  Al  Al10  1  0.329807  0.165643  0.422021  1
  Al  Al11  1  0.165643  0.329807  0.922021  1
  Al  Al12  1  0.164476  0.835524  0.578145  1
  Al  Al13  1  0.329807  0.165643  0.077979  1
  Al  Al14  1  0.835524  0.164476  0.421855  1
  Al  Al15  1  0.670193  0.834357  0.922021  1
  Al  Al16  1  0.835524  0.164476  0.078145  1
  Al  Al17  1  0.164476  0.835524  0.921855  1
  Al  Al18  1  0.564435  0.435565  0.250000  1
  Al  Al19  1  0.435565  0.564435  0.750000  1
  Al  Al20  1  0.999823  0.000177  0.250000  1
  Al  Al21  1  0.000177  0.999823  0.750000  1
  Si  Si22  1  0.335120  0.664880  0.041846  1
  Si  Si23  1  0.664880  0.335120  0.958154  1
  Si  Si24  1  0.664880  0.335120  0.541846  1
  Si  Si25  1  0.335120  0.664880  0.458154  1
  Si  Si26  1  0.565396  0.124938  0.250000  1
  Si  Si27  1  0.434604  0.875062  0.750000  1
  Si  Si28  1  0.875062  0.434604  0.250000  1
  Si  Si29  1  0.124938  0.565396  0.750000  1
  Os  Os30  1  0.500000  0.000000  0.000000  1
  Os  Os31  1  0.000000  0.500000  0.000000  1
  Os  Os32  1  0.500000  0.000000  0.500000  1
  Os  Os33  1  0.500000  0.500000  0.000000  1
  Os  Os34  1  0.000000  0.500000  0.500000  1
  Os  Os35  1  0.500000  0.500000  0.500000  1
  Os  Os36  1  0.000000  0.000000  0.000000  1
  Os  Os37  1  0.000000  0.000000  0.500000  1
