# generated using pymatgen
data_NbVSiB2W3
_symmetry_space_group_name_H-M   'P 1'
_cell_length_a   7.02124705
_cell_length_b   7.02124639
_cell_length_c   7.03824639
_cell_angle_alpha   129.22181296
_cell_angle_beta   129.22180464
_cell_angle_gamma   74.47194105
_symmetry_Int_Tables_number   1
_chemical_formula_structural   NbVSiB2W3
_chemical_formula_sum   'Nb2 V2 Si2 B4 W6'
_cell_volume   203.13137436
_cell_formula_units_Z   2
loop_
 _symmetry_equiv_pos_site_id
 _symmetry_equiv_pos_as_xyz
  1  'x, y, z'
loop_
 _atom_site_type_symbol
 _atom_site_label
 _atom_site_symmetry_multiplicity
 _atom_site_fract_x
 _atom_site_fract_y
 _atom_site_fract_z
 _atom_site_occupancy
  Nb  Nb0  1  0.694741  0.525924  0.500000  1
  Nb  Nb1  1  0.974076  0.805259  0.500000  1
  V  V2  1  0.999882  0.000221  0.000104  1
  V  V3  1  0.499779  0.500118  0.999896  1
  Si  Si4  1  0.247911  0.252089  0.000000  1
  Si  Si5  1  0.747911  0.752089  0.000000  1
  B  B6  1  0.132628  0.626915  0.759543  1
  B  B7  1  0.873085  0.367372  0.240457  1
  B  B8  1  0.618329  0.881671  0.500000  1
  B  B9  1  0.378253  0.121747  0.500000  1
  W  W10  1  0.803907  0.305473  0.832882  1
  W  W11  1  0.194527  0.696093  0.167118  1
  W  W12  1  0.471024  0.972591  0.167118  1
  W  W13  1  0.304093  0.467555  0.500000  1
  W  W14  1  0.032445  0.195907  0.500000  1
  W  W15  1  0.527409  0.028976  0.832882  1
