# generated using pymatgen
data_PrNdGa3Cu7
_symmetry_space_group_name_H-M   'P 1'
_cell_length_a   4.20833800
_cell_length_b   5.16129981
_cell_length_c   9.00369836
_cell_angle_alpha   89.29592664
_cell_angle_beta   90.00000000
_cell_angle_gamma   90.00000000
_symmetry_Int_Tables_number   1
_chemical_formula_structural   PrNdGa3Cu7
_chemical_formula_sum   'Pr1 Nd1 Ga3 Cu7'
_cell_volume   195.55001187
_cell_formula_units_Z   1
loop_
 _symmetry_equiv_pos_site_id
 _symmetry_equiv_pos_as_xyz
  1  'x, y, z'
loop_
 _atom_site_type_symbol
 _atom_site_label
 _atom_site_symmetry_multiplicity
 _atom_site_fract_x
 _atom_site_fract_y
 _atom_site_fract_z
 _atom_site_occupancy
  Pr  Pr0  1  0.000000  0.752748  0.248753  1
  Nd  Nd1  1  0.000000  0.247864  0.751818  1
  Ga  Ga2  1  0.500000  0.736499  0.743944  1
  Ga  Ga3  1  0.500000  0.262254  0.255586  1
  Ga  Ga4  1  0.500000  0.000631  0.999367  1
  Cu  Cu5  1  0.000000  0.257187  0.081869  1
  Cu  Cu6  1  0.000000  0.750213  0.580659  1
  Cu  Cu7  1  0.000000  0.744283  0.916269  1
  Cu  Cu8  1  0.000000  0.249796  0.422134  1
  Cu  Cu9  1  0.500000  0.499014  0.499988  1
  Cu  Cu10  1  0.500000  0.499018  0.998928  1
  Cu  Cu11  1  0.500000  0.000492  0.500684  1
