# generated using pymatgen
data_KBHCl3
_symmetry_space_group_name_H-M   'P 1'
_cell_length_a   5.55042905
_cell_length_b   5.55042870
_cell_length_c   5.55042966
_cell_angle_alpha   74.32901155
_cell_angle_beta   74.32900922
_cell_angle_gamma   74.32900119
_symmetry_Int_Tables_number   1
_chemical_formula_structural   KBHCl3
_chemical_formula_sum   'K1 B1 H1 Cl3'
_cell_volume   154.89148117
_cell_formula_units_Z   1
loop_
 _symmetry_equiv_pos_site_id
 _symmetry_equiv_pos_as_xyz
  1  'x, y, z'
loop_
 _atom_site_type_symbol
 _atom_site_label
 _atom_site_symmetry_multiplicity
 _atom_site_fract_x
 _atom_site_fract_y
 _atom_site_fract_z
 _atom_site_occupancy
  K  K0  1  0.993232  0.993232  0.993232  1
  B  B1  1  0.488907  0.488907  0.488907  1
  H  H2  1  0.388890  0.388890  0.388890  1
  Cl  Cl3  1  0.391180  0.391180  0.846610  1
  Cl  Cl4  1  0.391180  0.846610  0.391180  1
  Cl  Cl5  1  0.846610  0.391180  0.391180  1
