# generated using pymatgen
data_YTm(Si7Rh3)2
_symmetry_space_group_name_H-M   'P 1'
_cell_length_a   7.98489335
_cell_length_b   7.98489309
_cell_length_c   7.98489519
_cell_angle_alpha   57.10501197
_cell_angle_beta   57.10501447
_cell_angle_gamma   57.10500529
_symmetry_Int_Tables_number   1
_chemical_formula_structural   YTm(Si7Rh3)2
_chemical_formula_sum   'Y1 Tm1 Si14 Rh6'
_cell_volume   335.97411221
_cell_formula_units_Z   1
loop_
 _symmetry_equiv_pos_site_id
 _symmetry_equiv_pos_as_xyz
  1  'x, y, z'
loop_
 _atom_site_type_symbol
 _atom_site_label
 _atom_site_symmetry_multiplicity
 _atom_site_fract_x
 _atom_site_fract_y
 _atom_site_fract_z
 _atom_site_occupancy
  Y  Y0  1  0.000000  0.000000  0.000000  1
  Tm  Tm1  1  0.500000  0.500000  0.500000  1
  Si  Si2  1  0.749900  0.749900  0.749900  1
  Si  Si3  1  0.250100  0.250100  0.250100  1
  Si  Si4  1  0.851479  0.065428  0.671673  1
  Si  Si5  1  0.671673  0.851479  0.065428  1
  Si  Si6  1  0.065428  0.671673  0.851479  1
  Si  Si7  1  0.648022  0.827579  0.435036  1
  Si  Si8  1  0.435036  0.648022  0.827579  1
  Si  Si9  1  0.827579  0.435036  0.648022  1
  Si  Si10  1  0.172421  0.564964  0.351978  1
  Si  Si11  1  0.564964  0.351978  0.172421  1
  Si  Si12  1  0.351978  0.172421  0.564964  1
  Si  Si13  1  0.934572  0.328327  0.148521  1
  Si  Si14  1  0.328327  0.148521  0.934572  1
  Si  Si15  1  0.148521  0.934572  0.328327  1
  Rh  Rh16  1  0.070993  0.431072  0.749006  1
  Rh  Rh17  1  0.250994  0.929007  0.568928  1
  Rh  Rh18  1  0.568928  0.250994  0.929007  1
  Rh  Rh19  1  0.929007  0.568928  0.250994  1
  Rh  Rh20  1  0.431072  0.749006  0.070993  1
  Rh  Rh21  1  0.749006  0.070993  0.431072  1
