# generated using pymatgen
data_DyNp2(SnIr)3
_symmetry_space_group_name_H-M   'P 1'
_cell_length_a   7.47945270
_cell_length_b   7.31032065
_cell_length_c   3.99063300
_cell_angle_alpha   90.00000000
_cell_angle_beta   90.00000000
_cell_angle_gamma   119.25474998
_symmetry_Int_Tables_number   1
_chemical_formula_structural   DyNp2(SnIr)3
_chemical_formula_sum   'Dy1 Np2 Sn3 Ir3'
_cell_volume   190.36684797
_cell_formula_units_Z   1
loop_
 _symmetry_equiv_pos_site_id
 _symmetry_equiv_pos_as_xyz
  1  'x, y, z'
loop_
 _atom_site_type_symbol
 _atom_site_label
 _atom_site_symmetry_multiplicity
 _atom_site_fract_x
 _atom_site_fract_y
 _atom_site_fract_z
 _atom_site_occupancy
  Dy  Dy0  1  0.000000  0.591878  0.500000  1
  Np  Np1  1  0.587469  0.001587  0.500000  1
  Np  Np2  1  0.412531  0.414117  0.500000  1
  Sn  Sn3  1  0.000000  0.263816  0.000000  1
  Sn  Sn4  1  0.751532  0.743476  0.000000  1
  Sn  Sn5  1  0.248468  0.991944  0.000000  1
  Ir  Ir6  1  0.352320  0.667418  0.000000  1
  Ir  Ir7  1  0.000000  0.010666  0.500000  1
  Ir  Ir8  1  0.647680  0.315097  0.000000  1
