# generated using pymatgen
data_Gd5Y3(Si3Pt)4
_symmetry_space_group_name_H-M   'P 1'
_cell_length_a   8.19869500
_cell_length_b   8.19869620
_cell_length_c   8.18429400
_cell_angle_alpha   90.00000000
_cell_angle_beta   90.00000000
_cell_angle_gamma   120.08004877
_symmetry_Int_Tables_number   1
_chemical_formula_structural   Gd5Y3(Si3Pt)4
_chemical_formula_sum   'Gd5 Y3 Si12 Pt4'
_cell_volume   476.04773171
_cell_formula_units_Z   1
loop_
 _symmetry_equiv_pos_site_id
 _symmetry_equiv_pos_as_xyz
  1  'x, y, z'
loop_
 _atom_site_type_symbol
 _atom_site_label
 _atom_site_symmetry_multiplicity
 _atom_site_fract_x
 _atom_site_fract_y
 _atom_site_fract_z
 _atom_site_occupancy
  Gd  Gd0  1  0.000873  0.500439  0.250000  1
  Gd  Gd1  1  0.499587  0.500403  0.250000  1
  Gd  Gd2  1  0.500472  0.001008  0.750000  1
  Gd  Gd3  1  0.499575  0.999169  0.250000  1
  Gd  Gd4  1  0.999073  0.499565  0.750000  1
  Y  Y5  1  0.999984  0.000006  0.250000  1
  Y  Y6  1  0.000006  0.999984  0.750000  1
  Y  Y7  1  0.500564  0.499426  0.750000  1
  Si  Si8  1  0.165155  0.330303  0.999189  1
  Si  Si9  1  0.669689  0.834820  0.999189  1
  Si  Si10  1  0.165155  0.330303  0.500811  1
  Si  Si11  1  0.330328  0.165209  0.000744  1
  Si  Si12  1  0.165303  0.834650  0.999246  1
  Si  Si13  1  0.669689  0.834820  0.500811  1
  Si  Si14  1  0.834801  0.669663  0.000743  1
  Si  Si15  1  0.330328  0.165209  0.499256  1
  Si  Si16  1  0.165303  0.834650  0.500754  1
  Si  Si17  1  0.834801  0.669663  0.499257  1
  Si  Si18  1  0.834657  0.165372  0.000869  1
  Si  Si19  1  0.834657  0.165372  0.499131  1
  Pt  Pt20  1  0.333658  0.666337  0.998041  1
  Pt  Pt21  1  0.333658  0.666337  0.501959  1
  Pt  Pt22  1  0.666340  0.333648  0.000462  1
  Pt  Pt23  1  0.666340  0.333648  0.499538  1
