# generated using pymatgen
data_Ce3LuBeRh12
_symmetry_space_group_name_H-M   'P 1'
_cell_length_a   7.08375359
_cell_length_b   7.12316106
_cell_length_c   7.12316162
_cell_angle_alpha   109.58301733
_cell_angle_beta   109.35918778
_cell_angle_gamma   109.35918090
_symmetry_Int_Tables_number   1
_chemical_formula_structural   Ce3LuBeRh12
_chemical_formula_sum   'Ce3 Lu1 Be1 Rh12'
_cell_volume   277.06762135
_cell_formula_units_Z   1
loop_
 _symmetry_equiv_pos_site_id
 _symmetry_equiv_pos_as_xyz
  1  'x, y, z'
loop_
 _atom_site_type_symbol
 _atom_site_label
 _atom_site_symmetry_multiplicity
 _atom_site_fract_x
 _atom_site_fract_y
 _atom_site_fract_z
 _atom_site_occupancy
  Ce  Ce0  1  0.000000  0.000000  0.500000  1
  Ce  Ce1  1  0.000000  0.500000  0.000000  1
  Ce  Ce2  1  0.500000  0.500000  0.500000  1
  Lu  Lu3  1  0.500000  0.000000  0.000000  1
  Be  Be4  1  0.000000  0.000000  0.000000  1
  Rh  Rh5  1  0.748602  0.248602  0.497204  1
  Rh  Rh6  1  0.748602  0.497204  0.248602  1
  Rh  Rh7  1  0.500000  0.248602  0.751398  1
  Rh  Rh8  1  0.251398  0.502796  0.751398  1
  Rh  Rh9  1  0.251398  0.751398  0.502796  1
  Rh  Rh10  1  0.500000  0.751398  0.248602  1
  Rh  Rh11  1  0.730149  0.732988  0.000000  1
  Rh  Rh12  1  0.269851  0.000000  0.267012  1
  Rh  Rh13  1  0.997161  0.267012  0.267012  1
  Rh  Rh14  1  0.269851  0.267012  0.000000  1
  Rh  Rh15  1  0.730149  0.000000  0.732988  1
  Rh  Rh16  1  0.002839  0.732988  0.732988  1
