# generated using pymatgen
data_Tb4NbTc3B16
_symmetry_space_group_name_H-M   'P 1'
_cell_length_a   6.02333700
_cell_length_b   11.65251128
_cell_length_c   3.62095300
_cell_angle_alpha   90.00000000
_cell_angle_beta   90.00000000
_cell_angle_gamma   89.94053340
_symmetry_Int_Tables_number   1
_chemical_formula_structural   Tb4NbTc3B16
_chemical_formula_sum   'Tb4 Nb1 Tc3 B16'
_cell_volume   254.14369970
_cell_formula_units_Z   1
loop_
 _symmetry_equiv_pos_site_id
 _symmetry_equiv_pos_as_xyz
  1  'x, y, z'
loop_
 _atom_site_type_symbol
 _atom_site_label
 _atom_site_symmetry_multiplicity
 _atom_site_fract_x
 _atom_site_fract_y
 _atom_site_fract_z
 _atom_site_occupancy
  Tb  Tb0  1  0.624793  0.347108  0.000000  1
  Tb  Tb1  1  0.371827  0.651974  0.000000  1
  Tb  Tb2  1  0.127674  0.149587  0.000000  1
  Tb  Tb3  1  0.872831  0.852552  0.000000  1
  Nb  Nb4  1  0.869117  0.584738  0.000000  1
  Tc  Tc5  1  0.633950  0.087259  0.000000  1
  Tc  Tc6  1  0.366193  0.915727  0.000000  1
  Tc  Tc7  1  0.130061  0.412469  0.000000  1
  B  B8  1  0.785098  0.184579  0.500000  1
  B  B9  1  0.216522  0.816892  0.500000  1
  B  B10  1  0.286186  0.314214  0.500000  1
  B  B11  1  0.707284  0.689350  0.500000  1
  B  B12  1  0.863407  0.031689  0.500000  1
  B  B13  1  0.137160  0.969397  0.500000  1
  B  B14  1  0.364321  0.465525  0.500000  1
  B  B15  1  0.629553  0.529742  0.500000  1
  B  B16  1  0.889279  0.449439  0.500000  1
  B  B17  1  0.118739  0.544171  0.500000  1
  B  B18  1  0.387754  0.047432  0.500000  1
  B  B19  1  0.612918  0.953848  0.500000  1
  B  B20  1  0.977937  0.306140  0.500000  1
  B  B21  1  0.028789  0.695028  0.500000  1
  B  B22  1  0.476638  0.191214  0.500000  1
  B  B23  1  0.521971  0.809922  0.500000  1
