# generated using pymatgen
data_TbDyY2Al17SiIr6
_symmetry_space_group_name_H-M   'P 1'
_cell_length_a   7.56089500
_cell_length_b   7.56168856
_cell_length_c   9.49294300
_cell_angle_alpha   90.00000000
_cell_angle_beta   90.00000000
_cell_angle_gamma   119.48374239
_symmetry_Int_Tables_number   1
_chemical_formula_structural   TbDyY2Al17SiIr6
_chemical_formula_sum   'Tb1 Dy1 Y2 Al17 Si1 Ir6'
_cell_volume   472.45379281
_cell_formula_units_Z   1
loop_
 _symmetry_equiv_pos_site_id
 _symmetry_equiv_pos_as_xyz
  1  'x, y, z'
loop_
 _atom_site_type_symbol
 _atom_site_label
 _atom_site_symmetry_multiplicity
 _atom_site_fract_x
 _atom_site_fract_y
 _atom_site_fract_z
 _atom_site_occupancy
  Tb  Tb0  1  0.996198  0.671113  0.750000  1
  Dy  Dy1  1  0.323661  0.005682  0.250000  1
  Y  Y2  1  0.005769  0.323744  0.250000  1
  Y  Y3  1  0.671258  0.995927  0.750000  1
  Al  Al4  1  0.127337  0.127126  0.750000  1
  Al  Al5  1  0.001508  0.334797  0.574049  1
  Al  Al6  1  0.998698  0.662570  0.423506  1
  Al  Al7  1  0.998698  0.662570  0.076494  1
  Al  Al8  1  0.335038  0.001618  0.926217  1
  Al  Al9  1  0.001508  0.334797  0.925951  1
  Al  Al10  1  0.662414  0.998716  0.076449  1
  Al  Al11  1  0.662414  0.998716  0.423551  1
  Al  Al12  1  0.335038  0.001618  0.573783  1
  Al  Al13  1  0.336030  0.336010  0.051429  1
  Al  Al14  1  0.667281  0.667383  0.945049  1
  Al  Al15  1  0.667281  0.667383  0.554951  1
  Al  Al16  1  0.336030  0.336010  0.448571  1
  Al  Al17  1  0.338966  0.548477  0.750000  1
  Al  Al18  1  0.663022  0.450432  0.250000  1
  Al  Al19  1  0.548433  0.338842  0.750000  1
  Al  Al20  1  0.450792  0.663785  0.250000  1
  Si  Si21  1  0.869342  0.868819  0.250000  1
  Ir  Ir22  1  0.672843  0.329824  0.499365  1
  Ir  Ir23  1  0.329679  0.672831  0.499391  1
  Ir  Ir24  1  0.329679  0.672831  0.000609  1
  Ir  Ir25  1  0.672843  0.329824  0.000635  1
  Ir  Ir26  1  0.999123  0.999278  0.493215  1
  Ir  Ir27  1  0.999123  0.999278  0.006785  1
