# generated using pymatgen
data_SrLa2Tb4FeBr12
_symmetry_space_group_name_H-M   'P 1'
_cell_length_a   9.50740295
_cell_length_b   9.21345710
_cell_length_c   9.44134807
_cell_angle_alpha   104.82555717
_cell_angle_beta   107.46308279
_cell_angle_gamma   105.71731858
_symmetry_Int_Tables_number   1
_chemical_formula_structural   SrLa2Tb4FeBr12
_chemical_formula_sum   'Sr1 La2 Tb4 Fe1 Br12'
_cell_volume   706.36268125
_cell_formula_units_Z   1
loop_
 _symmetry_equiv_pos_site_id
 _symmetry_equiv_pos_as_xyz
  1  'x, y, z'
loop_
 _atom_site_type_symbol
 _atom_site_label
 _atom_site_symmetry_multiplicity
 _atom_site_fract_x
 _atom_site_fract_y
 _atom_site_fract_z
 _atom_site_occupancy
  Sr  Sr0  1  0.504198  0.499580  0.491325  1
  La  La1  1  0.675932  0.984013  0.891425  1
  La  La2  1  0.909564  0.719947  0.986433  1
  Tb  Tb3  1  0.092714  0.277105  0.017397  1
  Tb  Tb4  1  0.304815  0.013423  0.107062  1
  Tb  Tb5  1  0.021277  0.103595  0.310717  1
  Tb  Tb6  1  0.976289  0.900514  0.693472  1
  Fe  Fe7  1  0.991813  0.981650  0.002363  1
  Br  Br8  1  0.235126  0.685245  0.082380  1
  Br  Br9  1  0.434550  0.350570  0.134022  1
  Br  Br10  1  0.685563  0.081148  0.227950  1
  Br  Br11  1  0.939576  0.795527  0.340497  1
  Br  Br12  1  0.146348  0.441467  0.354061  1
  Br  Br13  1  0.363338  0.142906  0.448615  1
  Br  Br14  1  0.638781  0.858621  0.541926  1
  Br  Br15  1  0.857937  0.557760  0.626571  1
  Br  Br16  1  0.073473  0.220829  0.688226  1
  Br  Br17  1  0.306740  0.925168  0.786230  1
  Br  Br18  1  0.542511  0.626812  0.838602  1
  Br  Br19  1  0.799456  0.334120  0.930724  1
