# generated using pymatgen
data_Nd2ThFe2Co7P6
_symmetry_space_group_name_H-M   'P 1'
_cell_length_a   3.76558900
_cell_length_b   10.67775200
_cell_length_c   12.29544000
_cell_angle_alpha   90.00000000
_cell_angle_beta   90.00000000
_cell_angle_gamma   90.00000000
_symmetry_Int_Tables_number   1
_chemical_formula_structural   Nd2ThFe2Co7P6
_chemical_formula_sum   'Nd4 Th2 Fe4 Co14 P12'
_cell_volume   494.37536476
_cell_formula_units_Z   2
loop_
 _symmetry_equiv_pos_site_id
 _symmetry_equiv_pos_as_xyz
  1  'x, y, z'
loop_
 _atom_site_type_symbol
 _atom_site_label
 _atom_site_symmetry_multiplicity
 _atom_site_fract_x
 _atom_site_fract_y
 _atom_site_fract_z
 _atom_site_occupancy
  Nd  Nd0  1  0.500000  0.817750  0.204176  1
  Nd  Nd1  1  0.500000  0.182250  0.204176  1
  Nd  Nd2  1  0.000000  0.682250  0.795824  1
  Nd  Nd3  1  0.000000  0.317750  0.795824  1
  Th  Th4  1  0.000000  0.500000  0.523150  1
  Th  Th5  1  0.500000  0.000000  0.476850  1
  Fe  Fe6  1  0.500000  0.500000  0.153330  1
  Fe  Fe7  1  0.000000  0.000000  0.846670  1
  Fe  Fe8  1  0.000000  0.500000  0.989212  1
  Fe  Fe9  1  0.500000  0.000000  0.010788  1
  Co  Co10  1  0.500000  0.500000  0.699243  1
  Co  Co11  1  0.000000  0.000000  0.300757  1
  Co  Co12  1  0.500000  0.332326  0.996058  1
  Co  Co13  1  0.500000  0.667674  0.996058  1
  Co  Co14  1  0.000000  0.167674  0.003942  1
  Co  Co15  1  0.000000  0.832326  0.003942  1
  Co  Co16  1  0.500000  0.299055  0.430550  1
  Co  Co17  1  0.500000  0.700945  0.430550  1
  Co  Co18  1  0.000000  0.200945  0.569450  1
  Co  Co19  1  0.000000  0.799055  0.569450  1
  Co  Co20  1  0.500000  0.881408  0.711130  1
  Co  Co21  1  0.500000  0.118592  0.711130  1
  Co  Co22  1  0.000000  0.618592  0.288870  1
  Co  Co23  1  0.000000  0.381408  0.288870  1
  P  P24  1  0.500000  0.500000  0.887749  1
  P  P25  1  0.000000  0.000000  0.112251  1
  P  P26  1  0.500000  0.500000  0.336084  1
  P  P27  1  0.000000  0.000000  0.663916  1
  P  P28  1  0.500000  0.304151  0.615254  1
  P  P29  1  0.500000  0.695849  0.615254  1
  P  P30  1  0.000000  0.195849  0.384746  1
  P  P31  1  0.000000  0.804151  0.384746  1
  P  P32  1  0.500000  0.848270  0.896134  1
  P  P33  1  0.500000  0.151730  0.896134  1
  P  P34  1  0.000000  0.651730  0.103866  1
  P  P35  1  0.000000  0.348270  0.103866  1
