# generated using pymatgen
data_Nd3Dy2P12Ir8Ru11
_symmetry_space_group_name_H-M   'P 1'
_cell_length_a   12.68322222
_cell_length_b   12.59039978
_cell_length_c   3.99630500
_cell_angle_alpha   90.00000000
_cell_angle_beta   90.00000000
_cell_angle_gamma   119.72513544
_symmetry_Int_Tables_number   1
_chemical_formula_structural   Nd3Dy2P12Ir8Ru11
_chemical_formula_sum   'Nd3 Dy2 P12 Ir8 Ru11'
_cell_volume   554.18479007
_cell_formula_units_Z   1
loop_
 _symmetry_equiv_pos_site_id
 _symmetry_equiv_pos_as_xyz
  1  'x, y, z'
loop_
 _atom_site_type_symbol
 _atom_site_label
 _atom_site_symmetry_multiplicity
 _atom_site_fract_x
 _atom_site_fract_y
 _atom_site_fract_z
 _atom_site_occupancy
  Nd  Nd0  1  0.812694  0.000965  0.500000  1
  Nd  Nd1  1  0.185508  0.187714  0.500000  1
  Nd  Nd2  1  0.000278  0.814561  0.500000  1
  Dy  Dy3  1  0.666627  0.330868  0.000000  1
  Dy  Dy4  1  0.333483  0.667513  0.000000  1
  P  P5  1  0.628835  0.001899  0.000000  1
  P  P6  1  0.367300  0.373169  0.000000  1
  P  P7  1  0.006202  0.633384  0.000000  1
  P  P8  1  0.690551  0.517851  0.500000  1
  P  P9  1  0.825670  0.303005  0.500000  1
  P  P10  1  0.312091  0.829646  0.500000  1
  P  P11  1  0.517099  0.687356  0.500000  1
  P  P12  1  0.183944  0.002598  0.000000  1
  P  P13  1  0.814841  0.815827  0.000000  1
  P  P14  1  0.997374  0.185941  0.000000  1
  P  P15  1  0.482719  0.166133  0.500000  1
  P  P16  1  0.172194  0.484510  0.500000  1
  Ir  Ir17  1  0.620566  0.802331  0.000000  1
  Ir  Ir18  1  0.182263  0.381228  0.000000  1
  Ir  Ir19  1  0.377307  0.185362  0.000000  1
  Ir  Ir20  1  0.197602  0.820756  0.000000  1
  Ir  Ir21  1  0.806276  0.621064  0.000000  1
  Ir  Ir22  1  0.869057  0.503868  0.500000  1
  Ir  Ir23  1  0.495691  0.360906  0.500000  1
  Ir  Ir24  1  0.998656  0.000371  0.000000  1
  Ru  Ru25  1  0.636024  0.123454  0.500000  1
  Ru  Ru26  1  0.127312  0.639327  0.500000  1
  Ru  Ru27  1  0.363397  0.488407  0.500000  1
  Ru  Ru28  1  0.508091  0.869944  0.500000  1
  Ru  Ru29  1  0.712446  0.710863  0.500000  1
  Ru  Ru30  1  0.002034  0.289908  0.500000  1
  Ru  Ru31  1  0.447914  0.000717  0.000000  1
  Ru  Ru32  1  0.551902  0.547322  0.000000  1
  Ru  Ru33  1  0.999754  0.450486  0.000000  1
  Ru  Ru34  1  0.818451  0.198567  0.000000  1
  Ru  Ru35  1  0.287846  0.002179  0.500000  1
