# generated using pymatgen
data_Sm2Hf3P7Rh9
_symmetry_space_group_name_H-M   'P 1'
_cell_length_a   3.86601900
_cell_length_b   9.83551452
_cell_length_c   9.83545000
_cell_angle_alpha   120.00065747
_cell_angle_beta   89.99992590
_cell_angle_gamma   89.99996715
_symmetry_Int_Tables_number   1
_chemical_formula_structural   Sm2Hf3P7Rh9
_chemical_formula_sum   'Sm2 Hf3 P7 Rh9'
_cell_volume   323.87919950
_cell_formula_units_Z   1
loop_
 _symmetry_equiv_pos_site_id
 _symmetry_equiv_pos_as_xyz
  1  'x, y, z'
loop_
 _atom_site_type_symbol
 _atom_site_label
 _atom_site_symmetry_multiplicity
 _atom_site_fract_x
 _atom_site_fract_y
 _atom_site_fract_z
 _atom_site_occupancy
  Sm  Sm0  1  0.261630  0.666683  0.333340  1
  Sm  Sm1  1  0.761934  0.333325  0.666667  1
  Hf  Hf2  1  0.762157  0.104320  0.876299  1
  Hf  Hf3  1  0.762165  0.123636  0.228022  1
  Hf  Hf4  1  0.762166  0.771976  0.895648  1
  P  P5  1  0.264057  0.999936  0.999966  1
  P  P6  1  0.761591  0.867153  0.580822  1
  P  P7  1  0.761591  0.419201  0.286282  1
  P  P8  1  0.761596  0.713822  0.132985  1
  P  P9  1  0.261751  0.111982  0.421179  1
  P  P10  1  0.261752  0.578870  0.690961  1
  P  P11  1  0.261757  0.309040  0.887789  1
  Rh  Rh12  1  0.261214  0.880450  0.161311  1
  Rh  Rh13  1  0.261233  0.838780  0.719258  1
  Rh  Rh14  1  0.261215  0.280725  0.119398  1
  Rh  Rh15  1  0.761740  0.607341  0.555559  1
  Rh  Rh16  1  0.761743  0.444572  0.051766  1
  Rh  Rh17  1  0.761733  0.948160  0.392717  1
  Rh  Rh18  1  0.262326  0.360086  0.435075  1
  Rh  Rh19  1  0.262331  0.565075  0.925049  1
  Rh  Rh20  1  0.262318  0.074868  0.639903  1
