# generated using pymatgen
data_DyEr15In4(NiIr)2
_symmetry_space_group_name_H-M   'P 1'
_cell_length_a   9.52909398
_cell_length_b   9.53787942
_cell_length_c   9.53584980
_cell_angle_alpha   60.34755960
_cell_angle_beta   60.03527942
_cell_angle_gamma   60.02431482
_symmetry_Int_Tables_number   1
_chemical_formula_structural   DyEr15In4(NiIr)2
_chemical_formula_sum   'Dy1 Er15 In4 Ni2 Ir2'
_cell_volume   614.71258168
_cell_formula_units_Z   1
loop_
 _symmetry_equiv_pos_site_id
 _symmetry_equiv_pos_as_xyz
  1  'x, y, z'
loop_
 _atom_site_type_symbol
 _atom_site_label
 _atom_site_symmetry_multiplicity
 _atom_site_fract_x
 _atom_site_fract_y
 _atom_site_fract_z
 _atom_site_occupancy
  Dy  Dy0  1  0.061009  0.061420  0.435360  1
  Er  Er1  1  0.649379  0.047562  0.652711  1
  Er  Er2  1  0.191148  0.808435  0.188139  1
  Er  Er3  1  0.442061  0.062052  0.435461  1
  Er  Er4  1  0.190983  0.188305  0.808716  1
  Er  Er5  1  0.649852  0.653485  0.653699  1
  Er  Er6  1  0.046712  0.651870  0.651906  1
  Er  Er7  1  0.438203  0.062357  0.061987  1
  Er  Er8  1  0.649422  0.652720  0.047503  1
  Er  Er9  1  0.189283  0.810279  0.810971  1
  Er  Er10  1  0.812094  0.187876  0.809881  1
  Er  Er11  1  0.809157  0.190210  0.190062  1
  Er  Er12  1  0.812325  0.809467  0.187949  1
  Er  Er13  1  0.061303  0.439527  0.439079  1
  Er  Er14  1  0.441342  0.435420  0.062317  1
  Er  Er15  1  0.060158  0.436360  0.060637  1
  In  In16  1  0.747415  0.418056  0.417291  1
  In  In17  1  0.417563  0.417170  0.747793  1
  In  In18  1  0.418262  0.747268  0.417304  1
  In  In19  1  0.416186  0.416792  0.417089  1
  Ni  Ni20  1  0.855684  0.858309  0.858883  1
  Ni  Ni21  1  0.424905  0.859544  0.859507  1
  Ir  Ir22  1  0.857616  0.859906  0.425599  1
  Ir  Ir23  1  0.857942  0.425610  0.860159  1
