# generated using pymatgen
data_Tb3YThPd15
_symmetry_space_group_name_H-M   'P 1'
_cell_length_a   4.16027200
_cell_length_b   4.16027200
_cell_length_c   20.71336200
_cell_angle_alpha   90.00000000
_cell_angle_beta   90.00000000
_cell_angle_gamma   90.00000000
_symmetry_Int_Tables_number   1
_chemical_formula_structural   Tb3YThPd15
_chemical_formula_sum   'Tb3 Y1 Th1 Pd15'
_cell_volume   358.50403413
_cell_formula_units_Z   1
loop_
 _symmetry_equiv_pos_site_id
 _symmetry_equiv_pos_as_xyz
  1  'x, y, z'
loop_
 _atom_site_type_symbol
 _atom_site_label
 _atom_site_symmetry_multiplicity
 _atom_site_fract_x
 _atom_site_fract_y
 _atom_site_fract_z
 _atom_site_occupancy
  Tb  Tb0  1  0.000000  0.000000  0.202399  1
  Tb  Tb1  1  0.000000  0.000000  0.399986  1
  Tb  Tb2  1  0.000000  0.000000  0.599985  1
  Y  Y3  1  0.000000  0.000000  0.797671  1
  Th  Th4  1  0.000000  0.000000  0.999966  1
  Pd  Pd5  1  0.500000  0.500000  0.000009  1
  Pd  Pd6  1  0.500000  0.500000  0.200227  1
  Pd  Pd7  1  0.500000  0.500000  0.400259  1
  Pd  Pd8  1  0.500000  0.500000  0.599773  1
  Pd  Pd9  1  0.500000  0.500000  0.799739  1
  Pd  Pd10  1  0.500000  0.000000  0.100560  1
  Pd  Pd11  1  0.500000  0.000000  0.300251  1
  Pd  Pd12  1  0.500000  0.000000  0.500029  1
  Pd  Pd13  1  0.500000  0.000000  0.699678  1
  Pd  Pd14  1  0.500000  0.000000  0.899474  1
  Pd  Pd15  1  0.000000  0.500000  0.100560  1
  Pd  Pd16  1  0.000000  0.500000  0.300251  1
  Pd  Pd17  1  0.000000  0.500000  0.500029  1
  Pd  Pd18  1  0.000000  0.500000  0.699678  1
  Pd  Pd19  1  0.000000  0.500000  0.899474  1
