# generated using pymatgen
data_TbYBe2In2F12
_symmetry_space_group_name_H-M   'P 1'
_cell_length_a   5.92549600
_cell_length_b   6.56206959
_cell_length_c   7.34451480
_cell_angle_alpha   66.07258538
_cell_angle_beta   90.00000000
_cell_angle_gamma   90.00000000
_symmetry_Int_Tables_number   1
_chemical_formula_structural   TbYBe2In2F12
_chemical_formula_sum   'Tb1 Y1 Be2 In2 F12'
_cell_volume   261.03777283
_cell_formula_units_Z   1
loop_
 _symmetry_equiv_pos_site_id
 _symmetry_equiv_pos_as_xyz
  1  'x, y, z'
loop_
 _atom_site_type_symbol
 _atom_site_label
 _atom_site_symmetry_multiplicity
 _atom_site_fract_x
 _atom_site_fract_y
 _atom_site_fract_z
 _atom_site_occupancy
  Tb  Tb0  1  0.250000  0.391542  0.185875  1
  Y  Y1  1  0.750000  0.608472  0.813798  1
  Be  Be2  1  0.250000  0.767806  0.465171  1
  Be  Be3  1  0.750000  0.232045  0.535151  1
  In  In4  1  0.250000  0.071225  0.810275  1
  In  In5  1  0.750000  0.928760  0.189728  1
  F  F6  1  0.462686  0.749962  0.597318  1
  F  F7  1  0.537501  0.249920  0.402943  1
  F  F8  1  0.962499  0.249920  0.402943  1
  F  F9  1  0.037314  0.749962  0.597318  1
  F  F10  1  0.250000  0.582745  0.385210  1
  F  F11  1  0.750000  0.417309  0.614889  1
  F  F12  1  0.499364  0.680388  0.024311  1
  F  F13  1  0.501284  0.319852  0.975307  1
  F  F14  1  0.998716  0.319852  0.975307  1
  F  F15  1  0.000636  0.680388  0.024311  1
  F  F16  1  0.250000  0.000735  0.279952  1
  F  F17  1  0.750000  0.999118  0.720192  1
