# generated using pymatgen
data_DyHo4(Th3Ru2)3
_symmetry_space_group_name_H-M   'P 1'
_cell_length_a   9.77461965
_cell_length_b   9.88253157
_cell_length_c   6.34729633
_cell_angle_alpha   90.22560864
_cell_angle_beta   90.09938575
_cell_angle_gamma   120.40528337
_symmetry_Int_Tables_number   1
_chemical_formula_structural   DyHo4(Th3Ru2)3
_chemical_formula_sum   'Dy1 Ho4 Th9 Ru6'
_cell_volume   528.80057406
_cell_formula_units_Z   1
loop_
 _symmetry_equiv_pos_site_id
 _symmetry_equiv_pos_as_xyz
  1  'x, y, z'
loop_
 _atom_site_type_symbol
 _atom_site_label
 _atom_site_symmetry_multiplicity
 _atom_site_fract_x
 _atom_site_fract_y
 _atom_site_fract_z
 _atom_site_occupancy
  Dy  Dy0  1  0.459641  0.536243  0.298773  1
  Ho  Ho1  1  0.073613  0.535218  0.301188  1
  Ho  Ho2  1  0.923670  0.460144  0.799394  1
  Ho  Ho3  1  0.251538  0.125658  0.507990  1
  Ho  Ho4  1  0.540847  0.078603  0.794952  1
  Th  Th5  1  0.747715  0.876113  0.011527  1
  Th  Th6  1  0.666436  0.332472  0.270787  1
  Th  Th7  1  0.127691  0.873601  0.005673  1
  Th  Th8  1  0.458961  0.922254  0.300798  1
  Th  Th9  1  0.537571  0.460660  0.796597  1
  Th  Th10  1  0.879638  0.131839  0.513249  1
  Th  Th11  1  0.125910  0.251003  0.011130  1
  Th  Th12  1  0.876270  0.747879  0.508028  1
  Th  Th13  1  0.333161  0.666319  0.770859  1
  Ru  Ru14  1  0.810086  0.629478  0.047368  1
  Ru  Ru15  1  0.818255  0.182023  0.051430  1
  Ru  Ru16  1  0.631761  0.819426  0.543467  1
  Ru  Ru17  1  0.372008  0.189652  0.041242  1
  Ru  Ru18  1  0.182021  0.374175  0.559265  1
  Ru  Ru19  1  0.183208  0.807240  0.550278  1
