# generated using pymatgen
data_Y4Co8SiP11Ru12
_symmetry_space_group_name_H-M   'P 1'
_cell_length_a   3.80016100
_cell_length_b   10.63979619
_cell_length_c   12.14670521
_cell_angle_alpha   89.97855805
_cell_angle_beta   90.00000000
_cell_angle_gamma   90.00000000
_symmetry_Int_Tables_number   1
_chemical_formula_structural   Y4Co8SiP11Ru12
_chemical_formula_sum   'Y4 Co8 Si1 P11 Ru12'
_cell_volume   491.12695063
_cell_formula_units_Z   1
loop_
 _symmetry_equiv_pos_site_id
 _symmetry_equiv_pos_as_xyz
  1  'x, y, z'
loop_
 _atom_site_type_symbol
 _atom_site_label
 _atom_site_symmetry_multiplicity
 _atom_site_fract_x
 _atom_site_fract_y
 _atom_site_fract_z
 _atom_site_occupancy
  Y  Y0  1  0.250000  0.915186  0.206303  1
  Y  Y1  1  0.750000  0.084770  0.794256  1
  Y  Y2  1  0.750000  0.415621  0.293238  1
  Y  Y3  1  0.250000  0.584199  0.706754  1
  Co  Co4  1  0.250000  0.612602  0.195492  1
  Co  Co5  1  0.750000  0.388672  0.806354  1
  Co  Co6  1  0.750000  0.113246  0.303592  1
  Co  Co7  1  0.250000  0.883504  0.696076  1
  Co  Co8  1  0.250000  0.034924  0.430247  1
  Co  Co9  1  0.750000  0.960934  0.563089  1
  Co  Co10  1  0.750000  0.537059  0.065409  1
  Co  Co11  1  0.250000  0.463340  0.935894  1
  Si  Si12  1  0.250000  0.076989  0.610784  1
  P  P13  1  0.750000  0.926041  0.386709  1
  P  P14  1  0.750000  0.574348  0.888246  1
  P  P15  1  0.250000  0.425785  0.112834  1
  P  P16  1  0.250000  0.227580  0.371554  1
  P  P17  1  0.750000  0.772276  0.628982  1
  P  P18  1  0.750000  0.728054  0.128444  1
  P  P19  1  0.250000  0.272397  0.872441  1
  P  P20  1  0.250000  0.897723  0.886873  1
  P  P21  1  0.750000  0.101874  0.112902  1
  P  P22  1  0.750000  0.397318  0.612828  1
  P  P23  1  0.250000  0.602048  0.387313  1
  Ru  Ru24  1  0.250000  0.794235  0.485909  1
  Ru  Ru25  1  0.750000  0.203622  0.514570  1
  Ru  Ru26  1  0.750000  0.294161  0.014259  1
  Ru  Ru27  1  0.250000  0.705840  0.986678  1
  Ru  Ru28  1  0.250000  0.094439  0.986334  1
  Ru  Ru29  1  0.750000  0.905324  0.013812  1
  Ru  Ru30  1  0.750000  0.594556  0.514060  1
  Ru  Ru31  1  0.250000  0.405583  0.485515  1
  Ru  Ru32  1  0.250000  0.282486  0.681994  1
  Ru  Ru33  1  0.750000  0.723577  0.319724  1
  Ru  Ru34  1  0.750000  0.775679  0.820337  1
  Ru  Ru35  1  0.250000  0.224009  0.180194  1
