# generated using pymatgen
data_NaTbSiS4
_symmetry_space_group_name_H-M   'P 1'
_cell_length_a   6.61691300
_cell_length_b   6.42213360
_cell_length_c   7.93811707
_cell_angle_alpha   73.99573050
_cell_angle_beta   90.00000000
_cell_angle_gamma   90.00000000
_symmetry_Int_Tables_number   1
_chemical_formula_structural   NaTbSiS4
_chemical_formula_sum   'Na2 Tb2 Si2 S8'
_cell_volume   324.25345783
_cell_formula_units_Z   2
loop_
 _symmetry_equiv_pos_site_id
 _symmetry_equiv_pos_as_xyz
  1  'x, y, z'
loop_
 _atom_site_type_symbol
 _atom_site_label
 _atom_site_symmetry_multiplicity
 _atom_site_fract_x
 _atom_site_fract_y
 _atom_site_fract_z
 _atom_site_occupancy
  Na  Na0  1  0.994841  0.735818  0.065547  1
  Na  Na1  1  0.494841  0.264182  0.934453  1
  Tb  Tb2  1  0.498555  0.225542  0.446415  1
  Tb  Tb3  1  0.998555  0.774458  0.553585  1
  Si  Si4  1  0.460808  0.767715  0.312069  1
  Si  Si5  1  0.960808  0.232285  0.687931  1
  S  S6  1  0.447026  0.563826  0.146032  1
  S  S7  1  0.232506  0.012524  0.258350  1
  S  S8  1  0.727838  0.964360  0.279338  1
  S  S9  1  0.905426  0.417956  0.423977  1
  S  S10  1  0.405426  0.582044  0.576023  1
  S  S11  1  0.227838  0.035640  0.720662  1
  S  S12  1  0.732506  0.987476  0.741650  1
  S  S13  1  0.947026  0.436174  0.853968  1
