# generated using pymatgen
data_DyEr11Ga2Ni3Ru
_symmetry_space_group_name_H-M   'P 1'
_cell_length_a   8.25837620
_cell_length_b   8.25997985
_cell_length_c   8.25997930
_cell_angle_alpha   112.75054603
_cell_angle_beta   109.68101975
_cell_angle_gamma   106.05834170
_symmetry_Int_Tables_number   1
_chemical_formula_structural   DyEr11Ga2Ni3Ru
_chemical_formula_sum   'Dy1 Er11 Ga2 Ni3 Ru1'
_cell_volume   432.22436146
_cell_formula_units_Z   1
loop_
 _symmetry_equiv_pos_site_id
 _symmetry_equiv_pos_as_xyz
  1  'x, y, z'
loop_
 _atom_site_type_symbol
 _atom_site_label
 _atom_site_symmetry_multiplicity
 _atom_site_fract_x
 _atom_site_fract_y
 _atom_site_fract_z
 _atom_site_occupancy
  Dy  Dy0  1  0.053955  0.747053  0.306901  1
  Er  Er1  1  0.960095  0.265425  0.694670  1
  Er  Er2  1  0.559387  0.253176  0.306211  1
  Er  Er3  1  0.428900  0.734486  0.694414  1
  Er  Er4  1  0.673893  0.863846  0.191852  1
  Er  Er5  1  0.329010  0.517399  0.191915  1
  Er  Er6  1  0.329010  0.137094  0.811611  1
  Er  Er7  1  0.673893  0.482041  0.810048  1
  Er  Er8  1  0.175634  0.222636  0.397603  1
  Er  Er9  1  0.815979  0.219972  0.036454  1
  Er  Er10  1  0.175634  0.778033  0.952999  1
  Er  Er11  1  0.815979  0.779526  0.596007  1
  Ga  Ga12  1  0.987287  0.498785  0.488503  1
  Ga  Ga13  1  0.504867  0.000740  0.504127  1
  Ni  Ni14  1  0.347021  0.500106  0.846915  1
  Ni  Ni15  1  0.880307  0.880540  0.999767  1
  Ni  Ni16  1  0.120176  0.119444  0.000731  1
  Ru  Ru17  1  0.668970  0.499698  0.169272  1
