# generated using pymatgen
data_Y16Tm4IrRh11
_symmetry_space_group_name_H-M   'P 1'
_cell_length_a   10.92447965
_cell_length_b   10.92447965
_cell_length_c   6.36831710
_cell_angle_alpha   89.98528022
_cell_angle_beta   89.98528022
_cell_angle_gamma   90.18055367
_symmetry_Int_Tables_number   1
_chemical_formula_structural   Y16Tm4IrRh11
_chemical_formula_sum   'Y16 Tm4 Ir1 Rh11'
_cell_volume   760.01824065
_cell_formula_units_Z   1
loop_
 _symmetry_equiv_pos_site_id
 _symmetry_equiv_pos_as_xyz
  1  'x, y, z'
loop_
 _atom_site_type_symbol
 _atom_site_label
 _atom_site_symmetry_multiplicity
 _atom_site_fract_x
 _atom_site_fract_y
 _atom_site_fract_z
 _atom_site_occupancy
  Y  Y0  1  0.290148  0.088560  0.379629  1
  Y  Y1  1  0.290461  0.909612  0.880282  1
  Y  Y2  1  0.709717  0.088148  0.879574  1
  Y  Y3  1  0.709257  0.911096  0.379160  1
  Y  Y4  1  0.586700  0.789574  0.879236  1
  Y  Y5  1  0.588875  0.209856  0.379978  1
  Y  Y6  1  0.410847  0.789607  0.380281  1
  Y  Y7  1  0.411006  0.209178  0.878823  1
  Y  Y8  1  0.210426  0.413300  0.620764  1
  Y  Y9  1  0.210393  0.589153  0.119719  1
  Y  Y10  1  0.790144  0.411125  0.120022  1
  Y  Y11  1  0.790822  0.588994  0.621177  1
  Y  Y12  1  0.911440  0.709852  0.120371  1
  Y  Y13  1  0.911852  0.290283  0.620426  1
  Y  Y14  1  0.090388  0.709539  0.619718  1
  Y  Y15  1  0.088904  0.290743  0.120840  1
  Tm  Tm16  1  0.999461  0.999823  0.500230  1
  Tm  Tm17  1  0.000177  0.000539  0.999770  1
  Tm  Tm18  1  0.499847  0.499516  0.000019  1
  Tm  Tm19  1  0.500484  0.500153  0.499981  1
  Ir  Ir20  1  0.348602  0.651398  0.750000  1
  Rh  Rh21  1  0.848886  0.151114  0.250000  1
  Rh  Rh22  1  0.848356  0.848898  0.750372  1
  Rh  Rh23  1  0.151102  0.151644  0.749628  1
  Rh  Rh24  1  0.150201  0.849799  0.250000  1
  Rh  Rh25  1  0.651272  0.348728  0.750000  1
  Rh  Rh26  1  0.652288  0.651161  0.249884  1
  Rh  Rh27  1  0.348839  0.347712  0.250116  1
  Rh  Rh28  1  0.500031  0.000498  0.127680  1
  Rh  Rh29  1  0.500176  0.000604  0.626576  1
  Rh  Rh30  1  0.999396  0.499824  0.873424  1
  Rh  Rh31  1  0.999502  0.499969  0.372320  1
