# generated using pymatgen
data_TmTcH5
_symmetry_space_group_name_H-M   'P 1'
_cell_length_a   4.56906600
_cell_length_b   4.31518300
_cell_length_c   11.50070100
_cell_angle_alpha   90.00000000
_cell_angle_beta   90.00000000
_cell_angle_gamma   90.00000000
_symmetry_Int_Tables_number   1
_chemical_formula_structural   TmTcH5
_chemical_formula_sum   'Tm4 Tc4 H20'
_cell_volume   226.75191435
_cell_formula_units_Z   4
loop_
 _symmetry_equiv_pos_site_id
 _symmetry_equiv_pos_as_xyz
  1  'x, y, z'
loop_
 _atom_site_type_symbol
 _atom_site_label
 _atom_site_symmetry_multiplicity
 _atom_site_fract_x
 _atom_site_fract_y
 _atom_site_fract_z
 _atom_site_occupancy
  Tm  Tm0  1  0.249875  0.245956  0.646116  1
  Tm  Tm1  1  0.749875  0.254044  0.353884  1
  Tm  Tm2  1  0.250125  0.754044  0.146116  1
  Tm  Tm3  1  0.750125  0.745956  0.853884  1
  Tc  Tc4  1  0.249394  0.210026  0.912884  1
  Tc  Tc5  1  0.749394  0.289974  0.087116  1
  Tc  Tc6  1  0.250606  0.789974  0.412884  1
  Tc  Tc7  1  0.750606  0.710026  0.587116  1
  H  H8  1  0.485052  0.504468  0.498121  1
  H  H9  1  0.985052  0.995532  0.501879  1
  H  H10  1  0.014948  0.495532  0.998121  1
  H  H11  1  0.514948  0.004468  0.001879  1
  H  H12  1  0.250168  0.881340  0.833518  1
  H  H13  1  0.750168  0.618660  0.166482  1
  H  H14  1  0.249832  0.118660  0.333518  1
  H  H15  1  0.749832  0.381340  0.666482  1
  H  H16  1  0.982450  0.286510  0.812454  1
  H  H17  1  0.482450  0.213490  0.187546  1
  H  H18  1  0.517550  0.713490  0.312454  1
  H  H19  1  0.017550  0.786510  0.687546  1
  H  H20  1  0.515331  0.288917  0.812315  1
  H  H21  1  0.015331  0.211083  0.187685  1
  H  H22  1  0.984669  0.711083  0.312315  1
  H  H23  1  0.484669  0.788917  0.687685  1
  H  H24  1  0.984212  0.004300  0.002017  1
  H  H25  1  0.484212  0.495700  0.997983  1
  H  H26  1  0.515788  0.995700  0.502017  1
  H  H27  1  0.015788  0.504300  0.497983  1
