# generated using pymatgen
data_U2BRu6
_symmetry_space_group_name_H-M   'P 1'
_cell_length_a   5.76867380
_cell_length_b   5.76867440
_cell_length_c   5.76867400
_cell_angle_alpha   60.00000231
_cell_angle_beta   59.99999886
_cell_angle_gamma   59.99999938
_symmetry_Int_Tables_number   1
_chemical_formula_structural   U2BRu6
_chemical_formula_sum   'U2 B1 Ru6'
_cell_volume   135.74161424
_cell_formula_units_Z   1
loop_
 _symmetry_equiv_pos_site_id
 _symmetry_equiv_pos_as_xyz
  1  'x, y, z'
loop_
 _atom_site_type_symbol
 _atom_site_label
 _atom_site_symmetry_multiplicity
 _atom_site_fract_x
 _atom_site_fract_y
 _atom_site_fract_z
 _atom_site_occupancy
  U  U0  1  0.750000  0.750000  0.750000  1
  U  U1  1  0.250000  0.250000  0.250000  1
  B  B2  1  0.500000  0.500000  0.500000  1
  Ru  Ru3  1  0.756063  0.756063  0.243937  1
  Ru  Ru4  1  0.756063  0.243937  0.243937  1
  Ru  Ru5  1  0.243937  0.756063  0.243937  1
  Ru  Ru6  1  0.243937  0.243937  0.756063  1
  Ru  Ru7  1  0.756063  0.243937  0.756063  1
  Ru  Ru8  1  0.243937  0.756063  0.756063  1
