# generated using pymatgen
data_YbY3CoOs7
_symmetry_space_group_name_H-M   'P 1'
_cell_length_a   5.32009270
_cell_length_b   5.32009316
_cell_length_c   8.73644757
_cell_angle_alpha   89.84493806
_cell_angle_beta   90.15506126
_cell_angle_gamma   120.45452742
_symmetry_Int_Tables_number   1
_chemical_formula_structural   YbY3CoOs7
_chemical_formula_sum   'Yb1 Y3 Co1 Os7'
_cell_volume   213.15446513
_cell_formula_units_Z   1
loop_
 _symmetry_equiv_pos_site_id
 _symmetry_equiv_pos_as_xyz
  1  'x, y, z'
loop_
 _atom_site_type_symbol
 _atom_site_label
 _atom_site_symmetry_multiplicity
 _atom_site_fract_x
 _atom_site_fract_y
 _atom_site_fract_z
 _atom_site_occupancy
  Yb  Yb0  1  0.334945  0.665055  0.065156  1
  Y  Y1  1  0.334213  0.665787  0.426828  1
  Y  Y2  1  0.668838  0.331162  0.563446  1
  Y  Y3  1  0.670458  0.329542  0.941408  1
  Co  Co4  1  0.823715  0.176285  0.251659  1
  Os  Os5  1  0.003972  0.996028  0.496573  1
  Os  Os6  1  0.005639  0.994361  0.005079  1
  Os  Os7  1  0.824073  0.660195  0.249876  1
  Os  Os8  1  0.339805  0.175927  0.249876  1
  Os  Os9  1  0.168320  0.831680  0.750884  1
  Os  Os10  1  0.173590  0.347566  0.749608  1
  Os  Os11  1  0.652434  0.826410  0.749608  1
