# generated using pymatgen
data_LiDy6Zn22P
_symmetry_space_group_name_H-M   'P 1'
_cell_length_a   9.03999497
_cell_length_b   9.03999502
_cell_length_c   9.03999500
_cell_angle_alpha   59.99999641
_cell_angle_beta   59.99999624
_cell_angle_gamma   60.00000189
_symmetry_Int_Tables_number   1
_chemical_formula_structural   LiDy6Zn22P
_chemical_formula_sum   'Li1 Dy6 Zn22 P1'
_cell_volume   522.38362488
_cell_formula_units_Z   1
loop_
 _symmetry_equiv_pos_site_id
 _symmetry_equiv_pos_as_xyz
  1  'x, y, z'
loop_
 _atom_site_type_symbol
 _atom_site_label
 _atom_site_symmetry_multiplicity
 _atom_site_fract_x
 _atom_site_fract_y
 _atom_site_fract_z
 _atom_site_occupancy
  Li  Li0  1  0.000000  0.000000  0.000000  1
  Dy  Dy1  1  0.712622  0.287378  0.287378  1
  Dy  Dy2  1  0.712622  0.287378  0.712622  1
  Dy  Dy3  1  0.712622  0.712622  0.287378  1
  Dy  Dy4  1  0.287378  0.712622  0.712622  1
  Dy  Dy5  1  0.287378  0.712622  0.287378  1
  Dy  Dy6  1  0.287378  0.287378  0.712622  1
  Zn  Zn7  1  0.625928  0.124691  0.124691  1
  Zn  Zn8  1  0.124691  0.625928  0.124691  1
  Zn  Zn9  1  0.124691  0.124691  0.625928  1
  Zn  Zn10  1  0.124691  0.124691  0.124691  1
  Zn  Zn11  1  0.374072  0.875309  0.875309  1
  Zn  Zn12  1  0.875309  0.374072  0.875309  1
  Zn  Zn13  1  0.875309  0.875309  0.374072  1
  Zn  Zn14  1  0.875309  0.875309  0.875309  1
  Zn  Zn15  1  0.500000  0.000000  0.000000  1
  Zn  Zn16  1  0.500000  0.000000  0.500000  1
  Zn  Zn17  1  0.500000  0.500000  0.000000  1
  Zn  Zn18  1  0.000000  0.500000  0.500000  1
  Zn  Zn19  1  0.000000  0.500000  0.000000  1
  Zn  Zn20  1  0.000000  0.000000  0.500000  1
  Zn  Zn21  1  0.012134  0.329288  0.329288  1
  Zn  Zn22  1  0.329288  0.012134  0.329288  1
  Zn  Zn23  1  0.329288  0.329288  0.012134  1
  Zn  Zn24  1  0.329288  0.329288  0.329288  1
  Zn  Zn25  1  0.987866  0.670712  0.670712  1
  Zn  Zn26  1  0.670712  0.987866  0.670712  1
  Zn  Zn27  1  0.670712  0.670712  0.987866  1
  Zn  Zn28  1  0.670712  0.670712  0.670712  1
  P  P29  1  0.500000  0.500000  0.500000  1
