# generated using pymatgen
data_Co3TcMo2P3
_symmetry_space_group_name_H-M   'P 1'
_cell_length_a   5.79468200
_cell_length_b   5.77252091
_cell_length_c   3.77188600
_cell_angle_alpha   90.00000000
_cell_angle_beta   90.00000000
_cell_angle_gamma   120.12707676
_symmetry_Int_Tables_number   1
_chemical_formula_structural   Co3TcMo2P3
_chemical_formula_sum   'Co3 Tc1 Mo2 P3'
_cell_volume   109.12563118
_cell_formula_units_Z   1
loop_
 _symmetry_equiv_pos_site_id
 _symmetry_equiv_pos_as_xyz
  1  'x, y, z'
loop_
 _atom_site_type_symbol
 _atom_site_label
 _atom_site_symmetry_multiplicity
 _atom_site_fract_x
 _atom_site_fract_y
 _atom_site_fract_z
 _atom_site_occupancy
  Co  Co0  1  0.255944  0.000000  0.000000  1
  Co  Co1  1  0.999448  0.255136  0.000000  1
  Co  Co2  1  0.744312  0.744864  0.000000  1
  Tc  Tc3  1  0.591718  0.000000  0.499999  1
  Mo  Mo4  1  0.409463  0.410287  0.499999  1
  Mo  Mo5  1  0.999176  0.589713  0.499999  1
  P  P6  1  0.666288  0.330853  0.000000  1
  P  P7  1  0.335435  0.669147  0.000000  1
  P  P8  1  0.998214  0.000000  0.499999  1
