# generated using pymatgen
data_Rb3Na(USe3)2
_symmetry_space_group_name_H-M   'P 1'
_cell_length_a   7.50824449
_cell_length_b   7.50824430
_cell_length_c   8.33404492
_cell_angle_alpha   81.41378642
_cell_angle_beta   81.41378398
_cell_angle_gamma   120.07720599
_symmetry_Int_Tables_number   1
_chemical_formula_structural   Rb3Na(USe3)2
_chemical_formula_sum   'Rb3 Na1 U2 Se6'
_cell_volume   387.96850117
_cell_formula_units_Z   1
loop_
 _symmetry_equiv_pos_site_id
 _symmetry_equiv_pos_as_xyz
  1  'x, y, z'
loop_
 _atom_site_type_symbol
 _atom_site_label
 _atom_site_symmetry_multiplicity
 _atom_site_fract_x
 _atom_site_fract_y
 _atom_site_fract_z
 _atom_site_occupancy
  Rb  Rb0  1  0.657098  0.342902  0.500000  1
  Rb  Rb1  1  0.342902  0.657098  0.500000  1
  Rb  Rb2  1  0.000000  0.000000  0.500000  1
  Na  Na3  1  0.500000  0.500000  0.000000  1
  U  U4  1  0.832290  0.167710  0.000000  1
  U  U5  1  0.167710  0.832290  0.000000  1
  Se  Se6  1  0.793287  0.793287  0.192138  1
  Se  Se7  1  0.206713  0.206713  0.807862  1
  Se  Se8  1  0.433550  0.073751  0.197067  1
  Se  Se9  1  0.566450  0.926249  0.802933  1
  Se  Se10  1  0.926249  0.566450  0.802933  1
  Se  Se11  1  0.073751  0.433550  0.197067  1
