# generated using pymatgen
data_TbTm5ReBi2
_symmetry_space_group_name_H-M   'P 1'
_cell_length_a   8.19125300
_cell_length_b   8.18840626
_cell_length_c   4.31697800
_cell_angle_alpha   90.00000000
_cell_angle_beta   90.00000000
_cell_angle_gamma   120.01151311
_symmetry_Int_Tables_number   1
_chemical_formula_structural   TbTm5ReBi2
_chemical_formula_sum   'Tb1 Tm5 Re1 Bi2'
_cell_volume   250.73201626
_cell_formula_units_Z   1
loop_
 _symmetry_equiv_pos_site_id
 _symmetry_equiv_pos_as_xyz
  1  'x, y, z'
loop_
 _atom_site_type_symbol
 _atom_site_label
 _atom_site_symmetry_multiplicity
 _atom_site_fract_x
 _atom_site_fract_y
 _atom_site_fract_z
 _atom_site_occupancy
  Tb  Tb0  1  0.611252  0.000000  0.000000  1
  Tm  Tm1  1  0.232943  0.000000  0.500000  1
  Tm  Tm2  1  0.000542  0.230830  0.500000  1
  Tm  Tm3  1  0.769712  0.769170  0.500000  1
  Tm  Tm4  1  0.999422  0.615371  0.000000  1
  Tm  Tm5  1  0.384050  0.384629  0.000000  1
  Re  Re6  1  0.003465  0.000000  0.000000  1
  Bi  Bi7  1  0.331460  0.664308  0.500000  1
  Bi  Bi8  1  0.667153  0.335692  0.500000  1
