# generated using pymatgen
data_TaNb12Ni8Sn3N4
_symmetry_space_group_name_H-M   'P 1'
_cell_length_a   8.30237118
_cell_length_b   8.30237214
_cell_length_c   8.30237275
_cell_angle_alpha   59.57206406
_cell_angle_beta   59.57206130
_cell_angle_gamma   59.57206505
_symmetry_Int_Tables_number   1
_chemical_formula_structural   TaNb12Ni8Sn3N4
_chemical_formula_sum   'Ta1 Nb12 Ni8 Sn3 N4'
_cell_volume   400.72459756
_cell_formula_units_Z   1
loop_
 _symmetry_equiv_pos_site_id
 _symmetry_equiv_pos_as_xyz
  1  'x, y, z'
loop_
 _atom_site_type_symbol
 _atom_site_label
 _atom_site_symmetry_multiplicity
 _atom_site_fract_x
 _atom_site_fract_y
 _atom_site_fract_z
 _atom_site_occupancy
  Ta  Ta0  1  0.625000  0.625000  0.625000  1
  Nb  Nb1  1  0.818143  0.818143  0.185798  1
  Nb  Nb2  1  0.181940  0.181940  0.818005  1
  Nb  Nb3  1  0.818143  0.185798  0.818143  1
  Nb  Nb4  1  0.181940  0.818005  0.181940  1
  Nb  Nb5  1  0.185798  0.818143  0.818143  1
  Nb  Nb6  1  0.818005  0.181940  0.181940  1
  Nb  Nb7  1  0.431857  0.431857  0.064202  1
  Nb  Nb8  1  0.068060  0.068060  0.431995  1
  Nb  Nb9  1  0.431857  0.064202  0.431857  1
  Nb  Nb10  1  0.068060  0.431995  0.068060  1
  Nb  Nb11  1  0.064202  0.431857  0.431857  1
  Nb  Nb12  1  0.431995  0.068060  0.068060  1
  Ni  Ni13  1  0.752317  0.419728  0.419728  1
  Ni  Ni14  1  0.419728  0.752317  0.419728  1
  Ni  Ni15  1  0.419728  0.419728  0.752317  1
  Ni  Ni16  1  0.412657  0.412657  0.412657  1
  Ni  Ni17  1  0.497683  0.830272  0.830272  1
  Ni  Ni18  1  0.830272  0.497683  0.830272  1
  Ni  Ni19  1  0.830272  0.830272  0.497683  1
  Ni  Ni20  1  0.837343  0.837343  0.837343  1
  Sn  Sn21  1  0.125000  0.625000  0.625000  1
  Sn  Sn22  1  0.625000  0.125000  0.625000  1
  Sn  Sn23  1  0.625000  0.625000  0.125000  1
  N  N24  1  0.625000  0.125000  0.125000  1
  N  N25  1  0.125000  0.625000  0.125000  1
  N  N26  1  0.125000  0.125000  0.625000  1
  N  N27  1  0.125000  0.125000  0.125000  1
