# generated using pymatgen
data_Pr3Ga24MoPd8
_symmetry_space_group_name_H-M   'P 1'
_cell_length_a   8.55097537
_cell_length_b   8.55097470
_cell_length_c   8.55097495
_cell_angle_alpha   89.67566460
_cell_angle_beta   89.67566206
_cell_angle_gamma   89.67566632
_symmetry_Int_Tables_number   1
_chemical_formula_structural   Pr3Ga24MoPd8
_chemical_formula_sum   'Pr3 Ga24 Mo1 Pd8'
_cell_volume   625.21028621
_cell_formula_units_Z   1
loop_
 _symmetry_equiv_pos_site_id
 _symmetry_equiv_pos_as_xyz
  1  'x, y, z'
loop_
 _atom_site_type_symbol
 _atom_site_label
 _atom_site_symmetry_multiplicity
 _atom_site_fract_x
 _atom_site_fract_y
 _atom_site_fract_z
 _atom_site_occupancy
  Pr  Pr0  1  0.000000  0.500000  0.000000  1
  Pr  Pr1  1  0.500000  0.000000  0.000000  1
  Pr  Pr2  1  0.000000  0.000000  0.500000  1
  Ga  Ga3  1  0.988861  0.643086  0.643086  1
  Ga  Ga4  1  0.643086  0.643086  0.988861  1
  Ga  Ga5  1  0.643086  0.988861  0.643086  1
  Ga  Ga6  1  0.011139  0.356914  0.356914  1
  Ga  Ga7  1  0.356914  0.356914  0.011139  1
  Ga  Ga8  1  0.356914  0.011139  0.356914  1
  Ga  Ga9  1  0.734705  0.500000  0.265295  1
  Ga  Ga10  1  0.265295  0.500000  0.734705  1
  Ga  Ga11  1  0.500000  0.265295  0.734705  1
  Ga  Ga12  1  0.500000  0.734705  0.265295  1
  Ga  Ga13  1  0.265295  0.734705  0.500000  1
  Ga  Ga14  1  0.734705  0.265295  0.500000  1
  Ga  Ga15  1  0.839111  0.142518  0.839111  1
  Ga  Ga16  1  0.142518  0.839111  0.839111  1
  Ga  Ga17  1  0.839111  0.839111  0.142518  1
  Ga  Ga18  1  0.160889  0.857482  0.160889  1
  Ga  Ga19  1  0.857482  0.160889  0.160889  1
  Ga  Ga20  1  0.160889  0.160889  0.857482  1
  Ga  Ga21  1  0.727541  0.488836  0.727541  1
  Ga  Ga22  1  0.488836  0.727541  0.727541  1
  Ga  Ga23  1  0.727541  0.727541  0.488836  1
  Ga  Ga24  1  0.272459  0.511164  0.272459  1
  Ga  Ga25  1  0.511164  0.272459  0.272459  1
  Ga  Ga26  1  0.272459  0.272459  0.511164  1
  Mo  Mo27  1  0.500000  0.500000  0.500000  1
  Pd  Pd28  1  0.836783  0.836783  0.836783  1
  Pd  Pd29  1  0.163217  0.163217  0.163217  1
  Pd  Pd30  1  0.663697  0.336303  0.000000  1
  Pd  Pd31  1  0.000000  0.336303  0.663697  1
  Pd  Pd32  1  0.336303  0.000000  0.663697  1
  Pd  Pd33  1  0.336303  0.663697  0.000000  1
  Pd  Pd34  1  0.000000  0.663697  0.336303  1
  Pd  Pd35  1  0.663697  0.000000  0.336303  1
