# generated using pymatgen
data_Ce7HoAl8Ru5Rh3
_symmetry_space_group_name_H-M   'P 1'
_cell_length_a   4.16828900
_cell_length_b   7.12452497
_cell_length_c   15.75165126
_cell_angle_alpha   89.04715853
_cell_angle_beta   90.00000000
_cell_angle_gamma   90.00000000
_symmetry_Int_Tables_number   1
_chemical_formula_structural   Ce7HoAl8Ru5Rh3
_chemical_formula_sum   'Ce7 Ho1 Al8 Ru5 Rh3'
_cell_volume   467.71334864
_cell_formula_units_Z   1
loop_
 _symmetry_equiv_pos_site_id
 _symmetry_equiv_pos_as_xyz
  1  'x, y, z'
loop_
 _atom_site_type_symbol
 _atom_site_label
 _atom_site_symmetry_multiplicity
 _atom_site_fract_x
 _atom_site_fract_y
 _atom_site_fract_z
 _atom_site_occupancy
  Ce  Ce0  1  0.750000  0.836829  0.439777  1
  Ce  Ce1  1  0.250000  0.654869  0.939792  1
  Ce  Ce2  1  0.750000  0.333636  0.062533  1
  Ce  Ce3  1  0.250000  0.036409  0.781715  1
  Ce  Ce4  1  0.750000  0.970886  0.221639  1
  Ce  Ce5  1  0.250000  0.535288  0.716026  1
  Ce  Ce6  1  0.750000  0.469092  0.283942  1
  Ho  Ho7  1  0.250000  0.155799  0.558638  1
  Al  Al8  1  0.250000  0.140930  0.349387  1
  Al  Al9  1  0.750000  0.864152  0.648343  1
  Al  Al10  1  0.250000  0.640253  0.152784  1
  Al  Al11  1  0.750000  0.361724  0.848765  1
  Al  Al12  1  0.250000  0.996801  0.062732  1
  Al  Al13  1  0.750000  0.999070  0.938613  1
  Al  Al14  1  0.250000  0.498714  0.438558  1
  Al  Al15  1  0.750000  0.488082  0.560535  1
  Ru  Ru16  1  0.750000  0.272949  0.424854  1
  Ru  Ru17  1  0.250000  0.727439  0.569669  1
  Ru  Ru18  1  0.250000  0.231597  0.930422  1
  Ru  Ru19  1  0.250000  0.262000  0.178654  1
  Ru  Ru20  1  0.250000  0.770693  0.318821  1
  Rh  Rh21  1  0.750000  0.768004  0.070571  1
  Rh  Rh22  1  0.750000  0.745663  0.817402  1
  Rh  Rh23  1  0.750000  0.239120  0.685828  1
