# generated using pymatgen
data_Sc5As2Ir
_symmetry_space_group_name_H-M   'P 1'
_cell_length_a   5.78122600
_cell_length_b   7.91879590
_cell_length_c   7.99188456
_cell_angle_alpha   119.69794200
_cell_angle_beta   90.00000000
_cell_angle_gamma   90.00000000
_symmetry_Int_Tables_number   1
_chemical_formula_structural   Sc5As2Ir
_chemical_formula_sum   'Sc10 As4 Ir2'
_cell_volume   317.81381937
_cell_formula_units_Z   2
loop_
 _symmetry_equiv_pos_site_id
 _symmetry_equiv_pos_as_xyz
  1  'x, y, z'
loop_
 _atom_site_type_symbol
 _atom_site_label
 _atom_site_symmetry_multiplicity
 _atom_site_fract_x
 _atom_site_fract_y
 _atom_site_fract_z
 _atom_site_occupancy
  Sc  Sc0  1  0.000000  0.662162  0.324322  1
  Sc  Sc1  1  0.000000  0.337838  0.675678  1
  Sc  Sc2  1  0.500000  0.337838  0.675678  1
  Sc  Sc3  1  0.500000  0.662162  0.324322  1
  Sc  Sc4  1  0.750000  0.747740  0.766901  1
  Sc  Sc5  1  0.250000  0.252260  0.233099  1
  Sc  Sc6  1  0.750000  0.980840  0.233099  1
  Sc  Sc7  1  0.250000  0.019160  0.766901  1
  Sc  Sc8  1  0.750000  0.246753  0.000000  1
  Sc  Sc9  1  0.250000  0.753247  0.000000  1
  As  As10  1  0.750000  0.379379  0.388351  1
  As  As11  1  0.250000  0.620621  0.611649  1
  As  As12  1  0.750000  0.991028  0.611649  1
  As  As13  1  0.250000  0.008972  0.388351  1
  Ir  Ir14  1  0.750000  0.594089  0.000000  1
  Ir  Ir15  1  0.250000  0.405911  0.000000  1
