# generated using pymatgen
data_Zr2Mn10Mo2P7
_symmetry_space_group_name_H-M   'P 1'
_cell_length_a   9.21039715
_cell_length_b   9.21603846
_cell_length_c   3.62444000
_cell_angle_alpha   90.00000000
_cell_angle_beta   90.00000000
_cell_angle_gamma   119.85439644
_symmetry_Int_Tables_number   1
_chemical_formula_structural   Zr2Mn10Mo2P7
_chemical_formula_sum   'Zr2 Mn10 Mo2 P7'
_cell_volume   266.82683822
_cell_formula_units_Z   1
loop_
 _symmetry_equiv_pos_site_id
 _symmetry_equiv_pos_as_xyz
  1  'x, y, z'
loop_
 _atom_site_type_symbol
 _atom_site_label
 _atom_site_symmetry_multiplicity
 _atom_site_fract_x
 _atom_site_fract_y
 _atom_site_fract_z
 _atom_site_occupancy
  Zr  Zr0  1  0.000245  0.001660  0.000000  1
  Zr  Zr1  1  0.334254  0.665203  0.500000  1
  Mn  Mn2  1  0.285443  0.382277  0.000000  1
  Mn  Mn3  1  0.099158  0.713528  0.000000  1
  Mn  Mn4  1  0.383165  0.165413  0.000000  1
  Mn  Mn5  1  0.787656  0.621875  0.000000  1
  Mn  Mn6  1  0.824750  0.209286  0.000000  1
  Mn  Mn7  1  0.235352  0.943383  0.500000  1
  Mn  Mn8  1  0.056064  0.286944  0.500000  1
  Mn  Mn9  1  0.712913  0.772048  0.500000  1
  Mn  Mn10  1  0.569544  0.111518  0.500000  1
  Mn  Mn11  1  0.617274  0.906496  0.000000  1
  Mo  Mo12  1  0.884304  0.456488  0.500000  1
  Mo  Mo13  1  0.541628  0.431000  0.500000  1
  P  P14  1  0.662969  0.327894  0.000000  1
  P  P15  1  0.082371  0.456161  0.000000  1
  P  P16  1  0.250801  0.202228  0.500000  1
  P  P17  1  0.795856  0.049287  0.500000  1
  P  P18  1  0.957352  0.753288  0.500000  1
  P  P19  1  0.540658  0.627728  0.000000  1
  P  P20  1  0.378243  0.916297  0.000000  1
