# generated using pymatgen
data_Eu4Zn4PdRh3
_symmetry_space_group_name_H-M   'P 1'
_cell_length_a   4.32704100
_cell_length_b   7.18042224
_cell_length_c   7.91320910
_cell_angle_alpha   90.08698360
_cell_angle_beta   90.00000000
_cell_angle_gamma   90.00000000
_symmetry_Int_Tables_number   1
_chemical_formula_structural   Eu4Zn4PdRh3
_chemical_formula_sum   'Eu4 Zn4 Pd1 Rh3'
_cell_volume   245.86297640
_cell_formula_units_Z   1
loop_
 _symmetry_equiv_pos_site_id
 _symmetry_equiv_pos_as_xyz
  1  'x, y, z'
loop_
 _atom_site_type_symbol
 _atom_site_label
 _atom_site_symmetry_multiplicity
 _atom_site_fract_x
 _atom_site_fract_y
 _atom_site_fract_z
 _atom_site_occupancy
  Eu  Eu0  1  0.250000  0.014738  0.314378  1
  Eu  Eu1  1  0.250000  0.521007  0.192107  1
  Eu  Eu2  1  0.750000  0.982828  0.689449  1
  Eu  Eu3  1  0.750000  0.487074  0.806203  1
  Zn  Zn4  1  0.250000  0.660301  0.573905  1
  Zn  Zn5  1  0.250000  0.156693  0.921120  1
  Zn  Zn6  1  0.750000  0.342410  0.430081  1
  Zn  Zn7  1  0.750000  0.834773  0.074372  1
  Pd  Pd8  1  0.750000  0.212341  0.106112  1
  Rh  Rh9  1  0.250000  0.287699  0.609962  1
  Rh  Rh10  1  0.250000  0.786294  0.891013  1
  Rh  Rh11  1  0.750000  0.713841  0.391299  1
