# generated using pymatgen
data_Pr8LuSc11Si15Ag
_symmetry_space_group_name_H-M   'P 1'
_cell_length_a   7.30798844
_cell_length_b   7.54501092
_cell_length_c   14.40374066
_cell_angle_alpha   89.95270792
_cell_angle_beta   89.71918009
_cell_angle_gamma   90.30529042
_symmetry_Int_Tables_number   1
_chemical_formula_structural   Pr8LuSc11Si15Ag
_chemical_formula_sum   'Pr8 Lu1 Sc11 Si15 Ag1'
_cell_volume   794.18463191
_cell_formula_units_Z   1
loop_
 _symmetry_equiv_pos_site_id
 _symmetry_equiv_pos_as_xyz
  1  'x, y, z'
loop_
 _atom_site_type_symbol
 _atom_site_label
 _atom_site_symmetry_multiplicity
 _atom_site_fract_x
 _atom_site_fract_y
 _atom_site_fract_z
 _atom_site_occupancy
  Pr  Pr0  1  0.009484  0.170926  0.397974  1
  Pr  Pr1  1  0.513799  0.324713  0.397838  1
  Pr  Pr2  1  0.487658  0.672524  0.904083  1
  Pr  Pr3  1  0.493862  0.675282  0.601400  1
  Pr  Pr4  1  0.989355  0.832202  0.598527  1
  Pr  Pr5  1  0.988023  0.828850  0.903707  1
  Pr  Pr6  1  0.511744  0.327204  0.097306  1
  Pr  Pr7  1  0.011810  0.172726  0.098152  1
  Lu  Lu8  1  0.341636  0.174566  0.625720  1
  Sc  Sc9  1  0.666439  0.822841  0.372503  1
  Sc  Sc10  1  0.665599  0.999451  0.753996  1
  Sc  Sc11  1  0.164965  0.675422  0.369485  1
  Sc  Sc12  1  0.830594  0.323418  0.877751  1
  Sc  Sc13  1  0.824023  0.325453  0.625990  1
  Sc  Sc14  1  0.837872  0.502210  0.250079  1
  Sc  Sc15  1  0.338817  0.995132  0.247565  1
  Sc  Sc16  1  0.328335  0.174176  0.876813  1
  Sc  Sc17  1  0.168206  0.676282  0.124834  1
  Sc  Sc18  1  0.670472  0.824822  0.124026  1
  Sc  Sc19  1  0.161453  0.498750  0.755648  1
  Si  Si20  1  0.287888  0.880575  0.752624  1
  Si  Si21  1  0.464425  0.624513  0.247227  1
  Si  Si22  1  0.034401  0.129314  0.752215  1
  Si  Si23  1  0.538998  0.379250  0.754768  1
  Si  Si24  1  0.963525  0.874678  0.248273  1
  Si  Si25  1  0.709443  0.116506  0.247656  1
  Si  Si26  1  0.849147  0.537233  0.040093  1
  Si  Si27  1  0.347489  0.962983  0.040503  1
  Si  Si28  1  0.150499  0.463180  0.961978  1
  Si  Si29  1  0.659233  0.036624  0.535543  1
  Si  Si30  1  0.345910  0.956008  0.457769  1
  Si  Si31  1  0.838525  0.542101  0.457197  1
  Si  Si32  1  0.791365  0.617910  0.753052  1
  Si  Si33  1  0.211333  0.382225  0.248123  1
  Si  Si34  1  0.650928  0.036921  0.960524  1
  Ag  Ag35  1  0.152743  0.463033  0.539059  1
