# generated using pymatgen
data_Pr4ReBr4
_symmetry_space_group_name_H-M   'P 1'
_cell_length_a   13.24669600
_cell_length_b   13.24669600
_cell_length_c   6.81210100
_cell_angle_alpha   90.00000000
_cell_angle_beta   90.00000000
_cell_angle_gamma   90.00000000
_symmetry_Int_Tables_number   1
_chemical_formula_structural   Pr4ReBr4
_chemical_formula_sum   'Pr16 Re4 Br16'
_cell_volume   1195.35311586
_cell_formula_units_Z   4
loop_
 _symmetry_equiv_pos_site_id
 _symmetry_equiv_pos_as_xyz
  1  'x, y, z'
loop_
 _atom_site_type_symbol
 _atom_site_label
 _atom_site_symmetry_multiplicity
 _atom_site_fract_x
 _atom_site_fract_y
 _atom_site_fract_z
 _atom_site_occupancy
  Pr  Pr0  1  0.175243  0.076002  0.008617  1
  Pr  Pr1  1  0.576002  0.324757  0.008617  1
  Pr  Pr2  1  0.423998  0.675243  0.008617  1
  Pr  Pr3  1  0.824757  0.923999  0.008617  1
  Pr  Pr4  1  0.076002  0.175243  0.491384  1
  Pr  Pr5  1  0.675243  0.423998  0.491384  1
  Pr  Pr6  1  0.324757  0.576002  0.491384  1
  Pr  Pr7  1  0.923999  0.824757  0.491384  1
  Pr  Pr8  1  0.824757  0.076002  0.508616  1
  Pr  Pr9  1  0.423998  0.324757  0.508616  1
  Pr  Pr10  1  0.576002  0.675243  0.508616  1
  Pr  Pr11  1  0.175243  0.923999  0.508616  1
  Pr  Pr12  1  0.923999  0.175243  0.991383  1
  Pr  Pr13  1  0.324757  0.423998  0.991383  1
  Pr  Pr14  1  0.675243  0.576002  0.991383  1
  Pr  Pr15  1  0.076002  0.824757  0.991383  1
  Re  Re16  1  0.000000  0.000000  0.250000  1
  Re  Re17  1  0.500000  0.500000  0.250000  1
  Re  Re18  1  0.000000  0.000000  0.749999  1
  Re  Re19  1  0.500000  0.500000  0.749999  1
  Br  Br20  1  0.112807  0.300423  0.084144  1
  Br  Br21  1  0.800423  0.387193  0.084144  1
  Br  Br22  1  0.199578  0.612807  0.084144  1
  Br  Br23  1  0.887193  0.699578  0.084144  1
  Br  Br24  1  0.300423  0.112807  0.415855  1
  Br  Br25  1  0.612807  0.199578  0.415855  1
  Br  Br26  1  0.387193  0.800423  0.415855  1
  Br  Br27  1  0.699578  0.887193  0.415855  1
  Br  Br28  1  0.887193  0.300423  0.584145  1
  Br  Br29  1  0.199578  0.387193  0.584145  1
  Br  Br30  1  0.800423  0.612807  0.584145  1
  Br  Br31  1  0.112807  0.699578  0.584145  1
  Br  Br32  1  0.699578  0.112807  0.915856  1
  Br  Br33  1  0.387193  0.199578  0.915856  1
  Br  Br34  1  0.612807  0.800423  0.915856  1
  Br  Br35  1  0.300423  0.887193  0.915856  1
