# generated using pymatgen
data_YbEr3VRe3B16
_symmetry_space_group_name_H-M   'P 1'
_cell_length_a   3.56151100
_cell_length_b   5.96238770
_cell_length_c   11.52562526
_cell_angle_alpha   89.82223977
_cell_angle_beta   90.00000000
_cell_angle_gamma   90.00000000
_symmetry_Int_Tables_number   1
_chemical_formula_structural   YbEr3VRe3B16
_chemical_formula_sum   'Yb1 Er3 V1 Re3 B16'
_cell_volume   244.74673512
_cell_formula_units_Z   1
loop_
 _symmetry_equiv_pos_site_id
 _symmetry_equiv_pos_as_xyz
  1  'x, y, z'
loop_
 _atom_site_type_symbol
 _atom_site_label
 _atom_site_symmetry_multiplicity
 _atom_site_fract_x
 _atom_site_fract_y
 _atom_site_fract_z
 _atom_site_occupancy
  Yb  Yb0  1  0.500000  0.126032  0.851610  1
  Er  Er1  1  0.500000  0.875081  0.147528  1
  Er  Er2  1  0.500000  0.627437  0.652941  1
  Er  Er3  1  0.500000  0.372140  0.346576  1
  V  V4  1  0.500000  0.372222  0.082636  1
  Re  Re5  1  0.500000  0.133915  0.585426  1
  Re  Re6  1  0.500000  0.866481  0.414603  1
  Re  Re7  1  0.500000  0.627820  0.916841  1
  B  B8  1  0.000000  0.285159  0.686533  1
  B  B9  1  0.000000  0.714246  0.313658  1
  B  B10  1  0.000000  0.786061  0.815407  1
  B  B11  1  0.000000  0.212754  0.184829  1
  B  B12  1  0.000000  0.365022  0.531409  1
  B  B13  1  0.000000  0.635044  0.468449  1
  B  B14  1  0.000000  0.865107  0.967802  1
  B  B15  1  0.000000  0.134625  0.033241  1
  B  B16  1  0.000000  0.023892  0.306537  1
  B  B17  1  0.000000  0.976479  0.693216  1
  B  B18  1  0.000000  0.523181  0.192716  1
  B  B19  1  0.000000  0.477717  0.807582  1
  B  B20  1  0.000000  0.114248  0.451871  1
  B  B21  1  0.000000  0.886338  0.547964  1
  B  B22  1  0.000000  0.613671  0.047374  1
  B  B23  1  0.000000  0.385329  0.953251  1
