# generated using pymatgen
data_LiSc(Pa3Sb5)2
_symmetry_space_group_name_H-M   'P 1'
_cell_length_a   9.26735800
_cell_length_b   9.26735847
_cell_length_c   6.19068200
_cell_angle_alpha   90.00000000
_cell_angle_beta   90.00000000
_cell_angle_gamma   119.99999831
_symmetry_Int_Tables_number   1
_chemical_formula_structural   LiSc(Pa3Sb5)2
_chemical_formula_sum   'Li1 Sc1 Pa6 Sb10'
_cell_volume   460.44847366
_cell_formula_units_Z   1
loop_
 _symmetry_equiv_pos_site_id
 _symmetry_equiv_pos_as_xyz
  1  'x, y, z'
loop_
 _atom_site_type_symbol
 _atom_site_label
 _atom_site_symmetry_multiplicity
 _atom_site_fract_x
 _atom_site_fract_y
 _atom_site_fract_z
 _atom_site_occupancy
  Li  Li0  1  0.000000  0.000000  0.000000  1
  Sc  Sc1  1  0.000000  0.000000  0.500000  1
  Pa  Pa2  1  0.387362  0.000000  0.749252  1
  Pa  Pa3  1  0.387362  0.387362  0.250748  1
  Pa  Pa4  1  0.000000  0.612638  0.250748  1
  Pa  Pa5  1  0.000000  0.387362  0.749252  1
  Pa  Pa6  1  0.612638  0.612638  0.749252  1
  Pa  Pa7  1  0.612638  0.000000  0.250748  1
  Sb  Sb8  1  0.666667  0.333333  0.500000  1
  Sb  Sb9  1  0.333333  0.666667  0.000000  1
  Sb  Sb10  1  0.734996  0.000000  0.754203  1
  Sb  Sb11  1  0.734996  0.734996  0.245797  1
  Sb  Sb12  1  0.333333  0.666667  0.500000  1
  Sb  Sb13  1  0.666667  0.333333  0.000000  1
  Sb  Sb14  1  0.265004  0.000000  0.245797  1
  Sb  Sb15  1  0.265004  0.265004  0.754203  1
  Sb  Sb16  1  0.000000  0.734996  0.754203  1
  Sb  Sb17  1  0.000000  0.265004  0.245797  1
