# generated using pymatgen
data_Pr3Ag3PtAu2
_symmetry_space_group_name_H-M   'P 1'
_cell_length_a   7.83052500
_cell_length_b   7.83052389
_cell_length_c   3.99768000
_cell_angle_alpha   90.00000000
_cell_angle_beta   90.00000000
_cell_angle_gamma   120.00000893
_symmetry_Int_Tables_number   1
_chemical_formula_structural   Pr3Ag3PtAu2
_chemical_formula_sum   'Pr3 Ag3 Pt1 Au2'
_cell_volume   212.28549421
_cell_formula_units_Z   1
loop_
 _symmetry_equiv_pos_site_id
 _symmetry_equiv_pos_as_xyz
  1  'x, y, z'
loop_
 _atom_site_type_symbol
 _atom_site_label
 _atom_site_symmetry_multiplicity
 _atom_site_fract_x
 _atom_site_fract_y
 _atom_site_fract_z
 _atom_site_occupancy
  Pr  Pr0  1  0.608108  0.014412  0.000000  1
  Pr  Pr1  1  0.985588  0.593696  0.000000  1
  Pr  Pr2  1  0.406304  0.391892  0.000000  1
  Ag  Ag3  1  0.261406  0.998965  0.500000  1
  Ag  Ag4  1  0.001035  0.262441  0.500000  1
  Ag  Ag5  1  0.737559  0.738594  0.500000  1
  Pt  Pt6  1  0.666667  0.333333  0.500000  1
  Au  Au7  1  0.333333  0.666667  0.500000  1
  Au  Au8  1  0.000000  0.000000  0.000000  1
