# generated using pymatgen
data_La2P3Pt4
_symmetry_space_group_name_H-M   'P 1'
_cell_length_a   10.11748012
_cell_length_b   10.11747989
_cell_length_c   10.11747891
_cell_angle_alpha   155.96438200
_cell_angle_beta   155.96438143
_cell_angle_gamma   34.25049763
_symmetry_Int_Tables_number   1
_chemical_formula_structural   La2P3Pt4
_chemical_formula_sum   'La2 P3 Pt4'
_cell_volume   171.63622490
_cell_formula_units_Z   1
loop_
 _symmetry_equiv_pos_site_id
 _symmetry_equiv_pos_as_xyz
  1  'x, y, z'
loop_
 _atom_site_type_symbol
 _atom_site_label
 _atom_site_symmetry_multiplicity
 _atom_site_fract_x
 _atom_site_fract_y
 _atom_site_fract_z
 _atom_site_occupancy
  La  La0  1  0.128422  0.128422  0.000000  1
  La  La1  1  0.871578  0.871578  0.000000  1
  P  P2  1  0.427340  0.427340  0.000000  1
  P  P3  1  0.572660  0.572660  0.000000  1
  P  P4  1  0.250000  0.750000  0.500000  1
  Pt  Pt5  1  0.500107  0.000107  0.500000  1
  Pt  Pt6  1  0.999893  0.499893  0.500000  1
  Pt  Pt7  1  0.304090  0.304090  0.000000  1
  Pt  Pt8  1  0.695910  0.695910  0.000000  1
