# generated using pymatgen
data_Tb5Lu(Si3Ru)8
_symmetry_space_group_name_H-M   'P 1'
_cell_length_a   10.11729501
_cell_length_b   10.11729505
_cell_length_c   8.15106520
_cell_angle_alpha   90.03386007
_cell_angle_beta   90.03386368
_cell_angle_gamma   132.49093684
_symmetry_Int_Tables_number   1
_chemical_formula_structural   Tb5Lu(Si3Ru)8
_chemical_formula_sum   'Tb5 Lu1 Si24 Ru8'
_cell_volume   615.22865179
_cell_formula_units_Z   1
loop_
 _symmetry_equiv_pos_site_id
 _symmetry_equiv_pos_as_xyz
  1  'x, y, z'
loop_
 _atom_site_type_symbol
 _atom_site_label
 _atom_site_symmetry_multiplicity
 _atom_site_fract_x
 _atom_site_fract_y
 _atom_site_fract_z
 _atom_site_occupancy
  Tb  Tb0  1  0.000000  0.000000  0.000000  1
  Tb  Tb1  1  0.502882  0.002690  0.749543  1
  Tb  Tb2  1  0.997310  0.497118  0.250457  1
  Tb  Tb3  1  0.497118  0.997310  0.250457  1
  Tb  Tb4  1  0.002690  0.502882  0.749543  1
  Lu  Lu5  1  0.500000  0.500000  0.500000  1
  Si  Si6  1  0.794329  0.205671  0.500000  1
  Si  Si7  1  0.294925  0.705075  0.000000  1
  Si  Si8  1  0.205671  0.794329  0.500000  1
  Si  Si9  1  0.705075  0.294925  0.000000  1
  Si  Si10  1  0.331917  0.331917  0.833066  1
  Si  Si11  1  0.668083  0.668083  0.166934  1
  Si  Si12  1  0.167341  0.167341  0.332785  1
  Si  Si13  1  0.832659  0.832659  0.667215  1
  Si  Si14  1  0.121618  0.887278  0.728207  1
  Si  Si15  1  0.112722  0.878382  0.271793  1
  Si  Si16  1  0.611133  0.377387  0.229127  1
  Si  Si17  1  0.622613  0.388867  0.770873  1
  Si  Si18  1  0.878382  0.112722  0.271793  1
  Si  Si19  1  0.887278  0.121618  0.728207  1
  Si  Si20  1  0.388867  0.622613  0.770873  1
  Si  Si21  1  0.377387  0.611133  0.229127  1
  Si  Si22  1  0.345280  0.112039  0.505264  1
  Si  Si23  1  0.887961  0.654720  0.494736  1
  Si  Si24  1  0.387733  0.154566  0.005238  1
  Si  Si25  1  0.845434  0.612267  0.994762  1
  Si  Si26  1  0.654720  0.887961  0.494736  1
  Si  Si27  1  0.112039  0.345280  0.505264  1
  Si  Si28  1  0.612267  0.845434  0.994762  1
  Si  Si29  1  0.154566  0.387733  0.005238  1
  Ru  Ru30  1  0.667834  0.332166  0.500000  1
  Ru  Ru31  1  0.169212  0.830788  0.000000  1
  Ru  Ru32  1  0.332166  0.667834  0.500000  1
  Ru  Ru33  1  0.830788  0.169212  0.000000  1
  Ru  Ru34  1  0.127649  0.127649  0.625094  1
  Ru  Ru35  1  0.872351  0.872351  0.374906  1
  Ru  Ru36  1  0.375302  0.375302  0.128991  1
  Ru  Ru37  1  0.624698  0.624698  0.871009  1
