# generated using pymatgen
data_TiV7P6
_symmetry_space_group_name_H-M   'P 1'
_cell_length_a   6.85491504
_cell_length_b   6.85491523
_cell_length_c   17.38790776
_cell_angle_alpha   90.20660571
_cell_angle_beta   89.79339392
_cell_angle_gamma   152.41408555
_symmetry_Int_Tables_number   1
_chemical_formula_structural   TiV7P6
_chemical_formula_sum   'Ti2 V14 P12'
_cell_volume   378.35789077
_cell_formula_units_Z   2
loop_
 _symmetry_equiv_pos_site_id
 _symmetry_equiv_pos_as_xyz
  1  'x, y, z'
loop_
 _atom_site_type_symbol
 _atom_site_label
 _atom_site_symmetry_multiplicity
 _atom_site_fract_x
 _atom_site_fract_y
 _atom_site_fract_z
 _atom_site_occupancy
  Ti  Ti0  1  0.735061  0.264939  0.662687  1
  Ti  Ti1  1  0.264939  0.735061  0.337313  1
  V  V2  1  0.736899  0.263101  0.842531  1
  V  V3  1  0.263101  0.736899  0.157469  1
  V  V4  1  0.536508  0.463492  0.620806  1
  V  V5  1  0.463492  0.536508  0.379194  1
  V  V6  1  0.533850  0.466150  0.882336  1
  V  V7  1  0.466150  0.533850  0.117664  1
  V  V8  1  0.664190  0.335810  0.469734  1
  V  V9  1  0.335810  0.664190  0.530266  1
  V  V10  1  0.667604  0.332396  0.027298  1
  V  V11  1  0.332396  0.667604  0.972702  1
  V  V12  1  0.000000  0.000000  0.500000  1
  V  V13  1  0.000000  0.000000  0.000000  1
  V  V14  1  0.057398  0.942602  0.248348  1
  V  V15  1  0.942602  0.057398  0.751652  1
  P  P16  1  0.906145  0.093855  0.618275  1
  P  P17  1  0.093855  0.906145  0.381725  1
  P  P18  1  0.903264  0.096736  0.884157  1
  P  P19  1  0.096736  0.903264  0.115843  1
  P  P20  1  0.842094  0.157906  0.427700  1
  P  P21  1  0.157906  0.842094  0.572300  1
  P  P22  1  0.842452  0.157548  0.074781  1
  P  P23  1  0.157548  0.842452  0.925219  1
  P  P24  1  0.695418  0.304582  0.245518  1
  P  P25  1  0.304582  0.695418  0.754482  1
  P  P26  1  0.418829  0.581171  0.247498  1
  P  P27  1  0.581171  0.418829  0.752502  1
