# generated using pymatgen
data_Y6Mn8Al8Os7
_symmetry_space_group_name_H-M   'P 1'
_cell_length_a   8.69971098
_cell_length_b   8.69971126
_cell_length_c   8.69971100
_cell_angle_alpha   60.00000480
_cell_angle_beta   60.00000374
_cell_angle_gamma   60.00000575
_symmetry_Int_Tables_number   1
_chemical_formula_structural   Y6Mn8Al8Os7
_chemical_formula_sum   'Y6 Mn8 Al8 Os7'
_cell_volume   465.58559899
_cell_formula_units_Z   1
loop_
 _symmetry_equiv_pos_site_id
 _symmetry_equiv_pos_as_xyz
  1  'x, y, z'
loop_
 _atom_site_type_symbol
 _atom_site_label
 _atom_site_symmetry_multiplicity
 _atom_site_fract_x
 _atom_site_fract_y
 _atom_site_fract_z
 _atom_site_occupancy
  Y  Y0  1  0.199081  0.800919  0.800919  1
  Y  Y1  1  0.800919  0.199081  0.199081  1
  Y  Y2  1  0.800919  0.199081  0.800919  1
  Y  Y3  1  0.800919  0.800919  0.199081  1
  Y  Y4  1  0.199081  0.800919  0.199081  1
  Y  Y5  1  0.199081  0.199081  0.800919  1
  Mn  Mn6  1  0.820604  0.820604  0.820604  1
  Mn  Mn7  1  0.820604  0.820604  0.538186  1
  Mn  Mn8  1  0.538186  0.820604  0.820604  1
  Mn  Mn9  1  0.820604  0.538186  0.820604  1
  Mn  Mn10  1  0.179396  0.179396  0.179396  1
  Mn  Mn11  1  0.179396  0.179396  0.461814  1
  Mn  Mn12  1  0.179396  0.461814  0.179396  1
  Mn  Mn13  1  0.461814  0.179396  0.179396  1
  Al  Al14  1  0.620314  0.620314  0.620314  1
  Al  Al15  1  0.620314  0.620314  0.139058  1
  Al  Al16  1  0.139058  0.620314  0.620314  1
  Al  Al17  1  0.620314  0.139058  0.620314  1
  Al  Al18  1  0.379686  0.379686  0.379686  1
  Al  Al19  1  0.379686  0.379686  0.860942  1
  Al  Al20  1  0.379686  0.860942  0.379686  1
  Al  Al21  1  0.860942  0.379686  0.379686  1
  Os  Os22  1  0.500000  0.500000  0.500000  1
  Os  Os23  1  0.000000  0.500000  0.500000  1
  Os  Os24  1  0.500000  0.000000  0.000000  1
  Os  Os25  1  0.500000  0.000000  0.500000  1
  Os  Os26  1  0.500000  0.500000  0.000000  1
  Os  Os27  1  0.000000  0.500000  0.000000  1
  Os  Os28  1  0.000000  0.000000  0.500000  1
