# generated using pymatgen
data_LiMgCo3(B2Ru)2
_symmetry_space_group_name_H-M   'P 1'
_cell_length_a   2.87583900
_cell_length_b   8.08132432
_cell_length_c   9.35059789
_cell_angle_alpha   89.53703415
_cell_angle_beta   90.00000000
_cell_angle_gamma   90.00000000
_symmetry_Int_Tables_number   1
_chemical_formula_structural   LiMgCo3(B2Ru)2
_chemical_formula_sum   'Li2 Mg2 Co6 B8 Ru4'
_cell_volume   217.30629564
_cell_formula_units_Z   2
loop_
 _symmetry_equiv_pos_site_id
 _symmetry_equiv_pos_as_xyz
  1  'x, y, z'
loop_
 _atom_site_type_symbol
 _atom_site_label
 _atom_site_symmetry_multiplicity
 _atom_site_fract_x
 _atom_site_fract_y
 _atom_site_fract_z
 _atom_site_occupancy
  Li  Li0  1  0.500000  0.660245  0.819323  1
  Li  Li1  1  0.500000  0.339755  0.180677  1
  Mg  Mg2  1  0.500000  0.161484  0.683091  1
  Mg  Mg3  1  0.500000  0.838516  0.316909  1
  Co  Co4  1  0.000000  0.411614  0.745378  1
  Co  Co5  1  0.000000  0.588386  0.254622  1
  Co  Co6  1  0.000000  0.902042  0.757286  1
  Co  Co7  1  0.000000  0.097958  0.242714  1
  Co  Co8  1  0.000000  0.000000  0.500000  1
  Co  Co9  1  0.000000  0.500000  0.000000  1
  B  B10  1  0.500000  0.862397  0.604829  1
  B  B11  1  0.500000  0.137603  0.395171  1
  B  B12  1  0.500000  0.368041  0.900133  1
  B  B13  1  0.500000  0.631959  0.099867  1
  B  B14  1  0.500000  0.960878  0.903070  1
  B  B15  1  0.500000  0.039122  0.096930  1
  B  B16  1  0.500000  0.464345  0.598571  1
  B  B17  1  0.500000  0.535655  0.401429  1
  Ru  Ru18  1  0.000000  0.663583  0.546132  1
  Ru  Ru19  1  0.000000  0.336417  0.453868  1
  Ru  Ru20  1  0.000000  0.163911  0.952556  1
  Ru  Ru21  1  0.000000  0.836089  0.047444  1
