# generated using pymatgen
data_CaTmInS4
_symmetry_space_group_name_H-M   'P 1'
_cell_length_a   13.83793400
_cell_length_b   8.05497400
_cell_length_c   6.57356600
_cell_angle_alpha   90.00000000
_cell_angle_beta   90.00000000
_cell_angle_gamma   90.00000000
_symmetry_Int_Tables_number   1
_chemical_formula_structural   CaTmInS4
_chemical_formula_sum   'Ca4 Tm4 In4 S16'
_cell_volume   732.71726603
_cell_formula_units_Z   4
loop_
 _symmetry_equiv_pos_site_id
 _symmetry_equiv_pos_as_xyz
  1  'x, y, z'
loop_
 _atom_site_type_symbol
 _atom_site_label
 _atom_site_symmetry_multiplicity
 _atom_site_fract_x
 _atom_site_fract_y
 _atom_site_fract_z
 _atom_site_occupancy
  Ca  Ca0  1  0.730814  0.750000  0.007820  1
  Ca  Ca1  1  0.230814  0.750000  0.492179  1
  Ca  Ca2  1  0.769187  0.250000  0.507821  1
  Ca  Ca3  1  0.269186  0.250000  0.992180  1
  Tm  Tm4  1  0.000000  0.000000  0.000000  1
  Tm  Tm5  1  0.000000  0.499999  0.000000  1
  Tm  Tm6  1  0.500000  0.000000  0.500001  1
  Tm  Tm7  1  0.500000  0.499999  0.500001  1
  In  In8  1  0.592428  0.250000  0.085853  1
  In  In9  1  0.092428  0.250000  0.414146  1
  In  In10  1  0.907573  0.750000  0.585854  1
  In  In11  1  0.407572  0.750000  0.914145  1
  S  S12  1  0.914441  0.750000  0.213672  1
  S  S13  1  0.163138  0.008663  0.233017  1
  S  S14  1  0.163138  0.491337  0.233017  1
  S  S15  1  0.929636  0.250000  0.235487  1
  S  S16  1  0.429636  0.250000  0.264514  1
  S  S17  1  0.663138  0.008663  0.266984  1
  S  S18  1  0.663138  0.491337  0.266984  1
  S  S19  1  0.414442  0.750000  0.286328  1
  S  S20  1  0.585559  0.250000  0.713673  1
  S  S21  1  0.336861  0.508664  0.733017  1
  S  S22  1  0.336861  0.991336  0.733017  1
  S  S23  1  0.570365  0.750000  0.735488  1
  S  S24  1  0.070365  0.750000  0.764514  1
  S  S25  1  0.836862  0.508664  0.766983  1
  S  S26  1  0.836862  0.991336  0.766983  1
  S  S27  1  0.085559  0.250000  0.786328  1
