# generated using pymatgen
data_Yb2Zr2(Al8Pt3)3
_symmetry_space_group_name_H-M   'P 1'
_cell_length_a   7.50335472
_cell_length_b   7.51039014
_cell_length_c   13.10243993
_cell_angle_alpha   84.60108891
_cell_angle_beta   100.89350987
_cell_angle_gamma   119.85840025
_symmetry_Int_Tables_number   1
_chemical_formula_structural   Yb2Zr2(Al8Pt3)3
_chemical_formula_sum   'Yb2 Zr2 Al24 Pt9'
_cell_volume   628.81282536
_cell_formula_units_Z   1
loop_
 _symmetry_equiv_pos_site_id
 _symmetry_equiv_pos_as_xyz
  1  'x, y, z'
loop_
 _atom_site_type_symbol
 _atom_site_label
 _atom_site_symmetry_multiplicity
 _atom_site_fract_x
 _atom_site_fract_y
 _atom_site_fract_z
 _atom_site_occupancy
  Yb  Yb0  1  0.767880  0.501652  0.807831  1
  Yb  Yb1  1  0.232120  0.498348  0.192169  1
  Zr  Zr2  1  0.437840  0.830650  0.809534  1
  Zr  Zr3  1  0.562160  0.169350  0.190466  1
  Al  Al4  1  0.482913  0.164126  0.943583  1
  Al  Al5  1  0.517087  0.835874  0.056417  1
  Al  Al6  1  0.020865  0.167506  0.562055  1
  Al  Al7  1  0.979135  0.832494  0.437945  1
  Al  Al8  1  0.353886  0.833258  0.560213  1
  Al  Al9  1  0.646114  0.166742  0.439787  1
  Al  Al10  1  0.615865  0.835497  0.326980  1
  Al  Al11  1  0.384135  0.164503  0.673020  1
  Al  Al12  1  0.058293  0.495836  0.673307  1
  Al  Al13  1  0.941707  0.504164  0.326693  1
  Al  Al14  1  0.728901  0.838804  0.672323  1
  Al  Al15  1  0.271099  0.161196  0.327677  1
  Al  Al16  1  0.149415  0.502695  0.943761  1
  Al  Al17  1  0.850585  0.497305  0.056239  1
  Al  Al18  1  0.813524  0.832081  0.951268  1
  Al  Al19  1  0.186476  0.167919  0.048732  1
  Al  Al20  1  0.313946  0.500735  0.440155  1
  Al  Al21  1  0.686054  0.499265  0.559845  1
  Al  Al22  1  0.108903  0.842875  0.183355  1
  Al  Al23  1  0.891097  0.157125  0.816645  1
  Al  Al24  1  0.306607  0.374798  0.815545  1
  Al  Al25  1  0.693393  0.625202  0.184455  1
  Al  Al26  1  0.110412  0.960202  0.816302  1
  Al  Al27  1  0.889588  0.039798  0.183698  1
  Pt  Pt28  1  0.387677  0.508685  0.638542  1
  Pt  Pt29  1  0.612323  0.491315  0.361458  1
  Pt  Pt30  1  0.171145  0.828563  0.999782  1
  Pt  Pt31  1  0.828855  0.171437  0.000218  1
  Pt  Pt32  1  0.295936  0.833796  0.361591  1
  Pt  Pt33  1  0.704064  0.166204  0.638409  1
  Pt  Pt34  1  0.046631  0.825281  0.637497  1
  Pt  Pt35  1  0.953369  0.174719  0.362503  1
  Pt  Pt36  1  0.500000  0.500000  0.000000  1
