# generated using pymatgen
data_UGa8Ru9
_symmetry_space_group_name_H-M   'P 1'
_cell_length_a   7.52101367
_cell_length_b   7.52101453
_cell_length_c   5.33497577
_cell_angle_alpha   90.00777518
_cell_angle_beta   90.00776652
_cell_angle_gamma   119.99618995
_symmetry_Int_Tables_number   1
_chemical_formula_structural   UGa8Ru9
_chemical_formula_sum   'U1 Ga8 Ru9'
_cell_volume   261.35604214
_cell_formula_units_Z   1
loop_
 _symmetry_equiv_pos_site_id
 _symmetry_equiv_pos_as_xyz
  1  'x, y, z'
loop_
 _atom_site_type_symbol
 _atom_site_label
 _atom_site_symmetry_multiplicity
 _atom_site_fract_x
 _atom_site_fract_y
 _atom_site_fract_z
 _atom_site_occupancy
  U  U0  1  0.666823  0.666823  0.892213  1
  Ga  Ga1  1  0.666520  0.003340  0.228809  1
  Ga  Ga2  1  0.330234  0.330233  0.228749  1
  Ga  Ga3  1  0.003340  0.666521  0.228809  1
  Ga  Ga4  1  0.666617  0.330035  0.555302  1
  Ga  Ga5  1  0.330036  0.666618  0.555302  1
  Ga  Ga6  1  0.003423  0.003423  0.555908  1
  Ga  Ga7  1  0.333237  0.999995  0.892006  1
  Ga  Ga8  1  0.999995  0.333236  0.892006  1
  Ru  Ru9  1  0.666676  0.328410  0.059613  1
  Ru  Ru10  1  0.328411  0.666677  0.059613  1
  Ru  Ru11  1  0.004928  0.004928  0.060123  1
  Ru  Ru12  1  0.333180  0.999952  0.391969  1
  Ru  Ru13  1  0.999952  0.333179  0.391969  1
  Ru  Ru14  1  0.666906  0.666906  0.392129  1
  Ru  Ru15  1  0.666481  0.004816  0.724434  1
  Ru  Ru16  1  0.328428  0.328428  0.724451  1
  Ru  Ru17  1  0.004816  0.666481  0.724434  1
