# generated using pymatgen
data_Tb6Dy5ErRu4
_symmetry_space_group_name_H-M   'P 1'
_cell_length_a   6.32777739
_cell_length_b   7.30543788
_cell_length_c   9.22530129
_cell_angle_alpha   90.02272794
_cell_angle_beta   90.12875672
_cell_angle_gamma   90.03108670
_symmetry_Int_Tables_number   1
_chemical_formula_structural   Tb6Dy5ErRu4
_chemical_formula_sum   'Tb6 Dy5 Er1 Ru4'
_cell_volume   426.45853306
_cell_formula_units_Z   1
loop_
 _symmetry_equiv_pos_site_id
 _symmetry_equiv_pos_as_xyz
  1  'x, y, z'
loop_
 _atom_site_type_symbol
 _atom_site_label
 _atom_site_symmetry_multiplicity
 _atom_site_fract_x
 _atom_site_fract_y
 _atom_site_fract_z
 _atom_site_occupancy
  Tb  Tb0  1  0.830328  0.823104  0.565237  1
  Tb  Tb1  1  0.330092  0.676811  0.434815  1
  Tb  Tb2  1  0.865606  0.539562  0.249473  1
  Tb  Tb3  1  0.634204  0.040560  0.249223  1
  Tb  Tb4  1  0.135121  0.459569  0.750601  1
  Tb  Tb5  1  0.365099  0.960323  0.750761  1
  Dy  Dy6  1  0.329819  0.676962  0.064882  1
  Dy  Dy7  1  0.169688  0.177281  0.434147  1
  Dy  Dy8  1  0.670017  0.322773  0.565273  1
  Dy  Dy9  1  0.830738  0.823642  0.935554  1
  Dy  Dy10  1  0.669760  0.322923  0.935287  1
  Er  Er11  1  0.169367  0.176479  0.065453  1
  Ru  Ru12  1  0.040861  0.885841  0.248839  1
  Ru  Ru13  1  0.458345  0.384681  0.249126  1
  Ru  Ru14  1  0.959942  0.115027  0.751437  1
  Ru  Ru15  1  0.541013  0.614465  0.749891  1
