# generated using pymatgen
data_LiHo3In4Os
_symmetry_space_group_name_H-M   'P 1'
_cell_length_a   8.12424000
_cell_length_b   8.12423894
_cell_length_c   3.57047300
_cell_angle_alpha   90.00000000
_cell_angle_beta   90.00000000
_cell_angle_gamma   120.00000432
_symmetry_Int_Tables_number   1
_chemical_formula_structural   LiHo3In4Os
_chemical_formula_sum   'Li1 Ho3 In4 Os1'
_cell_volume   204.09003412
_cell_formula_units_Z   1
loop_
 _symmetry_equiv_pos_site_id
 _symmetry_equiv_pos_as_xyz
  1  'x, y, z'
loop_
 _atom_site_type_symbol
 _atom_site_label
 _atom_site_symmetry_multiplicity
 _atom_site_fract_x
 _atom_site_fract_y
 _atom_site_fract_z
 _atom_site_occupancy
  Li  Li0  1  0.333333  0.666667  0.500000  1
  Ho  Ho1  1  0.292387  0.247156  0.500000  1
  Ho  Ho2  1  0.752844  0.045229  0.500000  1
  Ho  Ho3  1  0.954771  0.707613  0.500000  1
  In  In4  1  0.065691  0.401576  0.000000  1
  In  In5  1  0.598424  0.664116  0.000000  1
  In  In6  1  0.335884  0.934309  0.000000  1
  In  In7  1  0.666667  0.333333  0.000000  1
  Os  Os8  1  0.000000  0.000000  0.000000  1
