# generated using pymatgen
data_Hf10CoTc3
_symmetry_space_group_name_H-M   'P 1'
_cell_length_a   8.69734000
_cell_length_b   8.69734103
_cell_length_c   8.42766700
_cell_angle_alpha   90.00000000
_cell_angle_beta   90.00000000
_cell_angle_gamma   120.00000368
_symmetry_Int_Tables_number   1
_chemical_formula_structural   Hf10CoTc3
_chemical_formula_sum   'Hf20 Co2 Tc6'
_cell_volume   552.09133412
_cell_formula_units_Z   2
loop_
 _symmetry_equiv_pos_site_id
 _symmetry_equiv_pos_as_xyz
  1  'x, y, z'
loop_
 _atom_site_type_symbol
 _atom_site_label
 _atom_site_symmetry_multiplicity
 _atom_site_fract_x
 _atom_site_fract_y
 _atom_site_fract_z
 _atom_site_occupancy
  Hf  Hf0  1  0.203169  0.796831  0.441916  1
  Hf  Hf1  1  0.203169  0.406339  0.441916  1
  Hf  Hf2  1  0.593661  0.796831  0.441916  1
  Hf  Hf3  1  0.796831  0.203169  0.558084  1
  Hf  Hf4  1  0.796831  0.593661  0.558084  1
  Hf  Hf5  1  0.406339  0.203169  0.558084  1
  Hf  Hf6  1  0.796831  0.203169  0.941916  1
  Hf  Hf7  1  0.796831  0.593661  0.941916  1
  Hf  Hf8  1  0.406339  0.203169  0.941916  1
  Hf  Hf9  1  0.203169  0.796831  0.058084  1
  Hf  Hf10  1  0.203169  0.406339  0.058084  1
  Hf  Hf11  1  0.593661  0.796831  0.058084  1
  Hf  Hf12  1  0.542806  0.457194  0.250000  1
  Hf  Hf13  1  0.542806  0.085612  0.250000  1
  Hf  Hf14  1  0.914388  0.457194  0.250000  1
  Hf  Hf15  1  0.457194  0.542806  0.750000  1
  Hf  Hf16  1  0.457194  0.914388  0.750000  1
  Hf  Hf17  1  0.085612  0.542806  0.750000  1
  Hf  Hf18  1  0.000000  0.000000  0.500000  1
  Hf  Hf19  1  0.000000  0.000000  0.000000  1
  Co  Co20  1  0.333333  0.666667  0.250000  1
  Co  Co21  1  0.666667  0.333333  0.750000  1
  Tc  Tc22  1  0.882184  0.117816  0.250000  1
  Tc  Tc23  1  0.882184  0.764370  0.250000  1
  Tc  Tc24  1  0.235630  0.117816  0.250000  1
  Tc  Tc25  1  0.117816  0.882184  0.750000  1
  Tc  Tc26  1  0.117816  0.235630  0.750000  1
  Tc  Tc27  1  0.764370  0.882184  0.750000  1
