# generated using pymatgen
data_Sc2Al10FeTc2
_symmetry_space_group_name_H-M   'P 1'
_cell_length_a   9.06818800
_cell_length_b   9.06818800
_cell_length_c   6.00977700
_cell_angle_alpha   90.00000000
_cell_angle_beta   90.00000000
_cell_angle_gamma   90.00000000
_symmetry_Int_Tables_number   1
_chemical_formula_structural   Sc2Al10FeTc2
_chemical_formula_sum   'Sc4 Al20 Fe2 Tc4'
_cell_volume   494.19618421
_cell_formula_units_Z   2
loop_
 _symmetry_equiv_pos_site_id
 _symmetry_equiv_pos_as_xyz
  1  'x, y, z'
loop_
 _atom_site_type_symbol
 _atom_site_label
 _atom_site_symmetry_multiplicity
 _atom_site_fract_x
 _atom_site_fract_y
 _atom_site_fract_z
 _atom_site_occupancy
  Sc  Sc0  1  0.682157  0.182157  0.000000  1
  Sc  Sc1  1  0.317843  0.817843  0.000000  1
  Sc  Sc2  1  0.817843  0.682157  0.000000  1
  Sc  Sc3  1  0.182157  0.317843  0.000000  1
  Al  Al4  1  0.940806  0.201336  0.275601  1
  Al  Al5  1  0.701336  0.440806  0.275601  1
  Al  Al6  1  0.500000  0.000000  0.279056  1
  Al  Al7  1  0.559194  0.701336  0.724399  1
  Al  Al8  1  0.298664  0.559194  0.724399  1
  Al  Al9  1  0.798664  0.940806  0.275601  1
  Al  Al10  1  0.940806  0.201336  0.724399  1
  Al  Al11  1  0.298664  0.559194  0.275601  1
  Al  Al12  1  0.059194  0.798664  0.275601  1
  Al  Al13  1  0.701336  0.440806  0.724399  1
  Al  Al14  1  0.440806  0.298664  0.724399  1
  Al  Al15  1  0.059194  0.798664  0.724399  1
  Al  Al16  1  0.201336  0.059194  0.724399  1
  Al  Al17  1  0.798664  0.940806  0.724399  1
  Al  Al18  1  0.201336  0.059194  0.275601  1
  Al  Al19  1  0.000000  0.500000  0.720944  1
  Al  Al20  1  0.000000  0.500000  0.279056  1
  Al  Al21  1  0.559194  0.701336  0.275601  1
  Al  Al22  1  0.440806  0.298664  0.275601  1
  Al  Al23  1  0.500000  0.000000  0.720944  1
  Fe  Fe24  1  0.000000  0.000000  0.000000  1
  Fe  Fe25  1  0.500000  0.500000  0.000000  1
  Tc  Tc26  1  0.678786  0.178786  0.500000  1
  Tc  Tc27  1  0.821214  0.678786  0.500000  1
  Tc  Tc28  1  0.178786  0.321214  0.500000  1
  Tc  Tc29  1  0.321214  0.821214  0.500000  1
