# generated using pymatgen
data_Th2UGa2GeRu3
_symmetry_space_group_name_H-M   'P 1'
_cell_length_a   6.98309009
_cell_length_b   6.98630166
_cell_length_c   4.10159900
_cell_angle_alpha   90.00000000
_cell_angle_beta   90.00000000
_cell_angle_gamma   117.08445002
_symmetry_Int_Tables_number   1
_chemical_formula_structural   Th2UGa2GeRu3
_chemical_formula_sum   'Th2 U1 Ga2 Ge1 Ru3'
_cell_volume   178.15676139
_cell_formula_units_Z   1
loop_
 _symmetry_equiv_pos_site_id
 _symmetry_equiv_pos_as_xyz
  1  'x, y, z'
loop_
 _atom_site_type_symbol
 _atom_site_label
 _atom_site_symmetry_multiplicity
 _atom_site_fract_x
 _atom_site_fract_y
 _atom_site_fract_z
 _atom_site_occupancy
  Th  Th0  1  0.416317  0.997830  0.500000  1
  Th  Th1  1  0.004220  0.415999  0.500000  1
  U  U2  1  0.594801  0.590658  0.500000  1
  Ga  Ga3  1  0.008520  0.761125  0.000000  1
  Ga  Ga4  1  0.230806  0.224779  0.000000  1
  Ge  Ge5  1  0.754400  0.008366  0.000000  1
  Ru  Ru6  1  0.372606  0.651214  0.000000  1
  Ru  Ru7  1  0.655573  0.368630  0.000000  1
  Ru  Ru8  1  0.962757  0.981399  0.500000  1
