# generated using pymatgen
data_La8Nd5Th3(CdIr)4
_symmetry_space_group_name_H-M   'P 1'
_cell_length_a   10.05165696
_cell_length_b   10.06132590
_cell_length_c   10.06132593
_cell_angle_alpha   60.17111660
_cell_angle_beta   60.19701306
_cell_angle_gamma   60.19701640
_symmetry_Int_Tables_number   1
_chemical_formula_structural   La8Nd5Th3(CdIr)4
_chemical_formula_sum   'La8 Nd5 Th3 Cd4 Ir4'
_cell_volume   722.57310366
_cell_formula_units_Z   1
loop_
 _symmetry_equiv_pos_site_id
 _symmetry_equiv_pos_as_xyz
  1  'x, y, z'
loop_
 _atom_site_type_symbol
 _atom_site_label
 _atom_site_symmetry_multiplicity
 _atom_site_fract_x
 _atom_site_fract_y
 _atom_site_fract_z
 _atom_site_occupancy
  La  La0  1  0.956376  0.347703  0.347703  1
  La  La1  1  0.807415  0.192607  0.192607  1
  La  La2  1  0.192504  0.807332  0.807332  1
  La  La3  1  0.193119  0.808348  0.191680  1
  La  La4  1  0.806298  0.192561  0.807373  1
  La  La5  1  0.193119  0.191680  0.808348  1
  La  La6  1  0.806298  0.807373  0.192561  1
  La  La7  1  0.939730  0.563491  0.563491  1
  Nd  Nd8  1  0.561476  0.937130  0.937130  1
  Nd  Nd9  1  0.561136  0.940315  0.563107  1
  Nd  Nd10  1  0.938356  0.562184  0.935767  1
  Nd  Nd11  1  0.561136  0.563107  0.940315  1
  Nd  Nd12  1  0.938356  0.935767  0.562184  1
  Th  Th13  1  0.344834  0.345104  0.345104  1
  Th  Th14  1  0.345817  0.345802  0.962113  1
  Th  Th15  1  0.345817  0.962113  0.345802  1
  Cd  Cd16  1  0.576922  0.581110  0.581110  1
  Cd  Cd17  1  0.578145  0.581772  0.258826  1
  Cd  Cd18  1  0.578145  0.258826  0.581772  1
  Cd  Cd19  1  0.258623  0.581091  0.581091  1
  Ir  Ir20  1  0.150578  0.141392  0.141392  1
  Ir  Ir21  1  0.151241  0.140386  0.567245  1
  Ir  Ir22  1  0.151241  0.567245  0.140386  1
  Ir  Ir23  1  0.563312  0.145558  0.145558  1
