# generated using pymatgen
data_YHoFe6(CoB4)2
_symmetry_space_group_name_H-M   'P 1'
_cell_length_a   6.95669353
_cell_length_b   6.93585802
_cell_length_c   3.81004600
_cell_angle_alpha   90.00000000
_cell_angle_beta   90.00000000
_cell_angle_gamma   90.30279957
_symmetry_Int_Tables_number   1
_chemical_formula_structural   YHoFe6(CoB4)2
_chemical_formula_sum   'Y1 Ho1 Fe6 Co2 B8'
_cell_volume   183.83458545
_cell_formula_units_Z   1
loop_
 _symmetry_equiv_pos_site_id
 _symmetry_equiv_pos_as_xyz
  1  'x, y, z'
loop_
 _atom_site_type_symbol
 _atom_site_label
 _atom_site_symmetry_multiplicity
 _atom_site_fract_x
 _atom_site_fract_y
 _atom_site_fract_z
 _atom_site_occupancy
  Y  Y0  1  0.000000  0.000000  0.003249  1
  Ho  Ho1  1  0.500000  0.500000  0.501237  1
  Fe  Fe2  1  0.385568  0.132450  0.891950  1
  Fe  Fe3  1  0.614432  0.867550  0.891950  1
  Fe  Fe4  1  0.367278  0.884807  0.391713  1
  Fe  Fe5  1  0.632722  0.115193  0.391713  1
  Fe  Fe6  1  0.115504  0.367658  0.608319  1
  Fe  Fe7  1  0.884496  0.632342  0.608319  1
  Co  Co8  1  0.135818  0.615170  0.108614  1
  Co  Co9  1  0.864182  0.384830  0.108614  1
  B  B10  1  0.796259  0.666824  0.104922  1
  B  B11  1  0.203741  0.333176  0.104922  1
  B  B12  1  0.835785  0.298897  0.604738  1
  B  B13  1  0.164215  0.701103  0.604738  1
  B  B14  1  0.699546  0.833161  0.394841  1
  B  B15  1  0.300454  0.166839  0.394841  1
  B  B16  1  0.665985  0.197191  0.892661  1
  B  B17  1  0.334015  0.802809  0.892661  1
