# generated using pymatgen
data_Nd2Al6Si4Pt
_symmetry_space_group_name_H-M   'P 1'
_cell_length_a   4.24020632
_cell_length_b   4.23366869
_cell_length_c   17.14683286
_cell_angle_alpha   97.09144722
_cell_angle_beta   89.96963281
_cell_angle_gamma   119.94899877
_symmetry_Int_Tables_number   1
_chemical_formula_structural   Nd2Al6Si4Pt
_chemical_formula_sum   'Nd2 Al6 Si4 Pt1'
_cell_volume   264.00192859
_cell_formula_units_Z   1
loop_
 _symmetry_equiv_pos_site_id
 _symmetry_equiv_pos_as_xyz
  1  'x, y, z'
loop_
 _atom_site_type_symbol
 _atom_site_label
 _atom_site_symmetry_multiplicity
 _atom_site_fract_x
 _atom_site_fract_y
 _atom_site_fract_z
 _atom_site_occupancy
  Nd  Nd0  1  0.433832  0.868129  0.302424  1
  Nd  Nd1  1  0.566169  0.131872  0.697576  1
  Al  Al2  1  0.681292  0.364657  0.048024  1
  Al  Al3  1  0.052879  0.102387  0.151894  1
  Al  Al4  1  0.813866  0.629254  0.444643  1
  Al  Al5  1  0.186134  0.370747  0.555357  1
  Al  Al6  1  0.947121  0.897614  0.848106  1
  Al  Al7  1  0.318709  0.635343  0.951976  1
  Si  Si8  1  0.733224  0.464762  0.196301  1
  Si  Si9  1  0.136873  0.273492  0.410109  1
  Si  Si10  1  0.863127  0.726509  0.589892  1
  Si  Si11  1  0.266776  0.535239  0.803699  1
  Pt  Pt12  1  0.000000  0.000000  0.000000  1
