# generated using pymatgen
data_Rb3Tl(In3Te5)4
_symmetry_space_group_name_H-M   'P 1'
_cell_length_a   11.34361557
_cell_length_b   11.34361563
_cell_length_c   11.34361700
_cell_angle_alpha   90.29027299
_cell_angle_beta   90.29026289
_cell_angle_gamma   90.29026854
_symmetry_Int_Tables_number   1
_chemical_formula_structural   Rb3Tl(In3Te5)4
_chemical_formula_sum   'Rb3 Tl1 In12 Te20'
_cell_volume   1459.61319362
_cell_formula_units_Z   1
loop_
 _symmetry_equiv_pos_site_id
 _symmetry_equiv_pos_as_xyz
  1  'x, y, z'
loop_
 _atom_site_type_symbol
 _atom_site_label
 _atom_site_symmetry_multiplicity
 _atom_site_fract_x
 _atom_site_fract_y
 _atom_site_fract_z
 _atom_site_occupancy
  Rb  Rb0  1  0.257337  0.000000  0.742663  1
  Rb  Rb1  1  0.742663  0.257337  0.000000  1
  Rb  Rb2  1  0.000000  0.742663  0.257337  1
  Tl  Tl3  1  0.500000  0.500000  0.500000  1
  In  In4  1  0.835980  0.881070  0.575537  1
  In  In5  1  0.575537  0.835980  0.881070  1
  In  In6  1  0.881070  0.575537  0.835980  1
  In  In7  1  0.164020  0.424463  0.118930  1
  In  In8  1  0.118930  0.164020  0.424463  1
  In  In9  1  0.424463  0.118930  0.164020  1
  In  In10  1  0.742060  0.165047  0.348019  1
  In  In11  1  0.348019  0.742060  0.165047  1
  In  In12  1  0.165047  0.348019  0.742060  1
  In  In13  1  0.257940  0.651981  0.834953  1
  In  In14  1  0.834953  0.257940  0.651981  1
  In  In15  1  0.651981  0.834953  0.257940  1
  Te  Te16  1  0.181150  0.818850  0.000000  1
  Te  Te17  1  0.818850  0.000000  0.181150  1
  Te  Te18  1  0.173006  0.173006  0.173006  1
  Te  Te19  1  0.826994  0.826994  0.826994  1
  Te  Te20  1  0.000000  0.181150  0.818850  1
  Te  Te21  1  0.929543  0.500000  0.070457  1
  Te  Te22  1  0.070457  0.929543  0.500000  1
  Te  Te23  1  0.500000  0.070457  0.929543  1
  Te  Te24  1  0.736142  0.693081  0.442118  1
  Te  Te25  1  0.442118  0.736142  0.693081  1
  Te  Te26  1  0.693081  0.442118  0.736142  1
  Te  Te27  1  0.263858  0.557882  0.306919  1
  Te  Te28  1  0.306919  0.263858  0.557882  1
  Te  Te29  1  0.557882  0.306919  0.263858  1
  Te  Te30  1  0.673636  0.073992  0.575436  1
  Te  Te31  1  0.575436  0.673636  0.073992  1
  Te  Te32  1  0.073992  0.575436  0.673636  1
  Te  Te33  1  0.326364  0.424564  0.926008  1
  Te  Te34  1  0.926008  0.326364  0.424564  1
  Te  Te35  1  0.424564  0.926008  0.326364  1
