# generated using pymatgen
data_Pr2CrSiO8
_symmetry_space_group_name_H-M   'P 1'
_cell_length_a   6.11691488
_cell_length_b   6.11691506
_cell_length_c   6.11691506
_cell_angle_alpha   105.85660220
_cell_angle_beta   105.85661078
_cell_angle_gamma   116.97094228
_symmetry_Int_Tables_number   1
_chemical_formula_structural   Pr2CrSiO8
_chemical_formula_sum   'Pr2 Cr1 Si1 O8'
_cell_volume   173.89561630
_cell_formula_units_Z   1
loop_
 _symmetry_equiv_pos_site_id
 _symmetry_equiv_pos_as_xyz
  1  'x, y, z'
loop_
 _atom_site_type_symbol
 _atom_site_label
 _atom_site_symmetry_multiplicity
 _atom_site_fract_x
 _atom_site_fract_y
 _atom_site_fract_z
 _atom_site_occupancy
  Pr  Pr0  1  0.250000  0.750000  0.500000  1
  Pr  Pr1  1  0.000000  0.000000  0.000000  1
  Cr  Cr2  1  0.500000  0.500000  0.000000  1
  Si  Si3  1  0.750000  0.250000  0.500000  1
  O  O4  1  0.482822  0.659575  0.823248  1
  O  O5  1  0.340425  0.163672  0.823248  1
  O  O6  1  0.340425  0.517178  0.176752  1
  O  O7  1  0.836328  0.659575  0.176752  1
  O  O8  1  0.409360  0.084846  0.324514  1
  O  O9  1  0.915154  0.590640  0.675486  1
  O  O10  1  0.915154  0.239667  0.324514  1
  O  O11  1  0.760333  0.084846  0.675486  1
