# generated using pymatgen
data_Tm4MgAl(B2Ir5)2
_symmetry_space_group_name_H-M   'P 1'
_cell_length_a   9.59925100
_cell_length_b   9.59925100
_cell_length_c   3.12775700
_cell_angle_alpha   90.00000000
_cell_angle_beta   90.00000000
_cell_angle_gamma   90.00000000
_symmetry_Int_Tables_number   1
_chemical_formula_structural   Tm4MgAl(B2Ir5)2
_chemical_formula_sum   'Tm4 Mg1 Al1 B4 Ir10'
_cell_volume   288.20910723
_cell_formula_units_Z   1
loop_
 _symmetry_equiv_pos_site_id
 _symmetry_equiv_pos_as_xyz
  1  'x, y, z'
loop_
 _atom_site_type_symbol
 _atom_site_label
 _atom_site_symmetry_multiplicity
 _atom_site_fract_x
 _atom_site_fract_y
 _atom_site_fract_z
 _atom_site_occupancy
  Tm  Tm0  1  0.176269  0.676791  0.000000  1
  Tm  Tm1  1  0.323209  0.176269  0.000000  1
  Tm  Tm2  1  0.676791  0.823731  0.000000  1
  Tm  Tm3  1  0.823731  0.323209  0.000000  1
  Mg  Mg4  1  0.000000  0.000000  0.000000  1
  Al  Al5  1  0.500000  0.500000  0.000000  1
  B  B6  1  0.121992  0.376216  0.000000  1
  B  B7  1  0.376216  0.878008  0.000000  1
  B  B8  1  0.623784  0.121992  0.000000  1
  B  B9  1  0.878008  0.623784  0.000000  1
  Ir  Ir10  1  0.000000  0.500000  0.500000  1
  Ir  Ir11  1  0.070727  0.222815  0.500000  1
  Ir  Ir12  1  0.222815  0.929273  0.500000  1
  Ir  Ir13  1  0.282657  0.432581  0.500000  1
  Ir  Ir14  1  0.432581  0.717343  0.500000  1
  Ir  Ir15  1  0.500000  0.000000  0.500000  1
  Ir  Ir16  1  0.567419  0.282657  0.500000  1
  Ir  Ir17  1  0.717343  0.567419  0.500000  1
  Ir  Ir18  1  0.777185  0.070727  0.500000  1
  Ir  Ir19  1  0.929273  0.777185  0.500000  1
