# generated using pymatgen
data_Zr6Zn22PdC
_symmetry_space_group_name_H-M   'P 1'
_cell_length_a   8.69989381
_cell_length_b   8.69989369
_cell_length_c   8.69989400
_cell_angle_alpha   59.99999883
_cell_angle_beta   59.99999929
_cell_angle_gamma   59.99999248
_symmetry_Int_Tables_number   1
_chemical_formula_structural   Zr6Zn22PdC
_chemical_formula_sum   'Zr6 Zn22 Pd1 C1'
_cell_volume   465.61485781
_cell_formula_units_Z   1
loop_
 _symmetry_equiv_pos_site_id
 _symmetry_equiv_pos_as_xyz
  1  'x, y, z'
loop_
 _atom_site_type_symbol
 _atom_site_label
 _atom_site_symmetry_multiplicity
 _atom_site_fract_x
 _atom_site_fract_y
 _atom_site_fract_z
 _atom_site_occupancy
  Zr  Zr0  1  0.689596  0.310404  0.310404  1
  Zr  Zr1  1  0.310404  0.689596  0.689596  1
  Zr  Zr2  1  0.310404  0.689596  0.310404  1
  Zr  Zr3  1  0.689596  0.310404  0.689596  1
  Zr  Zr4  1  0.310404  0.310404  0.689596  1
  Zr  Zr5  1  0.689596  0.689596  0.310404  1
  Zn  Zn6  1  0.120098  0.120098  0.120098  1
  Zn  Zn7  1  0.879902  0.879902  0.879902  1
  Zn  Zn8  1  0.120098  0.120098  0.639708  1
  Zn  Zn9  1  0.120098  0.639708  0.120098  1
  Zn  Zn10  1  0.879902  0.879902  0.360292  1
  Zn  Zn11  1  0.879902  0.360292  0.879902  1
  Zn  Zn12  1  0.639708  0.120098  0.120098  1
  Zn  Zn13  1  0.360292  0.879902  0.879902  1
  Zn  Zn14  1  0.500000  0.000000  0.000000  1
  Zn  Zn15  1  0.000000  0.500000  0.500000  1
  Zn  Zn16  1  0.000000  0.500000  0.000000  1
  Zn  Zn17  1  0.500000  0.000000  0.500000  1
  Zn  Zn18  1  0.000000  0.000000  0.500000  1
  Zn  Zn19  1  0.500000  0.500000  0.000000  1
  Zn  Zn20  1  0.330703  0.330703  0.330703  1
  Zn  Zn21  1  0.669297  0.669297  0.669297  1
  Zn  Zn22  1  0.330703  0.330703  0.007891  1
  Zn  Zn23  1  0.330703  0.007891  0.330703  1
  Zn  Zn24  1  0.669297  0.669297  0.992109  1
  Zn  Zn25  1  0.669297  0.992109  0.669297  1
  Zn  Zn26  1  0.007891  0.330703  0.330703  1
  Zn  Zn27  1  0.992109  0.669297  0.669297  1
  Pd  Pd28  1  0.000000  0.000000  0.000000  1
  C  C29  1  0.500000  0.500000  0.500000  1
