# generated using pymatgen
data_Tb6YbNiBr12
_symmetry_space_group_name_H-M   'P 1'
_cell_length_a   9.24667618
_cell_length_b   9.24667617
_cell_length_c   9.24667644
_cell_angle_alpha   106.74451510
_cell_angle_beta   106.74451991
_cell_angle_gamma   106.74451376
_symmetry_Int_Tables_number   1
_chemical_formula_structural   Tb6YbNiBr12
_chemical_formula_sum   'Tb6 Yb1 Ni1 Br12'
_cell_volume   662.95467660
_cell_formula_units_Z   1
loop_
 _symmetry_equiv_pos_site_id
 _symmetry_equiv_pos_as_xyz
  1  'x, y, z'
loop_
 _atom_site_type_symbol
 _atom_site_label
 _atom_site_symmetry_multiplicity
 _atom_site_fract_x
 _atom_site_fract_y
 _atom_site_fract_z
 _atom_site_occupancy
  Tb  Tb0  1  0.101589  0.023950  0.307457  1
  Tb  Tb1  1  0.023950  0.307457  0.101589  1
  Tb  Tb2  1  0.307457  0.101589  0.023950  1
  Tb  Tb3  1  0.898410  0.976050  0.692543  1
  Tb  Tb4  1  0.976050  0.692543  0.898410  1
  Tb  Tb5  1  0.692543  0.898410  0.976050  1
  Yb  Yb6  1  0.500000  0.500000  0.500000  1
  Ni  Ni7  1  0.000000  0.000000  0.000000  1
  Br  Br8  1  0.074018  0.678909  0.220784  1
  Br  Br9  1  0.678909  0.220784  0.074018  1
  Br  Br10  1  0.220784  0.074018  0.678909  1
  Br  Br11  1  0.925982  0.321091  0.779216  1
  Br  Br12  1  0.321091  0.779216  0.925982  1
  Br  Br13  1  0.779216  0.925982  0.321091  1
  Br  Br14  1  0.454974  0.158271  0.377364  1
  Br  Br15  1  0.158271  0.377364  0.454974  1
  Br  Br16  1  0.377364  0.454974  0.158271  1
  Br  Br17  1  0.545026  0.841729  0.622636  1
  Br  Br18  1  0.841729  0.622636  0.545026  1
  Br  Br19  1  0.622636  0.545026  0.841729  1
