# generated using pymatgen
data_Rb2Nd10Fe2Br17
_symmetry_space_group_name_H-M   'P 1'
_cell_length_a   9.55769340
_cell_length_b   11.02841484
_cell_length_c   11.02844519
_cell_angle_alpha   106.99504256
_cell_angle_beta   93.48333292
_cell_angle_gamma   93.48304887
_symmetry_Int_Tables_number   1
_chemical_formula_structural   Rb2Nd10Fe2Br17
_chemical_formula_sum   'Rb2 Nd10 Fe2 Br17'
_cell_volume   1105.88814815
_cell_formula_units_Z   1
loop_
 _symmetry_equiv_pos_site_id
 _symmetry_equiv_pos_as_xyz
  1  'x, y, z'
loop_
 _atom_site_type_symbol
 _atom_site_label
 _atom_site_symmetry_multiplicity
 _atom_site_fract_x
 _atom_site_fract_y
 _atom_site_fract_z
 _atom_site_occupancy
  Rb  Rb0  1  0.999998  0.822657  0.177367  1
  Rb  Rb1  1  0.999998  0.177365  0.822660  1
  Nd  Nd2  1  0.440172  0.166141  0.166140  1
  Nd  Nd3  1  0.573278  0.505963  0.206200  1
  Nd  Nd4  1  0.825453  0.291619  0.291618  1
  Nd  Nd5  1  0.303234  0.431457  0.431451  1
  Nd  Nd6  1  0.426724  0.793847  0.494019  1
  Nd  Nd7  1  0.573281  0.206198  0.505963  1
  Nd  Nd8  1  0.696755  0.568512  0.568511  1
  Nd  Nd9  1  0.174534  0.708373  0.708373  1
  Nd  Nd10  1  0.426725  0.494019  0.793845  1
  Nd  Nd11  1  0.559850  0.833868  0.833865  1
  Fe  Fe12  1  0.569200  0.360064  0.360063  1
  Fe  Fe13  1  0.430782  0.639911  0.639909  1
  Br  Br14  1  0.578426  0.686880  0.022468  1
  Br  Br15  1  0.714707  0.067109  0.067110  1
  Br  Br16  1  0.856445  0.450855  0.118089  1
  Br  Br17  1  0.132791  0.207279  0.207280  1
  Br  Br18  1  0.284078  0.604019  0.256344  1
  Br  Br19  1  0.421555  0.977549  0.313132  1
  Br  Br20  1  0.715937  0.743636  0.395954  1
  Br  Br21  1  0.856446  0.118088  0.450857  1
  Br  Br22  1  0.000011  0.499991  0.499991  1
  Br  Br23  1  0.143566  0.881928  0.549158  1
  Br  Br24  1  0.284081  0.256348  0.604025  1
  Br  Br25  1  0.578426  0.022469  0.686879  1
  Br  Br26  1  0.715936  0.395953  0.743636  1
  Br  Br27  1  0.867203  0.792715  0.792716  1
  Br  Br28  1  0.143566  0.549158  0.881929  1
  Br  Br29  1  0.285287  0.932899  0.932899  1
  Br  Br30  1  0.421556  0.313132  0.977549  1
