# generated using pymatgen
data_Dy3Er2Tm7Ni4
_symmetry_space_group_name_H-M   'P 1'
_cell_length_a   6.29789408
_cell_length_b   6.75033380
_cell_length_c   9.44885302
_cell_angle_alpha   90.00151663
_cell_angle_beta   89.99288351
_cell_angle_gamma   90.04374740
_symmetry_Int_Tables_number   1
_chemical_formula_structural   Dy3Er2Tm7Ni4
_chemical_formula_sum   'Dy3 Er2 Tm7 Ni4'
_cell_volume   401.69790326
_cell_formula_units_Z   1
loop_
 _symmetry_equiv_pos_site_id
 _symmetry_equiv_pos_as_xyz
  1  'x, y, z'
loop_
 _atom_site_type_symbol
 _atom_site_label
 _atom_site_symmetry_multiplicity
 _atom_site_fract_x
 _atom_site_fract_y
 _atom_site_fract_z
 _atom_site_occupancy
  Dy  Dy0  1  0.636097  0.030777  0.250053  1
  Dy  Dy1  1  0.364461  0.969430  0.749966  1
  Dy  Dy2  1  0.135960  0.468353  0.749975  1
  Er  Er3  1  0.864235  0.532023  0.250020  1
  Er  Er4  1  0.179595  0.178596  0.066569  1
  Tm  Tm5  1  0.820274  0.821108  0.934625  1
  Tm  Tm6  1  0.680390  0.322256  0.934774  1
  Tm  Tm7  1  0.820306  0.821116  0.565359  1
  Tm  Tm8  1  0.319059  0.678018  0.066044  1
  Tm  Tm9  1  0.179573  0.178588  0.433405  1
  Tm  Tm10  1  0.319016  0.678028  0.433957  1
  Tm  Tm11  1  0.680423  0.322228  0.565183  1
  Ni  Ni12  1  0.448562  0.394591  0.250046  1
  Ni  Ni13  1  0.555112  0.606809  0.750005  1
  Ni  Ni14  1  0.943778  0.106714  0.749968  1
  Ni  Ni15  1  0.053159  0.891366  0.250050  1
