# generated using pymatgen
data_CeDyZn(SiRh2)3
_symmetry_space_group_name_H-M   'P 1'
_cell_length_a   6.66685844
_cell_length_b   6.66159144
_cell_length_c   6.66685974
_cell_angle_alpha   130.33151324
_cell_angle_beta   113.47302657
_cell_angle_gamma   87.41791882
_symmetry_Int_Tables_number   1
_chemical_formula_structural   CeDyZn(SiRh2)3
_chemical_formula_sum   'Ce1 Dy1 Zn1 Si3 Rh6'
_cell_volume   197.21797746
_cell_formula_units_Z   1
loop_
 _symmetry_equiv_pos_site_id
 _symmetry_equiv_pos_as_xyz
  1  'x, y, z'
loop_
 _atom_site_type_symbol
 _atom_site_label
 _atom_site_symmetry_multiplicity
 _atom_site_fract_x
 _atom_site_fract_y
 _atom_site_fract_z
 _atom_site_occupancy
  Ce  Ce0  1  0.753832  0.046636  0.292804  1
  Dy  Dy1  1  0.248282  0.940744  0.692462  1
  Zn  Zn2  1  0.093881  0.287166  0.193285  1
  Si  Si3  1  0.937301  0.742447  0.805146  1
  Si  Si4  1  0.401606  0.603995  0.202388  1
  Si  Si5  1  0.568742  0.372376  0.803634  1
  Rh  Rh6  1  0.531051  0.506718  0.533793  1
  Rh  Rh7  1  0.972925  0.506718  0.975666  1
  Rh  Rh8  1  0.289286  0.995203  0.288388  1
  Rh  Rh9  1  0.706815  0.995203  0.705917  1
  Rh  Rh10  1  0.226907  0.501398  0.732026  1
  Rh  Rh11  1  0.769371  0.501398  0.274491  1
