# generated using pymatgen
data_Nb12Fe9Os3C4
_symmetry_space_group_name_H-M   'P 1'
_cell_length_a   8.12552643
_cell_length_b   8.12552643
_cell_length_c   8.12552636
_cell_angle_alpha   60.19497078
_cell_angle_beta   60.19497640
_cell_angle_gamma   60.19497324
_symmetry_Int_Tables_number   1
_chemical_formula_structural   Nb12Fe9Os3C4
_chemical_formula_sum   'Nb12 Fe9 Os3 C4'
_cell_volume   381.02435853
_cell_formula_units_Z   1
loop_
 _symmetry_equiv_pos_site_id
 _symmetry_equiv_pos_as_xyz
  1  'x, y, z'
loop_
 _atom_site_type_symbol
 _atom_site_label
 _atom_site_symmetry_multiplicity
 _atom_site_fract_x
 _atom_site_fract_y
 _atom_site_fract_z
 _atom_site_occupancy
  Nb  Nb0  1  0.804838  0.804838  0.195823  1
  Nb  Nb1  1  0.194598  0.194598  0.805289  1
  Nb  Nb2  1  0.804838  0.195823  0.804838  1
  Nb  Nb3  1  0.194598  0.805289  0.194598  1
  Nb  Nb4  1  0.195823  0.804838  0.804838  1
  Nb  Nb5  1  0.805289  0.194598  0.194598  1
  Nb  Nb6  1  0.445162  0.445162  0.054177  1
  Nb  Nb7  1  0.055402  0.055402  0.444711  1
  Nb  Nb8  1  0.445162  0.054177  0.445162  1
  Nb  Nb9  1  0.055402  0.444711  0.055402  1
  Nb  Nb10  1  0.054177  0.445162  0.445162  1
  Nb  Nb11  1  0.444711  0.055402  0.055402  1
  Fe  Fe12  1  0.625000  0.625000  0.625000  1
  Fe  Fe13  1  0.727039  0.428450  0.428450  1
  Fe  Fe14  1  0.428450  0.727039  0.428450  1
  Fe  Fe15  1  0.428450  0.428450  0.727039  1
  Fe  Fe16  1  0.423347  0.423347  0.423347  1
  Fe  Fe17  1  0.522961  0.821550  0.821550  1
  Fe  Fe18  1  0.821550  0.522961  0.821550  1
  Fe  Fe19  1  0.821550  0.821550  0.522961  1
  Fe  Fe20  1  0.826653  0.826653  0.826653  1
  Os  Os21  1  0.125000  0.625000  0.625000  1
  Os  Os22  1  0.625000  0.125000  0.625000  1
  Os  Os23  1  0.625000  0.625000  0.125000  1
  C  C24  1  0.625000  0.125000  0.125000  1
  C  C25  1  0.125000  0.625000  0.125000  1
  C  C26  1  0.125000  0.125000  0.625000  1
  C  C27  1  0.125000  0.125000  0.125000  1
