# generated using pymatgen
data_Ce2Fe14(SiC)3
_symmetry_space_group_name_H-M   'P 1'
_cell_length_a   6.45228588
_cell_length_b   6.45228595
_cell_length_c   6.45228638
_cell_angle_alpha   84.11675896
_cell_angle_beta   84.11676218
_cell_angle_gamma   84.11675944
_symmetry_Int_Tables_number   1
_chemical_formula_structural   Ce2Fe14(SiC)3
_chemical_formula_sum   'Ce2 Fe14 Si3 C3'
_cell_volume   264.64800857
_cell_formula_units_Z   1
loop_
 _symmetry_equiv_pos_site_id
 _symmetry_equiv_pos_as_xyz
  1  'x, y, z'
loop_
 _atom_site_type_symbol
 _atom_site_label
 _atom_site_symmetry_multiplicity
 _atom_site_fract_x
 _atom_site_fract_y
 _atom_site_fract_z
 _atom_site_occupancy
  Ce  Ce0  1  0.650776  0.650776  0.650776  1
  Ce  Ce1  1  0.349224  0.349224  0.349224  1
  Fe  Fe2  1  0.284866  0.715134  0.000000  1
  Fe  Fe3  1  0.715134  0.000000  0.284866  1
  Fe  Fe4  1  0.000000  0.284866  0.715134  1
  Fe  Fe5  1  0.284866  0.000000  0.715134  1
  Fe  Fe6  1  0.000000  0.715134  0.284866  1
  Fe  Fe7  1  0.715134  0.284866  0.000000  1
  Fe  Fe8  1  0.338939  0.338939  0.864350  1
  Fe  Fe9  1  0.338939  0.864350  0.338939  1
  Fe  Fe10  1  0.864350  0.338939  0.338939  1
  Fe  Fe11  1  0.661061  0.661061  0.135650  1
  Fe  Fe12  1  0.661061  0.135650  0.661061  1
  Fe  Fe13  1  0.135650  0.661061  0.661061  1
  Fe  Fe14  1  0.903160  0.903160  0.903160  1
  Fe  Fe15  1  0.096840  0.096840  0.096840  1
  Si  Si16  1  0.000000  0.000000  0.500000  1
  Si  Si17  1  0.000000  0.500000  0.000000  1
  Si  Si18  1  0.500000  0.000000  0.000000  1
  C  C19  1  0.500000  0.500000  0.000000  1
  C  C20  1  0.500000  0.000000  0.500000  1
  C  C21  1  0.000000  0.500000  0.500000  1
