# generated using pymatgen
data_Na3Ce2EuSe6
_symmetry_space_group_name_H-M   'P 1'
_cell_length_a   7.49179630
_cell_length_b   7.49179625
_cell_length_c   7.39300300
_cell_angle_alpha   99.75408190
_cell_angle_beta   99.75407408
_cell_angle_gamma   120.00869157
_symmetry_Int_Tables_number   1
_chemical_formula_structural   Na3Ce2EuSe6
_chemical_formula_sum   'Na3 Ce2 Eu1 Se6'
_cell_volume   338.06151133
_cell_formula_units_Z   1
loop_
 _symmetry_equiv_pos_site_id
 _symmetry_equiv_pos_as_xyz
  1  'x, y, z'
loop_
 _atom_site_type_symbol
 _atom_site_label
 _atom_site_symmetry_multiplicity
 _atom_site_fract_x
 _atom_site_fract_y
 _atom_site_fract_z
 _atom_site_occupancy
  Na  Na0  1  0.836427  0.163572  0.500000  1
  Na  Na1  1  0.500000  0.500000  0.500000  1
  Na  Na2  1  0.163572  0.836427  0.500000  1
  Ce  Ce3  1  0.666852  0.333148  0.000000  1
  Ce  Ce4  1  0.333148  0.666852  0.000000  1
  Eu  Eu5  1  0.000000  0.000000  0.000000  1
  Se  Se6  1  0.735524  0.735524  0.233881  1
  Se  Se7  1  0.420159  0.077740  0.231989  1
  Se  Se8  1  0.077740  0.420159  0.231989  1
  Se  Se9  1  0.922259  0.579840  0.768012  1
  Se  Se10  1  0.579840  0.922259  0.768012  1
  Se  Se11  1  0.264475  0.264475  0.766120  1
