# generated using pymatgen
data_Th3Co9(SiB2)2
_symmetry_space_group_name_H-M   'P 1'
_cell_length_a   5.19743502
_cell_length_b   5.19738891
_cell_length_c   9.52829700
_cell_angle_alpha   89.99993003
_cell_angle_beta   90.00013629
_cell_angle_gamma   120.00421835
_symmetry_Int_Tables_number   1
_chemical_formula_structural   Th3Co9(SiB2)2
_chemical_formula_sum   'Th3 Co9 Si2 B4'
_cell_volume   222.89572499
_cell_formula_units_Z   1
loop_
 _symmetry_equiv_pos_site_id
 _symmetry_equiv_pos_as_xyz
  1  'x, y, z'
loop_
 _atom_site_type_symbol
 _atom_site_label
 _atom_site_symmetry_multiplicity
 _atom_site_fract_x
 _atom_site_fract_y
 _atom_site_fract_z
 _atom_site_occupancy
  Th  Th0  1  0.999987  0.000000  0.999971  1
  Th  Th1  1  0.999993  0.999998  0.336949  1
  Th  Th2  1  0.999997  0.999999  0.663072  1
  Co  Co3  1  0.499997  0.000002  0.499989  1
  Co  Co4  1  0.499996  0.499999  0.500018  1
  Co  Co5  1  0.999996  0.499999  0.500010  1
  Co  Co6  1  0.499992  0.000000  0.194043  1
  Co  Co7  1  0.499989  0.499999  0.193969  1
  Co  Co8  1  0.999991  0.500002  0.193929  1
  Co  Co9  1  0.499998  0.000000  0.805971  1
  Co  Co10  1  0.499997  0.499999  0.805992  1
  Co  Co11  1  0.999998  0.500001  0.806099  1
  Si  Si12  1  0.333302  0.666715  0.999954  1
  Si  Si13  1  0.666682  0.333287  0.999953  1
  B  B14  1  0.333127  0.666582  0.344473  1
  B  B15  1  0.666860  0.333417  0.344473  1
  B  B16  1  0.666710  0.333381  0.655568  1
  B  B17  1  0.333286  0.666619  0.655568  1
