# generated using pymatgen
data_Yb2SmTh5(Pt2Pb)4
_symmetry_space_group_name_H-M   'P 1'
_cell_length_a   8.09589206
_cell_length_b   8.09677410
_cell_length_c   7.37806600
_cell_angle_alpha   90.00000000
_cell_angle_beta   90.00000000
_cell_angle_gamma   90.44796664
_symmetry_Int_Tables_number   1
_chemical_formula_structural   Yb2SmTh5(Pt2Pb)4
_chemical_formula_sum   'Yb2 Sm1 Th5 Pt8 Pb4'
_cell_volume   483.62193844
_cell_formula_units_Z   1
loop_
 _symmetry_equiv_pos_site_id
 _symmetry_equiv_pos_as_xyz
  1  'x, y, z'
loop_
 _atom_site_type_symbol
 _atom_site_label
 _atom_site_symmetry_multiplicity
 _atom_site_fract_x
 _atom_site_fract_y
 _atom_site_fract_z
 _atom_site_occupancy
  Yb  Yb0  1  0.662654  0.663038  0.500000  1
  Yb  Yb1  1  0.159061  0.839812  0.000000  1
  Sm  Sm2  1  0.840304  0.158175  0.000000  1
  Th  Th3  1  0.676455  0.677065  0.000000  1
  Th  Th4  1  0.342066  0.343063  0.500000  1
  Th  Th5  1  0.824909  0.173082  0.500000  1
  Th  Th6  1  0.324912  0.325515  0.000000  1
  Th  Th7  1  0.174212  0.823699  0.500000  1
  Pt  Pt8  1  0.873473  0.873403  0.733277  1
  Pt  Pt9  1  0.132265  0.131714  0.732773  1
  Pt  Pt10  1  0.627080  0.369614  0.765375  1
  Pt  Pt11  1  0.627080  0.369614  0.234625  1
  Pt  Pt12  1  0.369579  0.626520  0.233809  1
  Pt  Pt13  1  0.132265  0.131714  0.267227  1
  Pt  Pt14  1  0.873473  0.873403  0.266723  1
  Pt  Pt15  1  0.369579  0.626520  0.766191  1
  Pb  Pb16  1  0.500629  0.993517  0.751587  1
  Pb  Pb17  1  0.500629  0.993517  0.248413  1
  Pb  Pb18  1  0.994689  0.503508  0.751044  1
  Pb  Pb19  1  0.994689  0.503508  0.248956  1
