# generated using pymatgen
data_Sm8Ho12Ga7Si9
_symmetry_space_group_name_H-M   'P 1'
_cell_length_a   7.52016411
_cell_length_b   7.88770623
_cell_length_c   15.03388000
_cell_angle_alpha   90.00088620
_cell_angle_beta   89.99023250
_cell_angle_gamma   89.98605340
_symmetry_Int_Tables_number   1
_chemical_formula_structural   Sm8Ho12Ga7Si9
_chemical_formula_sum   'Sm8 Ho12 Ga7 Si9'
_cell_volume   891.76229519
_cell_formula_units_Z   1
loop_
 _symmetry_equiv_pos_site_id
 _symmetry_equiv_pos_as_xyz
  1  'x, y, z'
loop_
 _atom_site_type_symbol
 _atom_site_label
 _atom_site_symmetry_multiplicity
 _atom_site_fract_x
 _atom_site_fract_y
 _atom_site_fract_z
 _atom_site_occupancy
  Sm  Sm0  1  0.979503  0.821723  0.095278  1
  Sm  Sm1  1  0.479078  0.678476  0.405319  1
  Sm  Sm2  1  0.520177  0.321681  0.902451  1
  Sm  Sm3  1  0.022211  0.180635  0.597980  1
  Sm  Sm4  1  0.025353  0.178315  0.901530  1
  Sm  Sm5  1  0.523537  0.324286  0.598180  1
  Sm  Sm6  1  0.476124  0.675736  0.095216  1
  Sm  Sm7  1  0.975956  0.823909  0.403991  1
  Ho  Ho8  1  0.655372  0.989626  0.251550  1
  Ho  Ho9  1  0.155975  0.509953  0.248498  1
  Ho  Ho10  1  0.848423  0.491691  0.748536  1
  Ho  Ho11  1  0.343963  0.012588  0.751245  1
  Ho  Ho12  1  0.678877  0.822299  0.875566  1
  Ho  Ho13  1  0.181080  0.675335  0.624379  1
  Ho  Ho14  1  0.820440  0.322159  0.123277  1
  Ho  Ho15  1  0.320254  0.177553  0.376846  1
  Ho  Ho16  1  0.318179  0.177686  0.121572  1
  Ho  Ho17  1  0.818042  0.321917  0.378541  1
  Ho  Ho18  1  0.182582  0.675747  0.877111  1
  Ho  Ho19  1  0.681056  0.822046  0.622846  1
  Ga  Ga20  1  0.765473  0.623307  0.249846  1
  Ga  Ga21  1  0.265721  0.877073  0.250233  1
  Ga  Ga22  1  0.731717  0.123017  0.750237  1
  Ga  Ga23  1  0.848663  0.531924  0.959141  1
  Ga  Ga24  1  0.347742  0.967373  0.540942  1
  Ga  Ga25  1  0.650818  0.032619  0.039859  1
  Ga  Ga26  1  0.151034  0.467679  0.459620  1
  Si  Si27  1  0.233427  0.379617  0.749612  1
  Si  Si28  1  0.024441  0.114794  0.249481  1
  Si  Si29  1  0.524873  0.384876  0.250540  1
  Si  Si30  1  0.475296  0.611271  0.750609  1
  Si  Si31  1  0.976297  0.883764  0.749437  1
  Si  Si32  1  0.147626  0.468091  0.040099  1
  Si  Si33  1  0.647602  0.032109  0.460346  1
  Si  Si34  1  0.350999  0.967629  0.959605  1
  Si  Si35  1  0.852090  0.531494  0.540481  1
