# generated using pymatgen
data_Ho15Tm5Si15Pt
_symmetry_space_group_name_H-M   'P 1'
_cell_length_a   7.36947097
_cell_length_b   7.70945182
_cell_length_c   14.57604300
_cell_angle_alpha   90.02578122
_cell_angle_beta   90.02934190
_cell_angle_gamma   90.09695810
_symmetry_Int_Tables_number   1
_chemical_formula_structural   Ho15Tm5Si15Pt
_chemical_formula_sum   'Ho15 Tm5 Si15 Pt1'
_cell_volume   828.13040257
_cell_formula_units_Z   1
loop_
 _symmetry_equiv_pos_site_id
 _symmetry_equiv_pos_as_xyz
  1  'x, y, z'
loop_
 _atom_site_type_symbol
 _atom_site_label
 _atom_site_symmetry_multiplicity
 _atom_site_fract_x
 _atom_site_fract_y
 _atom_site_fract_z
 _atom_site_occupancy
  Ho  Ho0  1  0.187383  0.324057  0.875937  1
  Ho  Ho1  1  0.317917  0.820117  0.123564  1
  Ho  Ho2  1  0.817135  0.677565  0.376191  1
  Ho  Ho3  1  0.318059  0.820420  0.376802  1
  Ho  Ho4  1  0.816917  0.677452  0.124001  1
  Ho  Ho5  1  0.679577  0.179387  0.876071  1
  Ho  Ho6  1  0.187456  0.323934  0.623856  1
  Ho  Ho7  1  0.524897  0.681288  0.594784  1
  Ho  Ho8  1  0.027010  0.817558  0.904132  1
  Ho  Ho9  1  0.473280  0.315883  0.097562  1
  Ho  Ho10  1  0.972692  0.182806  0.402406  1
  Ho  Ho11  1  0.473798  0.316169  0.402798  1
  Ho  Ho12  1  0.972809  0.182667  0.097697  1
  Ho  Ho13  1  0.524845  0.681566  0.905078  1
  Ho  Ho14  1  0.026865  0.817542  0.595654  1
  Tm  Tm15  1  0.678338  0.180061  0.624232  1
  Tm  Tm16  1  0.843892  0.510823  0.749722  1
  Tm  Tm17  1  0.355366  0.984580  0.749885  1
  Tm  Tm18  1  0.148619  0.485839  0.250046  1
  Tm  Tm19  1  0.648494  0.012829  0.250116  1
  Si  Si20  1  0.648555  0.972237  0.459834  1
  Si  Si21  1  0.146691  0.527682  0.040539  1
  Si  Si22  1  0.351128  0.026388  0.959985  1
  Si  Si23  1  0.851412  0.471185  0.540136  1
  Si  Si24  1  0.352452  0.026374  0.540407  1
  Si  Si25  1  0.852548  0.472164  0.959734  1
  Si  Si26  1  0.647510  0.971702  0.040904  1
  Si  Si27  1  0.146559  0.527587  0.459466  1
  Si  Si28  1  0.981315  0.101848  0.749243  1
  Si  Si29  1  0.519013  0.603388  0.250101  1
  Si  Si30  1  0.019255  0.895605  0.250091  1
  Si  Si31  1  0.739301  0.874944  0.749446  1
  Si  Si32  1  0.227421  0.632680  0.749960  1
  Si  Si33  1  0.268832  0.129538  0.250071  1
  Si  Si34  1  0.769140  0.369647  0.250059  1
  Pt  Pt35  1  0.483516  0.404486  0.749491  1
