# generated using pymatgen
data_NdEr4Cr3(P3Ir4)4
_symmetry_space_group_name_H-M   'P 1'
_cell_length_a   12.56359536
_cell_length_b   12.56359430
_cell_length_c   3.99702300
_cell_angle_alpha   90.00000000
_cell_angle_beta   90.00000000
_cell_angle_gamma   119.97242303
_symmetry_Int_Tables_number   1
_chemical_formula_structural   NdEr4Cr3(P3Ir4)4
_chemical_formula_sum   'Nd1 Er4 Cr3 P12 Ir16'
_cell_volume   546.53218190
_cell_formula_units_Z   1
loop_
 _symmetry_equiv_pos_site_id
 _symmetry_equiv_pos_as_xyz
  1  'x, y, z'
loop_
 _atom_site_type_symbol
 _atom_site_label
 _atom_site_symmetry_multiplicity
 _atom_site_fract_x
 _atom_site_fract_y
 _atom_site_fract_z
 _atom_site_occupancy
  Nd  Nd0  1  0.818002  0.818002  0.500000  1
  Er  Er1  1  0.666533  0.333384  0.000000  1
  Er  Er2  1  0.333384  0.666533  0.000000  1
  Er  Er3  1  0.182141  0.000127  0.500000  1
  Er  Er4  1  0.000127  0.182141  0.500000  1
  Cr  Cr5  1  0.293017  0.293017  0.500000  1
  Cr  Cr6  1  0.707124  0.001163  0.500000  1
  Cr  Cr7  1  0.001163  0.707124  0.500000  1
  P  P8  1  0.689865  0.168179  0.500000  1
  P  P9  1  0.832501  0.522612  0.500000  1
  P  P10  1  0.477371  0.309717  0.500000  1
  P  P11  1  0.168179  0.689865  0.500000  1
  P  P12  1  0.522612  0.832501  0.500000  1
  P  P13  1  0.309717  0.477371  0.500000  1
  P  P14  1  0.637616  0.637616  0.000000  1
  P  P15  1  0.360071  0.999973  0.000000  1
  P  P16  1  0.999973  0.360071  0.000000  1
  P  P17  1  0.183531  0.183531  0.000000  1
  P  P18  1  0.817509  0.001500  0.000000  1
  P  P19  1  0.001500  0.817509  0.000000  1
  Ir  Ir20  1  0.806003  0.181164  0.000000  1
  Ir  Ir21  1  0.819688  0.622456  0.000000  1
  Ir  Ir22  1  0.374401  0.193815  0.000000  1
  Ir  Ir23  1  0.181164  0.806003  0.000000  1
  Ir  Ir24  1  0.622456  0.819688  0.000000  1
  Ir  Ir25  1  0.193815  0.374401  0.000000  1
  Ir  Ir26  1  0.453507  0.453507  0.000000  1
  Ir  Ir27  1  0.545258  0.000332  0.000000  1
  Ir  Ir28  1  0.000332  0.545258  0.000000  1
  Ir  Ir29  1  0.868802  0.362028  0.500000  1
  Ir  Ir30  1  0.637525  0.506322  0.500000  1
  Ir  Ir31  1  0.492818  0.131265  0.500000  1
  Ir  Ir32  1  0.362028  0.868802  0.500000  1
  Ir  Ir33  1  0.506322  0.637525  0.500000  1
  Ir  Ir34  1  0.131265  0.492818  0.500000  1
  Ir  Ir35  1  0.002679  0.002679  0.000000  1
