# generated using pymatgen
data_Er3CoSn4Os
_symmetry_space_group_name_H-M   'P 1'
_cell_length_a   7.52433200
_cell_length_b   7.52433180
_cell_length_c   4.04267500
_cell_angle_alpha   90.00000000
_cell_angle_beta   90.00000000
_cell_angle_gamma   119.99999972
_symmetry_Int_Tables_number   1
_chemical_formula_structural   Er3CoSn4Os
_chemical_formula_sum   'Er3 Co1 Sn4 Os1'
_cell_volume   198.21446734
_cell_formula_units_Z   1
loop_
 _symmetry_equiv_pos_site_id
 _symmetry_equiv_pos_as_xyz
  1  'x, y, z'
loop_
 _atom_site_type_symbol
 _atom_site_label
 _atom_site_symmetry_multiplicity
 _atom_site_fract_x
 _atom_site_fract_y
 _atom_site_fract_z
 _atom_site_occupancy
  Er  Er0  1  0.693488  0.942632  0.500000  1
  Er  Er1  1  0.249143  0.306512  0.500000  1
  Er  Er2  1  0.057368  0.750857  0.500000  1
  Co  Co3  1  0.666667  0.333333  0.500000  1
  Sn  Sn4  1  0.900447  0.316523  0.000000  1
  Sn  Sn5  1  0.416078  0.099553  0.000000  1
  Sn  Sn6  1  0.683477  0.583922  0.000000  1
  Sn  Sn7  1  0.333333  0.666667  0.000000  1
  Os  Os8  1  0.000000  0.000000  0.000000  1
