# generated using pymatgen
data_Y5Mo2P12Ru8Rh9
_symmetry_space_group_name_H-M   'P 1'
_cell_length_a   12.55336606
_cell_length_b   12.71084620
_cell_length_c   3.94224100
_cell_angle_alpha   90.00000000
_cell_angle_beta   90.00000000
_cell_angle_gamma   119.85792926
_symmetry_Int_Tables_number   1
_chemical_formula_structural   Y5Mo2P12Ru8Rh9
_chemical_formula_sum   'Y5 Mo2 P12 Ru8 Rh9'
_cell_volume   545.54228221
_cell_formula_units_Z   1
loop_
 _symmetry_equiv_pos_site_id
 _symmetry_equiv_pos_as_xyz
  1  'x, y, z'
loop_
 _atom_site_type_symbol
 _atom_site_label
 _atom_site_symmetry_multiplicity
 _atom_site_fract_x
 _atom_site_fract_y
 _atom_site_fract_z
 _atom_site_occupancy
  Y  Y0  1  0.999428  0.188001  0.500000  1
  Y  Y1  1  0.811437  0.812306  0.500000  1
  Y  Y2  1  0.186972  0.000649  0.500000  1
  Y  Y3  1  0.667614  0.336400  0.000000  1
  Y  Y4  1  0.331728  0.663041  0.000000  1
  Mo  Mo5  1  0.000238  0.557241  0.000000  1
  Mo  Mo6  1  0.444558  0.443149  0.000000  1
  P  P7  1  0.001458  0.823111  0.000000  1
  P  P8  1  0.180690  0.180290  0.000000  1
  P  P9  1  0.815601  0.000930  0.000000  1
  P  P10  1  0.688292  0.170901  0.500000  1
  P  P11  1  0.836301  0.517546  0.500000  1
  P  P12  1  0.484261  0.316243  0.500000  1
  P  P13  1  0.169515  0.681850  0.500000  1
  P  P14  1  0.517172  0.828695  0.500000  1
  P  P15  1  0.317258  0.479195  0.500000  1
  P  P16  1  0.998368  0.370972  0.000000  1
  P  P17  1  0.628435  0.630308  0.000000  1
  P  P18  1  0.367982  0.000557  0.000000  1
  Ru  Ru19  1  0.282054  0.280119  0.500000  1
  Ru  Ru20  1  0.713821  0.000273  0.500000  1
  Ru  Ru21  1  0.873747  0.358503  0.500000  1
  Ru  Ru22  1  0.644258  0.513401  0.500000  1
  Ru  Ru23  1  0.488013  0.127124  0.500000  1
  Ru  Ru24  1  0.359425  0.870483  0.500000  1
  Ru  Ru25  1  0.515373  0.640877  0.500000  1
  Ru  Ru26  1  0.129687  0.485479  0.500000  1
  Rh  Rh27  1  0.547906  0.998631  0.000000  1
  Rh  Rh28  1  0.002567  0.721505  0.500000  1
  Rh  Rh29  1  0.803916  0.180107  0.000000  1
  Rh  Rh30  1  0.821398  0.631219  0.000000  1
  Rh  Rh31  1  0.375842  0.192670  0.000000  1
  Rh  Rh32  1  0.181936  0.807110  0.000000  1
  Rh  Rh33  1  0.624221  0.820096  0.000000  1
  Rh  Rh34  1  0.190505  0.370590  0.000000  1
  Rh  Rh35  1  0.998023  0.000428  0.000000  1
