# generated using pymatgen
data_Ho4Zn4Ir3Pt
_symmetry_space_group_name_H-M   'P 1'
_cell_length_a   4.05090200
_cell_length_b   6.97128446
_cell_length_c   8.12984605
_cell_angle_alpha   89.95804542
_cell_angle_beta   90.00000000
_cell_angle_gamma   90.00000000
_symmetry_Int_Tables_number   1
_chemical_formula_structural   Ho4Zn4Ir3Pt
_chemical_formula_sum   'Ho4 Zn4 Ir3 Pt1'
_cell_volume   229.58671098
_cell_formula_units_Z   1
loop_
 _symmetry_equiv_pos_site_id
 _symmetry_equiv_pos_as_xyz
  1  'x, y, z'
loop_
 _atom_site_type_symbol
 _atom_site_label
 _atom_site_symmetry_multiplicity
 _atom_site_fract_x
 _atom_site_fract_y
 _atom_site_fract_z
 _atom_site_occupancy
  Ho  Ho0  1  0.250000  0.036543  0.321481  1
  Ho  Ho1  1  0.250000  0.546221  0.183678  1
  Ho  Ho2  1  0.750000  0.959238  0.682019  1
  Ho  Ho3  1  0.750000  0.462403  0.813473  1
  Zn  Zn4  1  0.250000  0.636621  0.564358  1
  Zn  Zn5  1  0.250000  0.133928  0.933116  1
  Zn  Zn6  1  0.750000  0.364629  0.438182  1
  Zn  Zn7  1  0.750000  0.861186  0.064289  1
  Ir  Ir8  1  0.250000  0.253484  0.622588  1
  Ir  Ir9  1  0.250000  0.753076  0.878389  1
  Ir  Ir10  1  0.750000  0.746238  0.376646  1
  Pt  Pt11  1  0.750000  0.246433  0.121782  1
