# generated using pymatgen
data_NdDy2ThSe6
_symmetry_space_group_name_H-M   'P 1'
_cell_length_a   11.28379300
_cell_length_b   4.12558500
_cell_length_c   10.96071200
_cell_angle_alpha   90.00000000
_cell_angle_beta   90.00000000
_cell_angle_gamma   90.00000000
_symmetry_Int_Tables_number   1
_chemical_formula_structural   NdDy2ThSe6
_chemical_formula_sum   'Nd2 Dy4 Th2 Se12'
_cell_volume   510.24577390
_cell_formula_units_Z   2
loop_
 _symmetry_equiv_pos_site_id
 _symmetry_equiv_pos_as_xyz
  1  'x, y, z'
loop_
 _atom_site_type_symbol
 _atom_site_label
 _atom_site_symmetry_multiplicity
 _atom_site_fract_x
 _atom_site_fract_y
 _atom_site_fract_z
 _atom_site_occupancy
  Nd  Nd0  1  0.697735  0.750000  0.497665  1
  Nd  Nd1  1  0.197735  0.750000  0.002335  1
  Dy  Dy2  1  0.484769  0.250000  0.188216  1
  Dy  Dy3  1  0.984769  0.250000  0.311784  1
  Dy  Dy4  1  0.513936  0.750000  0.812663  1
  Dy  Dy5  1  0.013936  0.750000  0.687337  1
  Th  Th6  1  0.304707  0.250000  0.496990  1
  Th  Th7  1  0.804707  0.250000  0.003010  1
  Se  Se8  1  0.543341  0.250000  0.629189  1
  Se  Se9  1  0.043341  0.250000  0.870811  1
  Se  Se10  1  0.453326  0.750000  0.370731  1
  Se  Se11  1  0.953326  0.750000  0.129269  1
  Se  Se12  1  0.616024  0.750000  0.055127  1
  Se  Se13  1  0.116024  0.750000  0.444873  1
  Se  Se14  1  0.385016  0.250000  0.945016  1
  Se  Se15  1  0.885016  0.250000  0.554984  1
  Se  Se16  1  0.727342  0.250000  0.293060  1
  Se  Se17  1  0.227342  0.250000  0.206940  1
  Se  Se18  1  0.273805  0.750000  0.699898  1
  Se  Se19  1  0.773805  0.750000  0.800102  1
