# generated using pymatgen
data_Hf18Cu2ReMo5W2
_symmetry_space_group_name_H-M   'P 1'
_cell_length_a   8.72107900
_cell_length_b   8.71931648
_cell_length_c   8.50921100
_cell_angle_alpha   90.00000000
_cell_angle_beta   90.00000000
_cell_angle_gamma   120.00668316
_symmetry_Int_Tables_number   1
_chemical_formula_structural   Hf18Cu2ReMo5W2
_chemical_formula_sum   'Hf18 Cu2 Re1 Mo5 W2'
_cell_volume   560.32930355
_cell_formula_units_Z   1
loop_
 _symmetry_equiv_pos_site_id
 _symmetry_equiv_pos_as_xyz
  1  'x, y, z'
loop_
 _atom_site_type_symbol
 _atom_site_label
 _atom_site_symmetry_multiplicity
 _atom_site_fract_x
 _atom_site_fract_y
 _atom_site_fract_z
 _atom_site_occupancy
  Hf  Hf0  1  0.196694  0.802630  0.054850  1
  Hf  Hf1  1  0.605936  0.802630  0.054850  1
  Hf  Hf2  1  0.802865  0.605730  0.552973  1
  Hf  Hf3  1  0.197610  0.395220  0.053524  1
  Hf  Hf4  1  0.802187  0.197290  0.553466  1
  Hf  Hf5  1  0.395103  0.197290  0.553466  1
  Hf  Hf6  1  0.802865  0.605730  0.947027  1
  Hf  Hf7  1  0.802187  0.197290  0.946534  1
  Hf  Hf8  1  0.395103  0.197290  0.946534  1
  Hf  Hf9  1  0.605936  0.802630  0.445150  1
  Hf  Hf10  1  0.196694  0.802630  0.445150  1
  Hf  Hf11  1  0.197610  0.395220  0.446476  1
  Hf  Hf12  1  0.541664  0.083328  0.250000  1
  Hf  Hf13  1  0.458200  0.916400  0.750000  1
  Hf  Hf14  1  0.916577  0.459444  0.250000  1
  Hf  Hf15  1  0.542866  0.459444  0.250000  1
  Hf  Hf16  1  0.458914  0.542277  0.750000  1
  Hf  Hf17  1  0.083364  0.542277  0.750000  1
  Cu  Cu18  1  0.666995  0.333991  0.750000  1
  Cu  Cu19  1  0.333303  0.666609  0.250000  1
  Re  Re20  1  0.887648  0.775296  0.250000  1
  Mo  Mo21  1  0.111936  0.223872  0.750000  1
  Mo  Mo22  1  0.223282  0.110712  0.250000  1
  Mo  Mo23  1  0.887430  0.110712  0.250000  1
  Mo  Mo24  1  0.111297  0.887469  0.750000  1
  Mo  Mo25  1  0.776172  0.887469  0.750000  1
  W  W26  1  0.999779  0.999560  0.000375  1
  W  W27  1  0.999779  0.999560  0.499625  1
