# generated using pymatgen
data_Li3Ho4Tm(B6Os)4
_symmetry_space_group_name_H-M   'P 1'
_cell_length_a   3.55058900
_cell_length_b   8.90981090
_cell_length_c   11.25996813
_cell_angle_alpha   89.94856735
_cell_angle_beta   90.00000000
_cell_angle_gamma   90.00000000
_symmetry_Int_Tables_number   1
_chemical_formula_structural   Li3Ho4Tm(B6Os)4
_chemical_formula_sum   'Li3 Ho4 Tm1 B24 Os4'
_cell_volume   356.20981052
_cell_formula_units_Z   1
loop_
 _symmetry_equiv_pos_site_id
 _symmetry_equiv_pos_as_xyz
  1  'x, y, z'
loop_
 _atom_site_type_symbol
 _atom_site_label
 _atom_site_symmetry_multiplicity
 _atom_site_fract_x
 _atom_site_fract_y
 _atom_site_fract_z
 _atom_site_occupancy
  Li  Li0  1  0.000000  0.943607  0.372211  1
  Li  Li1  1  0.000000  0.054885  0.625394  1
  Li  Li2  1  0.000000  0.442255  0.130196  1
  Ho  Ho3  1  0.000000  0.321211  0.410466  1
  Ho  Ho4  1  0.000000  0.681356  0.581781  1
  Ho  Ho5  1  0.000000  0.824460  0.090742  1
  Ho  Ho6  1  0.000000  0.177778  0.915944  1
  Tm  Tm7  1  0.000000  0.556171  0.871993  1
  B  B8  1  0.500000  0.554956  0.431870  1
  B  B9  1  0.500000  0.444558  0.565671  1
  B  B10  1  0.500000  0.056232  0.068463  1
  B  B11  1  0.500000  0.948138  0.933233  1
  B  B12  1  0.500000  0.758400  0.417306  1
  B  B13  1  0.500000  0.240362  0.580837  1
  B  B14  1  0.500000  0.256280  0.083910  1
  B  B15  1  0.500000  0.750837  0.919298  1
  B  B16  1  0.500000  0.794258  0.264922  1
  B  B17  1  0.500000  0.203108  0.734685  1
  B  B18  1  0.500000  0.293879  0.236248  1
  B  B19  1  0.500000  0.709522  0.763194  1
  B  B20  1  0.500000  0.626547  0.183616  1
  B  B21  1  0.500000  0.367714  0.815362  1
  B  B22  1  0.500000  0.125351  0.318489  1
  B  B23  1  0.500000  0.876389  0.680033  1
  B  B24  1  0.500000  0.979356  0.214695  1
  B  B25  1  0.500000  0.020936  0.785207  1
  B  B26  1  0.500000  0.478792  0.286568  1
  B  B27  1  0.500000  0.518182  0.711337  1
  B  B28  1  0.500000  0.591077  0.031844  1
  B  B29  1  0.500000  0.403756  0.980137  1
  B  B30  1  0.500000  0.092904  0.473562  1
  B  B31  1  0.500000  0.907561  0.524594  1
  Os  Os32  1  0.000000  0.639734  0.318233  1
  Os  Os33  1  0.000000  0.356407  0.678038  1
  Os  Os34  1  0.000000  0.138980  0.182891  1
  Os  Os35  1  0.000000  0.864063  0.817030  1
