# generated using pymatgen
data_TmHf7(Ta3Si4)4
_symmetry_space_group_name_H-M   'P 1'
_cell_length_a   6.67617416
_cell_length_b   6.84245690
_cell_length_c   13.09008612
_cell_angle_alpha   90.10641972
_cell_angle_beta   89.92927008
_cell_angle_gamma   90.08627270
_symmetry_Int_Tables_number   1
_chemical_formula_structural   TmHf7(Ta3Si4)4
_chemical_formula_sum   'Tm1 Hf7 Ta12 Si16'
_cell_volume   597.97174106
_cell_formula_units_Z   1
loop_
 _symmetry_equiv_pos_site_id
 _symmetry_equiv_pos_as_xyz
  1  'x, y, z'
loop_
 _atom_site_type_symbol
 _atom_site_label
 _atom_site_symmetry_multiplicity
 _atom_site_fract_x
 _atom_site_fract_y
 _atom_site_fract_z
 _atom_site_occupancy
  Tm  Tm0  1  0.497429  0.672013  0.592166  1
  Hf  Hf1  1  0.994218  0.827055  0.908384  1
  Hf  Hf2  1  0.505482  0.327088  0.092632  1
  Hf  Hf3  1  0.005855  0.173501  0.406580  1
  Hf  Hf4  1  0.505602  0.324822  0.405077  1
  Hf  Hf5  1  0.005961  0.173251  0.092840  1
  Hf  Hf6  1  0.494030  0.673329  0.906644  1
  Hf  Hf7  1  0.996838  0.827722  0.593305  1
  Ta  Ta8  1  0.662411  0.169866  0.624419  1
  Ta  Ta9  1  0.161022  0.327199  0.877290  1
  Ta  Ta10  1  0.337854  0.830141  0.123333  1
  Ta  Ta11  1  0.837181  0.670688  0.375969  1
  Ta  Ta12  1  0.335327  0.831887  0.375244  1
  Ta  Ta13  1  0.837165  0.670825  0.123383  1
  Ta  Ta14  1  0.662960  0.170670  0.877632  1
  Ta  Ta15  1  0.159935  0.327109  0.624228  1
  Ta  Ta16  1  0.837447  0.495007  0.751515  1
  Ta  Ta17  1  0.336596  0.004700  0.752207  1
  Ta  Ta18  1  0.162645  0.504345  0.248977  1
  Ta  Ta19  1  0.662998  0.997278  0.249730  1
  Si  Si20  1  0.673531  0.966293  0.459426  1
  Si  Si21  1  0.173129  0.536385  0.038910  1
  Si  Si22  1  0.327527  0.035932  0.961462  1
  Si  Si23  1  0.832171  0.460626  0.537986  1
  Si  Si24  1  0.326065  0.039454  0.537795  1
  Si  Si25  1  0.826812  0.464374  0.961237  1
  Si  Si26  1  0.673234  0.963046  0.039038  1
  Si  Si27  1  0.170571  0.535255  0.459388  1
  Si  Si28  1  0.459521  0.386252  0.751143  1
  Si  Si29  1  0.960349  0.111760  0.750535  1
  Si  Si30  1  0.538920  0.612157  0.250147  1
  Si  Si31  1  0.038925  0.888212  0.249510  1
  Si  Si32  1  0.704742  0.861257  0.751349  1
  Si  Si33  1  0.201005  0.640090  0.751000  1
  Si  Si34  1  0.296954  0.140415  0.249547  1
  Si  Si35  1  0.797587  0.359991  0.249972  1
