# generated using pymatgen
data_Ho3Tm9Ir4
_symmetry_space_group_name_H-M   'P 1'
_cell_length_a   6.32871410
_cell_length_b   7.20621312
_cell_length_c   9.08977300
_cell_angle_alpha   90.00000000
_cell_angle_beta   90.00000000
_cell_angle_gamma   89.97894467
_symmetry_Int_Tables_number   1
_chemical_formula_structural   Ho3Tm9Ir4
_chemical_formula_sum   'Ho3 Tm9 Ir4'
_cell_volume   414.54872883
_cell_formula_units_Z   1
loop_
 _symmetry_equiv_pos_site_id
 _symmetry_equiv_pos_as_xyz
  1  'x, y, z'
loop_
 _atom_site_type_symbol
 _atom_site_label
 _atom_site_symmetry_multiplicity
 _atom_site_fract_x
 _atom_site_fract_y
 _atom_site_fract_z
 _atom_site_occupancy
  Ho  Ho0  1  0.870938  0.533594  0.250000  1
  Ho  Ho1  1  0.629254  0.033599  0.250000  1
  Ho  Ho2  1  0.129437  0.466221  0.750000  1
  Tm  Tm3  1  0.328493  0.677590  0.062275  1
  Tm  Tm4  1  0.172050  0.176954  0.437822  1
  Tm  Tm5  1  0.671589  0.322490  0.562582  1
  Tm  Tm6  1  0.827496  0.822978  0.937294  1
  Tm  Tm7  1  0.671589  0.322490  0.937418  1
  Tm  Tm8  1  0.827496  0.822978  0.562706  1
  Tm  Tm9  1  0.328493  0.677590  0.437725  1
  Tm  Tm10  1  0.172050  0.176954  0.062178  1
  Tm  Tm11  1  0.370299  0.966007  0.750000  1
  Ir  Ir12  1  0.046462  0.883236  0.250000  1
  Ir  Ir13  1  0.453528  0.383176  0.250000  1
  Ir  Ir14  1  0.954971  0.116315  0.750000  1
  Ir  Ir15  1  0.545853  0.617829  0.750000  1
