# generated using pymatgen
data_Eu4MnAl2CrO12
_symmetry_space_group_name_H-M   'P 1'
_cell_length_a   5.40909000
_cell_length_b   5.42153701
_cell_length_c   7.66739240
_cell_angle_alpha   90.15487908
_cell_angle_beta   89.98024876
_cell_angle_gamma   89.99717458
_symmetry_Int_Tables_number   1
_chemical_formula_structural   Eu4MnAl2CrO12
_chemical_formula_sum   'Eu4 Mn1 Al2 Cr1 O12'
_cell_volume   224.84990652
_cell_formula_units_Z   1
loop_
 _symmetry_equiv_pos_site_id
 _symmetry_equiv_pos_as_xyz
  1  'x, y, z'
loop_
 _atom_site_type_symbol
 _atom_site_label
 _atom_site_symmetry_multiplicity
 _atom_site_fract_x
 _atom_site_fract_y
 _atom_site_fract_z
 _atom_site_occupancy
  Eu  Eu0  1  0.506610  0.530433  0.247412  1
  Eu  Eu1  1  0.998095  0.029324  0.247373  1
  Eu  Eu2  1  0.493390  0.469567  0.752588  1
  Eu  Eu3  1  0.001905  0.970676  0.752627  1
  Mn  Mn4  1  0.000000  0.500000  0.500000  1
  Al  Al5  1  0.000000  0.500000  0.000000  1
  Al  Al6  1  0.500000  0.000000  0.500000  1
  Cr  Cr7  1  0.500000  0.000000  0.000000  1
  O  O8  1  0.439857  0.989071  0.258469  1
  O  O9  1  0.065611  0.487493  0.252118  1
  O  O10  1  0.560143  0.010929  0.741531  1
  O  O11  1  0.934389  0.512507  0.747882  1
  O  O12  1  0.795470  0.782379  0.030748  1
  O  O13  1  0.715253  0.286330  0.465115  1
  O  O14  1  0.213167  0.214359  0.534564  1
  O  O15  1  0.281494  0.704875  0.970034  1
  O  O16  1  0.204530  0.217621  0.969252  1
  O  O17  1  0.284747  0.713670  0.534885  1
  O  O18  1  0.786833  0.785641  0.465436  1
  O  O19  1  0.718506  0.295125  0.029966  1
