# generated using pymatgen
data_La2Dy2Zn4Si3Ge
_symmetry_space_group_name_H-M   'P 1'
_cell_length_a   4.24856300
_cell_length_b   4.24856269
_cell_length_c   16.23681700
_cell_angle_alpha   90.00000000
_cell_angle_beta   90.00000000
_cell_angle_gamma   119.99997903
_symmetry_Int_Tables_number   1
_chemical_formula_structural   La2Dy2Zn4Si3Ge
_chemical_formula_sum   'La2 Dy2 Zn4 Si3 Ge1'
_cell_volume   253.81408172
_cell_formula_units_Z   1
loop_
 _symmetry_equiv_pos_site_id
 _symmetry_equiv_pos_as_xyz
  1  'x, y, z'
loop_
 _atom_site_type_symbol
 _atom_site_label
 _atom_site_symmetry_multiplicity
 _atom_site_fract_x
 _atom_site_fract_y
 _atom_site_fract_z
 _atom_site_occupancy
  La  La0  1  0.000000  0.000000  0.001587  1
  La  La1  1  0.000000  0.000000  0.499327  1
  Dy  Dy2  1  0.000000  0.000000  0.250448  1
  Dy  Dy3  1  0.000000  0.000000  0.748429  1
  Zn  Zn4  1  0.333333  0.666667  0.150803  1
  Zn  Zn5  1  0.666667  0.333333  0.846575  1
  Zn  Zn6  1  0.666667  0.333333  0.649189  1
  Zn  Zn7  1  0.333333  0.666667  0.350352  1
  Si  Si8  1  0.333333  0.666667  0.623049  1
  Si  Si9  1  0.666667  0.333333  0.376349  1
  Si  Si10  1  0.666667  0.333333  0.124320  1
  Ge  Ge11  1  0.333333  0.666667  0.879573  1
