# generated using pymatgen
data_Y2Ho2Al18OsPd5
_symmetry_space_group_name_H-M   'P 1'
_cell_length_a   7.62857498
_cell_length_b   7.62802516
_cell_length_c   9.48370003
_cell_angle_alpha   90.03765626
_cell_angle_beta   90.05397329
_cell_angle_gamma   119.70906320
_symmetry_Int_Tables_number   1
_chemical_formula_structural   Y2Ho2Al18OsPd5
_chemical_formula_sum   'Y2 Ho2 Al18 Os1 Pd5'
_cell_volume   479.32400369
_cell_formula_units_Z   1
loop_
 _symmetry_equiv_pos_site_id
 _symmetry_equiv_pos_as_xyz
  1  'x, y, z'
loop_
 _atom_site_type_symbol
 _atom_site_label
 _atom_site_symmetry_multiplicity
 _atom_site_fract_x
 _atom_site_fract_y
 _atom_site_fract_z
 _atom_site_occupancy
  Y  Y0  1  0.995146  0.669379  0.248920  1
  Y  Y1  1  0.005882  0.330360  0.751190  1
  Ho  Ho2  1  0.669689  0.994270  0.248688  1
  Ho  Ho3  1  0.330629  0.004864  0.751211  1
  Al  Al4  1  0.128268  0.130295  0.249160  1
  Al  Al5  1  0.869935  0.871561  0.750834  1
  Al  Al6  1  0.995677  0.333512  0.075265  1
  Al  Al7  1  0.996029  0.660626  0.925171  1
  Al  Al8  1  0.999581  0.666319  0.578106  1
  Al  Al9  1  0.334273  0.000730  0.422164  1
  Al  Al10  1  0.000628  0.334265  0.422907  1
  Al  Al11  1  0.665172  0.999088  0.576881  1
  Al  Al12  1  0.665929  0.003944  0.924931  1
  Al  Al13  1  0.339815  0.004148  0.074609  1
  Al  Al14  1  0.334112  0.334286  0.560992  1
  Al  Al15  1  0.665455  0.666160  0.439018  1
  Al  Al16  1  0.667341  0.662245  0.054562  1
  Al  Al17  1  0.337961  0.332398  0.945422  1
  Al  Al18  1  0.336967  0.546652  0.249186  1
  Al  Al19  1  0.660742  0.452767  0.753565  1
  Al  Al20  1  0.546931  0.338772  0.246428  1
  Al  Al21  1  0.453691  0.663636  0.750811  1
  Os  Os22  1  0.671745  0.327843  0.000008  1
  Pd  Pd23  1  0.328255  0.671896  0.999997  1
  Pd  Pd24  1  0.327822  0.672317  0.499999  1
  Pd  Pd25  1  0.671714  0.328194  0.499987  1
  Pd  Pd26  1  0.000658  0.999404  0.000002  1
  Pd  Pd27  1  0.999956  0.000072  0.499986  1
