# generated using pymatgen
data_Pr2SmDy2(Sn5Rh2)2
_symmetry_space_group_name_H-M   'P 1'
_cell_length_a   14.17629500
_cell_length_b   14.17629500
_cell_length_c   4.57256800
_cell_angle_alpha   90.00000000
_cell_angle_beta   90.00000000
_cell_angle_gamma   90.00000000
_symmetry_Int_Tables_number   1
_chemical_formula_structural   Pr2SmDy2(Sn5Rh2)2
_chemical_formula_sum   'Pr4 Sm2 Dy4 Sn20 Rh8'
_cell_volume   918.93682760
_cell_formula_units_Z   2
loop_
 _symmetry_equiv_pos_site_id
 _symmetry_equiv_pos_as_xyz
  1  'x, y, z'
loop_
 _atom_site_type_symbol
 _atom_site_label
 _atom_site_symmetry_multiplicity
 _atom_site_fract_x
 _atom_site_fract_y
 _atom_site_fract_z
 _atom_site_occupancy
  Pr  Pr0  1  0.888051  0.388051  0.500000  1
  Pr  Pr1  1  0.111949  0.611949  0.500000  1
  Pr  Pr2  1  0.388051  0.111949  0.500000  1
  Pr  Pr3  1  0.611949  0.888051  0.500000  1
  Sm  Sm4  1  0.500000  0.500000  0.000000  1
  Sm  Sm5  1  0.000000  0.000000  0.000000  1
  Dy  Dy6  1  0.677271  0.177271  0.500000  1
  Dy  Dy7  1  0.322729  0.822729  0.500000  1
  Dy  Dy8  1  0.177271  0.322729  0.500000  1
  Dy  Dy9  1  0.822729  0.677271  0.500000  1
  Sn  Sn10  1  0.570367  0.070367  0.000000  1
  Sn  Sn11  1  0.429633  0.929633  0.000000  1
  Sn  Sn12  1  0.070367  0.429633  0.000000  1
  Sn  Sn13  1  0.929633  0.570367  0.000000  1
  Sn  Sn14  1  0.654279  0.698097  0.000000  1
  Sn  Sn15  1  0.345721  0.301903  0.000000  1
  Sn  Sn16  1  0.154279  0.801903  0.000000  1
  Sn  Sn17  1  0.845721  0.198097  0.000000  1
  Sn  Sn18  1  0.301903  0.654279  0.000000  1
  Sn  Sn19  1  0.698097  0.345721  0.000000  1
  Sn  Sn20  1  0.198097  0.154279  0.000000  1
  Sn  Sn21  1  0.801903  0.845721  0.000000  1
  Sn  Sn22  1  0.662015  0.505653  0.500000  1
  Sn  Sn23  1  0.337985  0.494347  0.500000  1
  Sn  Sn24  1  0.162015  0.994347  0.500000  1
  Sn  Sn25  1  0.837985  0.005653  0.500000  1
  Sn  Sn26  1  0.494347  0.662015  0.500000  1
  Sn  Sn27  1  0.505653  0.337985  0.500000  1
  Sn  Sn28  1  0.005653  0.162015  0.500000  1
  Sn  Sn29  1  0.994347  0.837985  0.500000  1
  Rh  Rh30  1  0.746415  0.529452  0.000000  1
  Rh  Rh31  1  0.253585  0.470548  0.000000  1
  Rh  Rh32  1  0.246415  0.970548  0.000000  1
  Rh  Rh33  1  0.753585  0.029452  0.000000  1
  Rh  Rh34  1  0.470548  0.746415  0.000000  1
  Rh  Rh35  1  0.529452  0.253585  0.000000  1
  Rh  Rh36  1  0.029452  0.246415  0.000000  1
  Rh  Rh37  1  0.970548  0.753585  0.000000  1
