# generated using pymatgen
data_Ho5ErTcSb2
_symmetry_space_group_name_H-M   'P 1'
_cell_length_a   8.14167000
_cell_length_b   8.14166964
_cell_length_c   4.24241800
_cell_angle_alpha   90.00000000
_cell_angle_beta   90.00000000
_cell_angle_gamma   120.00055222
_symmetry_Int_Tables_number   1
_chemical_formula_structural   Ho5ErTcSb2
_chemical_formula_sum   'Ho5 Er1 Tc1 Sb2'
_cell_volume   243.53907007
_cell_formula_units_Z   1
loop_
 _symmetry_equiv_pos_site_id
 _symmetry_equiv_pos_as_xyz
  1  'x, y, z'
loop_
 _atom_site_type_symbol
 _atom_site_label
 _atom_site_symmetry_multiplicity
 _atom_site_fract_x
 _atom_site_fract_y
 _atom_site_fract_z
 _atom_site_occupancy
  Ho  Ho0  1  0.235931  0.999987  0.500000  1
  Ho  Ho1  1  0.999987  0.235931  0.500000  1
  Ho  Ho2  1  0.602545  0.999961  0.000000  1
  Ho  Ho3  1  0.999961  0.602545  0.000000  1
  Ho  Ho4  1  0.397477  0.397477  0.000000  1
  Er  Er5  1  0.764156  0.764156  0.500000  1
  Tc  Tc6  1  0.999870  0.999870  0.000000  1
  Sb  Sb7  1  0.333405  0.666668  0.500000  1
  Sb  Sb8  1  0.666668  0.333405  0.500000  1
