# generated using pymatgen
data_SrCeNiPt9
_symmetry_space_group_name_H-M   'P 1'
_cell_length_a   4.39929700
_cell_length_b   5.47347100
_cell_length_c   9.15757500
_cell_angle_alpha   90.00000000
_cell_angle_beta   90.00000000
_cell_angle_gamma   90.00000000
_symmetry_Int_Tables_number   1
_chemical_formula_structural   SrCeNiPt9
_chemical_formula_sum   'Sr1 Ce1 Ni1 Pt9'
_cell_volume   220.50913627
_cell_formula_units_Z   1
loop_
 _symmetry_equiv_pos_site_id
 _symmetry_equiv_pos_as_xyz
  1  'x, y, z'
loop_
 _atom_site_type_symbol
 _atom_site_label
 _atom_site_symmetry_multiplicity
 _atom_site_fract_x
 _atom_site_fract_y
 _atom_site_fract_z
 _atom_site_occupancy
  Sr  Sr0  1  0.000000  0.000000  0.500000  1
  Ce  Ce1  1  0.000000  0.500000  0.000000  1
  Ni  Ni2  1  0.500000  0.000000  0.000000  1
  Pt  Pt3  1  0.000000  0.500000  0.325163  1
  Pt  Pt4  1  0.000000  0.000000  0.845655  1
  Pt  Pt5  1  0.000000  0.000000  0.154345  1
  Pt  Pt6  1  0.000000  0.500000  0.674837  1
  Pt  Pt7  1  0.500000  0.500000  0.500000  1
  Pt  Pt8  1  0.500000  0.748089  0.236420  1
  Pt  Pt9  1  0.500000  0.251911  0.763580  1
  Pt  Pt10  1  0.500000  0.251911  0.236420  1
  Pt  Pt11  1  0.500000  0.748089  0.763580  1
