# generated using pymatgen
data_Li12MnP8Rh3(O3F2)8
_symmetry_space_group_name_H-M   'P 1'
_cell_length_a   6.45519314
_cell_length_b   7.48428500
_cell_length_c   15.55608500
_cell_angle_alpha   89.99998469
_cell_angle_beta   91.01913365
_cell_angle_gamma   90.00018397
_symmetry_Int_Tables_number   1
_chemical_formula_structural   Li12MnP8Rh3(O3F2)8
_chemical_formula_sum   'Li12 Mn1 P8 Rh3 O24 F16'
_cell_volume   751.43454987
_cell_formula_units_Z   1
loop_
 _symmetry_equiv_pos_site_id
 _symmetry_equiv_pos_as_xyz
  1  'x, y, z'
loop_
 _atom_site_type_symbol
 _atom_site_label
 _atom_site_symmetry_multiplicity
 _atom_site_fract_x
 _atom_site_fract_y
 _atom_site_fract_z
 _atom_site_occupancy
  Li  Li0  1  0.503739  0.500358  0.998914  1
  Li  Li1  1  0.496216  0.499646  0.501082  1
  Li  Li2  1  0.499922  0.999994  0.250001  1
  Li  Li3  1  0.500030  0.000008  0.750001  1
  Li  Li4  1  0.255429  0.224213  0.417762  1
  Li  Li5  1  0.266422  0.223305  0.915396  1
  Li  Li6  1  0.732189  0.747062  0.342630  1
  Li  Li7  1  0.736526  0.727885  0.835378  1
  Li  Li8  1  0.744562  0.775797  0.082229  1
  Li  Li9  1  0.733616  0.776637  0.584626  1
  Li  Li10  1  0.267794  0.252875  0.157362  1
  Li  Li11  1  0.263535  0.272173  0.664632  1
  Mn  Mn12  1  0.999762  0.999880  0.249873  1
  P  P13  1  0.256333  0.838170  0.075173  1
  P  P14  1  0.241194  0.838649  0.579005  1
  P  P15  1  0.759764  0.337777  0.173234  1
  P  P16  1  0.756294  0.338583  0.671343  1
  P  P17  1  0.743675  0.161849  0.424865  1
  P  P18  1  0.758875  0.161400  0.920994  1
  P  P19  1  0.240173  0.662235  0.326770  1
  P  P20  1  0.243782  0.661406  0.828674  1
  Rh  Rh21  1  0.994709  0.501094  0.499957  1
  Rh  Rh22  1  0.000045  0.999996  0.749995  1
  Rh  Rh23  1  0.005243  0.498911  0.000012  1
  O  O24  1  0.224057  0.552073  0.410221  1
  O  O25  1  0.233841  0.545423  0.910801  1
  O  O26  1  0.754017  0.038640  0.346595  1
  O  O27  1  0.768611  0.045071  0.838927  1
  O  O28  1  0.775975  0.447912  0.089765  1
  O  O29  1  0.766237  0.454613  0.589216  1
  O  O30  1  0.245940  0.961366  0.153420  1
  O  O31  1  0.231442  0.954920  0.661075  1
  O  O32  1  0.948714  0.268600  0.433234  1
  O  O33  1  0.962136  0.266238  0.932675  1
  O  O34  1  0.041919  0.774860  0.311738  1
  O  O35  1  0.040938  0.767395  0.817193  1
  O  O36  1  0.051290  0.731393  0.066792  1
  O  O37  1  0.037899  0.733801  0.567311  1
  O  O38  1  0.958055  0.225162  0.188258  1
  O  O39  1  0.959127  0.232592  0.682810  1
  O  O40  1  0.548646  0.268610  0.434143  1
  O  O41  1  0.561418  0.263597  0.930715  1
  O  O42  1  0.439971  0.760897  0.316406  1
  O  O43  1  0.441735  0.762966  0.818932  1
  O  O44  1  0.451353  0.731392  0.065887  1
  O  O45  1  0.438616  0.736423  0.569277  1
  O  O46  1  0.560000  0.239155  0.183588  1
  O  O47  1  0.558331  0.237034  0.681077  1
  F  F48  1  0.251968  0.372996  0.054094  1
  F  F49  1  0.242427  0.377424  0.554805  1
  F  F50  1  0.768036  0.890338  0.193210  1
  F  F51  1  0.751641  0.877598  0.694839  1
  F  F52  1  0.748026  0.626947  0.445905  1
  F  F53  1  0.757614  0.622629  0.945210  1
  F  F54  1  0.231647  0.109613  0.306753  1
  F  F55  1  0.248423  0.122389  0.805170  1
  F  F56  1  0.236148  0.982570  0.502190  1
  F  F57  1  0.247650  0.972746  0.994220  1
  F  F58  1  0.769402  0.483501  0.248081  1
  F  F59  1  0.762299  0.482208  0.747973  1
  F  F60  1  0.763907  0.017477  0.997813  1
  F  F61  1  0.752339  0.027214  0.505823  1
  F  F62  1  0.230602  0.516561  0.251900  1
  F  F63  1  0.237775  0.517754  0.752051  1
