# generated using pymatgen
data_K8TbDyTl2F20
_symmetry_space_group_name_H-M   'P 1'
_cell_length_a   6.69538641
_cell_length_b   7.35468900
_cell_length_c   10.96639722
_cell_angle_alpha   90.00000000
_cell_angle_beta   88.77486423
_cell_angle_gamma   90.00000000
_symmetry_Int_Tables_number   1
_chemical_formula_structural   K8TbDyTl2F20
_chemical_formula_sum   'K8 Tb1 Dy1 Tl2 F20'
_cell_volume   539.88920127
_cell_formula_units_Z   1
loop_
 _symmetry_equiv_pos_site_id
 _symmetry_equiv_pos_as_xyz
  1  'x, y, z'
loop_
 _atom_site_type_symbol
 _atom_site_label
 _atom_site_symmetry_multiplicity
 _atom_site_fract_x
 _atom_site_fract_y
 _atom_site_fract_z
 _atom_site_occupancy
  K  K0  1  0.534744  0.498389  0.826715  1
  K  K1  1  0.465542  0.502489  0.173283  1
  K  K2  1  0.030306  0.502070  0.669294  1
  K  K3  1  0.465542  0.997511  0.173283  1
  K  K4  1  0.969563  0.498478  0.330645  1
  K  K5  1  0.534744  0.001611  0.826715  1
  K  K6  1  0.969563  0.001522  0.330645  1
  K  K7  1  0.030306  0.997930  0.669294  1
  Tb  Tb8  1  0.063731  0.250000  0.997096  1
  Dy  Dy9  1  0.936375  0.750000  0.002776  1
  Tl  Tl10  1  0.562700  0.750000  0.499907  1
  Tl  Tl11  1  0.437037  0.250000  0.500107  1
  F  F12  1  0.842992  0.750000  0.809843  1
  F  F13  1  0.157433  0.250000  0.191061  1
  F  F14  1  0.330924  0.250000  0.693809  1
  F  F15  1  0.668753  0.750000  0.306421  1
  F  F16  1  0.370006  0.750000  0.663203  1
  F  F17  1  0.629910  0.250000  0.336815  1
  F  F18  1  0.868308  0.250000  0.834955  1
  F  F19  1  0.130642  0.750000  0.163947  1
  F  F20  1  0.893145  0.750000  0.511936  1
  F  F21  1  0.106712  0.250000  0.488207  1
  F  F22  1  0.394732  0.250000  0.983983  1
  F  F23  1  0.606965  0.750000  0.016096  1
  F  F24  1  0.649672  0.037699  0.578458  1
  F  F25  1  0.350090  0.962225  0.421430  1
  F  F26  1  0.145796  0.965715  0.921325  1
  F  F27  1  0.350090  0.537775  0.421430  1
  F  F28  1  0.854103  0.032328  0.078770  1
  F  F29  1  0.649672  0.462301  0.578458  1
  F  F30  1  0.854103  0.467672  0.078770  1
  F  F31  1  0.145796  0.534285  0.921325  1
