# generated using pymatgen
data_La2TbThTe6
_symmetry_space_group_name_H-M   'P 1'
_cell_length_a   4.48031600
_cell_length_b   11.92423500
_cell_length_c   12.27783700
_cell_angle_alpha   90.00000000
_cell_angle_beta   90.00000000
_cell_angle_gamma   90.00000000
_symmetry_Int_Tables_number   1
_chemical_formula_structural   La2TbThTe6
_chemical_formula_sum   'La4 Tb2 Th2 Te12'
_cell_volume   655.93534889
_cell_formula_units_Z   2
loop_
 _symmetry_equiv_pos_site_id
 _symmetry_equiv_pos_as_xyz
  1  'x, y, z'
loop_
 _atom_site_type_symbol
 _atom_site_label
 _atom_site_symmetry_multiplicity
 _atom_site_fract_x
 _atom_site_fract_y
 _atom_site_fract_z
 _atom_site_occupancy
  La  La0  1  0.750000  0.505544  0.697384  1
  La  La1  1  0.750000  0.994456  0.197384  1
  La  La2  1  0.250000  0.501319  0.304354  1
  La  La3  1  0.250000  0.998681  0.804354  1
  Tb  Tb4  1  0.750000  0.809914  0.514409  1
  Tb  Tb5  1  0.750000  0.690086  0.014409  1
  Th  Th6  1  0.250000  0.187936  0.485407  1
  Th  Th7  1  0.250000  0.312064  0.985407  1
  Te  Te8  1  0.250000  0.630697  0.542613  1
  Te  Te9  1  0.250000  0.869303  0.042613  1
  Te  Te10  1  0.750000  0.372754  0.455478  1
  Te  Te11  1  0.750000  0.127246  0.955478  1
  Te  Te12  1  0.250000  0.296136  0.727095  1
  Te  Te13  1  0.250000  0.203864  0.227095  1
  Te  Te14  1  0.750000  0.704193  0.271330  1
  Te  Te15  1  0.750000  0.795807  0.771330  1
  Te  Te16  1  0.750000  0.053597  0.615886  1
  Te  Te17  1  0.750000  0.446403  0.115886  1
  Te  Te18  1  0.250000  0.942513  0.386044  1
  Te  Te19  1  0.250000  0.557487  0.886044  1
