# generated using pymatgen
data_ThCu2SiSn
_symmetry_space_group_name_H-M   'P 1'
_cell_length_a   4.26696900
_cell_length_b   4.26696900
_cell_length_c   10.31770800
_cell_angle_alpha   90.00000000
_cell_angle_beta   90.00000000
_cell_angle_gamma   90.00000000
_symmetry_Int_Tables_number   1
_chemical_formula_structural   ThCu2SiSn
_chemical_formula_sum   'Th2 Cu4 Si2 Sn2'
_cell_volume   187.85476179
_cell_formula_units_Z   2
loop_
 _symmetry_equiv_pos_site_id
 _symmetry_equiv_pos_as_xyz
  1  'x, y, z'
loop_
 _atom_site_type_symbol
 _atom_site_label
 _atom_site_symmetry_multiplicity
 _atom_site_fract_x
 _atom_site_fract_y
 _atom_site_fract_z
 _atom_site_occupancy
  Th  Th0  1  0.000000  0.500000  0.226154  1
  Th  Th1  1  0.500000  0.000000  0.773846  1
  Cu  Cu2  1  0.000000  0.000000  0.000000  1
  Cu  Cu3  1  0.500000  0.500000  0.000000  1
  Cu  Cu4  1  0.500000  0.000000  0.341650  1
  Cu  Cu5  1  0.000000  0.500000  0.658350  1
  Si  Si6  1  0.500000  0.000000  0.118533  1
  Si  Si7  1  0.000000  0.500000  0.881467  1
  Sn  Sn8  1  0.000000  0.000000  0.500000  1
  Sn  Sn9  1  0.500000  0.500000  0.500000  1
