# generated using pymatgen
data_NaMgH9W
_symmetry_space_group_name_H-M   'P 1'
_cell_length_a   8.25559000
_cell_length_b   8.25558943
_cell_length_c   5.04272400
_cell_angle_alpha   90.00000000
_cell_angle_beta   90.00000000
_cell_angle_gamma   120.00000230
_symmetry_Int_Tables_number   1
_chemical_formula_structural   NaMgH9W
_chemical_formula_sum   'Na3 Mg3 H27 W3'
_cell_volume   297.64049827
_cell_formula_units_Z   3
loop_
 _symmetry_equiv_pos_site_id
 _symmetry_equiv_pos_as_xyz
  1  'x, y, z'
loop_
 _atom_site_type_symbol
 _atom_site_label
 _atom_site_symmetry_multiplicity
 _atom_site_fract_x
 _atom_site_fract_y
 _atom_site_fract_z
 _atom_site_occupancy
  Na  Na0  1  0.000000  0.611448  0.000000  1
  Na  Na1  1  0.388552  0.388552  0.000000  1
  Na  Na2  1  0.611448  0.000000  0.000000  1
  Mg  Mg3  1  0.000000  0.285012  0.500000  1
  Mg  Mg4  1  0.714988  0.714988  0.500000  1
  Mg  Mg5  1  0.285012  0.000000  0.500000  1
  H  H6  1  0.826701  0.353402  0.748223  1
  H  H7  1  0.646598  0.473299  0.748223  1
  H  H8  1  0.526701  0.173299  0.748223  1
  H  H9  1  0.173299  0.526701  0.251777  1
  H  H10  1  0.526701  0.173299  0.251777  1
  H  H11  1  0.826701  0.353402  0.251777  1
  H  H12  1  0.646598  0.473299  0.251777  1
  H  H13  1  0.353402  0.826701  0.748223  1
  H  H14  1  0.473299  0.646598  0.748223  1
  H  H15  1  0.210891  0.000000  0.000000  1
  H  H16  1  0.789109  0.789109  0.000000  1
  H  H17  1  0.000000  0.210891  0.000000  1
  H  H18  1  0.851327  0.000000  0.256480  1
  H  H19  1  0.148673  0.148673  0.743520  1
  H  H20  1  0.000000  0.851327  0.743520  1
  H  H21  1  0.000000  0.851327  0.256480  1
  H  H22  1  0.148673  0.148673  0.256480  1
  H  H23  1  0.851327  0.000000  0.743520  1
  H  H24  1  0.139546  0.697786  0.500000  1
  H  H25  1  0.558241  0.860454  0.500000  1
  H  H26  1  0.302214  0.441759  0.500000  1
  H  H27  1  0.441759  0.302214  0.500000  1
  H  H28  1  0.860454  0.558241  0.500000  1
  H  H29  1  0.697786  0.139546  0.500000  1
  H  H30  1  0.173299  0.526701  0.748223  1
  H  H31  1  0.353402  0.826701  0.251777  1
  H  H32  1  0.473299  0.646598  0.251777  1
  W  W33  1  0.666667  0.333333  0.500000  1
  W  W34  1  0.333333  0.666667  0.500000  1
  W  W35  1  0.000000  0.000000  0.000000  1
