# generated using pymatgen
data_Li2ErTm3(ZnPt2)2
_symmetry_space_group_name_H-M   'P 1'
_cell_length_a   4.01227900
_cell_length_b   6.93401114
_cell_length_c   8.28375917
_cell_angle_alpha   89.97676917
_cell_angle_beta   90.00000000
_cell_angle_gamma   90.00000000
_symmetry_Int_Tables_number   1
_chemical_formula_structural   Li2ErTm3(ZnPt2)2
_chemical_formula_sum   'Li2 Er1 Tm3 Zn2 Pt4'
_cell_volume   230.46399642
_cell_formula_units_Z   1
loop_
 _symmetry_equiv_pos_site_id
 _symmetry_equiv_pos_as_xyz
  1  'x, y, z'
loop_
 _atom_site_type_symbol
 _atom_site_label
 _atom_site_symmetry_multiplicity
 _atom_site_fract_x
 _atom_site_fract_y
 _atom_site_fract_z
 _atom_site_occupancy
  Li  Li0  1  0.250000  0.629490  0.559524  1
  Li  Li1  1  0.250000  0.129422  0.940530  1
  Er  Er2  1  0.250000  0.545625  0.181018  1
  Tm  Tm3  1  0.250000  0.045617  0.319222  1
  Tm  Tm4  1  0.750000  0.955066  0.684760  1
  Tm  Tm5  1  0.750000  0.455022  0.815078  1
  Zn  Zn6  1  0.750000  0.370724  0.437554  1
  Zn  Zn7  1  0.750000  0.871021  0.062511  1
  Pt  Pt8  1  0.250000  0.246064  0.622045  1
  Pt  Pt9  1  0.250000  0.746346  0.877490  1
  Pt  Pt10  1  0.750000  0.753499  0.377697  1
  Pt  Pt11  1  0.750000  0.252107  0.122571  1
