# generated using pymatgen
data_Ac2Y(AgSn)3
_symmetry_space_group_name_H-M   'P 1'
_cell_length_a   4.84342200
_cell_length_b   4.84342107
_cell_length_c   12.28337300
_cell_angle_alpha   90.00000000
_cell_angle_beta   90.00000000
_cell_angle_gamma   119.99999267
_symmetry_Int_Tables_number   1
_chemical_formula_structural   Ac2Y(AgSn)3
_chemical_formula_sum   'Ac2 Y1 Ag3 Sn3'
_cell_volume   249.54728015
_cell_formula_units_Z   1
loop_
 _symmetry_equiv_pos_site_id
 _symmetry_equiv_pos_as_xyz
  1  'x, y, z'
loop_
 _atom_site_type_symbol
 _atom_site_label
 _atom_site_symmetry_multiplicity
 _atom_site_fract_x
 _atom_site_fract_y
 _atom_site_fract_z
 _atom_site_occupancy
  Ac  Ac0  1  0.000000  0.000000  0.837757  1
  Ac  Ac1  1  0.000000  0.000000  0.485448  1
  Y  Y2  1  0.000000  0.000000  0.159780  1
  Ag  Ag3  1  0.666667  0.333333  0.050427  1
  Ag  Ag4  1  0.333333  0.666667  0.671982  1
  Ag  Ag5  1  0.333333  0.666667  0.291482  1
  Sn  Sn6  1  0.666667  0.333333  0.654683  1
  Sn  Sn7  1  0.666667  0.333333  0.301398  1
  Sn  Sn8  1  0.333333  0.666667  0.003042  1
