# generated using pymatgen
data_Tm6Lu2Ga3Co
_symmetry_space_group_name_H-M   'P 1'
_cell_length_a   9.85126616
_cell_length_b   9.85116245
_cell_length_c   6.82331011
_cell_angle_alpha   90.01029054
_cell_angle_beta   89.97941913
_cell_angle_gamma   120.00034825
_symmetry_Int_Tables_number   1
_chemical_formula_structural   Tm6Lu2Ga3Co
_chemical_formula_sum   'Tm12 Lu4 Ga6 Co2'
_cell_volume   573.46078275
_cell_formula_units_Z   2
loop_
 _symmetry_equiv_pos_site_id
 _symmetry_equiv_pos_as_xyz
  1  'x, y, z'
loop_
 _atom_site_type_symbol
 _atom_site_label
 _atom_site_symmetry_multiplicity
 _atom_site_fract_x
 _atom_site_fract_y
 _atom_site_fract_z
 _atom_site_occupancy
  Tm  Tm0  1  0.653433  0.826709  0.990020  1
  Tm  Tm1  1  0.826723  0.173291  0.490020  1
  Tm  Tm2  1  0.333118  0.666546  0.671787  1
  Tm  Tm3  1  0.666573  0.333454  0.171787  1
  Tm  Tm4  1  0.464032  0.535585  0.292131  1
  Tm  Tm5  1  0.928446  0.464415  0.792131  1
  Tm  Tm6  1  0.535516  0.071754  0.792017  1
  Tm  Tm7  1  0.463763  0.928246  0.292017  1
  Tm  Tm8  1  0.071803  0.536063  0.291796  1
  Tm  Tm9  1  0.535739  0.463937  0.791796  1
  Tm  Tm10  1  0.000263  0.000053  0.268051  1
  Tm  Tm11  1  0.000211  0.999947  0.768051  1
  Lu  Lu12  1  0.173454  0.826583  0.989964  1
  Lu  Lu13  1  0.346870  0.173417  0.489964  1
  Lu  Lu14  1  0.826554  0.653112  0.490007  1
  Lu  Lu15  1  0.173443  0.346888  0.990007  1
  Ga  Ga16  1  0.163222  0.836777  0.539904  1
  Ga  Ga17  1  0.326444  0.163223  0.039904  1
  Ga  Ga18  1  0.837006  0.673319  0.039944  1
  Ga  Ga19  1  0.163687  0.326681  0.539944  1
  Ga  Ga20  1  0.673274  0.836285  0.539550  1
  Ga  Ga21  1  0.836989  0.163715  0.039550  1
  Co  Co22  1  0.332952  0.666467  0.056834  1
  Co  Co23  1  0.666486  0.333533  0.556834  1
