# generated using pymatgen
data_LaRe3Si2Os
_symmetry_space_group_name_H-M   'P 1'
_cell_length_a   7.45815192
_cell_length_b   7.45815206
_cell_length_c   4.09963000
_cell_angle_alpha   90.00000000
_cell_angle_beta   90.00000000
_cell_angle_gamma   147.93062481
_symmetry_Int_Tables_number   1
_chemical_formula_structural   LaRe3Si2Os
_chemical_formula_sum   'La1 Re3 Si2 Os1'
_cell_volume   121.07577036
_cell_formula_units_Z   1
loop_
 _symmetry_equiv_pos_site_id
 _symmetry_equiv_pos_as_xyz
  1  'x, y, z'
loop_
 _atom_site_type_symbol
 _atom_site_label
 _atom_site_symmetry_multiplicity
 _atom_site_fract_x
 _atom_site_fract_y
 _atom_site_fract_z
 _atom_site_occupancy
  La  La0  1  0.998668  0.001332  0.000000  1
  Re  Re1  1  0.695949  0.304051  0.000000  1
  Re  Re2  1  0.303596  0.696404  0.000000  1
  Re  Re3  1  0.188821  0.811178  0.500000  1
  Si  Si4  1  0.588764  0.411236  0.500000  1
  Si  Si5  1  0.409791  0.590209  0.500000  1
  Os  Os6  1  0.814409  0.185590  0.500000  1
