# generated using pymatgen
data_Na20Nb2InGaAs12
_symmetry_space_group_name_H-M   'P 1'
_cell_length_a   7.56255785
_cell_length_b   8.46831672
_cell_length_c   16.01541332
_cell_angle_alpha   58.78036201
_cell_angle_beta   89.75031576
_cell_angle_gamma   89.97095374
_symmetry_Int_Tables_number   1
_chemical_formula_structural   Na20Nb2InGaAs12
_chemical_formula_sum   'Na20 Nb2 In1 Ga1 As12'
_cell_volume   877.12165794
_cell_formula_units_Z   1
loop_
 _symmetry_equiv_pos_site_id
 _symmetry_equiv_pos_as_xyz
  1  'x, y, z'
loop_
 _atom_site_type_symbol
 _atom_site_label
 _atom_site_symmetry_multiplicity
 _atom_site_fract_x
 _atom_site_fract_y
 _atom_site_fract_z
 _atom_site_occupancy
  Na  Na0  1  0.739189  0.937755  0.246290  1
  Na  Na1  1  0.262126  0.936936  0.744559  1
  Na  Na2  1  0.770567  0.057256  0.758595  1
  Na  Na3  1  0.227930  0.056250  0.259764  1
  Na  Na4  1  0.263292  0.248050  0.419319  1
  Na  Na5  1  0.736225  0.251394  0.918688  1
  Na  Na6  1  0.214030  0.750411  0.580188  1
  Na  Na7  1  0.784566  0.749444  0.080946  1
  Na  Na8  1  0.091062  0.344728  0.583297  1
  Na  Na9  1  0.908124  0.343075  0.084802  1
  Na  Na10  1  0.406194  0.654460  0.419156  1
  Na  Na11  1  0.593774  0.653659  0.918907  1
  Na  Na12  1  0.597042  0.333862  0.243964  1
  Na  Na13  1  0.403888  0.335478  0.743065  1
  Na  Na14  1  0.902786  0.668172  0.758330  1
  Na  Na15  1  0.095977  0.665765  0.259846  1
  Na  Na16  1  0.772005  0.419302  0.409015  1
  Na  Na17  1  0.228130  0.421092  0.908614  1
  Na  Na18  1  0.739939  0.582126  0.587934  1
  Na  Na19  1  0.260689  0.579501  0.088659  1
  Nb  Nb20  1  0.612227  0.989024  0.578385  1
  Nb  Nb21  1  0.388955  0.988622  0.079642  1
  In  In22  1  0.108475  0.014252  0.913974  1
  Ga  Ga23  1  0.890163  0.014039  0.414787  1
  As  As24  1  0.984345  0.321824  0.270453  1
  As  As25  1  0.010516  0.338353  0.761932  1
  As  As26  1  0.515928  0.690587  0.725764  1
  As  As27  1  0.483670  0.690255  0.225990  1
  As  As28  1  0.944991  0.022185  0.573492  1
  As  As29  1  0.055051  0.021442  0.081059  1
  As  As30  1  0.538886  0.979269  0.428176  1
  As  As31  1  0.475020  0.978522  0.929540  1
  As  As32  1  0.002511  0.725302  0.421098  1
  As  As33  1  0.992164  0.708750  0.922151  1
  As  As34  1  0.488670  0.264587  0.579643  1
  As  As35  1  0.510892  0.264268  0.079975  1
