# generated using pymatgen
data_Tb12Ga2Co3Os
_symmetry_space_group_name_H-M   'P 1'
_cell_length_a   8.33419605
_cell_length_b   8.33419651
_cell_length_c   8.33419587
_cell_angle_alpha   112.03562172
_cell_angle_beta   110.07114598
_cell_angle_gamma   106.35753156
_symmetry_Int_Tables_number   1
_chemical_formula_structural   Tb12Ga2Co3Os
_chemical_formula_sum   'Tb12 Ga2 Co3 Os1'
_cell_volume   444.50590748
_cell_formula_units_Z   1
loop_
 _symmetry_equiv_pos_site_id
 _symmetry_equiv_pos_as_xyz
  1  'x, y, z'
loop_
 _atom_site_type_symbol
 _atom_site_label
 _atom_site_symmetry_multiplicity
 _atom_site_fract_x
 _atom_site_fract_y
 _atom_site_fract_z
 _atom_site_occupancy
  Tb  Tb0  1  0.052258  0.745657  0.306601  1
  Tb  Tb1  1  0.960554  0.264786  0.695768  1
  Tb  Tb2  1  0.560942  0.254343  0.306601  1
  Tb  Tb3  1  0.430983  0.735214  0.695768  1
  Tb  Tb4  1  0.674829  0.860867  0.186859  1
  Tb  Tb5  1  0.325992  0.512030  0.186859  1
  Tb  Tb6  1  0.325992  0.139133  0.813962  1
  Tb  Tb7  1  0.674829  0.487970  0.813962  1
  Tb  Tb8  1  0.177658  0.220603  0.398261  1
  Tb  Tb9  1  0.817219  0.218354  0.035573  1
  Tb  Tb10  1  0.177658  0.779397  0.957055  1
  Tb  Tb11  1  0.817219  0.781646  0.598865  1
  Ga  Ga12  1  0.992742  0.500000  0.492742  1
  Ga  Ga13  1  0.504736  0.000000  0.504736  1
  Co  Co14  1  0.336106  0.500000  0.836106  1
  Co  Co15  1  0.886751  0.887108  0.999643  1
  Co  Co16  1  0.112535  0.112892  0.999643  1
  Os  Os17  1  0.670996  0.500000  0.170996  1
