# generated using pymatgen
data_Nd20Ir7Ru5
_symmetry_space_group_name_H-M   'P 1'
_cell_length_a   11.22373988
_cell_length_b   11.22373988
_cell_length_c   6.62729804
_cell_angle_alpha   90.04544013
_cell_angle_beta   90.04544013
_cell_angle_gamma   90.00130805
_symmetry_Int_Tables_number   1
_chemical_formula_structural   Nd20Ir7Ru5
_chemical_formula_sum   'Nd20 Ir7 Ru5'
_cell_volume   834.85569680
_cell_formula_units_Z   1
loop_
 _symmetry_equiv_pos_site_id
 _symmetry_equiv_pos_as_xyz
  1  'x, y, z'
loop_
 _atom_site_type_symbol
 _atom_site_label
 _atom_site_symmetry_multiplicity
 _atom_site_fract_x
 _atom_site_fract_y
 _atom_site_fract_z
 _atom_site_occupancy
  Nd  Nd0  1  0.088432  0.293345  0.116326  1
  Nd  Nd1  1  0.793486  0.411509  0.115703  1
  Nd  Nd2  1  0.206582  0.589478  0.115797  1
  Nd  Nd3  1  0.912009  0.706610  0.116756  1
  Nd  Nd4  1  0.410522  0.793418  0.384203  1
  Nd  Nd5  1  0.588491  0.206514  0.384297  1
  Nd  Nd6  1  0.293390  0.087991  0.383244  1
  Nd  Nd7  1  0.706655  0.911568  0.383674  1
  Nd  Nd8  1  0.411827  0.206382  0.884237  1
  Nd  Nd9  1  0.707399  0.088544  0.883965  1
  Nd  Nd10  1  0.292355  0.910925  0.884246  1
  Nd  Nd11  1  0.588084  0.793836  0.883725  1
  Nd  Nd12  1  0.089075  0.707645  0.615754  1
  Nd  Nd13  1  0.911456  0.292601  0.616035  1
  Nd  Nd14  1  0.206164  0.411916  0.616275  1
  Nd  Nd15  1  0.793618  0.588173  0.615763  1
  Nd  Nd16  1  0.001246  0.999101  0.000336  1
  Nd  Nd17  1  0.500048  0.500297  0.000489  1
  Nd  Nd18  1  0.499703  0.499952  0.499511  1
  Nd  Nd19  1  0.000899  0.998754  0.499664  1
  Ir  Ir20  1  0.347194  0.347366  0.249729  1
  Ir  Ir21  1  0.652634  0.652806  0.250271  1
  Ir  Ir22  1  0.847391  0.152609  0.250000  1
  Ir  Ir23  1  0.348250  0.651750  0.750000  1
  Ir  Ir24  1  0.152918  0.153240  0.749645  1
  Ir  Ir25  1  0.846760  0.847082  0.750355  1
  Ir  Ir26  1  0.652259  0.347741  0.750000  1
  Ru  Ru27  1  0.150959  0.849041  0.250000  1
  Ru  Ru28  1  0.000040  0.500348  0.379499  1
  Ru  Ru29  1  0.499652  0.999960  0.120501  1
  Ru  Ru30  1  0.500217  0.999713  0.621144  1
  Ru  Ru31  1  0.000287  0.499783  0.878856  1
