# generated using pymatgen
data_Tb5HoScCo17P12
_symmetry_space_group_name_H-M   'P 1'
_cell_length_a   3.71108300
_cell_length_b   10.58328901
_cell_length_c   12.28623301
_cell_angle_alpha   90.00364393
_cell_angle_beta   90.00000000
_cell_angle_gamma   90.00000000
_symmetry_Int_Tables_number   1
_chemical_formula_structural   Tb5HoScCo17P12
_chemical_formula_sum   'Tb5 Ho1 Sc1 Co17 P12'
_cell_volume   482.54750007
_cell_formula_units_Z   1
loop_
 _symmetry_equiv_pos_site_id
 _symmetry_equiv_pos_as_xyz
  1  'x, y, z'
loop_
 _atom_site_type_symbol
 _atom_site_label
 _atom_site_symmetry_multiplicity
 _atom_site_fract_x
 _atom_site_fract_y
 _atom_site_fract_z
 _atom_site_occupancy
  Tb  Tb0  1  0.000000  0.499867  0.527499  1
  Tb  Tb1  1  0.500000  0.000094  0.478239  1
  Tb  Tb2  1  0.500000  0.821086  0.207364  1
  Tb  Tb3  1  0.500000  0.178904  0.207521  1
  Tb  Tb4  1  0.000000  0.682257  0.795602  1
  Ho  Ho5  1  0.000000  0.317448  0.795675  1
  Sc  Sc6  1  0.500000  0.499978  0.152497  1
  Co  Co7  1  0.000000  0.499589  0.984288  1
  Co  Co8  1  0.500000  0.000355  0.012491  1
  Co  Co9  1  0.500000  0.294771  0.434447  1
  Co  Co10  1  0.500000  0.705161  0.434018  1
  Co  Co11  1  0.000000  0.202187  0.571129  1
  Co  Co12  1  0.000000  0.798024  0.570559  1
  Co  Co13  1  0.500000  0.880879  0.707963  1
  Co  Co14  1  0.500000  0.119884  0.708414  1
  Co  Co15  1  0.000000  0.622044  0.296573  1
  Co  Co16  1  0.000000  0.377953  0.296730  1
  Co  Co17  1  0.500000  0.326729  0.989578  1
  Co  Co18  1  0.500000  0.672933  0.989983  1
  Co  Co19  1  0.000000  0.162311  0.000959  1
  Co  Co20  1  0.000000  0.838093  0.001343  1
  Co  Co21  1  0.000000  0.000058  0.837499  1
  Co  Co22  1  0.500000  0.499163  0.703982  1
  Co  Co23  1  0.000000  0.000101  0.295671  1
  P  P24  1  0.500000  0.308537  0.618505  1
  P  P25  1  0.500000  0.691406  0.617641  1
  P  P26  1  0.000000  0.189687  0.386823  1
  P  P27  1  0.000000  0.810458  0.386493  1
  P  P28  1  0.500000  0.499227  0.883184  1
  P  P29  1  0.000000  0.000213  0.115234  1
  P  P30  1  0.500000  0.851874  0.889072  1
  P  P31  1  0.500000  0.148847  0.888647  1
  P  P32  1  0.000000  0.662981  0.100537  1
  P  P33  1  0.000000  0.336846  0.100736  1
  P  P34  1  0.500000  0.499998  0.357472  1
  P  P35  1  0.000000  0.000057  0.655627  1
