# generated using pymatgen
data_Tb3Dy2Ta3(Co4P3)4
_symmetry_space_group_name_H-M   'P 1'
_cell_length_a   12.15888403
_cell_length_b   12.15888469
_cell_length_c   3.69405200
_cell_angle_alpha   90.00000000
_cell_angle_beta   90.00000000
_cell_angle_gamma   120.00769508
_symmetry_Int_Tables_number   1
_chemical_formula_structural   Tb3Dy2Ta3(Co4P3)4
_chemical_formula_sum   'Tb3 Dy2 Ta3 Co16 P12'
_cell_volume   472.91970646
_cell_formula_units_Z   1
loop_
 _symmetry_equiv_pos_site_id
 _symmetry_equiv_pos_as_xyz
  1  'x, y, z'
loop_
 _atom_site_type_symbol
 _atom_site_label
 _atom_site_symmetry_multiplicity
 _atom_site_fract_x
 _atom_site_fract_y
 _atom_site_fract_z
 _atom_site_occupancy
  Tb  Tb0  1  0.666771  0.333356  0.000000  1
  Tb  Tb1  1  0.333356  0.666771  0.000000  1
  Tb  Tb2  1  0.183628  0.183628  0.500000  1
  Dy  Dy3  1  0.816150  0.999903  0.500000  1
  Dy  Dy4  1  0.999903  0.816150  0.500000  1
  Ta  Ta5  1  0.556883  0.556883  0.000000  1
  Ta  Ta6  1  0.443388  0.999916  0.000000  1
  Ta  Ta7  1  0.999916  0.443388  0.000000  1
  Co  Co8  1  0.823118  0.197342  0.000000  1
  Co  Co9  1  0.802696  0.625942  0.000000  1
  Co  Co10  1  0.374356  0.176696  0.000000  1
  Co  Co11  1  0.197342  0.823118  0.000000  1
  Co  Co12  1  0.625942  0.802696  0.000000  1
  Co  Co13  1  0.176696  0.374356  0.000000  1
  Co  Co14  1  0.645078  0.126080  0.500000  1
  Co  Co15  1  0.873902  0.518975  0.500000  1
  Co  Co16  1  0.481304  0.355073  0.500000  1
  Co  Co17  1  0.126080  0.645078  0.500000  1
  Co  Co18  1  0.518975  0.873902  0.500000  1
  Co  Co19  1  0.355073  0.481304  0.500000  1
  Co  Co20  1  0.720078  0.720078  0.500000  1
  Co  Co21  1  0.280018  0.999762  0.500000  1
  Co  Co22  1  0.999762  0.280018  0.500000  1
  Co  Co23  1  0.999669  0.999669  0.000000  1
  P  P24  1  0.356481  0.356481  0.000000  1
  P  P25  1  0.643956  0.000028  0.000000  1
  P  P26  1  0.000028  0.643956  0.000000  1
  P  P27  1  0.831981  0.311352  0.500000  1
  P  P28  1  0.688677  0.520655  0.500000  1
  P  P29  1  0.479355  0.167972  0.500000  1
  P  P30  1  0.311352  0.831981  0.500000  1
  P  P31  1  0.520655  0.688677  0.500000  1
  P  P32  1  0.167972  0.479355  0.500000  1
  P  P33  1  0.822278  0.822278  0.000000  1
  P  P34  1  0.177558  0.999622  0.000000  1
  P  P35  1  0.999622  0.177558  0.000000  1
