# generated using pymatgen
data_Zr9Si16W11
_symmetry_space_group_name_H-M   'P 1'
_cell_length_a   6.78836949
_cell_length_b   6.78425913
_cell_length_c   12.54633622
_cell_angle_alpha   90.17208722
_cell_angle_beta   89.80264369
_cell_angle_gamma   90.03501110
_symmetry_Int_Tables_number   1
_chemical_formula_structural   Zr9Si16W11
_chemical_formula_sum   'Zr9 Si16 W11'
_cell_volume   577.80355449
_cell_formula_units_Z   1
loop_
 _symmetry_equiv_pos_site_id
 _symmetry_equiv_pos_as_xyz
  1  'x, y, z'
loop_
 _atom_site_type_symbol
 _atom_site_label
 _atom_site_symmetry_multiplicity
 _atom_site_fract_x
 _atom_site_fract_y
 _atom_site_fract_z
 _atom_site_occupancy
  Zr  Zr0  1  0.158108  0.000095  0.874183  1
  Zr  Zr1  1  0.002678  0.665096  0.033284  1
  Zr  Zr2  1  0.994065  0.337908  0.528956  1
  Zr  Zr3  1  0.660702  0.003447  0.968825  1
  Zr  Zr4  1  0.163405  0.499936  0.780668  1
  Zr  Zr5  1  0.839079  0.505914  0.281946  1
  Zr  Zr6  1  0.497624  0.161933  0.220910  1
  Zr  Zr7  1  0.503597  0.836979  0.716310  1
  Zr  Zr8  1  0.336344  0.995382  0.467863  1
  Si  Si9  1  0.037376  0.710965  0.436141  1
  Si  Si10  1  0.957502  0.302065  0.936687  1
  Si  Si11  1  0.710007  0.037428  0.562894  1
  Si  Si12  1  0.209366  0.460909  0.186437  1
  Si  Si13  1  0.790656  0.537186  0.685344  1
  Si  Si14  1  0.465752  0.211022  0.811530  1
  Si  Si15  1  0.539692  0.789220  0.315314  1
  Si  Si16  1  0.296066  0.957725  0.069774  1
  Si  Si17  1  0.861971  0.790769  0.819497  1
  Si  Si18  1  0.127031  0.203992  0.320115  1
  Si  Si19  1  0.796389  0.874458  0.179896  1
  Si  Si20  1  0.294950  0.626494  0.570085  1
  Si  Si21  1  0.704809  0.369798  0.072164  1
  Si  Si22  1  0.625916  0.295744  0.427547  1
  Si  Si23  1  0.373831  0.698928  0.932095  1
  Si  Si24  1  0.205048  0.130535  0.674168  1
  W  W25  1  0.333693  0.494768  0.377716  1
  W  W26  1  0.834662  0.006010  0.370575  1
  W  W27  1  0.997533  0.163871  0.126029  1
  W  W28  1  0.004053  0.832996  0.628576  1
  W  W29  1  0.663289  0.500334  0.879378  1
  W  W30  1  0.498298  0.336892  0.618633  1
  W  W31  1  0.508204  0.659968  0.125103  1
  W  W32  1  0.669937  0.668409  0.499301  1
  W  W33  1  0.831149  0.171646  0.748662  1
  W  W34  1  0.172650  0.831669  0.252680  1
  W  W35  1  0.334567  0.329506  0.000716  1
