# generated using pymatgen
data_Y3HoGa18Ir5Ru
_symmetry_space_group_name_H-M   'P 1'
_cell_length_a   7.57351617
_cell_length_b   7.57387871
_cell_length_c   9.55469902
_cell_angle_alpha   89.96900743
_cell_angle_beta   89.97072613
_cell_angle_gamma   119.79603942
_symmetry_Int_Tables_number   1
_chemical_formula_structural   Y3HoGa18Ir5Ru
_chemical_formula_sum   'Y3 Ho1 Ga18 Ir5 Ru1'
_cell_volume   475.61136421
_cell_formula_units_Z   1
loop_
 _symmetry_equiv_pos_site_id
 _symmetry_equiv_pos_as_xyz
  1  'x, y, z'
loop_
 _atom_site_type_symbol
 _atom_site_label
 _atom_site_symmetry_multiplicity
 _atom_site_fract_x
 _atom_site_fract_y
 _atom_site_fract_z
 _atom_site_occupancy
  Y  Y0  1  0.997746  0.669622  0.249283  1
  Y  Y1  1  0.001712  0.330668  0.751201  1
  Y  Y2  1  0.669344  0.998300  0.248798  1
  Ho  Ho3  1  0.330383  0.002229  0.750722  1
  Ga  Ga4  1  0.129126  0.129605  0.249305  1
  Ga  Ga5  1  0.870563  0.870906  0.750694  1
  Ga  Ga6  1  0.000487  0.335087  0.079474  1
  Ga  Ga7  1  0.999101  0.665635  0.919977  1
  Ga  Ga8  1  0.997256  0.662752  0.579042  1
  Ga  Ga9  1  0.337394  0.002888  0.421173  1
  Ga  Ga10  1  0.998221  0.334615  0.421018  1
  Ga  Ga11  1  0.665222  0.001778  0.579092  1
  Ga  Ga12  1  0.664755  0.999516  0.920415  1
  Ga  Ga13  1  0.334528  0.001058  0.079799  1
  Ga  Ga14  1  0.335662  0.332829  0.563282  1
  Ga  Ga15  1  0.667033  0.664331  0.436830  1
  Ga  Ga16  1  0.666737  0.666915  0.064213  1
  Ga  Ga17  1  0.333084  0.333122  0.935671  1
  Ga  Ga18  1  0.338067  0.546269  0.249511  1
  Ga  Ga19  1  0.661558  0.451266  0.748894  1
  Ga  Ga20  1  0.548543  0.338274  0.251108  1
  Ga  Ga21  1  0.453704  0.662052  0.750488  1
  Ir  Ir22  1  0.671792  0.328090  0.999950  1
  Ir  Ir23  1  0.327647  0.672413  0.999934  1
  Ir  Ir24  1  0.328279  0.671785  0.500061  1
  Ir  Ir25  1  0.999908  0.000181  0.999934  1
  Ir  Ir26  1  0.000248  0.999850  0.500065  1
  Ru  Ru27  1  0.671899  0.327962  0.500066  1
