# generated using pymatgen
data_Nd10IrRu3
_symmetry_space_group_name_H-M   'P 1'
_cell_length_a   8.92132302
_cell_length_b   8.94306660
_cell_length_c   7.39310373
_cell_angle_alpha   83.50979323
_cell_angle_beta   83.55192682
_cell_angle_gamma   43.37255268
_symmetry_Int_Tables_number   1
_chemical_formula_structural   Nd10IrRu3
_chemical_formula_sum   'Nd10 Ir1 Ru3'
_cell_volume   402.08526355
_cell_formula_units_Z   1
loop_
 _symmetry_equiv_pos_site_id
 _symmetry_equiv_pos_as_xyz
  1  'x, y, z'
loop_
 _atom_site_type_symbol
 _atom_site_label
 _atom_site_symmetry_multiplicity
 _atom_site_fract_x
 _atom_site_fract_y
 _atom_site_fract_z
 _atom_site_occupancy
  Nd  Nd0  1  0.016115  0.799958  0.916855  1
  Nd  Nd1  1  0.202127  0.983532  0.586317  1
  Nd  Nd2  1  0.984106  0.200792  0.086482  1
  Nd  Nd3  1  0.795769  0.020551  0.413067  1
  Nd  Nd4  1  0.359008  0.207188  0.815557  1
  Nd  Nd5  1  0.789725  0.642062  0.685053  1
  Nd  Nd6  1  0.642350  0.791134  0.185820  1
  Nd  Nd7  1  0.208183  0.355555  0.314383  1
  Nd  Nd8  1  0.573153  0.426622  0.749590  1
  Nd  Nd9  1  0.427669  0.574348  0.248026  1
  Ir  Ir10  1  0.179113  0.596592  0.574957  1
  Ru  Ru11  1  0.398543  0.824795  0.924026  1
  Ru  Ru12  1  0.825027  0.399089  0.425961  1
  Ru  Ru13  1  0.599112  0.177782  0.073907  1
