# generated using pymatgen
data_Ti4VTe4
_symmetry_space_group_name_H-M   'P 1'
_cell_length_a   3.76835807
_cell_length_b   7.40132460
_cell_length_c   7.39183323
_cell_angle_alpha   93.84875906
_cell_angle_beta   75.20017212
_cell_angle_gamma   104.71542999
_symmetry_Int_Tables_number   1
_chemical_formula_structural   Ti4VTe4
_chemical_formula_sum   'Ti4 V1 Te4'
_cell_volume   192.78624091
_cell_formula_units_Z   1
loop_
 _symmetry_equiv_pos_site_id
 _symmetry_equiv_pos_as_xyz
  1  'x, y, z'
loop_
 _atom_site_type_symbol
 _atom_site_label
 _atom_site_symmetry_multiplicity
 _atom_site_fract_x
 _atom_site_fract_y
 _atom_site_fract_z
 _atom_site_occupancy
  Ti  Ti0  1  0.320329  0.705271  0.065371  1
  Ti  Ti1  1  0.386054  0.065402  0.292918  1
  Ti  Ti2  1  0.613944  0.934598  0.707082  1
  Ti  Ti3  1  0.679672  0.294729  0.934629  1
  V  V4  1  0.000000  0.000000  0.000000  1
  Te  Te5  1  0.060163  0.339766  0.218234  1
  Te  Te6  1  0.720944  0.782130  0.339892  1
  Te  Te7  1  0.279054  0.217870  0.660109  1
  Te  Te8  1  0.939838  0.660235  0.781766  1
