# generated using pymatgen
data_Y6ZnGa17Pd4
_symmetry_space_group_name_H-M   'P 1'
_cell_length_a   8.16765406
_cell_length_b   8.16769485
_cell_length_c   15.75366799
_cell_angle_alpha   74.57269086
_cell_angle_beta   74.57277076
_cell_angle_gamma   30.66200642
_symmetry_Int_Tables_number   1
_chemical_formula_structural   Y6ZnGa17Pd4
_chemical_formula_sum   'Y6 Zn1 Ga17 Pd4'
_cell_volume   515.15983686
_cell_formula_units_Z   1
loop_
 _symmetry_equiv_pos_site_id
 _symmetry_equiv_pos_as_xyz
  1  'x, y, z'
loop_
 _atom_site_type_symbol
 _atom_site_label
 _atom_site_symmetry_multiplicity
 _atom_site_fract_x
 _atom_site_fract_y
 _atom_site_fract_z
 _atom_site_occupancy
  Y  Y0  1  0.749186  0.749186  0.749781  1
  Y  Y1  1  0.250814  0.250814  0.250219  1
  Y  Y2  1  0.598298  0.598298  0.599472  1
  Y  Y3  1  0.100460  0.100461  0.100707  1
  Y  Y4  1  0.899540  0.899539  0.899293  1
  Y  Y5  1  0.401702  0.401702  0.400528  1
  Zn  Zn6  1  0.000000  0.000000  0.500000  1
  Ga  Ga7  1  0.824498  0.824500  0.540451  1
  Ga  Ga8  1  0.321727  0.321722  0.039159  1
  Ga  Ga9  1  0.678273  0.678278  0.960841  1
  Ga  Ga10  1  0.175502  0.175500  0.459549  1
  Ga  Ga11  1  0.539471  0.539468  0.821589  1
  Ga  Ga12  1  0.041167  0.041164  0.324810  1
  Ga  Ga13  1  0.958833  0.958836  0.675190  1
  Ga  Ga14  1  0.460529  0.460532  0.178411  1
  Ga  Ga15  1  0.260599  0.260597  0.894440  1
  Ga  Ga16  1  0.763036  0.763035  0.396116  1
  Ga  Ga17  1  0.236964  0.236965  0.603884  1
  Ga  Ga18  1  0.739401  0.739403  0.105560  1
  Ga  Ga19  1  0.394506  0.394502  0.762062  1
  Ga  Ga20  1  0.895885  0.895879  0.261890  1
  Ga  Ga21  1  0.104115  0.104121  0.738110  1
  Ga  Ga22  1  0.605494  0.605498  0.237938  1
  Ga  Ga23  1  0.500000  0.500000  0.000000  1
  Pd  Pd24  1  0.091637  0.091637  0.907589  1
  Pd  Pd25  1  0.596037  0.596037  0.404426  1
  Pd  Pd26  1  0.403963  0.403963  0.595574  1
  Pd  Pd27  1  0.908363  0.908363  0.092411  1
