# generated using pymatgen
data_Tb10ErCd8InPd4
_symmetry_space_group_name_H-M   'P 1'
_cell_length_a   13.22693896
_cell_length_b   13.23662160
_cell_length_c   3.70153200
_cell_angle_alpha   90.00000000
_cell_angle_beta   90.00000000
_cell_angle_gamma   112.22895891
_symmetry_Int_Tables_number   1
_chemical_formula_structural   Tb10ErCd8InPd4
_chemical_formula_sum   'Tb10 Er1 Cd8 In1 Pd4'
_cell_volume   599.89971421
_cell_formula_units_Z   1
loop_
 _symmetry_equiv_pos_site_id
 _symmetry_equiv_pos_as_xyz
  1  'x, y, z'
loop_
 _atom_site_type_symbol
 _atom_site_label
 _atom_site_symmetry_multiplicity
 _atom_site_fract_x
 _atom_site_fract_y
 _atom_site_fract_z
 _atom_site_occupancy
  Tb  Tb0  1  0.585082  0.927020  0.000000  1
  Tb  Tb1  1  0.075492  0.415261  0.000000  1
  Tb  Tb2  1  0.926191  0.583469  0.000000  1
  Tb  Tb3  1  0.162080  0.836658  0.000000  1
  Tb  Tb4  1  0.837524  0.164040  0.000000  1
  Tb  Tb5  1  0.373288  0.627352  0.000000  1
  Tb  Tb6  1  0.626630  0.373102  0.000000  1
  Tb  Tb7  1  0.305371  0.303409  0.000000  1
  Tb  Tb8  1  0.691496  0.692711  0.000000  1
  Tb  Tb9  1  0.000074  0.000696  0.000000  1
  Er  Er10  1  0.415934  0.075447  0.000000  1
  Cd  Cd11  1  0.366957  0.843061  0.500000  1
  Cd  Cd12  1  0.632707  0.159208  0.500000  1
  Cd  Cd13  1  0.839573  0.366793  0.500000  1
  Cd  Cd14  1  0.160507  0.634433  0.500000  1
  Cd  Cd15  1  0.215866  0.069003  0.500000  1
  Cd  Cd16  1  0.786535  0.929312  0.500000  1
  Cd  Cd17  1  0.069374  0.214314  0.500000  1
  Cd  Cd18  1  0.499934  0.498970  0.500000  1
  In  In19  1  0.928308  0.786057  0.500000  1
  Pd  Pd20  1  0.449099  0.246627  0.500000  1
  Pd  Pd21  1  0.549405  0.751770  0.500000  1
  Pd  Pd22  1  0.250123  0.449427  0.500000  1
  Pd  Pd23  1  0.752450  0.551857  0.500000  1
