# generated using pymatgen
data_Ho5Er(CI5)2
_symmetry_space_group_name_H-M   'P 1'
_cell_length_a   7.61751665
_cell_length_b   9.46613536
_cell_length_c   9.54964284
_cell_angle_alpha   107.00038836
_cell_angle_beta   96.22888937
_cell_angle_gamma   104.18675737
_symmetry_Int_Tables_number   1
_chemical_formula_structural   Ho5Er(CI5)2
_chemical_formula_sum   'Ho5 Er1 C2 I10'
_cell_volume   626.26679133
_cell_formula_units_Z   1
loop_
 _symmetry_equiv_pos_site_id
 _symmetry_equiv_pos_as_xyz
  1  'x, y, z'
loop_
 _atom_site_type_symbol
 _atom_site_label
 _atom_site_symmetry_multiplicity
 _atom_site_fract_x
 _atom_site_fract_y
 _atom_site_fract_z
 _atom_site_occupancy
  Ho  Ho0  1  0.029206  0.744980  0.926456  1
  Ho  Ho1  1  0.103542  0.038024  0.783438  1
  Ho  Ho2  1  0.970959  0.255066  0.073698  1
  Ho  Ho3  1  0.896395  0.961788  0.216561  1
  Ho  Ho4  1  0.372569  0.131512  0.176540  1
  Er  Er5  1  0.627879  0.869220  0.824108  1
  C  C6  1  0.092036  0.030144  0.041572  1
  C  C7  1  0.907618  0.969802  0.958433  1
  I  I8  1  0.197063  0.737982  0.651519  1
  I  I9  1  0.911460  0.635591  0.177163  1
  I  I10  1  0.086270  0.363431  0.821752  1
  I  I11  1  0.746289  0.915557  0.544650  1
  I  I12  1  0.252480  0.083177  0.456406  1
  I  I13  1  0.656299  0.549609  0.728064  1
  I  I14  1  0.456816  0.810734  0.092821  1
  I  I15  1  0.805699  0.262638  0.349684  1
  I  I16  1  0.343357  0.452084  0.270918  1
  I  I17  1  0.544062  0.188659  0.906218  1
