# generated using pymatgen
data_Lu4ScBi3C
_symmetry_space_group_name_H-M   'P 1'
_cell_length_a   8.92574400
_cell_length_b   8.92574396
_cell_length_c   6.31021700
_cell_angle_alpha   90.00000000
_cell_angle_beta   90.00000000
_cell_angle_gamma   120.00000017
_symmetry_Int_Tables_number   1
_chemical_formula_structural   Lu4ScBi3C
_chemical_formula_sum   'Lu8 Sc2 Bi6 C2'
_cell_volume   435.37528965
_cell_formula_units_Z   2
loop_
 _symmetry_equiv_pos_site_id
 _symmetry_equiv_pos_as_xyz
  1  'x, y, z'
loop_
 _atom_site_type_symbol
 _atom_site_label
 _atom_site_symmetry_multiplicity
 _atom_site_fract_x
 _atom_site_fract_y
 _atom_site_fract_z
 _atom_site_occupancy
  Lu  Lu0  1  0.333333  0.666667  0.000000  1
  Lu  Lu1  1  0.666667  0.333333  0.000000  1
  Lu  Lu2  1  0.793298  0.793298  0.250023  1
  Lu  Lu3  1  0.206702  0.000000  0.250023  1
  Lu  Lu4  1  0.000000  0.206702  0.250023  1
  Lu  Lu5  1  0.206702  0.206702  0.749977  1
  Lu  Lu6  1  0.793298  0.000000  0.749977  1
  Lu  Lu7  1  0.000000  0.793298  0.749977  1
  Sc  Sc8  1  0.666667  0.333333  0.500000  1
  Sc  Sc9  1  0.333333  0.666667  0.500000  1
  Bi  Bi10  1  0.402908  0.402908  0.255616  1
  Bi  Bi11  1  0.597092  0.000000  0.255616  1
  Bi  Bi12  1  0.000000  0.597092  0.255616  1
  Bi  Bi13  1  0.597092  0.597092  0.744384  1
  Bi  Bi14  1  0.402908  0.000000  0.744384  1
  Bi  Bi15  1  0.000000  0.402908  0.744384  1
  C  C16  1  0.000000  0.000000  0.500000  1
  C  C17  1  0.000000  0.000000  0.000000  1
