# generated using pymatgen
data_Er10AlSb5
_symmetry_space_group_name_H-M   'P 1'
_cell_length_a   8.85243300
_cell_length_b   8.84986003
_cell_length_c   6.33461200
_cell_angle_alpha   90.00000000
_cell_angle_beta   90.00000000
_cell_angle_gamma   120.00961418
_symmetry_Int_Tables_number   1
_chemical_formula_structural   Er10AlSb5
_chemical_formula_sum   'Er10 Al1 Sb5'
_cell_volume   429.74182042
_cell_formula_units_Z   1
loop_
 _symmetry_equiv_pos_site_id
 _symmetry_equiv_pos_as_xyz
  1  'x, y, z'
loop_
 _atom_site_type_symbol
 _atom_site_label
 _atom_site_symmetry_multiplicity
 _atom_site_fract_x
 _atom_site_fract_y
 _atom_site_fract_z
 _atom_site_occupancy
  Er  Er0  1  0.008432  0.762828  0.750000  1
  Er  Er1  1  0.998992  0.243283  0.250000  1
  Er  Er2  1  0.755710  0.756717  0.250000  1
  Er  Er3  1  0.752628  0.000000  0.750000  1
  Er  Er4  1  0.245603  0.237172  0.750000  1
  Er  Er5  1  0.243139  0.000000  0.250000  1
  Er  Er6  1  0.334625  0.672789  0.501403  1
  Er  Er7  1  0.661836  0.327211  0.998597  1
  Er  Er8  1  0.661836  0.327211  0.501403  1
  Er  Er9  1  0.334625  0.672789  0.998597  1
  Al  Al10  1  0.395747  0.000000  0.750000  1
  Sb  Sb11  1  0.389670  0.392267  0.250000  1
  Sb  Sb12  1  0.997404  0.607733  0.250000  1
  Sb  Sb13  1  0.001527  0.390488  0.750000  1
  Sb  Sb14  1  0.611039  0.609512  0.750000  1
  Sb  Sb15  1  0.607187  0.000000  0.250000  1
