# generated using pymatgen
data_Tb2YEr5(CdNi)2
_symmetry_space_group_name_H-M   'P 1'
_cell_length_a   9.49163049
_cell_length_b   9.49163082
_cell_length_c   9.49123500
_cell_angle_alpha   60.00137598
_cell_angle_beta   60.00137485
_cell_angle_gamma   59.99724798
_symmetry_Int_Tables_number   1
_chemical_formula_structural   Tb2YEr5(CdNi)2
_chemical_formula_sum   'Tb4 Y2 Er10 Cd4 Ni4'
_cell_volume   604.62957112
_cell_formula_units_Z   2
loop_
 _symmetry_equiv_pos_site_id
 _symmetry_equiv_pos_as_xyz
  1  'x, y, z'
loop_
 _atom_site_type_symbol
 _atom_site_label
 _atom_site_symmetry_multiplicity
 _atom_site_fract_x
 _atom_site_fract_y
 _atom_site_fract_z
 _atom_site_occupancy
  Tb  Tb0  1  0.598993  0.598993  0.599645  1
  Tb  Tb1  1  0.598993  0.598993  0.202370  1
  Tb  Tb2  1  0.599645  0.202370  0.598993  1
  Tb  Tb3  1  0.202370  0.599645  0.598993  1
  Y  Y4  1  0.814496  0.814496  0.185504  1
  Y  Y5  1  0.185504  0.185504  0.814496  1
  Er  Er6  1  0.062565  0.437435  0.437435  1
  Er  Er7  1  0.437435  0.062565  0.062565  1
  Er  Er8  1  0.437435  0.062565  0.437435  1
  Er  Er9  1  0.062565  0.437435  0.062565  1
  Er  Er10  1  0.437708  0.437708  0.062292  1
  Er  Er11  1  0.062292  0.062292  0.437708  1
  Er  Er12  1  0.186046  0.813954  0.813954  1
  Er  Er13  1  0.813954  0.186046  0.186046  1
  Er  Er14  1  0.813954  0.186046  0.813954  1
  Er  Er15  1  0.186046  0.813954  0.186046  1
  Cd  Cd16  1  0.831570  0.831570  0.831224  1
  Cd  Cd17  1  0.831570  0.831570  0.505635  1
  Cd  Cd18  1  0.831224  0.505635  0.831570  1
  Cd  Cd19  1  0.505635  0.831224  0.831570  1
  Ni  Ni20  1  0.392414  0.392414  0.392282  1
  Ni  Ni21  1  0.392414  0.392414  0.822891  1
  Ni  Ni22  1  0.392282  0.822891  0.392414  1
  Ni  Ni23  1  0.822891  0.392282  0.392414  1
