# generated using pymatgen
data_La2NdReO8
_symmetry_space_group_name_H-M   'P 1'
_cell_length_a   6.34624300
_cell_length_b   7.56024576
_cell_length_c   7.58088191
_cell_angle_alpha   69.50826107
_cell_angle_beta   90.00000000
_cell_angle_gamma   90.00000000
_symmetry_Int_Tables_number   1
_chemical_formula_structural   La2NdReO8
_chemical_formula_sum   'La4 Nd2 Re2 O16'
_cell_volume   340.70881866
_cell_formula_units_Z   2
loop_
 _symmetry_equiv_pos_site_id
 _symmetry_equiv_pos_as_xyz
  1  'x, y, z'
loop_
 _atom_site_type_symbol
 _atom_site_label
 _atom_site_symmetry_multiplicity
 _atom_site_fract_x
 _atom_site_fract_y
 _atom_site_fract_z
 _atom_site_occupancy
  La  La0  1  0.250000  0.398335  0.398222  1
  La  La1  1  0.750000  0.601665  0.601778  1
  La  La2  1  0.250000  0.331273  0.892962  1
  La  La3  1  0.750000  0.668727  0.107038  1
  Nd  Nd4  1  0.750000  0.109075  0.658283  1
  Nd  Nd5  1  0.250000  0.890925  0.341717  1
  Re  Re6  1  0.250000  0.819148  0.819292  1
  Re  Re7  1  0.750000  0.180852  0.180708  1
  O  O8  1  0.999187  0.331402  0.665153  1
  O  O9  1  0.499187  0.668598  0.334847  1
  O  O10  1  0.000813  0.668598  0.334847  1
  O  O11  1  0.500813  0.331402  0.665153  1
  O  O12  1  0.952174  0.812070  0.803800  1
  O  O13  1  0.452174  0.187930  0.196200  1
  O  O14  1  0.047826  0.187930  0.196200  1
  O  O15  1  0.547826  0.812070  0.803800  1
  O  O16  1  0.750000  0.968785  0.411639  1
  O  O17  1  0.250000  0.031215  0.588361  1
  O  O18  1  0.750000  0.338899  0.337820  1
  O  O19  1  0.250000  0.661101  0.662180  1
  O  O20  1  0.750000  0.411344  0.970249  1
  O  O21  1  0.250000  0.588656  0.029751  1
  O  O22  1  0.750000  0.037435  0.027745  1
  O  O23  1  0.250000  0.962565  0.972255  1
