# generated using pymatgen
data_Zr19Si16Pd
_symmetry_space_group_name_H-M   'P 1'
_cell_length_a   7.14640366
_cell_length_b   7.14640366
_cell_length_c   12.94857741
_cell_angle_alpha   89.69408554
_cell_angle_beta   90.30591466
_cell_angle_gamma   90.00417957
_symmetry_Int_Tables_number   1
_chemical_formula_structural   Zr19Si16Pd
_chemical_formula_sum   'Zr19 Si16 Pd1'
_cell_volume   661.27904878
_cell_formula_units_Z   1
loop_
 _symmetry_equiv_pos_site_id
 _symmetry_equiv_pos_as_xyz
  1  'x, y, z'
loop_
 _atom_site_type_symbol
 _atom_site_label
 _atom_site_symmetry_multiplicity
 _atom_site_fract_x
 _atom_site_fract_y
 _atom_site_fract_z
 _atom_site_occupancy
  Zr  Zr0  1  0.360013  0.503116  0.381793  1
  Zr  Zr1  1  0.859070  0.994937  0.373536  1
  Zr  Zr2  1  0.002190  0.144427  0.128605  1
  Zr  Zr3  1  0.994937  0.859070  0.626464  1
  Zr  Zr4  1  0.642891  0.500871  0.875309  1
  Zr  Zr5  1  0.503116  0.360013  0.618207  1
  Zr  Zr6  1  0.500871  0.642891  0.124691  1
  Zr  Zr7  1  0.144427  0.002190  0.871395  1
  Zr  Zr8  1  0.998424  0.647977  0.036973  1
  Zr  Zr9  1  0.993595  0.351091  0.534086  1
  Zr  Zr10  1  0.647977  0.998424  0.963027  1
  Zr  Zr11  1  0.148139  0.502796  0.784112  1
  Zr  Zr12  1  0.852247  0.498054  0.288793  1
  Zr  Zr13  1  0.502796  0.148139  0.215888  1
  Zr  Zr14  1  0.498054  0.852247  0.711207  1
  Zr  Zr15  1  0.351091  0.993595  0.465914  1
  Zr  Zr16  1  0.821560  0.179884  0.747810  1
  Zr  Zr17  1  0.179884  0.821560  0.252190  1
  Zr  Zr18  1  0.323907  0.323907  0.000000  1
  Si  Si19  1  0.055358  0.702400  0.440256  1
  Si  Si20  1  0.947004  0.300700  0.937435  1
  Si  Si21  1  0.702400  0.055358  0.559744  1
  Si  Si22  1  0.201929  0.447399  0.190250  1
  Si  Si23  1  0.794943  0.559871  0.684994  1
  Si  Si24  1  0.447399  0.201929  0.809750  1
  Si  Si25  1  0.559871  0.794943  0.315006  1
  Si  Si26  1  0.300700  0.947004  0.062565  1
  Si  Si27  1  0.851053  0.795363  0.821718  1
  Si  Si28  1  0.151212  0.204301  0.325054  1
  Si  Si29  1  0.795363  0.851053  0.178282  1
  Si  Si30  1  0.280400  0.641812  0.577005  1
  Si  Si31  1  0.705958  0.351465  0.073131  1
  Si  Si32  1  0.641812  0.280400  0.422995  1
  Si  Si33  1  0.351465  0.705958  0.926869  1
  Si  Si34  1  0.204301  0.151212  0.674946  1
  Pd  Pd35  1  0.683642  0.683642  0.500000  1
