# generated using pymatgen
data_Pr3NdCd2Si3Ge
_symmetry_space_group_name_H-M   'P 1'
_cell_length_a   7.44132993
_cell_length_b   7.44132954
_cell_length_c   4.38885300
_cell_angle_alpha   90.00000000
_cell_angle_beta   90.00000000
_cell_angle_gamma   89.94111286
_symmetry_Int_Tables_number   1
_chemical_formula_structural   Pr3NdCd2Si3Ge
_chemical_formula_sum   'Pr3 Nd1 Cd2 Si3 Ge1'
_cell_volume   243.02553245
_cell_formula_units_Z   1
loop_
 _symmetry_equiv_pos_site_id
 _symmetry_equiv_pos_as_xyz
  1  'x, y, z'
loop_
 _atom_site_type_symbol
 _atom_site_label
 _atom_site_symmetry_multiplicity
 _atom_site_fract_x
 _atom_site_fract_y
 _atom_site_fract_z
 _atom_site_occupancy
  Pr  Pr0  1  0.682333  0.179944  0.500000  1
  Pr  Pr1  1  0.320056  0.817667  0.500000  1
  Pr  Pr2  1  0.178484  0.321516  0.500000  1
  Nd  Nd3  1  0.820611  0.679389  0.500000  1
  Cd  Cd4  1  0.502096  0.503364  0.000000  1
  Cd  Cd5  1  0.996636  0.997904  0.000000  1
  Si  Si6  1  0.112492  0.614429  0.000000  1
  Si  Si7  1  0.885571  0.387508  0.000000  1
  Si  Si8  1  0.617843  0.882157  0.000000  1
  Ge  Ge9  1  0.383878  0.116122  0.000000  1
