# generated using pymatgen
data_Dy5TmAl24Os7Au
_symmetry_space_group_name_H-M   'P 1'
_cell_length_a   8.86934024
_cell_length_b   8.86934078
_cell_length_c   9.56408503
_cell_angle_alpha   89.78079973
_cell_angle_beta   90.21919963
_cell_angle_gamma   120.01502978
_symmetry_Int_Tables_number   1
_chemical_formula_structural   Dy5TmAl24Os7Au
_chemical_formula_sum   'Dy5 Tm1 Al24 Os7 Au1'
_cell_volume   651.45839637
_cell_formula_units_Z   1
loop_
 _symmetry_equiv_pos_site_id
 _symmetry_equiv_pos_as_xyz
  1  'x, y, z'
loop_
 _atom_site_type_symbol
 _atom_site_label
 _atom_site_symmetry_multiplicity
 _atom_site_fract_x
 _atom_site_fract_y
 _atom_site_fract_z
 _atom_site_occupancy
  Dy  Dy0  1  0.190561  0.386497  0.251141  1
  Dy  Dy1  1  0.809447  0.613361  0.748849  1
  Dy  Dy2  1  0.613503  0.809439  0.251141  1
  Dy  Dy3  1  0.386639  0.190553  0.748849  1
  Dy  Dy4  1  0.194761  0.805239  0.254278  1
  Tm  Tm5  1  0.804053  0.195947  0.745521  1
  Al  Al6  1  0.328631  0.671369  0.022952  1
  Al  Al7  1  0.671631  0.328369  0.976318  1
  Al  Al8  1  0.666234  0.333766  0.518673  1
  Al  Al9  1  0.333966  0.666034  0.481904  1
  Al  Al10  1  0.162565  0.325641  0.575737  1
  Al  Al11  1  0.836987  0.673971  0.424745  1
  Al  Al12  1  0.674359  0.837435  0.575737  1
  Al  Al13  1  0.848423  0.677398  0.079334  1
  Al  Al14  1  0.326029  0.163013  0.424745  1
  Al  Al15  1  0.150968  0.322120  0.920156  1
  Al  Al16  1  0.163288  0.836712  0.575826  1
  Al  Al17  1  0.322602  0.151577  0.079334  1
  Al  Al18  1  0.836804  0.163196  0.425047  1
  Al  Al19  1  0.677880  0.849032  0.920156  1
  Al  Al20  1  0.836658  0.163342  0.075013  1
  Al  Al21  1  0.163390  0.836610  0.924133  1
  Al  Al22  1  0.561272  0.121883  0.249216  1
  Al  Al23  1  0.439611  0.878709  0.750769  1
  Al  Al24  1  0.878117  0.438728  0.249216  1
  Al  Al25  1  0.121291  0.560389  0.750769  1
  Al  Al26  1  0.563754  0.436246  0.255780  1
  Al  Al27  1  0.436220  0.563780  0.744295  1
  Al  Al28  1  0.999567  0.000433  0.250342  1
  Al  Al29  1  0.999667  0.000333  0.749652  1
  Os  Os30  1  0.500423  0.000148  0.999673  1
  Os  Os31  1  0.999852  0.499577  0.999673  1
  Os  Os32  1  0.500614  0.000268  0.500434  1
  Os  Os33  1  0.999732  0.499386  0.500434  1
  Os  Os34  1  0.500115  0.499885  0.500079  1
  Os  Os35  1  0.000125  0.999875  0.999993  1
  Os  Os36  1  0.000117  0.999883  0.500077  1
  Au  Au37  1  0.500145  0.499855  0.000013  1
