# generated using pymatgen
data_Ac10Si5Pb
_symmetry_space_group_name_H-M   'P 1'
_cell_length_a   9.76015721
_cell_length_b   9.76015821
_cell_length_c   9.76015382
_cell_angle_alpha   129.94927665
_cell_angle_beta   129.94932113
_cell_angle_gamma   73.48788781
_symmetry_Int_Tables_number   1
_chemical_formula_structural   Ac10Si5Pb
_chemical_formula_sum   'Ac10 Si5 Pb1'
_cell_volume   533.27951545
_cell_formula_units_Z   1
loop_
 _symmetry_equiv_pos_site_id
 _symmetry_equiv_pos_as_xyz
  1  'x, y, z'
loop_
 _atom_site_type_symbol
 _atom_site_label
 _atom_site_symmetry_multiplicity
 _atom_site_fract_x
 _atom_site_fract_y
 _atom_site_fract_z
 _atom_site_occupancy
  Ac  Ac0  1  0.547510  0.019575  0.847643  1
  Ac  Ac1  1  0.171931  0.699867  0.152357  1
  Ac  Ac2  1  0.019575  0.171932  0.472065  1
  Ac  Ac3  1  0.699867  0.547510  0.527935  1
  Ac  Ac4  1  0.480526  0.952404  0.152305  1
  Ac  Ac5  1  0.800099  0.328220  0.847695  1
  Ac  Ac6  1  0.952404  0.800098  0.471878  1
  Ac  Ac7  1  0.328220  0.480526  0.528122  1
  Ac  Ac8  1  0.024488  0.024487  0.000000  1
  Ac  Ac9  1  0.474926  0.474926  0.000000  1
  Si  Si10  1  0.750537  0.750538  0.000000  1
  Si  Si11  1  0.886220  0.386143  0.272280  1
  Si  Si12  1  0.113863  0.613940  0.727720  1
  Si  Si13  1  0.386143  0.113863  0.499923  1
  Si  Si14  1  0.613940  0.886220  0.500077  1
  Pb  Pb15  1  0.249753  0.249753  0.000000  1
