# generated using pymatgen
data_Pr2Sm3U5O19
_symmetry_space_group_name_H-M   'P 1'
_cell_length_a   6.81447371
_cell_length_b   7.68710123
_cell_length_c   8.62049282
_cell_angle_alpha   100.94256450
_cell_angle_beta   97.64750489
_cell_angle_gamma   107.26040075
_symmetry_Int_Tables_number   1
_chemical_formula_structural   Pr2Sm3U5O19
_chemical_formula_sum   'Pr2 Sm3 U5 O19'
_cell_volume   414.66655735
_cell_formula_units_Z   1
loop_
 _symmetry_equiv_pos_site_id
 _symmetry_equiv_pos_as_xyz
  1  'x, y, z'
loop_
 _atom_site_type_symbol
 _atom_site_label
 _atom_site_symmetry_multiplicity
 _atom_site_fract_x
 _atom_site_fract_y
 _atom_site_fract_z
 _atom_site_occupancy
  Pr  Pr0  1  0.998652  0.499497  0.995586  1
  Pr  Pr1  1  0.208050  0.911137  0.390772  1
  Sm  Sm2  1  0.801189  0.099337  0.603412  1
  Sm  Sm3  1  0.388231  0.296730  0.800994  1
  Sm  Sm4  1  0.606124  0.702039  0.201940  1
  U  U5  1  0.773885  0.596248  0.599697  1
  U  U6  1  0.607839  0.205730  0.198717  1
  U  U7  1  0.999323  0.002199  0.995659  1
  U  U8  1  0.411139  0.810176  0.816478  1
  U  U9  1  0.199226  0.387456  0.390545  1
  O  O10  1  0.344819  0.062188  0.953794  1
  O  O11  1  0.432904  0.993136  0.654684  1
  O  O12  1  0.043125  0.214266  0.853467  1
  O  O13  1  0.722250  0.379953  0.732311  1
  O  O14  1  0.147153  0.184068  0.538414  1
  O  O15  1  0.361837  0.592688  0.952584  1
  O  O16  1  0.952975  0.266353  0.158553  1
  O  O17  1  0.898066  0.391224  0.460709  1
  O  O18  1  0.747781  0.865203  0.759857  1
  O  O19  1  0.546482  0.459532  0.360414  1
  O  O20  1  0.410790  0.552544  0.634173  1
  O  O21  1  0.257873  0.134058  0.237368  1
  O  O22  1  0.060471  0.717357  0.798162  1
  O  O23  1  0.643431  0.412317  0.058641  1
  O  O24  1  0.860583  0.802369  0.463124  1
  O  O25  1  0.251146  0.617462  0.273756  1
  O  O26  1  0.951769  0.786401  0.128869  1
  O  O27  1  0.578159  0.003840  0.348230  1
  O  O28  1  0.658647  0.942129  0.047327  1
