# generated using pymatgen
data_Pr5Nd3(Si3Ir)4
_symmetry_space_group_name_H-M   'P 1'
_cell_length_a   8.28096000
_cell_length_b   8.28096921
_cell_length_c   8.52337500
_cell_angle_alpha   90.00000000
_cell_angle_beta   90.00000000
_cell_angle_gamma   119.99997514
_symmetry_Int_Tables_number   1
_chemical_formula_structural   Pr5Nd3(Si3Ir)4
_chemical_formula_sum   'Pr5 Nd3 Si12 Ir4'
_cell_volume   506.17908167
_cell_formula_units_Z   1
loop_
 _symmetry_equiv_pos_site_id
 _symmetry_equiv_pos_as_xyz
  1  'x, y, z'
loop_
 _atom_site_type_symbol
 _atom_site_label
 _atom_site_symmetry_multiplicity
 _atom_site_fract_x
 _atom_site_fract_y
 _atom_site_fract_z
 _atom_site_occupancy
  Pr  Pr0  1  0.000001  0.000001  0.750000  1
  Pr  Pr1  1  0.000002  0.999998  0.250000  1
  Pr  Pr2  1  0.499742  0.500260  0.750000  1
  Pr  Pr3  1  0.499740  0.999484  0.750000  1
  Pr  Pr4  1  0.000516  0.500262  0.750000  1
  Nd  Nd5  1  0.500250  0.499746  0.250000  1
  Nd  Nd6  1  0.999511  0.499756  0.250000  1
  Nd  Nd7  1  0.500250  0.000496  0.250000  1
  Si  Si8  1  0.833112  0.166886  0.001545  1
  Si  Si9  1  0.833111  0.666226  0.001545  1
  Si  Si10  1  0.333776  0.166888  0.001544  1
  Si  Si11  1  0.833112  0.166886  0.498455  1
  Si  Si12  1  0.833111  0.666226  0.498455  1
  Si  Si13  1  0.333776  0.166888  0.498456  1
  Si  Si14  1  0.166882  0.833121  0.498668  1
  Si  Si15  1  0.666234  0.833117  0.498666  1
  Si  Si16  1  0.166881  0.333761  0.498668  1
  Si  Si17  1  0.166882  0.833121  0.001332  1
  Si  Si18  1  0.666234  0.833117  0.001334  1
  Si  Si19  1  0.166881  0.333761  0.001332  1
  Ir  Ir20  1  0.666668  0.333334  0.002067  1
  Ir  Ir21  1  0.666668  0.333334  0.497933  1
  Ir  Ir22  1  0.333329  0.666665  0.496818  1
  Ir  Ir23  1  0.333329  0.666665  0.003182  1
