# generated using pymatgen
data_Nd3Th5Zn8IrRh7
_symmetry_space_group_name_H-M   'P 1'
_cell_length_a   3.94523600
_cell_length_b   7.54087643
_cell_length_c   16.57152677
_cell_angle_alpha   90.35509774
_cell_angle_beta   90.00000000
_cell_angle_gamma   90.00000000
_symmetry_Int_Tables_number   1
_chemical_formula_structural   Nd3Th5Zn8IrRh7
_chemical_formula_sum   'Nd3 Th5 Zn8 Ir1 Rh7'
_cell_volume   493.00235453
_cell_formula_units_Z   1
loop_
 _symmetry_equiv_pos_site_id
 _symmetry_equiv_pos_as_xyz
  1  'x, y, z'
loop_
 _atom_site_type_symbol
 _atom_site_label
 _atom_site_symmetry_multiplicity
 _atom_site_fract_x
 _atom_site_fract_y
 _atom_site_fract_z
 _atom_site_occupancy
  Nd  Nd0  1  0.750000  0.444601  0.215033  1
  Nd  Nd1  1  0.250000  0.053604  0.713959  1
  Nd  Nd2  1  0.250000  0.553382  0.785637  1
  Th  Th3  1  0.250000  0.173422  0.938460  1
  Th  Th4  1  0.250000  0.673077  0.561568  1
  Th  Th5  1  0.750000  0.326051  0.438950  1
  Th  Th6  1  0.750000  0.946897  0.284561  1
  Th  Th7  1  0.750000  0.829582  0.060337  1
  Zn  Zn8  1  0.750000  0.006982  0.560766  1
  Zn  Zn9  1  0.250000  0.615427  0.345242  1
  Zn  Zn10  1  0.750000  0.380887  0.654880  1
  Zn  Zn11  1  0.250000  0.496371  0.061874  1
  Zn  Zn12  1  0.750000  0.507023  0.938782  1
  Zn  Zn13  1  0.250000  0.992166  0.441785  1
  Zn  Zn14  1  0.250000  0.123295  0.152029  1
  Zn  Zn15  1  0.750000  0.881096  0.845051  1
  Ir  Ir16  1  0.250000  0.231538  0.318863  1
  Rh  Rh17  1  0.750000  0.741918  0.438557  1
  Rh  Rh18  1  0.750000  0.247552  0.820538  1
  Rh  Rh19  1  0.750000  0.748516  0.678732  1
  Rh  Rh20  1  0.250000  0.261313  0.559872  1
  Rh  Rh21  1  0.250000  0.761980  0.184953  1
  Rh  Rh22  1  0.750000  0.242934  0.058426  1
  Rh  Rh23  1  0.250000  0.760388  0.941146  1
