# generated using pymatgen
data_Sr2Cd19Au3
_symmetry_space_group_name_H-M   'P 1'
_cell_length_a   9.37066942
_cell_length_b   9.38351983
_cell_length_c   9.38351569
_cell_angle_alpha   99.60574273
_cell_angle_beta   99.65902164
_cell_angle_gamma   131.79675763
_symmetry_Int_Tables_number   1
_chemical_formula_structural   Sr2Cd19Au3
_chemical_formula_sum   'Sr2 Cd19 Au3'
_cell_volume   561.10684514
_cell_formula_units_Z   1
loop_
 _symmetry_equiv_pos_site_id
 _symmetry_equiv_pos_as_xyz
  1  'x, y, z'
loop_
 _atom_site_type_symbol
 _atom_site_label
 _atom_site_symmetry_multiplicity
 _atom_site_fract_x
 _atom_site_fract_y
 _atom_site_fract_z
 _atom_site_occupancy
  Sr  Sr0  1  0.750622  0.250320  0.500301  1
  Sr  Sr1  1  0.499378  0.499680  0.999699  1
  Cd  Cd2  1  0.994500  0.316622  0.918959  1
  Cd  Cd3  1  0.683305  0.603202  0.677878  1
  Cd  Cd4  1  0.399711  0.321005  0.322898  1
  Cd  Cd5  1  0.683305  0.005427  0.080103  1
  Cd  Cd6  1  0.850289  0.428995  0.177102  1
  Cd  Cd7  1  0.399711  0.076813  0.078706  1
  Cd  Cd8  1  0.998493  0.001844  0.996649  1
  Cd  Cd9  1  0.850289  0.673187  0.421294  1
  Cd  Cd10  1  0.251507  0.748156  0.503351  1
  Cd  Cd11  1  0.327635  0.741611  0.175319  1
  Cd  Cd12  1  0.125000  0.875000  0.250000  1
  Cd  Cd13  1  0.255500  0.433378  0.581041  1
  Cd  Cd14  1  0.566695  0.744573  0.419897  1
  Cd  Cd15  1  0.994501  0.075542  0.677878  1
  Cd  Cd16  1  0.922365  0.008389  0.324681  1
  Cd  Cd17  1  0.327635  0.152316  0.586024  1
  Cd  Cd18  1  0.255499  0.674458  0.822122  1
  Cd  Cd19  1  0.566695  0.146798  0.822122  1
  Cd  Cd20  1  0.922365  0.597684  0.913976  1
  Au  Au21  1  0.125000  0.875000  0.750000  1
  Au  Au22  1  0.625000  0.875000  0.750000  1
  Au  Au23  1  0.125000  0.375000  0.250000  1
