# generated using pymatgen
data_Ho2PaIn3Ir2Rh
_symmetry_space_group_name_H-M   'P 1'
_cell_length_a   7.59121333
_cell_length_b   7.83893851
_cell_length_c   3.79020200
_cell_angle_alpha   90.00000000
_cell_angle_beta   90.00000000
_cell_angle_gamma   121.08549426
_symmetry_Int_Tables_number   1
_chemical_formula_structural   Ho2PaIn3Ir2Rh
_chemical_formula_sum   'Ho2 Pa1 In3 Ir2 Rh1'
_cell_volume   193.15518407
_cell_formula_units_Z   1
loop_
 _symmetry_equiv_pos_site_id
 _symmetry_equiv_pos_as_xyz
  1  'x, y, z'
loop_
 _atom_site_type_symbol
 _atom_site_label
 _atom_site_symmetry_multiplicity
 _atom_site_fract_x
 _atom_site_fract_y
 _atom_site_fract_z
 _atom_site_occupancy
  Ho  Ho0  1  0.595886  0.594787  0.500000  1
  Ho  Ho1  1  0.404114  0.998902  0.500000  1
  Pa  Pa2  1  0.000000  0.418864  0.500000  1
  In  In3  1  0.270470  0.258844  0.000000  1
  In  In4  1  0.000000  0.756740  0.000000  1
  In  In5  1  0.729530  0.988374  0.000000  1
  Ir  Ir6  1  0.301511  0.637493  0.000000  1
  Ir  Ir7  1  0.698489  0.335981  0.000000  1
  Rh  Rh8  1  0.000000  0.010015  0.500000  1
