# generated using pymatgen
data_SmDy4Ho(SbO7)2
_symmetry_space_group_name_H-M   'P 1'
_cell_length_a   6.48705432
_cell_length_b   6.48400574
_cell_length_c   7.54712400
_cell_angle_alpha   90.03081157
_cell_angle_beta   89.96997936
_cell_angle_gamma   109.33337782
_symmetry_Int_Tables_number   1
_chemical_formula_structural   SmDy4Ho(SbO7)2
_chemical_formula_sum   'Sm1 Dy4 Ho1 Sb2 O14'
_cell_volume   299.54636083
_cell_formula_units_Z   1
loop_
 _symmetry_equiv_pos_site_id
 _symmetry_equiv_pos_as_xyz
  1  'x, y, z'
loop_
 _atom_site_type_symbol
 _atom_site_label
 _atom_site_symmetry_multiplicity
 _atom_site_fract_x
 _atom_site_fract_y
 _atom_site_fract_z
 _atom_site_occupancy
  Sm  Sm0  1  0.499712  0.499892  0.999770  1
  Dy  Dy1  1  0.499651  0.499862  0.500215  1
  Dy  Dy2  1  0.531837  0.000484  0.748448  1
  Dy  Dy3  1  0.000526  0.531558  0.251561  1
  Dy  Dy4  1  0.468276  0.999534  0.251545  1
  Ho  Ho5  1  0.999041  0.468657  0.748347  1
  Sb  Sb6  1  0.000068  0.999982  0.500341  1
  Sb  Sb7  1  0.000069  0.999972  0.999656  1
  O  O8  1  0.678727  0.927779  0.470283  1
  O  O9  1  0.928801  0.678686  0.530728  1
  O  O10  1  0.678241  0.928927  0.029842  1
  O  O11  1  0.929890  0.678180  0.969124  1
  O  O12  1  0.321516  0.072131  0.529808  1
  O  O13  1  0.071555  0.321515  0.471048  1
  O  O14  1  0.321998  0.070973  0.970074  1
  O  O15  1  0.070469  0.321979  0.029109  1
  O  O16  1  0.930459  0.070500  0.750131  1
  O  O17  1  0.069424  0.930167  0.249867  1
  O  O18  1  0.366051  0.631075  0.744924  1
  O  O19  1  0.631941  0.368087  0.255127  1
  O  O20  1  0.640022  0.361878  0.745201  1
  O  O21  1  0.361726  0.638181  0.254850  1
