# generated using pymatgen
data_Rb2TiZn3As4
_symmetry_space_group_name_H-M   'P 1'
_cell_length_a   7.91940313
_cell_length_b   7.91940318
_cell_length_c   5.90670300
_cell_angle_alpha   90.00000000
_cell_angle_beta   90.00000000
_cell_angle_gamma   136.09152640
_symmetry_Int_Tables_number   1
_chemical_formula_structural   Rb2TiZn3As4
_chemical_formula_sum   'Rb2 Ti1 Zn3 As4'
_cell_volume   256.91044143
_cell_formula_units_Z   1
loop_
 _symmetry_equiv_pos_site_id
 _symmetry_equiv_pos_as_xyz
  1  'x, y, z'
loop_
 _atom_site_type_symbol
 _atom_site_label
 _atom_site_symmetry_multiplicity
 _atom_site_fract_x
 _atom_site_fract_y
 _atom_site_fract_z
 _atom_site_occupancy
  Rb  Rb0  1  0.500000  0.000000  0.254962  1
  Rb  Rb1  1  0.000000  0.500000  0.745038  1
  Ti  Ti2  1  0.000000  0.000000  0.000000  1
  Zn  Zn3  1  0.500000  0.500000  0.500000  1
  Zn  Zn4  1  0.500000  0.500000  0.000000  1
  Zn  Zn5  1  0.000000  0.000000  0.500000  1
  As  As6  1  0.656864  0.857729  0.758099  1
  As  As7  1  0.142271  0.343136  0.241901  1
  As  As8  1  0.857729  0.656864  0.241901  1
  As  As9  1  0.343136  0.142271  0.758099  1
