# generated using pymatgen
data_LiY12Th4Mg3Ir4
_symmetry_space_group_name_H-M   'P 1'
_cell_length_a   9.85776266
_cell_length_b   9.85776296
_cell_length_c   9.85776315
_cell_angle_alpha   59.63692848
_cell_angle_beta   59.63692656
_cell_angle_gamma   59.63692913
_symmetry_Int_Tables_number   1
_chemical_formula_structural   LiY12Th4Mg3Ir4
_chemical_formula_sum   'Li1 Y12 Th4 Mg3 Ir4'
_cell_volume   671.77242261
_cell_formula_units_Z   1
loop_
 _symmetry_equiv_pos_site_id
 _symmetry_equiv_pos_as_xyz
  1  'x, y, z'
loop_
 _atom_site_type_symbol
 _atom_site_label
 _atom_site_symmetry_multiplicity
 _atom_site_fract_x
 _atom_site_fract_y
 _atom_site_fract_z
 _atom_site_occupancy
  Li  Li0  1  0.829244  0.829244  0.829244  1
  Y  Y1  1  0.061604  0.438001  0.438001  1
  Y  Y2  1  0.434596  0.063961  0.063961  1
  Y  Y3  1  0.438001  0.061604  0.438001  1
  Y  Y4  1  0.063961  0.434596  0.063961  1
  Y  Y5  1  0.438001  0.438001  0.061604  1
  Y  Y6  1  0.063961  0.063961  0.434596  1
  Y  Y7  1  0.185810  0.815317  0.815317  1
  Y  Y8  1  0.814668  0.185170  0.185170  1
  Y  Y9  1  0.815317  0.185810  0.815317  1
  Y  Y10  1  0.185170  0.814668  0.185170  1
  Y  Y11  1  0.815317  0.815317  0.185810  1
  Y  Y12  1  0.185170  0.185170  0.814668  1
  Th  Th13  1  0.597243  0.597243  0.597243  1
  Th  Th14  1  0.597601  0.597601  0.207602  1
  Th  Th15  1  0.597601  0.207602  0.597601  1
  Th  Th16  1  0.207602  0.597601  0.597601  1
  Mg  Mg17  1  0.829852  0.829852  0.509691  1
  Mg  Mg18  1  0.829852  0.509691  0.829852  1
  Mg  Mg19  1  0.509691  0.829852  0.829852  1
  Ir  Ir20  1  0.393682  0.393682  0.393682  1
  Ir  Ir21  1  0.393509  0.393509  0.819038  1
  Ir  Ir22  1  0.393509  0.819038  0.393509  1
  Ir  Ir23  1  0.819038  0.393509  0.393509  1
