# generated using pymatgen
data_Nb2Ir5Rh
_symmetry_space_group_name_H-M   'P 1'
_cell_length_a   5.58157700
_cell_length_b   5.58157684
_cell_length_c   13.51783400
_cell_angle_alpha   90.00000000
_cell_angle_beta   90.00000000
_cell_angle_gamma   120.00000688
_symmetry_Int_Tables_number   1
_chemical_formula_structural   Nb2Ir5Rh
_chemical_formula_sum   'Nb6 Ir15 Rh3'
_cell_volume   364.71324769
_cell_formula_units_Z   3
loop_
 _symmetry_equiv_pos_site_id
 _symmetry_equiv_pos_as_xyz
  1  'x, y, z'
loop_
 _atom_site_type_symbol
 _atom_site_label
 _atom_site_symmetry_multiplicity
 _atom_site_fract_x
 _atom_site_fract_y
 _atom_site_fract_z
 _atom_site_occupancy
  Nb  Nb0  1  0.000000  0.000000  0.250547  1
  Nb  Nb1  1  0.000000  0.000000  0.749733  1
  Nb  Nb2  1  0.333333  0.666667  0.411091  1
  Nb  Nb3  1  0.666667  0.333333  0.589448  1
  Nb  Nb4  1  0.666667  0.333333  0.910280  1
  Nb  Nb5  1  0.333333  0.666667  0.089101  1
  Ir  Ir6  1  0.503620  0.496380  0.249993  1
  Ir  Ir7  1  0.503620  0.007240  0.249993  1
  Ir  Ir8  1  0.992760  0.496380  0.249993  1
  Ir  Ir9  1  0.496143  0.503857  0.749767  1
  Ir  Ir10  1  0.496143  0.992286  0.749767  1
  Ir  Ir11  1  0.007714  0.503857  0.749767  1
  Ir  Ir12  1  0.164990  0.329978  0.917148  1
  Ir  Ir13  1  0.670022  0.835010  0.917148  1
  Ir  Ir14  1  0.164990  0.835010  0.917148  1
  Ir  Ir15  1  0.834689  0.669379  0.082933  1
  Ir  Ir16  1  0.330621  0.165311  0.082933  1
  Ir  Ir17  1  0.834689  0.165311  0.082933  1
  Ir  Ir18  1  0.835010  0.670021  0.417346  1
  Ir  Ir19  1  0.329979  0.164990  0.417346  1
  Ir  Ir20  1  0.835010  0.164990  0.417346  1
  Rh  Rh21  1  0.165220  0.330439  0.582746  1
  Rh  Rh22  1  0.669561  0.834780  0.582746  1
  Rh  Rh23  1  0.165220  0.834780  0.582746  1
