# generated using pymatgen
data_Ta6NbZn5Ru12
_symmetry_space_group_name_H-M   'P 1'
_cell_length_a   4.39986600
_cell_length_b   6.26503100
_cell_length_c   13.16570401
_cell_angle_alpha   90.00000000
_cell_angle_beta   89.99502783
_cell_angle_gamma   90.00000000
_symmetry_Int_Tables_number   1
_chemical_formula_structural   Ta6NbZn5Ru12
_chemical_formula_sum   'Ta6 Nb1 Zn5 Ru12'
_cell_volume   362.91653879
_cell_formula_units_Z   1
loop_
 _symmetry_equiv_pos_site_id
 _symmetry_equiv_pos_as_xyz
  1  'x, y, z'
loop_
 _atom_site_type_symbol
 _atom_site_label
 _atom_site_symmetry_multiplicity
 _atom_site_fract_x
 _atom_site_fract_y
 _atom_site_fract_z
 _atom_site_occupancy
  Ta  Ta0  1  0.000000  0.500000  0.000000  1
  Ta  Ta1  1  0.499859  0.000000  0.177228  1
  Ta  Ta2  1  0.999832  0.500000  0.336220  1
  Ta  Ta3  1  0.499999  0.000000  0.500000  1
  Ta  Ta4  1  0.000169  0.500000  0.663781  1
  Ta  Ta5  1  0.500139  0.000000  0.822772  1
  Nb  Nb6  1  0.000000  0.000000  0.000000  1
  Zn  Zn7  1  0.499809  0.500000  0.167304  1
  Zn  Zn8  1  0.999802  0.000000  0.334120  1
  Zn  Zn9  1  0.499999  0.500000  0.500000  1
  Zn  Zn10  1  0.000198  0.000000  0.665879  1
  Zn  Zn11  1  0.500191  0.500000  0.832696  1
  Ru  Ru12  1  0.499999  0.246168  0.000000  1
  Ru  Ru13  1  0.499999  0.753831  0.000000  1
  Ru  Ru14  1  0.999867  0.248710  0.164018  1
  Ru  Ru15  1  0.999867  0.751289  0.164018  1
  Ru  Ru16  1  0.499831  0.251789  0.333844  1
  Ru  Ru17  1  0.499831  0.748212  0.333844  1
  Ru  Ru18  1  0.000000  0.251767  0.500000  1
  Ru  Ru19  1  0.000000  0.748234  0.500000  1
  Ru  Ru20  1  0.500167  0.251789  0.666157  1
  Ru  Ru21  1  0.500167  0.748212  0.666157  1
  Ru  Ru22  1  0.000134  0.248710  0.835982  1
  Ru  Ru23  1  0.000134  0.751289  0.835982  1
