# generated using pymatgen
data_AgRuF6
_symmetry_space_group_name_H-M   'P 1'
_cell_length_a   5.92462428
_cell_length_b   5.92463061
_cell_length_c   5.92462882
_cell_angle_alpha   54.27990717
_cell_angle_beta   54.27987465
_cell_angle_gamma   54.28012904
_symmetry_Int_Tables_number   1
_chemical_formula_structural   AgRuF6
_chemical_formula_sum   'Ag1 Ru1 F6'
_cell_volume   127.42473852
_cell_formula_units_Z   1
loop_
 _symmetry_equiv_pos_site_id
 _symmetry_equiv_pos_as_xyz
  1  'x, y, z'
loop_
 _atom_site_type_symbol
 _atom_site_label
 _atom_site_symmetry_multiplicity
 _atom_site_fract_x
 _atom_site_fract_y
 _atom_site_fract_z
 _atom_site_occupancy
  Ag  Ag0  1  0.500000  0.500000  0.500000  1
  Ru  Ru1  1  0.000000  0.000000  0.000000  1
  F  F2  1  0.637804  0.214055  0.928608  1
  F  F3  1  0.928606  0.637804  0.214056  1
  F  F4  1  0.785945  0.071394  0.362195  1
  F  F5  1  0.071394  0.362196  0.785944  1
  F  F6  1  0.362196  0.785945  0.071392  1
  F  F7  1  0.214055  0.928606  0.637805  1
