# generated using pymatgen
data_Ba4ErTm(CoO5)2
_symmetry_space_group_name_H-M   'P 1'
_cell_length_a   6.13605000
_cell_length_b   7.93318874
_cell_length_c   12.45127476
_cell_angle_alpha   91.39247416
_cell_angle_beta   90.00000000
_cell_angle_gamma   90.00000000
_symmetry_Int_Tables_number   1
_chemical_formula_structural   Ba4ErTm(CoO5)2
_chemical_formula_sum   'Ba8 Er2 Tm2 Co4 O20'
_cell_volume   605.92967618
_cell_formula_units_Z   2
loop_
 _symmetry_equiv_pos_site_id
 _symmetry_equiv_pos_as_xyz
  1  'x, y, z'
loop_
 _atom_site_type_symbol
 _atom_site_label
 _atom_site_symmetry_multiplicity
 _atom_site_fract_x
 _atom_site_fract_y
 _atom_site_fract_z
 _atom_site_occupancy
  Ba  Ba0  1  0.757145  0.493387  0.361794  1
  Ba  Ba1  1  0.742855  0.993387  0.861794  1
  Ba  Ba2  1  0.242883  0.506795  0.638174  1
  Ba  Ba3  1  0.257117  0.006795  0.138174  1
  Ba  Ba4  1  0.753591  0.992630  0.383427  1
  Ba  Ba5  1  0.746409  0.492630  0.883427  1
  Ba  Ba6  1  0.246354  0.007095  0.616629  1
  Ba  Ba7  1  0.253646  0.507095  0.116629  1
  Er  Er8  1  0.748198  0.261897  0.629699  1
  Er  Er9  1  0.751802  0.761897  0.129699  1
  Tm  Tm10  1  0.251857  0.738413  0.370390  1
  Tm  Tm11  1  0.248143  0.238413  0.870390  1
  Co  Co12  1  0.741821  0.745842  0.591511  1
  Co  Co13  1  0.758179  0.245842  0.091511  1
  Co  Co14  1  0.258236  0.253981  0.407842  1
  Co  Co15  1  0.241764  0.753981  0.907842  1
  O  O16  1  0.755546  0.971172  0.633852  1
  O  O17  1  0.744454  0.471172  0.133852  1
  O  O18  1  0.244540  0.027952  0.366292  1
  O  O19  1  0.255460  0.527952  0.866292  1
  O  O20  1  0.738696  0.052313  0.168544  1
  O  O21  1  0.761304  0.552313  0.668544  1
  O  O22  1  0.261127  0.948854  0.831902  1
  O  O23  1  0.238873  0.448854  0.331902  1
  O  O24  1  0.535743  0.746999  0.268501  1
  O  O25  1  0.964257  0.246999  0.768501  1
  O  O26  1  0.462831  0.252918  0.732440  1
  O  O27  1  0.037169  0.752918  0.232440  1
  O  O28  1  0.526659  0.231141  0.987230  1
  O  O29  1  0.973341  0.731141  0.487230  1
  O  O30  1  0.472149  0.768809  0.012425  1
  O  O31  1  0.027851  0.268809  0.512425  1
  O  O32  1  0.029151  0.234399  0.015543  1
  O  O33  1  0.470849  0.734399  0.515543  1
  O  O34  1  0.971173  0.765403  0.983806  1
  O  O35  1  0.528827  0.265403  0.483806  1
