# generated using pymatgen
data_Lu12Ni4OsPb
_symmetry_space_group_name_H-M   'P 1'
_cell_length_a   8.15546815
_cell_length_b   8.15546942
_cell_length_c   8.15546884
_cell_angle_alpha   111.58289401
_cell_angle_beta   110.46975964
_cell_angle_gamma   106.40588627
_symmetry_Int_Tables_number   1
_chemical_formula_structural   Lu12Ni4OsPb
_chemical_formula_sum   'Lu12 Ni4 Os1 Pb1'
_cell_volume   416.63386353
_cell_formula_units_Z   1
loop_
 _symmetry_equiv_pos_site_id
 _symmetry_equiv_pos_as_xyz
  1  'x, y, z'
loop_
 _atom_site_type_symbol
 _atom_site_label
 _atom_site_symmetry_multiplicity
 _atom_site_fract_x
 _atom_site_fract_y
 _atom_site_fract_z
 _atom_site_occupancy
  Lu  Lu0  1  0.679079  0.871782  0.192704  1
  Lu  Lu1  1  0.320921  0.513625  0.192704  1
  Lu  Lu2  1  0.821362  0.776908  0.598270  1
  Lu  Lu3  1  0.178638  0.776908  0.955546  1
  Lu  Lu4  1  0.821362  0.223092  0.044454  1
  Lu  Lu5  1  0.178638  0.223092  0.401730  1
  Lu  Lu6  1  0.679079  0.486375  0.807296  1
  Lu  Lu7  1  0.320921  0.128218  0.807296  1
  Lu  Lu8  1  0.584223  0.276979  0.307243  1
  Lu  Lu9  1  0.415777  0.723021  0.692757  1
  Lu  Lu10  1  0.030265  0.723021  0.307243  1
  Lu  Lu11  1  0.969735  0.276979  0.692757  1
  Ni  Ni12  1  0.356122  0.500000  0.856122  1
  Ni  Ni13  1  0.643878  0.500000  0.143878  1
  Ni  Ni14  1  0.880017  0.880017  0.000000  1
  Ni  Ni15  1  0.119983  0.119983  0.000000  1
  Os  Os16  1  0.000000  0.500000  0.500000  1
  Pb  Pb17  1  0.500000  0.000000  0.500000  1
