# generated using pymatgen
data_Nd2TmLu(NiP)4
_symmetry_space_group_name_H-M   'P 1'
_cell_length_a   3.90230700
_cell_length_b   3.90230625
_cell_length_c   15.65050600
_cell_angle_alpha   90.00000000
_cell_angle_beta   90.00000000
_cell_angle_gamma   119.99998089
_symmetry_Int_Tables_number   1
_chemical_formula_structural   Nd2TmLu(NiP)4
_chemical_formula_sum   'Nd2 Tm1 Lu1 Ni4 P4'
_cell_volume   206.39628766
_cell_formula_units_Z   1
loop_
 _symmetry_equiv_pos_site_id
 _symmetry_equiv_pos_as_xyz
  1  'x, y, z'
loop_
 _atom_site_type_symbol
 _atom_site_label
 _atom_site_symmetry_multiplicity
 _atom_site_fract_x
 _atom_site_fract_y
 _atom_site_fract_z
 _atom_site_occupancy
  Nd  Nd0  1  0.000000  0.000000  0.500061  1
  Nd  Nd1  1  0.000000  0.000000  0.999939  1
  Tm  Tm2  1  0.000000  0.000000  0.250000  1
  Lu  Lu3  1  0.000000  0.000000  0.750000  1
  Ni  Ni4  1  0.333333  0.666667  0.364179  1
  Ni  Ni5  1  0.666667  0.333333  0.636335  1
  Ni  Ni6  1  0.666667  0.333333  0.863665  1
  Ni  Ni7  1  0.333333  0.666667  0.135821  1
  P  P8  1  0.333333  0.666667  0.871361  1
  P  P9  1  0.666667  0.333333  0.128434  1
  P  P10  1  0.666667  0.333333  0.371566  1
  P  P11  1  0.333333  0.666667  0.628639  1
