# generated using pymatgen
data_CaZn2CdAg3
_symmetry_space_group_name_H-M   'P 1'
_cell_length_a   5.39403300
_cell_length_b   9.01323800
_cell_length_c   11.37917600
_cell_angle_alpha   90.00000000
_cell_angle_beta   90.00000000
_cell_angle_gamma   90.00000000
_symmetry_Int_Tables_number   1
_chemical_formula_structural   CaZn2CdAg3
_chemical_formula_sum   'Ca4 Zn8 Cd4 Ag12'
_cell_volume   553.22940153
_cell_formula_units_Z   4
loop_
 _symmetry_equiv_pos_site_id
 _symmetry_equiv_pos_as_xyz
  1  'x, y, z'
loop_
 _atom_site_type_symbol
 _atom_site_label
 _atom_site_symmetry_multiplicity
 _atom_site_fract_x
 _atom_site_fract_y
 _atom_site_fract_z
 _atom_site_occupancy
  Ca  Ca0  1  0.757406  0.243729  0.062326  1
  Ca  Ca1  1  0.257406  0.756271  0.937674  1
  Ca  Ca2  1  0.742594  0.743729  0.437674  1
  Ca  Ca3  1  0.242594  0.256271  0.562326  1
  Zn  Zn4  1  0.758992  0.686010  0.755514  1
  Zn  Zn5  1  0.258992  0.313990  0.244486  1
  Zn  Zn6  1  0.741008  0.186010  0.744486  1
  Zn  Zn7  1  0.241008  0.813990  0.255514  1
  Zn  Zn8  1  0.495140  0.067601  0.311012  1
  Zn  Zn9  1  0.995140  0.932399  0.688988  1
  Zn  Zn10  1  0.004860  0.567601  0.188988  1
  Zn  Zn11  1  0.504860  0.432399  0.811012  1
  Cd  Cd12  1  0.753171  0.360909  0.356153  1
  Cd  Cd13  1  0.253171  0.639091  0.643847  1
  Cd  Cd14  1  0.746829  0.860909  0.143847  1
  Cd  Cd15  1  0.246829  0.139091  0.856153  1
  Ag  Ag16  1  0.769007  0.950061  0.909595  1
  Ag  Ag17  1  0.269007  0.049939  0.090405  1
  Ag  Ag18  1  0.730993  0.450061  0.590405  1
  Ag  Ag19  1  0.230993  0.549939  0.409595  1
  Ag  Ag20  1  0.755877  0.593434  0.981587  1
  Ag  Ag21  1  0.255877  0.406566  0.018413  1
  Ag  Ag22  1  0.744123  0.093434  0.518413  1
  Ag  Ag23  1  0.244123  0.906566  0.481587  1
  Ag  Ag24  1  0.487759  0.926208  0.698195  1
  Ag  Ag25  1  0.987759  0.073792  0.301805  1
  Ag  Ag26  1  0.012241  0.426208  0.801805  1
  Ag  Ag27  1  0.512241  0.573792  0.198195  1
