# generated using pymatgen
data_Tb4MgSc3Pt4
_symmetry_space_group_name_H-M   'P 1'
_cell_length_a   4.57609400
_cell_length_b   7.03512664
_cell_length_c   8.42026364
_cell_angle_alpha   86.62903603
_cell_angle_beta   90.00000000
_cell_angle_gamma   90.00000000
_symmetry_Int_Tables_number   1
_chemical_formula_structural   Tb4MgSc3Pt4
_chemical_formula_sum   'Tb4 Mg1 Sc3 Pt4'
_cell_volume   270.60789281
_cell_formula_units_Z   1
loop_
 _symmetry_equiv_pos_site_id
 _symmetry_equiv_pos_as_xyz
  1  'x, y, z'
loop_
 _atom_site_type_symbol
 _atom_site_label
 _atom_site_symmetry_multiplicity
 _atom_site_fract_x
 _atom_site_fract_y
 _atom_site_fract_z
 _atom_site_occupancy
  Tb  Tb0  1  0.250000  0.027309  0.670362  1
  Tb  Tb1  1  0.250000  0.522922  0.818554  1
  Tb  Tb2  1  0.750000  0.986284  0.334240  1
  Tb  Tb3  1  0.750000  0.470567  0.183147  1
  Mg  Mg4  1  0.750000  0.356847  0.570206  1
  Sc  Sc5  1  0.250000  0.131263  0.068868  1
  Sc  Sc6  1  0.250000  0.642871  0.431091  1
  Sc  Sc7  1  0.750000  0.863356  0.930879  1
  Pt  Pt8  1  0.250000  0.260655  0.379107  1
  Pt  Pt9  1  0.250000  0.749105  0.097456  1
  Pt  Pt10  1  0.750000  0.744343  0.614220  1
  Pt  Pt11  1  0.750000  0.244477  0.901868  1
