# generated using pymatgen
data_Lu3Be2Ir5
_symmetry_space_group_name_H-M   'P 1'
_cell_length_a   9.72389900
_cell_length_b   9.72389900
_cell_length_c   3.32724400
_cell_angle_alpha   90.00000000
_cell_angle_beta   90.00000000
_cell_angle_gamma   90.00000000
_symmetry_Int_Tables_number   1
_chemical_formula_structural   Lu3Be2Ir5
_chemical_formula_sum   'Lu6 Be4 Ir10'
_cell_volume   314.60493376
_cell_formula_units_Z   2
loop_
 _symmetry_equiv_pos_site_id
 _symmetry_equiv_pos_as_xyz
  1  'x, y, z'
loop_
 _atom_site_type_symbol
 _atom_site_label
 _atom_site_symmetry_multiplicity
 _atom_site_fract_x
 _atom_site_fract_y
 _atom_site_fract_z
 _atom_site_occupancy
  Lu  Lu0  1  0.175725  0.675725  0.000000  1
  Lu  Lu1  1  0.324275  0.175725  0.000000  1
  Lu  Lu2  1  0.824275  0.324275  0.000000  1
  Lu  Lu3  1  0.500000  0.500000  0.000000  1
  Lu  Lu4  1  0.675725  0.824275  0.000000  1
  Lu  Lu5  1  0.000000  0.000000  0.000000  1
  Be  Be6  1  0.378886  0.878886  0.000000  1
  Be  Be7  1  0.121114  0.378886  0.000000  1
  Be  Be8  1  0.878886  0.621114  0.000000  1
  Be  Be9  1  0.621114  0.121114  0.000000  1
  Ir  Ir10  1  0.220379  0.929463  0.500000  1
  Ir  Ir11  1  0.929463  0.779621  0.500000  1
  Ir  Ir12  1  0.429463  0.720379  0.500000  1
  Ir  Ir13  1  0.570537  0.279621  0.500000  1
  Ir  Ir14  1  0.720379  0.570537  0.500000  1
  Ir  Ir15  1  0.279621  0.429463  0.500000  1
  Ir  Ir16  1  0.070537  0.220379  0.500000  1
  Ir  Ir17  1  0.000000  0.500000  0.500000  1
  Ir  Ir18  1  0.500000  0.000000  0.500000  1
  Ir  Ir19  1  0.779621  0.070537  0.500000  1
