# generated using pymatgen
data_Ce8Lu12GaSi15
_symmetry_space_group_name_H-M   'P 1'
_cell_length_a   7.43382259
_cell_length_b   7.73398679
_cell_length_c   14.66644500
_cell_angle_alpha   89.95599463
_cell_angle_beta   89.97725533
_cell_angle_gamma   90.03582394
_symmetry_Int_Tables_number   1
_chemical_formula_structural   Ce8Lu12GaSi15
_chemical_formula_sum   'Ce8 Lu12 Ga1 Si15'
_cell_volume   843.21869931
_cell_formula_units_Z   1
loop_
 _symmetry_equiv_pos_site_id
 _symmetry_equiv_pos_as_xyz
  1  'x, y, z'
loop_
 _atom_site_type_symbol
 _atom_site_label
 _atom_site_symmetry_multiplicity
 _atom_site_fract_x
 _atom_site_fract_y
 _atom_site_fract_z
 _atom_site_occupancy
  Ce  Ce0  1  0.014865  0.173440  0.400959  1
  Ce  Ce1  1  0.518023  0.322637  0.399584  1
  Ce  Ce2  1  0.483290  0.675752  0.902981  1
  Ce  Ce3  1  0.485840  0.680128  0.599042  1
  Ce  Ce4  1  0.982919  0.825726  0.598638  1
  Ce  Ce5  1  0.983487  0.825318  0.903584  1
  Ce  Ce6  1  0.516418  0.323555  0.097424  1
  Ce  Ce7  1  0.016019  0.175012  0.096857  1
  Lu  Lu8  1  0.327961  0.175252  0.624591  1
  Lu  Lu9  1  0.673512  0.822305  0.376132  1
  Lu  Lu10  1  0.660296  0.988101  0.751178  1
  Lu  Lu11  1  0.173789  0.678546  0.375583  1
  Lu  Lu12  1  0.824835  0.321846  0.877686  1
  Lu  Lu13  1  0.824657  0.323278  0.623621  1
  Lu  Lu14  1  0.840908  0.488415  0.249154  1
  Lu  Lu15  1  0.340405  0.010686  0.248731  1
  Lu  Lu16  1  0.324965  0.177619  0.877587  1
  Lu  Lu17  1  0.173863  0.677751  0.122886  1
  Lu  Lu18  1  0.674668  0.821963  0.122329  1
  Lu  Lu19  1  0.159015  0.511844  0.752710  1
  Ga  Ga20  1  0.156558  0.467234  0.538949  1
  Si  Si21  1  0.280209  0.876505  0.751305  1
  Si  Si22  1  0.468431  0.613697  0.249090  1
  Si  Si23  1  0.031468  0.113681  0.751197  1
  Si  Si24  1  0.531241  0.387464  0.750863  1
  Si  Si25  1  0.968049  0.886974  0.249166  1
  Si  Si26  1  0.718431  0.123437  0.248659  1
  Si  Si27  1  0.848340  0.531371  0.038906  1
  Si  Si28  1  0.347603  0.968188  0.038905  1
  Si  Si29  1  0.151535  0.468639  0.961378  1
  Si  Si30  1  0.652635  0.032815  0.538320  1
  Si  Si31  1  0.348201  0.969074  0.460490  1
  Si  Si32  1  0.846262  0.532072  0.460116  1
  Si  Si33  1  0.782287  0.623912  0.751661  1
  Si  Si34  1  0.217815  0.375071  0.248941  1
  Si  Si35  1  0.651199  0.030692  0.960802  1
