# generated using pymatgen
data_Zr10SiAg(SnBi2)2
_symmetry_space_group_name_H-M   'P 1'
_cell_length_a   8.82081609
_cell_length_b   8.82081764
_cell_length_c   5.96131293
_cell_angle_alpha   90.07112297
_cell_angle_beta   90.07112468
_cell_angle_gamma   119.90292687
_symmetry_Int_Tables_number   1
_chemical_formula_structural   Zr10SiAg(SnBi2)2
_chemical_formula_sum   'Zr10 Si1 Ag1 Sn2 Bi4'
_cell_volume   402.08031633
_cell_formula_units_Z   1
loop_
 _symmetry_equiv_pos_site_id
 _symmetry_equiv_pos_as_xyz
  1  'x, y, z'
loop_
 _atom_site_type_symbol
 _atom_site_label
 _atom_site_symmetry_multiplicity
 _atom_site_fract_x
 _atom_site_fract_y
 _atom_site_fract_z
 _atom_site_occupancy
  Zr  Zr0  1  0.667239  0.330466  0.504215  1
  Zr  Zr1  1  0.330466  0.667239  0.504215  1
  Zr  Zr2  1  0.331062  0.667462  0.997027  1
  Zr  Zr3  1  0.667462  0.331062  0.997027  1
  Zr  Zr4  1  0.737044  0.737044  0.272461  1
  Zr  Zr5  1  0.263013  0.998940  0.271167  1
  Zr  Zr6  1  0.998940  0.263013  0.271167  1
  Zr  Zr7  1  0.267465  0.267465  0.728229  1
  Zr  Zr8  1  0.731940  0.005970  0.729237  1
  Zr  Zr9  1  0.005970  0.731940  0.729237  1
  Si  Si10  1  0.999442  0.999442  0.508414  1
  Ag  Ag11  1  0.999930  0.999930  0.989951  1
  Sn  Sn12  1  0.385905  0.000900  0.756875  1
  Sn  Sn13  1  0.000900  0.385905  0.756875  1
  Bi  Bi14  1  0.389038  0.389038  0.242624  1
  Bi  Bi15  1  0.609328  0.999099  0.241389  1
  Bi  Bi16  1  0.999099  0.609328  0.241389  1
  Bi  Bi17  1  0.615760  0.615760  0.758500  1
