# generated using pymatgen
data_Ho9Sc(Ga2Bi)2
_symmetry_space_group_name_H-M   'P 1'
_cell_length_a   8.70044044
_cell_length_b   8.70044103
_cell_length_c   8.70044062
_cell_angle_alpha   125.50339193
_cell_angle_beta   125.50340185
_cell_angle_gamma   80.70588197
_symmetry_Int_Tables_number   1
_chemical_formula_structural   Ho9Sc(Ga2Bi)2
_chemical_formula_sum   'Ho9 Sc1 Ga4 Bi2'
_cell_volume   420.84350968
_cell_formula_units_Z   1
loop_
 _symmetry_equiv_pos_site_id
 _symmetry_equiv_pos_as_xyz
  1  'x, y, z'
loop_
 _atom_site_type_symbol
 _atom_site_label
 _atom_site_symmetry_multiplicity
 _atom_site_fract_x
 _atom_site_fract_y
 _atom_site_fract_z
 _atom_site_occupancy
  Ho  Ho0  1  0.000000  0.000000  0.000000  1
  Ho  Ho1  1  0.014643  0.510975  0.807453  1
  Ho  Ho2  1  0.703523  0.207191  0.192547  1
  Ho  Ho3  1  0.510975  0.703523  0.496331  1
  Ho  Ho4  1  0.207191  0.014643  0.503669  1
  Ho  Ho5  1  0.985357  0.489025  0.192547  1
  Ho  Ho6  1  0.296477  0.792809  0.807453  1
  Ho  Ho7  1  0.489025  0.296477  0.503669  1
  Ho  Ho8  1  0.792809  0.985357  0.496331  1
  Sc  Sc9  1  0.500000  0.500000  0.000000  1
  Ga  Ga10  1  0.645169  0.149639  0.794806  1
  Ga  Ga11  1  0.354831  0.850361  0.205194  1
  Ga  Ga12  1  0.149639  0.354831  0.504470  1
  Ga  Ga13  1  0.850361  0.645169  0.495530  1
  Bi  Bi14  1  0.747489  0.747489  0.000000  1
  Bi  Bi15  1  0.252511  0.252511  0.000000  1
