# generated using pymatgen
data_V12Si3As
_symmetry_space_group_name_H-M   'P 1'
_cell_length_a   4.71576200
_cell_length_b   4.72253800
_cell_length_c   9.40618000
_cell_angle_alpha   90.00000000
_cell_angle_beta   90.00000000
_cell_angle_gamma   90.00000000
_symmetry_Int_Tables_number   1
_chemical_formula_structural   V12Si3As
_chemical_formula_sum   'V12 Si3 As1'
_cell_volume   209.47906415
_cell_formula_units_Z   1
loop_
 _symmetry_equiv_pos_site_id
 _symmetry_equiv_pos_as_xyz
  1  'x, y, z'
loop_
 _atom_site_type_symbol
 _atom_site_label
 _atom_site_symmetry_multiplicity
 _atom_site_fract_x
 _atom_site_fract_y
 _atom_site_fract_z
 _atom_site_occupancy
  V  V0  1  0.000000  0.500000  0.128569  1
  V  V1  1  0.000000  0.500000  0.625419  1
  V  V2  1  0.500000  0.245687  0.747014  1
  V  V3  1  0.500000  0.245687  0.252986  1
  V  V4  1  0.756708  0.000000  0.000000  1
  V  V5  1  0.747950  0.000000  0.500000  1
  V  V6  1  0.000000  0.500000  0.871431  1
  V  V7  1  0.000000  0.500000  0.374581  1
  V  V8  1  0.500000  0.754313  0.747014  1
  V  V9  1  0.500000  0.754313  0.252986  1
  V  V10  1  0.243292  0.000000  0.000000  1
  V  V11  1  0.252050  0.000000  0.500000  1
  Si  Si12  1  0.500000  0.500000  0.500000  1
  Si  Si13  1  0.000000  0.000000  0.749767  1
  Si  Si14  1  0.000000  0.000000  0.250233  1
  As  As15  1  0.500000  0.500000  0.000000  1
