# generated using pymatgen
data_DyYCoOs3
_symmetry_space_group_name_H-M   'P 1'
_cell_length_a   5.33369683
_cell_length_b   5.33369663
_cell_length_c   5.33369600
_cell_angle_alpha   59.18786664
_cell_angle_beta   59.18787059
_cell_angle_gamma   59.18787441
_symmetry_Int_Tables_number   1
_chemical_formula_structural   DyYCoOs3
_chemical_formula_sum   'Dy1 Y1 Co1 Os3'
_cell_volume   105.30722480
_cell_formula_units_Z   1
loop_
 _symmetry_equiv_pos_site_id
 _symmetry_equiv_pos_as_xyz
  1  'x, y, z'
loop_
 _atom_site_type_symbol
 _atom_site_label
 _atom_site_symmetry_multiplicity
 _atom_site_fract_x
 _atom_site_fract_y
 _atom_site_fract_z
 _atom_site_occupancy
  Dy  Dy0  1  0.249015  0.249015  0.249015  1
  Y  Y1  1  0.000653  0.000653  0.000653  1
  Co  Co2  1  0.625207  0.625207  0.625207  1
  Os  Os3  1  0.624911  0.624911  0.125306  1
  Os  Os4  1  0.624911  0.125306  0.624911  1
  Os  Os5  1  0.125306  0.624911  0.624911  1
