# generated using pymatgen
data_Hf10ZnSi(SnSb2)2
_symmetry_space_group_name_H-M   'P 1'
_cell_length_a   8.59504002
_cell_length_b   8.60482257
_cell_length_c   5.80489400
_cell_angle_alpha   90.00180687
_cell_angle_beta   89.99911262
_cell_angle_gamma   120.03763333
_symmetry_Int_Tables_number   1
_chemical_formula_structural   Hf10ZnSi(SnSb2)2
_chemical_formula_sum   'Hf10 Zn1 Si1 Sn2 Sb4'
_cell_volume   371.66351562
_cell_formula_units_Z   1
loop_
 _symmetry_equiv_pos_site_id
 _symmetry_equiv_pos_as_xyz
  1  'x, y, z'
loop_
 _atom_site_type_symbol
 _atom_site_label
 _atom_site_symmetry_multiplicity
 _atom_site_fract_x
 _atom_site_fract_y
 _atom_site_fract_z
 _atom_site_occupancy
  Hf  Hf0  1  0.736567  0.737004  0.245305  1
  Hf  Hf1  1  0.736568  0.999564  0.754695  1
  Hf  Hf2  1  0.999392  0.264305  0.245662  1
  Hf  Hf3  1  0.999392  0.735087  0.754337  1
  Hf  Hf4  1  0.263863  0.264316  0.753974  1
  Hf  Hf5  1  0.263863  0.999546  0.246027  1
  Hf  Hf6  1  0.333441  0.666721  0.500000  1
  Hf  Hf7  1  0.667106  0.333553  0.000000  1
  Hf  Hf8  1  0.667802  0.333901  0.500000  1
  Hf  Hf9  1  0.333454  0.666727  0.000000  1
  Zn  Zn10  1  0.001401  0.000700  0.500000  1
  Si  Si11  1  0.001269  0.000635  0.000000  1
  Sn  Sn12  1  0.389528  0.000408  0.747346  1
  Sn  Sn13  1  0.389529  0.389121  0.252654  1
  Sb  Sb14  1  0.000560  0.609623  0.252775  1
  Sb  Sb15  1  0.000560  0.390937  0.747225  1
  Sb  Sb16  1  0.607853  0.607597  0.747166  1
  Sb  Sb17  1  0.607853  0.000256  0.252834  1
