# generated using pymatgen
data_SmU(PO3)8
_symmetry_space_group_name_H-M   'P 1'
_cell_length_a   8.36643718
_cell_length_b   8.31720860
_cell_length_c   8.69198635
_cell_angle_alpha   117.56564103
_cell_angle_beta   117.50349792
_cell_angle_gamma   90.28815282
_symmetry_Int_Tables_number   1
_chemical_formula_structural   SmU(PO3)8
_chemical_formula_sum   'Sm1 U1 P8 O24'
_cell_volume   456.80584777
_cell_formula_units_Z   1
loop_
 _symmetry_equiv_pos_site_id
 _symmetry_equiv_pos_as_xyz
  1  'x, y, z'
loop_
 _atom_site_type_symbol
 _atom_site_label
 _atom_site_symmetry_multiplicity
 _atom_site_fract_x
 _atom_site_fract_y
 _atom_site_fract_z
 _atom_site_occupancy
  Sm  Sm0  1  0.719480  0.712940  0.930290  1
  U  U1  1  0.278946  0.282820  0.066289  1
  P  P2  1  0.238603  0.767276  0.286535  1
  P  P3  1  0.526546  0.991413  0.265058  1
  P  P4  1  0.762449  0.526992  0.270053  1
  P  P5  1  0.765855  0.230556  0.711528  1
  P  P6  1  0.006377  0.772441  0.721535  1
  P  P7  1  0.995132  0.229135  0.281244  1
  P  P8  1  0.471096  0.013407  0.733066  1
  P  P9  1  0.235100  0.469886  0.731772  1
  O  O10  1  0.717814  0.078306  0.483451  1
  O  O11  1  0.448037  0.151295  0.246653  1
  O  O12  1  0.279734  0.917174  0.511324  1
  O  O13  1  0.084533  0.287964  0.514759  1
  O  O14  1  0.048673  0.751145  0.135757  1
  O  O15  1  0.142326  0.967045  0.847833  1
  O  O16  1  0.131797  0.632114  0.744803  1
  O  O17  1  0.558187  0.858881  0.103450  1
  O  O18  1  0.872132  0.035562  0.156754  1
  O  O19  1  0.545464  0.860513  0.757081  1
  O  O20  1  0.914680  0.711168  0.487157  1
  O  O21  1  0.856907  0.751979  0.761823  1
  O  O22  1  0.955284  0.227765  0.857578  1
  O  O23  1  0.870331  0.370058  0.265104  1
  O  O24  1  0.588072  0.471756  0.268790  1
  O  O25  1  0.604694  0.140680  0.722371  1
  O  O26  1  0.145262  0.266420  0.240599  1
  O  O27  1  0.743347  0.412922  0.726143  1
  O  O28  1  0.396373  0.871669  0.284753  1
  O  O29  1  0.246906  0.428192  0.889354  1
  O  O30  1  0.279678  0.582600  0.269694  1
  O  O31  1  0.738158  0.563397  0.110611  1
  O  O32  1  0.424925  0.152502  0.885242  1
  O  O33  1  0.407104  0.512025  0.731544  1
