# generated using pymatgen
data_V6ZnSi5Os12
_symmetry_space_group_name_H-M   'P 1'
_cell_length_a   4.23580100
_cell_length_b   5.99250100
_cell_length_c   12.70635100
_cell_angle_alpha   90.00000000
_cell_angle_beta   90.00289029
_cell_angle_gamma   90.00000000
_symmetry_Int_Tables_number   1
_chemical_formula_structural   V6ZnSi5Os12
_chemical_formula_sum   'V6 Zn1 Si5 Os12'
_cell_volume   322.52583744
_cell_formula_units_Z   1
loop_
 _symmetry_equiv_pos_site_id
 _symmetry_equiv_pos_as_xyz
  1  'x, y, z'
loop_
 _atom_site_type_symbol
 _atom_site_label
 _atom_site_symmetry_multiplicity
 _atom_site_fract_x
 _atom_site_fract_y
 _atom_site_fract_z
 _atom_site_occupancy
  V  V0  1  0.000000  0.500001  0.000000  1
  V  V1  1  0.499735  0.000000  0.161307  1
  V  V2  1  0.999743  0.500001  0.333062  1
  V  V3  1  0.500000  0.000000  0.500000  1
  V  V4  1  0.000256  0.500001  0.666938  1
  V  V5  1  0.500264  0.000000  0.838693  1
  Zn  Zn6  1  0.000000  0.000000  0.000000  1
  Si  Si7  1  0.499638  0.500001  0.167846  1
  Si  Si8  1  0.999682  0.000000  0.333792  1
  Si  Si9  1  0.500000  0.500001  0.500000  1
  Si  Si10  1  0.000319  0.000000  0.666208  1
  Si  Si11  1  0.500364  0.500001  0.832154  1
  Os  Os12  1  0.500000  0.257075  0.000000  1
  Os  Os13  1  0.500000  0.742925  0.000000  1
  Os  Os14  1  0.999754  0.251916  0.170722  1
  Os  Os15  1  0.999754  0.748084  0.170722  1
  Os  Os16  1  0.499791  0.249271  0.334391  1
  Os  Os17  1  0.499791  0.750729  0.334391  1
  Os  Os18  1  0.000000  0.248707  0.500000  1
  Os  Os19  1  0.000000  0.751293  0.500000  1
  Os  Os20  1  0.500211  0.249271  0.665609  1
  Os  Os21  1  0.500211  0.750729  0.665609  1
  Os  Os22  1  0.000245  0.251916  0.829278  1
  Os  Os23  1  0.000245  0.748084  0.829278  1
