# generated using pymatgen
data_Lu12InCo4Rh
_symmetry_space_group_name_H-M   'P 1'
_cell_length_a   8.11815674
_cell_length_b   8.11815740
_cell_length_c   8.11815755
_cell_angle_alpha   111.07048358
_cell_angle_beta   111.18830804
_cell_angle_gamma   106.20349035
_symmetry_Int_Tables_number   1
_chemical_formula_structural   Lu12InCo4Rh
_chemical_formula_sum   'Lu12 In1 Co4 Rh1'
_cell_volume   410.86292121
_cell_formula_units_Z   1
loop_
 _symmetry_equiv_pos_site_id
 _symmetry_equiv_pos_as_xyz
  1  'x, y, z'
loop_
 _atom_site_type_symbol
 _atom_site_label
 _atom_site_symmetry_multiplicity
 _atom_site_fract_x
 _atom_site_fract_y
 _atom_site_fract_z
 _atom_site_occupancy
  Lu  Lu0  1  0.414992  0.219674  0.195317  1
  Lu  Lu1  1  0.585008  0.780326  0.804683  1
  Lu  Lu2  1  0.024357  0.219674  0.804683  1
  Lu  Lu3  1  0.975643  0.780326  0.195317  1
  Lu  Lu4  1  0.185479  0.285167  0.470646  1
  Lu  Lu5  1  0.814521  0.714833  0.529354  1
  Lu  Lu6  1  0.185479  0.714833  0.900313  1
  Lu  Lu7  1  0.814521  0.285167  0.099687  1
  Lu  Lu8  1  0.314508  0.619786  0.305277  1
  Lu  Lu9  1  0.685492  0.380214  0.694723  1
  Lu  Lu10  1  0.314508  0.009231  0.694723  1
  Lu  Lu11  1  0.685492  0.990769  0.305277  1
  In  In12  1  0.500000  0.500000  0.000000  1
  Co  Co13  1  0.374843  0.000000  0.374843  1
  Co  Co14  1  0.625157  0.000000  0.625157  1
  Co  Co15  1  0.113042  0.613042  0.500000  1
  Co  Co16  1  0.886958  0.386958  0.500000  1
  Rh  Rh17  1  0.000000  0.000000  0.000000  1
