# generated using pymatgen
data_Zr4Ti8Sn9Au
_symmetry_space_group_name_H-M   'P 1'
_cell_length_a   9.45047580
_cell_length_b   9.44823702
_cell_length_c   5.78243214
_cell_angle_alpha   89.99999962
_cell_angle_beta   90.34076233
_cell_angle_gamma   119.99215773
_symmetry_Int_Tables_number   1
_chemical_formula_structural   Zr4Ti8Sn9Au
_chemical_formula_sum   'Zr4 Ti8 Sn9 Au1'
_cell_volume   447.16695781
_cell_formula_units_Z   1
loop_
 _symmetry_equiv_pos_site_id
 _symmetry_equiv_pos_as_xyz
  1  'x, y, z'
loop_
 _atom_site_type_symbol
 _atom_site_label
 _atom_site_symmetry_multiplicity
 _atom_site_fract_x
 _atom_site_fract_y
 _atom_site_fract_z
 _atom_site_occupancy
  Zr  Zr0  1  0.857100  0.703234  0.743669  1
  Zr  Zr1  1  0.142900  0.846134  0.256331  1
  Zr  Zr2  1  0.694475  0.836163  0.253170  1
  Zr  Zr3  1  0.305525  0.141688  0.746830  1
  Ti  Ti4  1  0.828641  0.147098  0.759428  1
  Ti  Ti5  1  0.171359  0.318458  0.240572  1
  Ti  Ti6  1  0.503411  0.000691  0.504366  1
  Ti  Ti7  1  0.493649  0.495485  0.000712  1
  Ti  Ti8  1  0.000000  0.492337  0.000000  1
  Ti  Ti9  1  0.000000  0.498244  0.500000  1
  Ti  Ti10  1  0.506351  0.001836  0.999288  1
  Ti  Ti11  1  0.496589  0.497280  0.495634  1
  Sn  Sn12  1  0.199407  0.401471  0.743264  1
  Sn  Sn13  1  0.800593  0.202064  0.256736  1
  Sn  Sn14  1  0.415200  0.204507  0.248847  1
  Sn  Sn15  1  0.584800  0.789307  0.751153  1
  Sn  Sn16  1  0.210386  0.786570  0.754853  1
  Sn  Sn17  1  0.789614  0.576184  0.245147  1
  Sn  Sn18  1  0.669649  0.336860  0.749810  1
  Sn  Sn19  1  0.330351  0.667212  0.250190  1
  Sn  Sn20  1  0.000000  0.015718  0.000000  1
  Au  Au21  1  0.000000  0.041458  0.500000  1
