# generated using pymatgen
data_CeLu2Th(Al3Rh)6
_symmetry_space_group_name_H-M   'P 1'
_cell_length_a   7.56472000
_cell_length_b   7.57762709
_cell_length_c   9.45247600
_cell_angle_alpha   90.00000000
_cell_angle_beta   90.00000000
_cell_angle_gamma   119.35731242
_symmetry_Int_Tables_number   1
_chemical_formula_structural   CeLu2Th(Al3Rh)6
_chemical_formula_sum   'Ce1 Lu2 Th1 Al18 Rh6'
_cell_volume   472.25719455
_cell_formula_units_Z   1
loop_
 _symmetry_equiv_pos_site_id
 _symmetry_equiv_pos_as_xyz
  1  'x, y, z'
loop_
 _atom_site_type_symbol
 _atom_site_label
 _atom_site_symmetry_multiplicity
 _atom_site_fract_x
 _atom_site_fract_y
 _atom_site_fract_z
 _atom_site_occupancy
  Ce  Ce0  1  0.672061  0.994449  0.250000  1
  Lu  Lu1  1  0.004378  0.326738  0.750000  1
  Lu  Lu2  1  0.326823  0.005954  0.750000  1
  Th  Th3  1  0.994701  0.671191  0.250000  1
  Al  Al4  1  0.133780  0.134680  0.250000  1
  Al  Al5  1  0.874094  0.875643  0.750000  1
  Al  Al6  1  0.003171  0.333147  0.070071  1
  Al  Al7  1  0.000886  0.663794  0.915280  1
  Al  Al8  1  0.000886  0.663794  0.584720  1
  Al  Al9  1  0.338338  0.005301  0.429930  1
  Al  Al10  1  0.003171  0.333147  0.429929  1
  Al  Al11  1  0.663779  0.001521  0.581196  1
  Al  Al12  1  0.663779  0.001521  0.918804  1
  Al  Al13  1  0.338338  0.005301  0.070070  1
  Al  Al14  1  0.331514  0.331638  0.559166  1
  Al  Al15  1  0.663328  0.664918  0.459074  1
  Al  Al16  1  0.663328  0.664918  0.040926  1
  Al  Al17  1  0.331514  0.331638  0.940834  1
  Al  Al18  1  0.343055  0.546617  0.250000  1
  Al  Al19  1  0.657881  0.446183  0.750000  1
  Al  Al20  1  0.544569  0.338267  0.250000  1
  Al  Al21  1  0.445233  0.659836  0.750000  1
  Rh  Rh22  1  0.673169  0.328733  0.999154  1
  Rh  Rh23  1  0.326440  0.671601  0.999318  1
  Rh  Rh24  1  0.326440  0.671601  0.500682  1
  Rh  Rh25  1  0.673169  0.328733  0.500846  1
  Rh  Rh26  1  0.001088  0.999568  0.999086  1
  Rh  Rh27  1  0.001088  0.999568  0.500914  1
