# generated using pymatgen
data_AcAgAuO4
_symmetry_space_group_name_H-M   'P 1'
_cell_length_a   6.97728928
_cell_length_b   6.97728870
_cell_length_c   6.91386900
_cell_angle_alpha   126.38943225
_cell_angle_beta   126.79428872
_cell_angle_gamma   79.54999243
_symmetry_Int_Tables_number   1
_chemical_formula_structural   AcAgAuO4
_chemical_formula_sum   'Ac2 Ag2 Au2 O8'
_cell_volume   208.92636849
_cell_formula_units_Z   2
loop_
 _symmetry_equiv_pos_site_id
 _symmetry_equiv_pos_as_xyz
  1  'x, y, z'
loop_
 _atom_site_type_symbol
 _atom_site_label
 _atom_site_symmetry_multiplicity
 _atom_site_fract_x
 _atom_site_fract_y
 _atom_site_fract_z
 _atom_site_occupancy
  Ac  Ac0  1  0.749196  0.249186  0.499998  1
  Ac  Ac1  1  0.000804  0.000814  0.000002  1
  Ag  Ag2  1  0.375000  0.625000  0.750000  1
  Ag  Ag3  1  0.875000  0.625000  0.250000  1
  Au  Au4  1  0.375000  0.125000  0.750000  1
  Au  Au5  1  0.375000  0.625000  0.250000  1
  O  O6  1  0.069578  0.404984  0.070339  1
  O  O7  1  0.738477  0.280733  0.132160  1
  O  O8  1  0.148555  0.606300  0.867818  1
  O  O9  1  0.334651  0.999229  0.929648  1
  O  O10  1  0.680422  0.845016  0.429661  1
  O  O11  1  0.011523  0.969267  0.367840  1
  O  O12  1  0.415349  0.250771  0.570352  1
  O  O13  1  0.601445  0.643700  0.632182  1
