# generated using pymatgen
data_Ce10CuSn6Bi
_symmetry_space_group_name_H-M   'P 1'
_cell_length_a   6.53948329
_cell_length_b   9.57341338
_cell_length_c   9.57058511
_cell_angle_alpha   120.00978432
_cell_angle_beta   90.01698797
_cell_angle_gamma   89.96603459
_symmetry_Int_Tables_number   1
_chemical_formula_structural   Ce10CuSn6Bi
_chemical_formula_sum   'Ce10 Cu1 Sn6 Bi1'
_cell_volume   518.84360120
_cell_formula_units_Z   1
loop_
 _symmetry_equiv_pos_site_id
 _symmetry_equiv_pos_as_xyz
  1  'x, y, z'
loop_
 _atom_site_type_symbol
 _atom_site_label
 _atom_site_symmetry_multiplicity
 _atom_site_fract_x
 _atom_site_fract_y
 _atom_site_fract_z
 _atom_site_occupancy
  Ce  Ce0  1  0.760872  0.275496  0.000000  1
  Ce  Ce1  1  0.760848  0.724578  0.724567  1
  Ce  Ce2  1  0.760848  0.000010  0.275433  1
  Ce  Ce3  1  0.239112  0.724604  0.000000  1
  Ce  Ce4  1  0.239155  0.275595  0.275573  1
  Ce  Ce5  1  0.239155  0.000023  0.724427  1
  Ce  Ce6  1  0.499759  0.333194  0.666575  1
  Ce  Ce7  1  0.499759  0.666618  0.333425  1
  Ce  Ce8  1  0.000277  0.666541  0.333387  1
  Ce  Ce9  1  0.000277  0.333154  0.666613  1
  Cu  Cu10  1  0.000169  0.000105  0.000000  1
  Sn  Sn11  1  0.746756  0.620524  0.000000  1
  Sn  Sn12  1  0.746912  0.379147  0.378942  1
  Sn  Sn13  1  0.746912  0.000206  0.621058  1
  Sn  Sn14  1  0.253236  0.379217  0.000000  1
  Sn  Sn15  1  0.253164  0.620811  0.620782  1
  Sn  Sn16  1  0.253164  0.000029  0.379218  1
  Bi  Bi17  1  0.499626  0.000147  0.000000  1
