# generated using pymatgen
data_Tb4AlZn11
_symmetry_space_group_name_H-M   'P 1'
_cell_length_a   4.41116400
_cell_length_b   6.70090200
_cell_length_c   10.10989100
_cell_angle_alpha   90.00025811
_cell_angle_beta   90.00000000
_cell_angle_gamma   90.00000000
_symmetry_Int_Tables_number   1
_chemical_formula_structural   Tb4AlZn11
_chemical_formula_sum   'Tb4 Al1 Zn11'
_cell_volume   298.83602034
_cell_formula_units_Z   1
loop_
 _symmetry_equiv_pos_site_id
 _symmetry_equiv_pos_as_xyz
  1  'x, y, z'
loop_
 _atom_site_type_symbol
 _atom_site_label
 _atom_site_symmetry_multiplicity
 _atom_site_fract_x
 _atom_site_fract_y
 _atom_site_fract_z
 _atom_site_occupancy
  Tb  Tb0  1  0.250000  0.279814  0.660413  1
  Tb  Tb1  1  0.250000  0.780684  0.836126  1
  Tb  Tb2  1  0.750000  0.719458  0.338392  1
  Tb  Tb3  1  0.750000  0.217406  0.163067  1
  Al  Al4  1  0.250000  0.537162  0.105436  1
  Zn  Zn5  1  0.250000  0.036359  0.395168  1
  Zn  Zn6  1  0.750000  0.464189  0.895298  1
  Zn  Zn7  1  0.750000  0.963818  0.604436  1
  Zn  Zn8  1  0.250000  0.920335  0.148359  1
  Zn  Zn9  1  0.250000  0.417837  0.352946  1
  Zn  Zn10  1  0.750000  0.082659  0.852067  1
  Zn  Zn11  1  0.750000  0.582601  0.648206  1
  Zn  Zn12  1  0.250000  0.215973  0.956721  1
  Zn  Zn13  1  0.250000  0.716962  0.543023  1
  Zn  Zn14  1  0.750000  0.781917  0.042955  1
  Zn  Zn15  1  0.750000  0.282824  0.457386  1
