# generated using pymatgen
data_Nd2Dy2TcB12Os
_symmetry_space_group_name_H-M   'P 1'
_cell_length_a   3.72832700
_cell_length_b   9.24951217
_cell_length_c   11.69995115
_cell_angle_alpha   89.91025384
_cell_angle_beta   90.00000000
_cell_angle_gamma   90.00000000
_symmetry_Int_Tables_number   1
_chemical_formula_structural   Nd2Dy2TcB12Os
_chemical_formula_sum   'Nd4 Dy4 Tc2 B24 Os2'
_cell_volume   403.47473002
_cell_formula_units_Z   2
loop_
 _symmetry_equiv_pos_site_id
 _symmetry_equiv_pos_as_xyz
  1  'x, y, z'
loop_
 _atom_site_type_symbol
 _atom_site_label
 _atom_site_symmetry_multiplicity
 _atom_site_fract_x
 _atom_site_fract_y
 _atom_site_fract_z
 _atom_site_occupancy
  Nd  Nd0  1  0.000000  0.324490  0.415097  1
  Nd  Nd1  1  0.000000  0.675510  0.584903  1
  Nd  Nd2  1  0.000000  0.821602  0.086917  1
  Nd  Nd3  1  0.000000  0.178398  0.913083  1
  Dy  Dy4  1  0.000000  0.941712  0.370501  1
  Dy  Dy5  1  0.000000  0.058288  0.629499  1
  Dy  Dy6  1  0.000000  0.443904  0.130409  1
  Dy  Dy7  1  0.000000  0.556096  0.869591  1
  Tc  Tc8  1  0.000000  0.639453  0.319103  1
  Tc  Tc9  1  0.000000  0.360547  0.680897  1
  B  B10  1  0.500000  0.554908  0.430527  1
  B  B11  1  0.500000  0.445092  0.569473  1
  B  B12  1  0.500000  0.055543  0.069555  1
  B  B13  1  0.500000  0.944457  0.930445  1
  B  B14  1  0.500000  0.748714  0.416555  1
  B  B15  1  0.500000  0.251286  0.583445  1
  B  B16  1  0.500000  0.249253  0.083547  1
  B  B17  1  0.500000  0.750747  0.916453  1
  B  B18  1  0.500000  0.790250  0.266490  1
  B  B19  1  0.500000  0.209750  0.733510  1
  B  B20  1  0.500000  0.289654  0.233373  1
  B  B21  1  0.500000  0.710346  0.766627  1
  B  B22  1  0.500000  0.630461  0.186323  1
  B  B23  1  0.500000  0.369539  0.813677  1
  B  B24  1  0.500000  0.130017  0.313126  1
  B  B25  1  0.500000  0.869983  0.686874  1
  B  B26  1  0.500000  0.984974  0.213004  1
  B  B27  1  0.500000  0.015026  0.786996  1
  B  B28  1  0.500000  0.484974  0.286656  1
  B  B29  1  0.500000  0.515026  0.713344  1
  B  B30  1  0.500000  0.599904  0.027300  1
  B  B31  1  0.500000  0.400096  0.972700  1
  B  B32  1  0.500000  0.099627  0.472300  1
  B  B33  1  0.500000  0.900372  0.527700  1
  Os  Os34  1  0.000000  0.138633  0.179871  1
  Os  Os35  1  0.000000  0.861367  0.820129  1
