# generated using pymatgen
data_YbYPaRh3
_symmetry_space_group_name_H-M   'P 1'
_cell_length_a   5.35410711
_cell_length_b   5.35410780
_cell_length_c   5.35410700
_cell_angle_alpha   65.74620907
_cell_angle_beta   65.74620572
_cell_angle_gamma   65.74620980
_symmetry_Int_Tables_number   1
_chemical_formula_structural   YbYPaRh3
_chemical_formula_sum   'Yb1 Y1 Pa1 Rh3'
_cell_volume   122.05647841
_cell_formula_units_Z   1
loop_
 _symmetry_equiv_pos_site_id
 _symmetry_equiv_pos_as_xyz
  1  'x, y, z'
loop_
 _atom_site_type_symbol
 _atom_site_label
 _atom_site_symmetry_multiplicity
 _atom_site_fract_x
 _atom_site_fract_y
 _atom_site_fract_z
 _atom_site_occupancy
  Yb  Yb0  1  0.997473  0.997473  0.997473  1
  Y  Y1  1  0.245719  0.245719  0.245719  1
  Pa  Pa2  1  0.627852  0.627852  0.627852  1
  Rh  Rh3  1  0.625558  0.625558  0.127839  1
  Rh  Rh4  1  0.625558  0.127839  0.625558  1
  Rh  Rh5  1  0.127839  0.625558  0.625558  1
