# generated using pymatgen
data_Mg2InPd3Pt2
_symmetry_space_group_name_H-M   'P 1'
_cell_length_a   4.19302400
_cell_length_b   5.61077300
_cell_length_c   11.12810100
_cell_angle_alpha   90.00000000
_cell_angle_beta   90.00000000
_cell_angle_gamma   90.00000000
_symmetry_Int_Tables_number   1
_chemical_formula_structural   Mg2InPd3Pt2
_chemical_formula_sum   'Mg4 In2 Pd6 Pt4'
_cell_volume   261.80088201
_cell_formula_units_Z   2
loop_
 _symmetry_equiv_pos_site_id
 _symmetry_equiv_pos_as_xyz
  1  'x, y, z'
loop_
 _atom_site_type_symbol
 _atom_site_label
 _atom_site_symmetry_multiplicity
 _atom_site_fract_x
 _atom_site_fract_y
 _atom_site_fract_z
 _atom_site_occupancy
  Mg  Mg0  1  0.500000  0.314592  0.859644  1
  Mg  Mg1  1  0.500000  0.814592  0.640356  1
  Mg  Mg2  1  0.500000  0.685408  0.140356  1
  Mg  Mg3  1  0.500000  0.185408  0.359644  1
  In  In4  1  0.000000  0.500000  0.500000  1
  In  In5  1  0.000000  0.000000  0.000000  1
  Pd  Pd6  1  0.500000  0.706633  0.384588  1
  Pd  Pd7  1  0.500000  0.293367  0.615412  1
  Pd  Pd8  1  0.500000  0.793367  0.884588  1
  Pd  Pd9  1  0.000000  0.500000  0.000000  1
  Pd  Pd10  1  0.000000  0.000000  0.500000  1
  Pd  Pd11  1  0.500000  0.206633  0.115412  1
  Pt  Pt12  1  0.000000  0.062210  0.753415  1
  Pt  Pt13  1  0.000000  0.437790  0.253415  1
  Pt  Pt14  1  0.000000  0.937790  0.246585  1
  Pt  Pt15  1  0.000000  0.562210  0.746585  1
