# generated using pymatgen
data_Zr6Sn2IrRh3N2
_symmetry_space_group_name_H-M   'P 1'
_cell_length_a   8.74724084
_cell_length_b   8.74720621
_cell_length_c   8.74907300
_cell_angle_alpha   59.99314439
_cell_angle_beta   59.99257637
_cell_angle_gamma   59.98507826
_symmetry_Int_Tables_number   1
_chemical_formula_structural   Zr6Sn2IrRh3N2
_chemical_formula_sum   'Zr12 Sn4 Ir2 Rh6 N4'
_cell_volume   473.25109468
_cell_formula_units_Z   2
loop_
 _symmetry_equiv_pos_site_id
 _symmetry_equiv_pos_as_xyz
  1  'x, y, z'
loop_
 _atom_site_type_symbol
 _atom_site_label
 _atom_site_symmetry_multiplicity
 _atom_site_fract_x
 _atom_site_fract_y
 _atom_site_fract_z
 _atom_site_occupancy
  Zr  Zr0  1  0.812823  0.812821  0.187178  1
  Zr  Zr1  1  0.185788  0.185784  0.814216  1
  Zr  Zr2  1  0.813738  0.186177  0.813207  1
  Zr  Zr3  1  0.186183  0.813739  0.186873  1
  Zr  Zr4  1  0.186180  0.813740  0.813206  1
  Zr  Zr5  1  0.813740  0.186179  0.186875  1
  Zr  Zr6  1  0.435777  0.435777  0.064224  1
  Zr  Zr7  1  0.063769  0.063774  0.436228  1
  Zr  Zr8  1  0.435933  0.062391  0.436141  1
  Zr  Zr9  1  0.062389  0.435935  0.065536  1
  Zr  Zr10  1  0.062389  0.435935  0.436142  1
  Zr  Zr11  1  0.435933  0.062389  0.065536  1
  Sn  Sn12  1  0.123743  0.624702  0.625777  1
  Sn  Sn13  1  0.624702  0.123735  0.625782  1
  Sn  Sn14  1  0.625402  0.625402  0.122842  1
  Sn  Sn15  1  0.625399  0.625402  0.626353  1
  Ir  Ir16  1  0.775464  0.408725  0.407906  1
  Ir  Ir17  1  0.408724  0.775460  0.407908  1
  Rh  Rh18  1  0.409779  0.409777  0.771719  1
  Rh  Rh19  1  0.409779  0.409781  0.408721  1
  Rh  Rh20  1  0.477273  0.841143  0.840793  1
  Rh  Rh21  1  0.841135  0.477277  0.840791  1
  Rh  Rh22  1  0.841102  0.841096  0.477176  1
  Rh  Rh23  1  0.841104  0.841105  0.840626  1
  N  N24  1  0.625453  0.125873  0.124336  1
  N  N25  1  0.125878  0.625452  0.124336  1
  N  N26  1  0.125211  0.125212  0.625866  1
  N  N27  1  0.125211  0.125216  0.123708  1
