# generated using pymatgen
data_ErTm2Co8TcP6
_symmetry_space_group_name_H-M   'P 1'
_cell_length_a   3.68333700
_cell_length_b   10.46148300
_cell_length_c   12.14508600
_cell_angle_alpha   90.00000000
_cell_angle_beta   90.00000000
_cell_angle_gamma   90.00000000
_symmetry_Int_Tables_number   1
_chemical_formula_structural   ErTm2Co8TcP6
_chemical_formula_sum   'Er2 Tm4 Co16 Tc2 P12'
_cell_volume   467.98863203
_cell_formula_units_Z   2
loop_
 _symmetry_equiv_pos_site_id
 _symmetry_equiv_pos_as_xyz
  1  'x, y, z'
loop_
 _atom_site_type_symbol
 _atom_site_label
 _atom_site_symmetry_multiplicity
 _atom_site_fract_x
 _atom_site_fract_y
 _atom_site_fract_z
 _atom_site_occupancy
  Er  Er0  1  0.750000  0.250000  0.475773  1
  Er  Er1  1  0.250000  0.750000  0.524227  1
  Tm  Tm2  1  0.250000  0.932001  0.794039  1
  Tm  Tm3  1  0.250000  0.567999  0.794039  1
  Tm  Tm4  1  0.750000  0.067999  0.205961  1
  Tm  Tm5  1  0.750000  0.432001  0.205961  1
  Co  Co6  1  0.250000  0.250000  0.297539  1
  Co  Co7  1  0.750000  0.750000  0.702461  1
  Co  Co8  1  0.750000  0.250000  0.013281  1
  Co  Co9  1  0.250000  0.750000  0.986719  1
  Co  Co10  1  0.250000  0.417817  0.010550  1
  Co  Co11  1  0.250000  0.082183  0.010550  1
  Co  Co12  1  0.750000  0.582183  0.989450  1
  Co  Co13  1  0.750000  0.917817  0.989450  1
  Co  Co14  1  0.250000  0.453297  0.568815  1
  Co  Co15  1  0.250000  0.046703  0.568815  1
  Co  Co16  1  0.750000  0.546703  0.431185  1
  Co  Co17  1  0.750000  0.953297  0.431185  1
  Co  Co18  1  0.250000  0.871795  0.292291  1
  Co  Co19  1  0.250000  0.628205  0.292291  1
  Co  Co20  1  0.750000  0.128205  0.707709  1
  Co  Co21  1  0.750000  0.371795  0.707709  1
  Tc  Tc22  1  0.250000  0.250000  0.843313  1
  Tc  Tc23  1  0.750000  0.750000  0.156687  1
  P  P24  1  0.250000  0.250000  0.119960  1
  P  P25  1  0.750000  0.750000  0.880040  1
  P  P26  1  0.250000  0.250000  0.650496  1
  P  P27  1  0.750000  0.750000  0.349504  1
  P  P28  1  0.250000  0.437515  0.383399  1
  P  P29  1  0.250000  0.062485  0.383399  1
  P  P30  1  0.750000  0.562485  0.616601  1
  P  P31  1  0.750000  0.937515  0.616601  1
  P  P32  1  0.250000  0.904505  0.107959  1
  P  P33  1  0.250000  0.595495  0.107959  1
  P  P34  1  0.750000  0.095495  0.892041  1
  P  P35  1  0.750000  0.404505  0.892041  1
