# generated using pymatgen
data_Cs4Mn3Ir5S16
_symmetry_space_group_name_H-M   'P 1'
_cell_length_a   6.14943286
_cell_length_b   7.12156525
_cell_length_c   16.24749833
_cell_angle_alpha   89.98642948
_cell_angle_beta   89.87593096
_cell_angle_gamma   89.97430991
_symmetry_Int_Tables_number   1
_chemical_formula_structural   Cs4Mn3Ir5S16
_chemical_formula_sum   'Cs4 Mn3 Ir5 S16'
_cell_volume   711.53447810
_cell_formula_units_Z   1
loop_
 _symmetry_equiv_pos_site_id
 _symmetry_equiv_pos_as_xyz
  1  'x, y, z'
loop_
 _atom_site_type_symbol
 _atom_site_label
 _atom_site_symmetry_multiplicity
 _atom_site_fract_x
 _atom_site_fract_y
 _atom_site_fract_z
 _atom_site_occupancy
  Cs  Cs0  1  0.353569  0.000962  0.998230  1
  Cs  Cs1  1  0.646429  0.499038  0.501770  1
  Cs  Cs2  1  0.033007  0.000247  0.500926  1
  Cs  Cs3  1  0.966993  0.499753  0.999074  1
  Mn  Mn4  1  0.499999  0.249999  0.250001  1
  Mn  Mn5  1  0.500008  0.750003  0.749999  1
  Mn  Mn6  1  0.500000  0.749999  0.250000  1
  Ir  Ir7  1  0.001865  0.000004  0.250356  1
  Ir  Ir8  1  0.001941  0.994860  0.749760  1
  Ir  Ir9  1  0.998135  0.499996  0.249644  1
  Ir  Ir10  1  0.998058  0.505140  0.750240  1
  Ir  Ir11  1  0.500000  0.250000  0.750000  1
  S  S12  1  0.831386  0.249782  0.325214  1
  S  S13  1  0.826808  0.750650  0.672249  1
  S  S14  1  0.168614  0.749981  0.174742  1
  S  S15  1  0.162951  0.250027  0.821627  1
  S  S16  1  0.168613  0.250218  0.174786  1
  S  S17  1  0.173192  0.749350  0.827750  1
  S  S18  1  0.831386  0.750019  0.325258  1
  S  S19  1  0.837048  0.249973  0.678373  1
  S  S20  1  0.668306  0.000119  0.173998  1
  S  S21  1  0.668552  0.998213  0.825388  1
  S  S22  1  0.331694  0.499881  0.326002  1
  S  S23  1  0.331448  0.501787  0.674611  1
  S  S24  1  0.340124  0.999864  0.325695  1
  S  S25  1  0.338441  0.998205  0.674661  1
  S  S26  1  0.659875  0.500136  0.174305  1
  S  S27  1  0.661558  0.501795  0.825339  1
