# generated using pymatgen
data_TaTi3Zn2(Co5B2)2
_symmetry_space_group_name_H-M   'P 1'
_cell_length_a   8.49385096
_cell_length_b   8.49385096
_cell_length_c   2.98559600
_cell_angle_alpha   90.00000000
_cell_angle_beta   90.00000000
_cell_angle_gamma   89.65741949
_symmetry_Int_Tables_number   1
_chemical_formula_structural   TaTi3Zn2(Co5B2)2
_chemical_formula_sum   'Ta1 Ti3 Zn2 Co10 B4'
_cell_volume   215.39347816
_cell_formula_units_Z   1
loop_
 _symmetry_equiv_pos_site_id
 _symmetry_equiv_pos_as_xyz
  1  'x, y, z'
loop_
 _atom_site_type_symbol
 _atom_site_label
 _atom_site_symmetry_multiplicity
 _atom_site_fract_x
 _atom_site_fract_y
 _atom_site_fract_z
 _atom_site_occupancy
  Ta  Ta0  1  0.823859  0.323859  0.000000  1
  Ti  Ti1  1  0.323992  0.175076  0.000000  1
  Ti  Ti2  1  0.675076  0.823992  0.000000  1
  Ti  Ti3  1  0.177252  0.677252  0.000000  1
  Zn  Zn4  1  0.000406  0.999838  0.000000  1
  Zn  Zn5  1  0.499838  0.500406  0.000000  1
  Co  Co6  1  0.499185  0.999185  0.500000  1
  Co  Co7  1  0.003843  0.503843  0.500000  1
  Co  Co8  1  0.071762  0.221152  0.500000  1
  Co  Co9  1  0.221060  0.929663  0.500000  1
  Co  Co10  1  0.777601  0.066629  0.500000  1
  Co  Co11  1  0.928248  0.780194  0.500000  1
  Co  Co12  1  0.429663  0.721060  0.500000  1
  Co  Co13  1  0.566629  0.277601  0.500000  1
  Co  Co14  1  0.721152  0.571762  0.500000  1
  Co  Co15  1  0.280194  0.428248  0.500000  1
  B  B16  1  0.620915  0.120915  0.000000  1
  B  B17  1  0.123210  0.378248  0.000000  1
  B  B18  1  0.878248  0.623210  0.000000  1
  B  B19  1  0.377869  0.877869  0.000000  1
