# generated using pymatgen
data_PrNd3Re16Si7Ge
_symmetry_space_group_name_H-M   'P 1'
_cell_length_a   4.17049600
_cell_length_b   7.38699640
_cell_length_c   15.53005792
_cell_angle_alpha   89.98261104
_cell_angle_beta   90.00000000
_cell_angle_gamma   90.00000000
_symmetry_Int_Tables_number   1
_chemical_formula_structural   PrNd3Re16Si7Ge
_chemical_formula_sum   'Pr1 Nd3 Re16 Si7 Ge1'
_cell_volume   478.44128911
_cell_formula_units_Z   1
loop_
 _symmetry_equiv_pos_site_id
 _symmetry_equiv_pos_as_xyz
  1  'x, y, z'
loop_
 _atom_site_type_symbol
 _atom_site_label
 _atom_site_symmetry_multiplicity
 _atom_site_fract_x
 _atom_site_fract_y
 _atom_site_fract_z
 _atom_site_occupancy
  Pr  Pr0  1  0.000000  0.577642  0.117830  1
  Nd  Nd1  1  0.000000  0.419930  0.881902  1
  Nd  Nd2  1  0.500000  0.082106  0.380922  1
  Nd  Nd3  1  0.500000  0.923120  0.620447  1
  Re  Re4  1  0.000000  0.135643  0.051661  1
  Re  Re5  1  0.000000  0.860437  0.947307  1
  Re  Re6  1  0.500000  0.633890  0.446444  1
  Re  Re7  1  0.500000  0.363627  0.552346  1
  Re  Re8  1  0.000000  0.731283  0.320539  1
  Re  Re9  1  0.000000  0.268433  0.679549  1
  Re  Re10  1  0.500000  0.230073  0.178582  1
  Re  Re11  1  0.500000  0.766817  0.821233  1
  Re  Re12  1  0.000000  0.432304  0.417599  1
  Re  Re13  1  0.000000  0.565425  0.582143  1
  Re  Re14  1  0.500000  0.931366  0.081486  1
  Re  Re15  1  0.500000  0.066165  0.917613  1
  Re  Re16  1  0.000000  0.989219  0.206130  1
  Re  Re17  1  0.000000  0.010050  0.793974  1
  Re  Re18  1  0.500000  0.488494  0.293059  1
  Re  Re19  1  0.500000  0.510149  0.706366  1
  Si  Si20  1  0.000000  0.179132  0.525171  1
  Si  Si21  1  0.500000  0.324363  0.023822  1
  Si  Si22  1  0.500000  0.672068  0.975635  1
  Si  Si23  1  0.000000  0.291369  0.272412  1
  Si  Si24  1  0.000000  0.707329  0.727487  1
  Si  Si25  1  0.500000  0.791695  0.227198  1
  Si  Si26  1  0.500000  0.208721  0.773288  1
  Ge  Ge27  1  0.000000  0.839150  0.477858  1
