# generated using pymatgen
data_Ho4HgPbAu4
_symmetry_space_group_name_H-M   'P 1'
_cell_length_a   8.05954500
_cell_length_b   8.05954500
_cell_length_c   7.29419600
_cell_angle_alpha   90.00000000
_cell_angle_beta   90.00000000
_cell_angle_gamma   90.00000000
_symmetry_Int_Tables_number   1
_chemical_formula_structural   Ho4HgPbAu4
_chemical_formula_sum   'Ho8 Hg2 Pb2 Au8'
_cell_volume   473.80373277
_cell_formula_units_Z   2
loop_
 _symmetry_equiv_pos_site_id
 _symmetry_equiv_pos_as_xyz
  1  'x, y, z'
loop_
 _atom_site_type_symbol
 _atom_site_label
 _atom_site_symmetry_multiplicity
 _atom_site_fract_x
 _atom_site_fract_y
 _atom_site_fract_z
 _atom_site_occupancy
  Ho  Ho0  1  0.842114  0.157886  0.500000  1
  Ho  Ho1  1  0.157886  0.842114  0.500000  1
  Ho  Ho2  1  0.342114  0.342114  0.000000  1
  Ho  Ho3  1  0.657886  0.657886  0.000000  1
  Ho  Ho4  1  0.683601  0.683601  0.500000  1
  Ho  Ho5  1  0.316399  0.316399  0.500000  1
  Ho  Ho6  1  0.183601  0.816399  0.000000  1
  Ho  Ho7  1  0.816399  0.183601  0.000000  1
  Hg  Hg8  1  0.500000  0.000000  0.250000  1
  Hg  Hg9  1  0.000000  0.500000  0.750000  1
  Pb  Pb10  1  0.500000  0.000000  0.750000  1
  Pb  Pb11  1  0.000000  0.500000  0.250000  1
  Au  Au12  1  0.624858  0.371013  0.275626  1
  Au  Au13  1  0.375142  0.628987  0.275626  1
  Au  Au14  1  0.124858  0.128987  0.775626  1
  Au  Au15  1  0.875142  0.871013  0.775626  1
  Au  Au16  1  0.371013  0.624858  0.724374  1
  Au  Au17  1  0.628987  0.375142  0.724374  1
  Au  Au18  1  0.871013  0.875142  0.224374  1
  Au  Au19  1  0.128987  0.124858  0.224374  1
