# generated using pymatgen
data_Nd3TlIn2Pt2Rh
_symmetry_space_group_name_H-M   'P 1'
_cell_length_a   7.87473200
_cell_length_b   7.88503218
_cell_length_c   3.92905800
_cell_angle_alpha   90.00000000
_cell_angle_beta   90.00000000
_cell_angle_gamma   119.95679748
_symmetry_Int_Tables_number   1
_chemical_formula_structural   Nd3TlIn2Pt2Rh
_chemical_formula_sum   'Nd3 Tl1 In2 Pt2 Rh1'
_cell_volume   211.37188686
_cell_formula_units_Z   1
loop_
 _symmetry_equiv_pos_site_id
 _symmetry_equiv_pos_as_xyz
  1  'x, y, z'
loop_
 _atom_site_type_symbol
 _atom_site_label
 _atom_site_symmetry_multiplicity
 _atom_site_fract_x
 _atom_site_fract_y
 _atom_site_fract_z
 _atom_site_occupancy
  Nd  Nd0  1  0.592463  0.000000  0.500000  1
  Nd  Nd1  1  0.408496  0.407845  0.500000  1
  Nd  Nd2  1  0.000651  0.592155  0.500000  1
  Tl  Tl3  1  0.253580  0.000000  0.000000  1
  In  In4  1  0.746835  0.747518  0.000000  1
  In  In5  1  0.999316  0.252482  0.000000  1
  Pt  Pt6  1  0.334300  0.658828  0.000000  1
  Pt  Pt7  1  0.675473  0.341172  0.000000  1
  Rh  Rh8  1  0.988887  0.000000  0.500000  1
