# generated using pymatgen
data_Dy4Ho6CuRhPb6
_symmetry_space_group_name_H-M   'P 1'
_cell_length_a   9.17319000
_cell_length_b   9.17319037
_cell_length_c   6.75307900
_cell_angle_alpha   90.00000000
_cell_angle_beta   90.00000000
_cell_angle_gamma   119.99999867
_symmetry_Int_Tables_number   1
_chemical_formula_structural   Dy4Ho6CuRhPb6
_chemical_formula_sum   'Dy4 Ho6 Cu1 Rh1 Pb6'
_cell_volume   492.12254713
_cell_formula_units_Z   1
loop_
 _symmetry_equiv_pos_site_id
 _symmetry_equiv_pos_as_xyz
  1  'x, y, z'
loop_
 _atom_site_type_symbol
 _atom_site_label
 _atom_site_symmetry_multiplicity
 _atom_site_fract_x
 _atom_site_fract_y
 _atom_site_fract_z
 _atom_site_occupancy
  Dy  Dy0  1  0.333333  0.666667  0.000000  1
  Dy  Dy1  1  0.666667  0.333333  0.000000  1
  Dy  Dy2  1  0.666667  0.333333  0.500000  1
  Dy  Dy3  1  0.333333  0.666667  0.500000  1
  Ho  Ho4  1  0.245360  0.000000  0.237994  1
  Ho  Ho5  1  0.754640  0.000000  0.762006  1
  Ho  Ho6  1  0.000000  0.245360  0.237994  1
  Ho  Ho7  1  0.000000  0.754640  0.762006  1
  Ho  Ho8  1  0.754640  0.754640  0.237994  1
  Ho  Ho9  1  0.245360  0.245360  0.762006  1
  Cu  Cu10  1  0.000000  0.000000  0.500000  1
  Rh  Rh11  1  0.000000  0.000000  0.000000  1
  Pb  Pb12  1  0.604203  0.000000  0.252358  1
  Pb  Pb13  1  0.395797  0.000000  0.747642  1
  Pb  Pb14  1  0.000000  0.604203  0.252358  1
  Pb  Pb15  1  0.000000  0.395797  0.747642  1
  Pb  Pb16  1  0.395797  0.395797  0.252358  1
  Pb  Pb17  1  0.604203  0.604203  0.747642  1
