# generated using pymatgen
data_MnIn(Pd2Au)2
_symmetry_space_group_name_H-M   'P 1'
_cell_length_a   5.86044800
_cell_length_b   5.85991100
_cell_length_c   7.70252000
_cell_angle_alpha   90.00000000
_cell_angle_beta   89.99968928
_cell_angle_gamma   90.00000000
_symmetry_Int_Tables_number   1
_chemical_formula_structural   MnIn(Pd2Au)2
_chemical_formula_sum   'Mn2 In2 Pd8 Au4'
_cell_volume   264.51765958
_cell_formula_units_Z   2
loop_
 _symmetry_equiv_pos_site_id
 _symmetry_equiv_pos_as_xyz
  1  'x, y, z'
loop_
 _atom_site_type_symbol
 _atom_site_label
 _atom_site_symmetry_multiplicity
 _atom_site_fract_x
 _atom_site_fract_y
 _atom_site_fract_z
 _atom_site_occupancy
  Mn  Mn0  1  0.250162  0.250001  0.999997  1
  Mn  Mn1  1  0.749838  0.750000  0.000003  1
  In  In2  1  0.249744  0.250001  0.500006  1
  In  In3  1  0.750256  0.750000  0.499994  1
  Pd  Pd4  1  0.999990  0.999999  0.243252  1
  Pd  Pd5  1  0.999990  0.500009  0.243252  1
  Pd  Pd6  1  0.499992  0.999997  0.243478  1
  Pd  Pd7  1  0.499992  0.499996  0.243478  1
  Pd  Pd8  1  0.500008  0.000003  0.756521  1
  Pd  Pd9  1  0.500008  0.500005  0.756521  1
  Pd  Pd10  1  0.000010  0.000001  0.756748  1
  Pd  Pd11  1  0.000010  0.499992  0.756748  1
  Au  Au12  1  0.749819  0.250001  0.000007  1
  Au  Au13  1  0.250181  0.750000  0.999993  1
  Au  Au14  1  0.750101  0.250001  0.499992  1
  Au  Au15  1  0.249899  0.750000  0.500008  1
