# generated using pymatgen
data_Er5V(P2Ir3)6
_symmetry_space_group_name_H-M   'P 1'
_cell_length_a   12.63539504
_cell_length_b   12.77945747
_cell_length_c   3.97058000
_cell_angle_alpha   90.00000000
_cell_angle_beta   90.00000000
_cell_angle_gamma   120.37788073
_symmetry_Int_Tables_number   1
_chemical_formula_structural   Er5V(P2Ir3)6
_chemical_formula_sum   'Er5 V1 P12 Ir18'
_cell_volume   553.12017719
_cell_formula_units_Z   1
loop_
 _symmetry_equiv_pos_site_id
 _symmetry_equiv_pos_as_xyz
  1  'x, y, z'
loop_
 _atom_site_type_symbol
 _atom_site_label
 _atom_site_symmetry_multiplicity
 _atom_site_fract_x
 _atom_site_fract_y
 _atom_site_fract_z
 _atom_site_occupancy
  Er  Er0  1  0.329313  0.664186  0.500000  1
  Er  Er1  1  0.670687  0.334871  0.500000  1
  Er  Er2  1  0.000000  0.812191  0.000000  1
  Er  Er3  1  0.183172  0.186189  0.000000  1
  Er  Er4  1  0.816828  0.003016  0.000000  1
  V  V5  1  0.000000  0.451674  0.500000  1
  P  P6  1  0.000000  0.633362  0.500000  1
  P  P7  1  0.354794  0.354049  0.500000  1
  P  P8  1  0.645206  0.999254  0.500000  1
  P  P9  1  0.514585  0.688732  0.000000  1
  P  P10  1  0.310931  0.828469  0.000000  1
  P  P11  1  0.164703  0.484039  0.000000  1
  P  P12  1  0.485415  0.174148  0.000000  1
  P  P13  1  0.689069  0.517538  0.000000  1
  P  P14  1  0.835297  0.319336  0.000000  1
  P  P15  1  0.000000  0.175568  0.500000  1
  P  P16  1  0.820922  0.821233  0.500000  1
  P  P17  1  0.179078  0.000312  0.500000  1
  Ir  Ir18  1  0.507253  0.868993  0.000000  1
  Ir  Ir19  1  0.130192  0.640494  0.000000  1
  Ir  Ir20  1  0.356689  0.494719  0.000000  1
  Ir  Ir21  1  0.492747  0.361738  0.000000  1
  Ir  Ir22  1  0.869808  0.510302  0.000000  1
  Ir  Ir23  1  0.643311  0.138030  0.000000  1
  Ir  Ir24  1  0.534495  0.535445  0.500000  1
  Ir  Ir25  1  0.465505  0.000950  0.500000  1
  Ir  Ir26  1  0.000000  0.287012  0.000000  1
  Ir  Ir27  1  0.713700  0.714504  0.000000  1
  Ir  Ir28  1  0.286300  0.000805  0.000000  1
  Ir  Ir29  1  0.621975  0.804149  0.500000  1
  Ir  Ir30  1  0.197219  0.822505  0.500000  1
  Ir  Ir31  1  0.179379  0.373024  0.500000  1
  Ir  Ir32  1  0.378025  0.182175  0.500000  1
  Ir  Ir33  1  0.802781  0.625286  0.500000  1
  Ir  Ir34  1  0.820621  0.193645  0.500000  1
  Ir  Ir35  1  0.000000  0.998053  0.500000  1
