# generated using pymatgen
data_DyHo15(In3Fe)2
_symmetry_space_group_name_H-M   'P 1'
_cell_length_a   10.31704200
_cell_length_b   10.31560215
_cell_length_c   6.96512066
_cell_angle_alpha   89.95697728
_cell_angle_beta   90.00000000
_cell_angle_gamma   120.00461736
_symmetry_Int_Tables_number   1
_chemical_formula_structural   DyHo15(In3Fe)2
_chemical_formula_sum   'Dy1 Ho15 In6 Fe2'
_cell_volume   641.93149927
_cell_formula_units_Z   1
loop_
 _symmetry_equiv_pos_site_id
 _symmetry_equiv_pos_as_xyz
  1  'x, y, z'
loop_
 _atom_site_type_symbol
 _atom_site_label
 _atom_site_symmetry_multiplicity
 _atom_site_fract_x
 _atom_site_fract_y
 _atom_site_fract_z
 _atom_site_occupancy
  Dy  Dy0  1  0.534756  0.069512  0.505163  1
  Ho  Ho1  1  0.930489  0.465306  0.505499  1
  Ho  Ho2  1  0.534817  0.465306  0.505499  1
  Ho  Ho3  1  0.465061  0.930121  0.005250  1
  Ho  Ho4  1  0.069643  0.534846  0.005530  1
  Ho  Ho5  1  0.465202  0.534846  0.005530  1
  Ho  Ho6  1  0.178401  0.356802  0.712622  1
  Ho  Ho7  1  0.643471  0.821541  0.712752  1
  Ho  Ho8  1  0.178071  0.821541  0.712752  1
  Ho  Ho9  1  0.821639  0.643279  0.212554  1
  Ho  Ho10  1  0.356481  0.178345  0.212348  1
  Ho  Ho11  1  0.821864  0.178345  0.212348  1
  Ho  Ho12  1  0.666791  0.333583  0.893946  1
  Ho  Ho13  1  0.333172  0.666344  0.393488  1
  Ho  Ho14  1  0.999970  0.999940  0.493683  1
  Ho  Ho15  1  0.999984  0.999968  0.993782  1
  In  In16  1  0.837097  0.674194  0.751875  1
  In  In17  1  0.325704  0.162971  0.752031  1
  In  In18  1  0.837267  0.162971  0.752031  1
  In  In19  1  0.162931  0.325863  0.251840  1
  In  In20  1  0.674158  0.837035  0.251867  1
  In  In21  1  0.162877  0.837035  0.251867  1
  Fe  Fe22  1  0.666814  0.333628  0.281745  1
  Fe  Fe23  1  0.333339  0.666680  0.782041  1
