# generated using pymatgen
data_Ca2SmGa8Ag3
_symmetry_space_group_name_H-M   'P 1'
_cell_length_a   4.40295611
_cell_length_b   8.45589658
_cell_length_c   8.45589760
_cell_angle_alpha   70.42791613
_cell_angle_beta   74.90926653
_cell_angle_gamma   74.90925957
_symmetry_Int_Tables_number   1
_chemical_formula_structural   Ca2SmGa8Ag3
_chemical_formula_sum   'Ca2 Sm1 Ga8 Ag3'
_cell_volume   281.16705866
_cell_formula_units_Z   1
loop_
 _symmetry_equiv_pos_site_id
 _symmetry_equiv_pos_as_xyz
  1  'x, y, z'
loop_
 _atom_site_type_symbol
 _atom_site_label
 _atom_site_symmetry_multiplicity
 _atom_site_fract_x
 _atom_site_fract_y
 _atom_site_fract_z
 _atom_site_occupancy
  Ca  Ca0  1  0.498919  0.501081  0.501081  1
  Ca  Ca1  1  0.198881  0.801119  0.801119  1
  Sm  Sm2  1  0.797627  0.202373  0.202373  1
  Ga  Ga3  1  0.358566  0.358455  0.924411  1
  Ga  Ga4  1  0.644255  0.635085  0.076405  1
  Ga  Ga5  1  0.358566  0.924411  0.358455  1
  Ga  Ga6  1  0.644255  0.076405  0.635085  1
  Ga  Ga7  1  0.159689  0.471045  0.209578  1
  Ga  Ga8  1  0.838259  0.528083  0.795399  1
  Ga  Ga9  1  0.159689  0.209578  0.471045  1
  Ga  Ga10  1  0.838259  0.795399  0.528083  1
  Ag  Ag11  1  0.500833  0.999167  0.999167  1
  Ag  Ag12  1  0.001101  0.803655  0.194142  1
  Ag  Ag13  1  0.001101  0.194142  0.803655  1
