# generated using pymatgen
data_Ho7Lu13CoBi11
_symmetry_space_group_name_H-M   'P 1'
_cell_length_a   8.09365854
_cell_length_b   9.35492400
_cell_length_c   11.82636500
_cell_angle_alpha   90.00000000
_cell_angle_beta   89.73352066
_cell_angle_gamma   90.00000000
_symmetry_Int_Tables_number   1
_chemical_formula_structural   Ho7Lu13CoBi11
_chemical_formula_sum   'Ho7 Lu13 Co1 Bi11'
_cell_volume   895.43016997
_cell_formula_units_Z   1
loop_
 _symmetry_equiv_pos_site_id
 _symmetry_equiv_pos_as_xyz
  1  'x, y, z'
loop_
 _atom_site_type_symbol
 _atom_site_label
 _atom_site_symmetry_multiplicity
 _atom_site_fract_x
 _atom_site_fract_y
 _atom_site_fract_z
 _atom_site_occupancy
  Ho  Ho0  1  0.656839  0.750000  0.716667  1
  Ho  Ho1  1  0.147166  0.750000  0.779909  1
  Ho  Ho2  1  0.847014  0.250000  0.215164  1
  Ho  Ho3  1  0.200022  0.250000  0.778065  1
  Ho  Ho4  1  0.809357  0.750000  0.217506  1
  Ho  Ho5  1  0.315669  0.750000  0.280466  1
  Ho  Ho6  1  0.642642  0.250000  0.699745  1
  Lu  Lu7  1  0.049656  0.250000  0.506809  1
  Lu  Lu8  1  0.987971  0.750000  0.493013  1
  Lu  Lu9  1  0.478771  0.750000  0.012149  1
  Lu  Lu10  1  0.524857  0.250000  0.990390  1
  Lu  Lu11  1  0.355978  0.250000  0.308713  1
  Lu  Lu12  1  0.191656  0.067660  0.065174  1
  Lu  Lu13  1  0.808489  0.933363  0.941483  1
  Lu  Lu14  1  0.318493  0.976639  0.556993  1
  Lu  Lu15  1  0.808489  0.566637  0.941483  1
  Lu  Lu16  1  0.675706  0.075459  0.446231  1
  Lu  Lu17  1  0.191656  0.432340  0.065174  1
  Lu  Lu18  1  0.675706  0.424541  0.446231  1
  Lu  Lu19  1  0.318493  0.523361  0.556993  1
  Co  Co20  1  0.417859  0.250000  0.525544  1
  Bi  Bi21  1  0.596132  0.750000  0.458820  1
  Bi  Bi22  1  0.098940  0.750000  0.042672  1
  Bi  Bi23  1  0.906239  0.250000  0.952081  1
  Bi  Bi24  1  0.058064  0.000764  0.323972  1
  Bi  Bi25  1  0.933251  0.002468  0.673709  1
  Bi  Bi26  1  0.435417  0.992013  0.829057  1
  Bi  Bi27  1  0.933251  0.497532  0.673709  1
  Bi  Bi28  1  0.561365  0.006654  0.174527  1
  Bi  Bi29  1  0.058064  0.499236  0.323972  1
  Bi  Bi30  1  0.561365  0.493346  0.174527  1
  Bi  Bi31  1  0.435417  0.507987  0.829057  1
