# generated using pymatgen
data_Er2TmIn3Cu2Pt
_symmetry_space_group_name_H-M   'P 1'
_cell_length_a   7.68740768
_cell_length_b   7.66992909
_cell_length_c   3.70211400
_cell_angle_alpha   90.00000000
_cell_angle_beta   90.00000000
_cell_angle_gamma   119.90522661
_symmetry_Int_Tables_number   1
_chemical_formula_structural   Er2TmIn3Cu2Pt
_chemical_formula_sum   'Er2 Tm1 In3 Cu2 Pt1'
_cell_volume   189.21939126
_cell_formula_units_Z   1
loop_
 _symmetry_equiv_pos_site_id
 _symmetry_equiv_pos_as_xyz
  1  'x, y, z'
loop_
 _atom_site_type_symbol
 _atom_site_label
 _atom_site_symmetry_multiplicity
 _atom_site_fract_x
 _atom_site_fract_y
 _atom_site_fract_z
 _atom_site_occupancy
  Er  Er0  1  0.010262  0.599657  0.500000  1
  Er  Er1  1  0.589801  0.989936  0.500000  1
  Tm  Tm2  1  0.399482  0.411250  0.500000  1
  In  In3  1  0.989344  0.254250  0.000000  1
  In  In4  1  0.265828  0.011988  0.000000  1
  In  In5  1  0.745383  0.734218  0.000000  1
  Cu  Cu6  1  0.000319  0.000150  0.500000  1
  Cu  Cu7  1  0.665543  0.333679  0.000000  1
  Pt  Pt8  1  0.334036  0.664872  0.000000  1
