# generated using pymatgen
data_YPaCo3Si5
_symmetry_space_group_name_H-M   'P 1'
_cell_length_a   7.83482101
_cell_length_b   7.89464881
_cell_length_c   7.89464954
_cell_angle_alpha   138.55608981
_cell_angle_beta   104.66266913
_cell_angle_gamma   89.95303075
_symmetry_Int_Tables_number   1
_chemical_formula_structural   YPaCo3Si5
_chemical_formula_sum   'Y2 Pa2 Co6 Si10'
_cell_volume   298.75997409
_cell_formula_units_Z   2
loop_
 _symmetry_equiv_pos_site_id
 _symmetry_equiv_pos_as_xyz
  1  'x, y, z'
loop_
 _atom_site_type_symbol
 _atom_site_label
 _atom_site_symmetry_multiplicity
 _atom_site_fract_x
 _atom_site_fract_y
 _atom_site_fract_z
 _atom_site_occupancy
  Y  Y0  1  0.600587  0.866547  0.734041  1
  Y  Y1  1  0.399413  0.133453  0.265959  1
  Pa  Pa2  1  0.867782  0.632527  0.235255  1
  Pa  Pa3  1  0.132218  0.367473  0.764745  1
  Co  Co4  1  0.000000  0.255454  0.255454  1
  Co  Co5  1  0.759242  0.140541  0.618702  1
  Co  Co6  1  0.521462  0.633524  0.887937  1
  Co  Co7  1  0.478538  0.366476  0.112063  1
  Co  Co8  1  0.000000  0.744546  0.744546  1
  Co  Co9  1  0.240758  0.859459  0.381298  1
  Si  Si10  1  0.049282  0.898658  0.150624  1
  Si  Si11  1  0.950718  0.101342  0.849376  1
  Si  Si12  1  0.260276  0.605245  0.655031  1
  Si  Si13  1  0.739724  0.394755  0.344969  1
  Si  Si14  1  0.233293  0.984999  0.754063  1
  Si  Si15  1  0.766707  0.520770  0.751705  1
  Si  Si16  1  0.766707  0.015001  0.245937  1
  Si  Si17  1  0.500000  0.245763  0.745763  1
  Si  Si18  1  0.500000  0.754237  0.254237  1
  Si  Si19  1  0.233293  0.479230  0.248295  1
