# generated using pymatgen
data_HoSc5H18
_symmetry_space_group_name_H-M   'P 1'
_cell_length_a   5.90106900
_cell_length_b   5.91963632
_cell_length_c   6.18274392
_cell_angle_alpha   90.07652436
_cell_angle_beta   90.00000000
_cell_angle_gamma   119.89629181
_symmetry_Int_Tables_number   1
_chemical_formula_structural   HoSc5H18
_chemical_formula_sum   'Ho1 Sc5 H18'
_cell_volume   187.23627759
_cell_formula_units_Z   1
loop_
 _symmetry_equiv_pos_site_id
 _symmetry_equiv_pos_as_xyz
  1  'x, y, z'
loop_
 _atom_site_type_symbol
 _atom_site_label
 _atom_site_symmetry_multiplicity
 _atom_site_fract_x
 _atom_site_fract_y
 _atom_site_fract_z
 _atom_site_occupancy
  Ho  Ho0  1  0.334415  0.000000  0.250000  1
  Sc  Sc1  1  0.660445  0.000000  0.750000  1
  Sc  Sc2  1  0.340716  0.343277  0.749399  1
  Sc  Sc3  1  0.997438  0.656723  0.750601  1
  Sc  Sc4  1  0.669686  0.668721  0.250205  1
  Sc  Sc5  1  0.000965  0.331279  0.249795  1
  H  H6  1  0.330655  0.952365  0.900803  1
  H  H7  1  0.630478  0.669652  0.909537  1
  H  H8  1  0.039060  0.371526  0.909862  1
  H  H9  1  0.306507  0.333777  0.412959  1
  H  H10  1  0.010687  0.681351  0.416656  1
  H  H11  1  0.671572  0.975294  0.413524  1
  H  H12  1  0.696278  0.024706  0.086476  1
  H  H13  1  0.329335  0.318649  0.083344  1
  H  H14  1  0.972728  0.666223  0.087041  1
  H  H15  1  0.667533  0.628474  0.590138  1
  H  H16  1  0.960825  0.330348  0.590463  1
  H  H17  1  0.378289  0.047635  0.599197  1
  H  H18  1  0.002632  0.000000  0.750000  1
  H  H19  1  0.986859  0.000000  0.250000  1
  H  H20  1  0.664614  0.331353  0.821113  1
  H  H21  1  0.681613  0.348204  0.294233  1
  H  H22  1  0.333408  0.651796  0.205767  1
  H  H23  1  0.333261  0.668647  0.678887  1
