# generated using pymatgen
data_TbEr5Al24Ru7Au
_symmetry_space_group_name_H-M   'P 1'
_cell_length_a   8.82864208
_cell_length_b   8.82401478
_cell_length_c   9.54447016
_cell_angle_alpha   89.82628767
_cell_angle_beta   90.15612530
_cell_angle_gamma   119.89318224
_symmetry_Int_Tables_number   1
_chemical_formula_structural   TbEr5Al24Ru7Au
_chemical_formula_sum   'Tb1 Er5 Al24 Ru7 Au1'
_cell_volume   644.62423087
_cell_formula_units_Z   1
loop_
 _symmetry_equiv_pos_site_id
 _symmetry_equiv_pos_as_xyz
  1  'x, y, z'
loop_
 _atom_site_type_symbol
 _atom_site_label
 _atom_site_symmetry_multiplicity
 _atom_site_fract_x
 _atom_site_fract_y
 _atom_site_fract_z
 _atom_site_occupancy
  Tb  Tb0  1  0.192575  0.386795  0.249753  1
  Er  Er1  1  0.807163  0.612392  0.750081  1
  Er  Er2  1  0.612398  0.807252  0.249860  1
  Er  Er3  1  0.387658  0.192834  0.750046  1
  Er  Er4  1  0.194918  0.805157  0.253539  1
  Er  Er5  1  0.805121  0.194970  0.746471  1
  Al  Al6  1  0.328228  0.672296  0.023512  1
  Al  Al7  1  0.671917  0.328148  0.976196  1
  Al  Al8  1  0.666644  0.333448  0.517791  1
  Al  Al9  1  0.333606  0.666973  0.482508  1
  Al  Al10  1  0.162494  0.323963  0.578647  1
  Al  Al11  1  0.837536  0.676006  0.421773  1
  Al  Al12  1  0.676105  0.837592  0.578356  1
  Al  Al13  1  0.848972  0.678441  0.080387  1
  Al  Al14  1  0.324063  0.162184  0.421886  1
  Al  Al15  1  0.151057  0.321535  0.919219  1
  Al  Al16  1  0.162578  0.837439  0.579041  1
  Al  Al17  1  0.321600  0.150873  0.080283  1
  Al  Al18  1  0.837073  0.162369  0.421179  1
  Al  Al19  1  0.678512  0.848965  0.919494  1
  Al  Al20  1  0.837146  0.162296  0.078103  1
  Al  Al21  1  0.162499  0.837517  0.921670  1
  Al  Al22  1  0.560480  0.120870  0.248445  1
  Al  Al23  1  0.439474  0.879045  0.751560  1
  Al  Al24  1  0.878544  0.439622  0.248426  1
  Al  Al25  1  0.120876  0.560518  0.751508  1
  Al  Al26  1  0.564029  0.436671  0.255735  1
  Al  Al27  1  0.436620  0.563433  0.744345  1
  Al  Al28  1  0.999039  0.000005  0.250161  1
  Al  Al29  1  0.000635  0.999385  0.749854  1
  Ru  Ru30  1  0.500107  0.000185  0.999934  1
  Ru  Ru31  1  0.999767  0.500156  0.999697  1
  Ru  Ru32  1  0.500146  0.000276  0.500094  1
  Ru  Ru33  1  0.999798  0.500143  0.500240  1
  Ru  Ru34  1  0.500437  0.500149  0.500326  1
  Ru  Ru35  1  0.000029  0.000013  0.999978  1
  Ru  Ru36  1  0.000004  0.999993  0.500045  1
  Au  Au37  1  0.500150  0.500091  0.999858  1
