# generated using pymatgen
data_Er5InBiPb
_symmetry_space_group_name_H-M   'P 1'
_cell_length_a   8.99930903
_cell_length_b   8.98514184
_cell_length_c   6.56717900
_cell_angle_alpha   90.00000000
_cell_angle_beta   90.00000000
_cell_angle_gamma   119.94793495
_symmetry_Int_Tables_number   1
_chemical_formula_structural   Er5InBiPb
_chemical_formula_sum   'Er10 In2 Bi2 Pb2'
_cell_volume   460.12009263
_cell_formula_units_Z   2
loop_
 _symmetry_equiv_pos_site_id
 _symmetry_equiv_pos_as_xyz
  1  'x, y, z'
loop_
 _atom_site_type_symbol
 _atom_site_label
 _atom_site_symmetry_multiplicity
 _atom_site_fract_x
 _atom_site_fract_y
 _atom_site_fract_z
 _atom_site_occupancy
  Er  Er0  1  0.674294  0.338852  0.002561  1
  Er  Er1  1  0.325706  0.664559  0.002561  1
  Er  Er2  1  0.325706  0.664559  0.497439  1
  Er  Er3  1  0.674294  0.338852  0.497439  1
  Er  Er4  1  0.770797  0.761282  0.750000  1
  Er  Er5  1  0.229203  0.990485  0.750000  1
  Er  Er6  1  0.000000  0.239853  0.750000  1
  Er  Er7  1  0.233494  0.237957  0.250000  1
  Er  Er8  1  0.766506  0.004463  0.250000  1
  Er  Er9  1  0.000000  0.761272  0.250000  1
  In  In10  1  0.000000  0.598862  0.750000  1
  In  In11  1  0.000000  0.396028  0.250000  1
  Bi  Bi12  1  0.393635  0.392153  0.750000  1
  Bi  Bi13  1  0.606365  0.998518  0.750000  1
  Pb  Pb14  1  0.605270  0.608787  0.250000  1
  Pb  Pb15  1  0.394730  0.003518  0.250000  1
