# generated using pymatgen
data_Pa2Tc5(NiP)7
_symmetry_space_group_name_H-M   'P 1'
_cell_length_a   9.27725517
_cell_length_b   9.33896700
_cell_length_c   3.73159900
_cell_angle_alpha   90.00000000
_cell_angle_beta   90.00000000
_cell_angle_gamma   120.05825786
_symmetry_Int_Tables_number   1
_chemical_formula_structural   Pa2Tc5(NiP)7
_chemical_formula_sum   'Pa2 Tc5 Ni7 P7'
_cell_volume   279.82640468
_cell_formula_units_Z   1
loop_
 _symmetry_equiv_pos_site_id
 _symmetry_equiv_pos_as_xyz
  1  'x, y, z'
loop_
 _atom_site_type_symbol
 _atom_site_label
 _atom_site_symmetry_multiplicity
 _atom_site_fract_x
 _atom_site_fract_y
 _atom_site_fract_z
 _atom_site_occupancy
  Pa  Pa0  1  0.666175  0.336102  0.500000  1
  Pa  Pa1  1  0.331383  0.668088  0.000000  1
  Tc  Tc2  1  0.612256  0.561385  0.000000  1
  Tc  Tc3  1  0.947947  0.385234  0.000000  1
  Tc  Tc4  1  0.114617  0.204055  0.000000  1
  Tc  Tc5  1  0.100629  0.879588  0.000000  1
  Tc  Tc6  1  0.790194  0.909804  0.000000  1
  Ni  Ni7  1  0.844142  0.726355  0.500000  1
  Ni  Ni8  1  0.282186  0.119261  0.500000  1
  Ni  Ni9  1  0.367690  0.429712  0.500000  1
  Ni  Ni10  1  0.561530  0.937580  0.500000  1
  Ni  Ni11  1  0.061402  0.632119  0.500000  1
  Ni  Ni12  1  0.877366  0.157447  0.500000  1
  Ni  Ni13  1  0.441225  0.052029  0.000000  1
  P  P14  1  0.003505  0.002292  0.500000  1
  P  P15  1  0.706853  0.109450  0.000000  1
  P  P16  1  0.118243  0.410463  0.500000  1
  P  P17  1  0.590197  0.709502  0.500000  1
  P  P18  1  0.294048  0.886554  0.500000  1
  P  P19  1  0.889154  0.601329  0.000000  1
  P  P20  1  0.399255  0.281651  0.000000  1
