# generated using pymatgen
data_TbY(Al2Co)2
_symmetry_space_group_name_H-M   'P 1'
_cell_length_a   5.45687698
_cell_length_b   5.45687704
_cell_length_c   7.05967200
_cell_angle_alpha   90.00000000
_cell_angle_beta   90.00000000
_cell_angle_gamma   136.94502038
_symmetry_Int_Tables_number   1
_chemical_formula_structural   TbY(Al2Co)2
_chemical_formula_sum   'Tb1 Y1 Al4 Co2'
_cell_volume   143.51677031
_cell_formula_units_Z   1
loop_
 _symmetry_equiv_pos_site_id
 _symmetry_equiv_pos_as_xyz
  1  'x, y, z'
loop_
 _atom_site_type_symbol
 _atom_site_label
 _atom_site_symmetry_multiplicity
 _atom_site_fract_x
 _atom_site_fract_y
 _atom_site_fract_z
 _atom_site_occupancy
  Tb  Tb0  1  0.940960  0.059040  0.750000  1
  Y  Y1  1  0.059008  0.940992  0.250000  1
  Al  Al2  1  0.661185  0.338815  0.944847  1
  Al  Al3  1  0.338894  0.661106  0.055958  1
  Al  Al4  1  0.338894  0.661106  0.444042  1
  Al  Al5  1  0.661185  0.338815  0.555153  1
  Co  Co6  1  0.217405  0.782595  0.750000  1
  Co  Co7  1  0.782468  0.217532  0.250000  1
