# generated using pymatgen
data_Tb2Gd3Dy3B20
_symmetry_space_group_name_H-M   'P 1'
_cell_length_a   7.11685674
_cell_length_b   7.11002843
_cell_length_c   7.14210263
_cell_angle_alpha   77.00307430
_cell_angle_beta   89.94670647
_cell_angle_gamma   90.09711285
_symmetry_Int_Tables_number   1
_chemical_formula_structural   Tb2Gd3Dy3B20
_chemical_formula_sum   'Tb2 Gd3 Dy3 B20'
_cell_volume   352.13885088
_cell_formula_units_Z   1
loop_
 _symmetry_equiv_pos_site_id
 _symmetry_equiv_pos_as_xyz
  1  'x, y, z'
loop_
 _atom_site_type_symbol
 _atom_site_label
 _atom_site_symmetry_multiplicity
 _atom_site_fract_x
 _atom_site_fract_y
 _atom_site_fract_z
 _atom_site_occupancy
  Tb  Tb0  1  0.185271  0.757557  0.753622  1
  Tb  Tb1  1  0.692843  0.767668  0.628443  1
  Gd  Gd2  1  0.191091  0.230676  0.873029  1
  Gd  Gd3  1  0.308093  0.229940  0.372671  1
  Gd  Gd4  1  0.808715  0.770215  0.127448  1
  Dy  Dy5  1  0.315734  0.756256  0.253960  1
  Dy  Dy6  1  0.814644  0.243930  0.246333  1
  Dy  Dy7  1  0.684435  0.243459  0.745908  1
  B  B8  1  0.502233  0.314257  0.040310  1
  B  B9  1  0.002339  0.685772  0.459372  1
  B  B10  1  0.498344  0.685562  0.959859  1
  B  B11  1  0.997293  0.314299  0.540252  1
  B  B12  1  0.491073  0.925249  0.925700  1
  B  B13  1  0.988306  0.074561  0.573825  1
  B  B14  1  0.509796  0.074700  0.073734  1
  B  B15  1  0.009227  0.925617  0.425183  1
  B  B16  1  0.326402  0.496517  0.040093  1
  B  B17  1  0.826198  0.503337  0.460170  1
  B  B18  1  0.673916  0.503404  0.960255  1
  B  B19  1  0.173690  0.496541  0.539719  1
  B  B20  1  0.910711  0.498710  0.910813  1
  B  B21  1  0.410867  0.501708  0.589245  1
  B  B22  1  0.089208  0.501171  0.089262  1
  B  B23  1  0.589409  0.498927  0.410788  1
  B  B24  1  0.961416  0.496639  0.674084  1
  B  B25  1  0.461948  0.503106  0.825926  1
  B  B26  1  0.038309  0.503400  0.325759  1
  B  B27  1  0.538491  0.496826  0.174234  1
