# generated using pymatgen
data_CsInAs2O7
_symmetry_space_group_name_H-M   'P 1'
_cell_length_a   6.80422580
_cell_length_b   6.85509386
_cell_length_c   8.83604649
_cell_angle_alpha   96.45900269
_cell_angle_beta   101.43804490
_cell_angle_gamma   105.20450847
_symmetry_Int_Tables_number   1
_chemical_formula_structural   CsInAs2O7
_chemical_formula_sum   'Cs2 In2 As4 O14'
_cell_volume   383.87836396
_cell_formula_units_Z   2
loop_
 _symmetry_equiv_pos_site_id
 _symmetry_equiv_pos_as_xyz
  1  'x, y, z'
loop_
 _atom_site_type_symbol
 _atom_site_label
 _atom_site_symmetry_multiplicity
 _atom_site_fract_x
 _atom_site_fract_y
 _atom_site_fract_z
 _atom_site_occupancy
  Cs  Cs0  1  0.000000  0.500000  0.500000  1
  Cs  Cs1  1  0.000000  0.500000  0.000000  1
  In  In2  1  0.374917  0.181791  0.727560  1
  In  In3  1  0.625083  0.818209  0.272440  1
  As  As4  1  0.817073  0.026582  0.687595  1
  As  As5  1  0.488154  0.740462  0.833482  1
  As  As6  1  0.182927  0.973418  0.312405  1
  As  As7  1  0.511846  0.259538  0.166518  1
  O  O8  1  0.244870  0.118580  0.160047  1
  O  O9  1  0.321732  0.858221  0.735308  1
  O  O10  1  0.561285  0.493445  0.277946  1
  O  O11  1  0.930292  0.829449  0.229721  1
  O  O12  1  0.678268  0.141779  0.264692  1
  O  O13  1  0.755130  0.881420  0.839953  1
  O  O14  1  0.322850  0.799229  0.325918  1
  O  O15  1  0.465602  0.734583  0.020681  1
  O  O16  1  0.438715  0.506555  0.722054  1
  O  O17  1  0.220095  0.145079  0.476742  1
  O  O18  1  0.779905  0.854921  0.523258  1
  O  O19  1  0.069708  0.170551  0.770279  1
  O  O20  1  0.534398  0.265417  0.979319  1
  O  O21  1  0.677150  0.200771  0.674082  1
