# generated using pymatgen
data_YErIn7HgIr
_symmetry_space_group_name_H-M   'P 1'
_cell_length_a   4.66966500
_cell_length_b   4.64657200
_cell_length_c   12.14142100
_cell_angle_alpha   90.00000000
_cell_angle_beta   90.00000000
_cell_angle_gamma   90.00000000
_symmetry_Int_Tables_number   1
_chemical_formula_structural   YErIn7HgIr
_chemical_formula_sum   'Y1 Er1 In7 Hg1 Ir1'
_cell_volume   263.44375928
_cell_formula_units_Z   1
loop_
 _symmetry_equiv_pos_site_id
 _symmetry_equiv_pos_as_xyz
  1  'x, y, z'
loop_
 _atom_site_type_symbol
 _atom_site_label
 _atom_site_symmetry_multiplicity
 _atom_site_fract_x
 _atom_site_fract_y
 _atom_site_fract_z
 _atom_site_occupancy
  Y  Y0  1  0.000000  0.000000  0.306127  1
  Er  Er1  1  0.000000  0.000000  0.694376  1
  In  In2  1  0.500000  0.000000  0.876235  1
  In  In3  1  0.000000  0.500000  0.875924  1
  In  In4  1  0.500000  0.000000  0.122364  1
  In  In5  1  0.000000  0.500000  0.122756  1
  In  In6  1  0.000000  0.500000  0.501269  1
  In  In7  1  0.500000  0.500000  0.689792  1
  In  In8  1  0.500000  0.500000  0.310431  1
  Hg  Hg9  1  0.500000  0.000000  0.501218  1
  Ir  Ir10  1  0.000000  0.000000  0.999508  1
