# generated using pymatgen
data_BaIn4PtAu2
_symmetry_space_group_name_H-M   'P 1'
_cell_length_a   4.65644400
_cell_length_b   4.65608800
_cell_length_c   9.42930100
_cell_angle_alpha   90.00000000
_cell_angle_beta   90.00000000
_cell_angle_gamma   90.00000000
_symmetry_Int_Tables_number   1
_chemical_formula_structural   BaIn4PtAu2
_chemical_formula_sum   'Ba1 In4 Pt1 Au2'
_cell_volume   204.43491199
_cell_formula_units_Z   1
loop_
 _symmetry_equiv_pos_site_id
 _symmetry_equiv_pos_as_xyz
  1  'x, y, z'
loop_
 _atom_site_type_symbol
 _atom_site_label
 _atom_site_symmetry_multiplicity
 _atom_site_fract_x
 _atom_site_fract_y
 _atom_site_fract_z
 _atom_site_occupancy
  Ba  Ba0  1  0.000000  0.000000  0.499975  1
  In  In1  1  0.000000  0.500000  0.167908  1
  In  In2  1  0.000000  0.500000  0.832104  1
  In  In3  1  0.500000  0.000000  0.167918  1
  In  In4  1  0.500000  0.000000  0.832084  1
  Pt  Pt5  1  0.000000  0.000000  0.000006  1
  Au  Au6  1  0.500000  0.500000  0.348838  1
  Au  Au7  1  0.500000  0.500000  0.651167  1
