# generated using pymatgen
data_Dy2Mn4P7Rh7W
_symmetry_space_group_name_H-M   'P 1'
_cell_length_a   9.46195052
_cell_length_b   9.39999502
_cell_length_c   3.81906200
_cell_angle_alpha   90.00000000
_cell_angle_beta   90.00000000
_cell_angle_gamma   120.30765040
_symmetry_Int_Tables_number   1
_chemical_formula_structural   Dy2Mn4P7Rh7W
_chemical_formula_sum   'Dy2 Mn4 P7 Rh7 W1'
_cell_volume   293.25195768
_cell_formula_units_Z   1
loop_
 _symmetry_equiv_pos_site_id
 _symmetry_equiv_pos_as_xyz
  1  'x, y, z'
loop_
 _atom_site_type_symbol
 _atom_site_label
 _atom_site_symmetry_multiplicity
 _atom_site_fract_x
 _atom_site_fract_y
 _atom_site_fract_z
 _atom_site_occupancy
  Dy  Dy0  1  0.668639  0.335118  0.000000  1
  Dy  Dy1  1  0.332275  0.664453  0.500000  1
  Mn  Mn2  1  0.886988  0.731261  0.000000  1
  Mn  Mn3  1  0.266579  0.156182  0.000000  1
  Mn  Mn4  1  0.836801  0.108201  0.000000  1
  Mn  Mn5  1  0.780036  0.882082  0.500000  1
  P  P6  1  0.108261  0.702044  0.000000  1
  P  P7  1  0.297033  0.406770  0.000000  1
  P  P8  1  0.589354  0.887546  0.000000  1
  P  P9  1  0.724897  0.604117  0.500000  1
  P  P10  1  0.400827  0.122039  0.500000  1
  P  P11  1  0.880684  0.276315  0.500000  1
  P  P12  1  0.996987  0.001996  0.000000  1
  Rh  Rh13  1  0.364706  0.938431  0.000000  1
  Rh  Rh14  1  0.065037  0.429377  0.000000  1
  Rh  Rh15  1  0.570063  0.634614  0.000000  1
  Rh  Rh16  1  0.947290  0.559334  0.500000  1
  Rh  Rh17  1  0.445742  0.386453  0.500000  1
  Rh  Rh18  1  0.609722  0.052829  0.500000  1
  Rh  Rh19  1  0.128509  0.908695  0.500000  1
  W  W20  1  0.099570  0.212145  0.500000  1
