# generated using pymatgen
data_Nb6ZnGa3N2
_symmetry_space_group_name_H-M   'P 1'
_cell_length_a   7.05278842
_cell_length_b   7.05170769
_cell_length_c   7.05376800
_cell_angle_alpha   90.00000000
_cell_angle_beta   90.00000000
_cell_angle_gamma   90.16321649
_symmetry_Int_Tables_number   1
_chemical_formula_structural   Nb6ZnGa3N2
_chemical_formula_sum   'Nb12 Zn2 Ga6 N4'
_cell_volume   350.81210144
_cell_formula_units_Z   2
loop_
 _symmetry_equiv_pos_site_id
 _symmetry_equiv_pos_as_xyz
  1  'x, y, z'
loop_
 _atom_site_type_symbol
 _atom_site_label
 _atom_site_symmetry_multiplicity
 _atom_site_fract_x
 _atom_site_fract_y
 _atom_site_fract_z
 _atom_site_occupancy
  Nb  Nb0  1  0.793002  0.956975  0.375363  1
  Nb  Nb1  1  0.706998  0.043025  0.875363  1
  Nb  Nb2  1  0.205093  0.455658  0.126256  1
  Nb  Nb3  1  0.294907  0.544342  0.626256  1
  Nb  Nb4  1  0.955021  0.376326  0.793417  1
  Nb  Nb5  1  0.041879  0.872963  0.706480  1
  Nb  Nb6  1  0.458121  0.127037  0.206480  1
  Nb  Nb7  1  0.544979  0.623674  0.293417  1
  Nb  Nb8  1  0.377412  0.791627  0.955696  1
  Nb  Nb9  1  0.872550  0.705094  0.043321  1
  Nb  Nb10  1  0.122588  0.208373  0.455696  1
  Nb  Nb11  1  0.627450  0.294906  0.543321  1
  Zn  Zn12  1  0.183503  0.821645  0.318172  1
  Zn  Zn13  1  0.316497  0.178355  0.818172  1
  Ga  Ga14  1  0.821712  0.319654  0.178938  1
  Ga  Ga15  1  0.678288  0.680346  0.678938  1
  Ga  Ga16  1  0.563301  0.423454  0.928192  1
  Ga  Ga17  1  0.423197  0.933706  0.570056  1
  Ga  Ga18  1  0.936699  0.576546  0.428192  1
  Ga  Ga19  1  0.076803  0.066294  0.070056  1
  N  N20  1  0.875777  0.124584  0.626570  1
  N  N21  1  0.624223  0.875416  0.126570  1
  N  N22  1  0.125193  0.624714  0.877539  1
  N  N23  1  0.374807  0.375286  0.377539  1
