# generated using pymatgen
data_Pr4Y3Lu3Sn8
_symmetry_space_group_name_H-M   'P 1'
_cell_length_a   8.05565400
_cell_length_b   8.27859159
_cell_length_c   15.59101311
_cell_angle_alpha   89.95672561
_cell_angle_beta   90.00000000
_cell_angle_gamma   90.00000000
_symmetry_Int_Tables_number   1
_chemical_formula_structural   Pr4Y3Lu3Sn8
_chemical_formula_sum   'Pr8 Y6 Lu6 Sn16'
_cell_volume   1039.75609618
_cell_formula_units_Z   2
loop_
 _symmetry_equiv_pos_site_id
 _symmetry_equiv_pos_as_xyz
  1  'x, y, z'
loop_
 _atom_site_type_symbol
 _atom_site_label
 _atom_site_symmetry_multiplicity
 _atom_site_fract_x
 _atom_site_fract_y
 _atom_site_fract_z
 _atom_site_occupancy
  Pr  Pr0  1  0.509290  0.324419  0.903642  1
  Pr  Pr1  1  0.009290  0.175581  0.596358  1
  Pr  Pr2  1  0.490736  0.675833  0.404187  1
  Pr  Pr3  1  0.990736  0.824167  0.095813  1
  Pr  Pr4  1  0.490811  0.675797  0.096105  1
  Pr  Pr5  1  0.990811  0.824203  0.403895  1
  Pr  Pr6  1  0.509220  0.324405  0.596272  1
  Pr  Pr7  1  0.009220  0.175595  0.903728  1
  Y  Y8  1  0.349163  0.835631  0.875233  1
  Y  Y9  1  0.849163  0.664369  0.624767  1
  Y  Y10  1  0.650915  0.164333  0.375400  1
  Y  Y11  1  0.150915  0.335667  0.124600  1
  Y  Y12  1  0.650872  0.164343  0.124442  1
  Y  Y13  1  0.150872  0.335657  0.375558  1
  Lu  Lu14  1  0.348996  0.835659  0.625083  1
  Lu  Lu15  1  0.848996  0.664341  0.874917  1
  Lu  Lu16  1  0.181954  0.502601  0.749932  1
  Lu  Lu17  1  0.681954  0.997399  0.750068  1
  Lu  Lu18  1  0.817932  0.498132  0.249975  1
  Lu  Lu19  1  0.317932  0.001868  0.250025  1
  Sn  Sn20  1  0.313844  0.041128  0.042178  1
  Sn  Sn21  1  0.813844  0.458872  0.457822  1
  Sn  Sn22  1  0.684471  0.958464  0.542430  1
  Sn  Sn23  1  0.184471  0.541536  0.957570  1
  Sn  Sn24  1  0.687177  0.957338  0.957288  1
  Sn  Sn25  1  0.187177  0.542662  0.542712  1
  Sn  Sn26  1  0.314161  0.040194  0.458793  1
  Sn  Sn27  1  0.814161  0.459806  0.041207  1
  Sn  Sn28  1  0.545797  0.624806  0.749846  1
  Sn  Sn29  1  0.045797  0.875194  0.750154  1
  Sn  Sn30  1  0.454314  0.375840  0.250018  1
  Sn  Sn31  1  0.954314  0.124160  0.249982  1
  Sn  Sn32  1  0.316933  0.144554  0.749591  1
  Sn  Sn33  1  0.816933  0.355446  0.750409  1
  Sn  Sn34  1  0.683415  0.854711  0.249993  1
  Sn  Sn35  1  0.183415  0.645289  0.250007  1
