# generated using pymatgen
data_SmCoTeO6
_symmetry_space_group_name_H-M   'P 1'
_cell_length_a   5.07931697
_cell_length_b   5.07749941
_cell_length_c   10.15317764
_cell_angle_alpha   89.98155955
_cell_angle_beta   90.00925152
_cell_angle_gamma   119.98809060
_symmetry_Int_Tables_number   1
_chemical_formula_structural   SmCoTeO6
_chemical_formula_sum   'Sm2 Co2 Te2 O12'
_cell_volume   226.79835322
_cell_formula_units_Z   2
loop_
 _symmetry_equiv_pos_site_id
 _symmetry_equiv_pos_as_xyz
  1  'x, y, z'
loop_
 _atom_site_type_symbol
 _atom_site_label
 _atom_site_symmetry_multiplicity
 _atom_site_fract_x
 _atom_site_fract_y
 _atom_site_fract_z
 _atom_site_occupancy
  Sm  Sm0  1  0.000000  0.000000  0.000004  1
  Sm  Sm1  1  0.000001  0.999999  0.499996  1
  Co  Co2  1  0.333056  0.666528  0.250000  1
  Co  Co3  1  0.666940  0.333469  0.749999  1
  Te  Te4  1  0.666481  0.333240  0.250000  1
  Te  Te5  1  0.333519  0.666759  0.750000  1
  O  O6  1  0.365983  0.996647  0.143196  1
  O  O7  1  0.630466  0.633668  0.143206  1
  O  O8  1  0.002836  0.369221  0.143325  1
  O  O9  1  0.002836  0.633615  0.356674  1
  O  O10  1  0.630466  0.996796  0.356794  1
  O  O11  1  0.365984  0.369336  0.356803  1
  O  O12  1  0.634017  0.630657  0.643195  1
  O  O13  1  0.369540  0.003210  0.643205  1
  O  O14  1  0.997156  0.366383  0.643325  1
  O  O15  1  0.997156  0.630772  0.856675  1
  O  O16  1  0.369541  0.366328  0.856795  1
  O  O17  1  0.634017  0.003361  0.856804  1
