# generated using pymatgen
data_Er3Tm(Sc3Pt4)2
_symmetry_space_group_name_H-M   'P 1'
_cell_length_a   7.30342205
_cell_length_b   7.28744653
_cell_length_c   13.95377014
_cell_angle_alpha   89.98543020
_cell_angle_beta   90.04422602
_cell_angle_gamma   90.04183060
_symmetry_Int_Tables_number   1
_chemical_formula_structural   Er3Tm(Sc3Pt4)2
_chemical_formula_sum   'Er6 Tm2 Sc12 Pt16'
_cell_volume   742.66521890
_cell_formula_units_Z   2
loop_
 _symmetry_equiv_pos_site_id
 _symmetry_equiv_pos_as_xyz
  1  'x, y, z'
loop_
 _atom_site_type_symbol
 _atom_site_label
 _atom_site_symmetry_multiplicity
 _atom_site_fract_x
 _atom_site_fract_y
 _atom_site_fract_z
 _atom_site_occupancy
  Er  Er0  1  0.003996  0.177820  0.093742  1
  Er  Er1  1  0.996004  0.822180  0.906258  1
  Er  Er2  1  0.496058  0.677890  0.906498  1
  Er  Er3  1  0.995702  0.822066  0.593413  1
  Er  Er4  1  0.503942  0.322110  0.093502  1
  Er  Er5  1  0.004298  0.177934  0.406587  1
  Tm  Tm6  1  0.504268  0.322264  0.406605  1
  Tm  Tm7  1  0.495732  0.677736  0.593395  1
  Sc  Sc8  1  0.170843  0.498457  0.749612  1
  Sc  Sc9  1  0.829157  0.501543  0.250388  1
  Sc  Sc10  1  0.329213  0.998311  0.250502  1
  Sc  Sc11  1  0.670787  0.001689  0.749498  1
  Sc  Sc12  1  0.338171  0.162786  0.623312  1
  Sc  Sc13  1  0.661829  0.837214  0.376688  1
  Sc  Sc14  1  0.162644  0.661927  0.376290  1
  Sc  Sc15  1  0.662035  0.837600  0.124096  1
  Sc  Sc16  1  0.837356  0.338073  0.623710  1
  Sc  Sc17  1  0.337965  0.162400  0.875904  1
  Sc  Sc18  1  0.837947  0.337567  0.875990  1
  Sc  Sc19  1  0.162053  0.662433  0.124010  1
  Pt  Pt20  1  0.034250  0.121799  0.749873  1
  Pt  Pt21  1  0.965750  0.878201  0.250127  1
  Pt  Pt22  1  0.466501  0.621697  0.250110  1
  Pt  Pt23  1  0.533499  0.378303  0.749890  1
  Pt  Pt24  1  0.301156  0.852012  0.749605  1
  Pt  Pt25  1  0.698844  0.147988  0.250395  1
  Pt  Pt26  1  0.200517  0.352214  0.249999  1
  Pt  Pt27  1  0.799483  0.647786  0.750001  1
  Pt  Pt28  1  0.178752  0.456495  0.541621  1
  Pt  Pt29  1  0.821248  0.543505  0.458379  1
  Pt  Pt30  1  0.321876  0.956269  0.458192  1
  Pt  Pt31  1  0.821703  0.543863  0.041685  1
  Pt  Pt32  1  0.678124  0.043731  0.541808  1
  Pt  Pt33  1  0.178297  0.456137  0.958315  1
  Pt  Pt34  1  0.678263  0.043522  0.958193  1
  Pt  Pt35  1  0.321737  0.956478  0.041807  1
