# generated using pymatgen
data_YCo2Si2Ir
_symmetry_space_group_name_H-M   'P 1'
_cell_length_a   6.44589337
_cell_length_b   6.44589145
_cell_length_c   6.44589145
_cell_angle_alpha   131.94439214
_cell_angle_beta   114.03570824
_cell_angle_gamma   85.65769203
_symmetry_Int_Tables_number   1
_chemical_formula_structural   YCo2Si2Ir
_chemical_formula_sum   'Y2 Co4 Si4 Ir2'
_cell_volume   174.15235459
_cell_formula_units_Z   2
loop_
 _symmetry_equiv_pos_site_id
 _symmetry_equiv_pos_as_xyz
  1  'x, y, z'
loop_
 _atom_site_type_symbol
 _atom_site_label
 _atom_site_symmetry_multiplicity
 _atom_site_fract_x
 _atom_site_fract_y
 _atom_site_fract_z
 _atom_site_occupancy
  Y  Y0  1  0.250000  0.524572  0.274572  1
  Y  Y1  1  0.750000  0.475428  0.725428  1
  Co  Co2  1  0.725503  0.000000  0.725503  1
  Co  Co3  1  0.225503  0.500000  0.725503  1
  Co  Co4  1  0.274497  0.000000  0.274497  1
  Co  Co5  1  0.774497  0.500000  0.274497  1
  Si  Si6  1  0.069849  0.860564  0.790715  1
  Si  Si7  1  0.930151  0.139436  0.209285  1
  Si  Si8  1  0.569849  0.779135  0.209285  1
  Si  Si9  1  0.430151  0.220865  0.790715  1
  Ir  Ir10  1  0.000000  0.000000  0.500000  1
  Ir  Ir11  1  0.500000  0.000000  0.000000  1
