# generated using pymatgen
data_Hf16FeRe4Ni3
_symmetry_space_group_name_H-M   'P 1'
_cell_length_a   8.63953987
_cell_length_b   8.65037061
_cell_length_c   8.65037100
_cell_angle_alpha   60.00000235
_cell_angle_beta   59.95852409
_cell_angle_gamma   59.95852040
_symmetry_Int_Tables_number   1
_chemical_formula_structural   Hf16FeRe4Ni3
_chemical_formula_sum   'Hf16 Fe1 Re4 Ni3'
_cell_volume   456.84882479
_cell_formula_units_Z   1
loop_
 _symmetry_equiv_pos_site_id
 _symmetry_equiv_pos_as_xyz
  1  'x, y, z'
loop_
 _atom_site_type_symbol
 _atom_site_label
 _atom_site_symmetry_multiplicity
 _atom_site_fract_x
 _atom_site_fract_y
 _atom_site_fract_z
 _atom_site_occupancy
  Hf  Hf0  1  0.686828  0.104390  0.104390  1
  Hf  Hf1  1  0.104116  0.694597  0.100642  1
  Hf  Hf2  1  0.104116  0.100642  0.694597  1
  Hf  Hf3  1  0.104116  0.100642  0.100642  1
  Hf  Hf4  1  0.316014  0.313859  0.685063  1
  Hf  Hf5  1  0.685787  0.684488  0.314863  1
  Hf  Hf6  1  0.316014  0.685063  0.313859  1
  Hf  Hf7  1  0.685787  0.314863  0.684488  1
  Hf  Hf8  1  0.685787  0.314863  0.314863  1
  Hf  Hf9  1  0.316014  0.685063  0.685063  1
  Hf  Hf10  1  0.957630  0.957309  0.542530  1
  Hf  Hf11  1  0.543090  0.550948  0.952981  1
  Hf  Hf12  1  0.957630  0.542530  0.957309  1
  Hf  Hf13  1  0.543090  0.952981  0.550948  1
  Hf  Hf14  1  0.543090  0.952981  0.952981  1
  Hf  Hf15  1  0.957630  0.542530  0.542530  1
  Fe  Fe16  1  0.326160  0.891280  0.891280  1
  Re  Re17  1  0.000838  0.333053  0.333053  1
  Re  Re18  1  0.332223  0.001921  0.332927  1
  Re  Re19  1  0.332223  0.332927  0.001921  1
  Re  Re20  1  0.332223  0.332927  0.332927  1
  Ni  Ni21  1  0.889862  0.328326  0.890906  1
  Ni  Ni22  1  0.889862  0.890906  0.328326  1
  Ni  Ni23  1  0.889862  0.890906  0.890906  1
