# generated using pymatgen
data_Tb2Ho3(In2Au)2
_symmetry_space_group_name_H-M   'P 1'
_cell_length_a   3.66591800
_cell_length_b   8.21457922
_cell_length_c   18.45498028
_cell_angle_alpha   89.83829517
_cell_angle_beta   90.00000000
_cell_angle_gamma   90.00000000
_symmetry_Int_Tables_number   1
_chemical_formula_structural   Tb2Ho3(In2Au)2
_chemical_formula_sum   'Tb4 Ho6 In8 Au4'
_cell_volume   555.75057982
_cell_formula_units_Z   2
loop_
 _symmetry_equiv_pos_site_id
 _symmetry_equiv_pos_as_xyz
  1  'x, y, z'
loop_
 _atom_site_type_symbol
 _atom_site_label
 _atom_site_symmetry_multiplicity
 _atom_site_fract_x
 _atom_site_fract_y
 _atom_site_fract_z
 _atom_site_occupancy
  Tb  Tb0  1  0.000000  0.500000  0.500000  1
  Tb  Tb1  1  0.000000  0.000000  0.000000  1
  Tb  Tb2  1  0.000000  0.736141  0.282815  1
  Tb  Tb3  1  0.000000  0.263859  0.717185  1
  Ho  Ho4  1  0.000000  0.763918  0.782802  1
  Ho  Ho5  1  0.000000  0.236082  0.217198  1
  Ho  Ho6  1  0.000000  0.619922  0.079870  1
  Ho  Ho7  1  0.000000  0.380078  0.920130  1
  Ho  Ho8  1  0.000000  0.879347  0.579754  1
  Ho  Ho9  1  0.000000  0.120653  0.420246  1
  In  In10  1  0.500000  0.709960  0.933156  1
  In  In11  1  0.500000  0.290040  0.066844  1
  In  In12  1  0.500000  0.791894  0.433390  1
  In  In13  1  0.500000  0.208106  0.566610  1
  In  In14  1  0.500000  0.582334  0.647113  1
  In  In15  1  0.500000  0.417666  0.352887  1
  In  In16  1  0.500000  0.919431  0.147021  1
  In  In17  1  0.500000  0.080569  0.852979  1
  Au  Au18  1  0.500000  0.525163  0.195830  1
  Au  Au19  1  0.500000  0.474837  0.804170  1
  Au  Au20  1  0.500000  0.970580  0.696250  1
  Au  Au21  1  0.500000  0.029420  0.303750  1
