# generated using pymatgen
data_Sc12VSi16Os7
_symmetry_space_group_name_H-M   'P 1'
_cell_length_a   10.10744942
_cell_length_b   10.11031236
_cell_length_c   13.65007900
_cell_angle_alpha   55.09629280
_cell_angle_beta   55.11281666
_cell_angle_gamma   31.07100038
_symmetry_Int_Tables_number   1
_chemical_formula_structural   Sc12VSi16Os7
_chemical_formula_sum   'Sc12 V1 Si16 Os7'
_cell_volume   579.25803857
_cell_formula_units_Z   1
loop_
 _symmetry_equiv_pos_site_id
 _symmetry_equiv_pos_as_xyz
  1  'x, y, z'
loop_
 _atom_site_type_symbol
 _atom_site_label
 _atom_site_symmetry_multiplicity
 _atom_site_fract_x
 _atom_site_fract_y
 _atom_site_fract_z
 _atom_site_occupancy
  Sc  Sc0  1  0.749303  0.487196  0.051948  1
  Sc  Sc1  1  0.542109  0.301538  0.153145  1
  Sc  Sc2  1  0.518219  0.246636  0.451928  1
  Sc  Sc3  1  0.458599  0.696330  0.847594  1
  Sc  Sc4  1  0.293977  0.038410  0.136367  1
  Sc  Sc5  1  0.962997  0.706072  0.362940  1
  Sc  Sc6  1  0.706944  0.962433  0.863658  1
  Sc  Sc7  1  0.036085  0.293365  0.636266  1
  Sc  Sc8  1  0.251119  0.515139  0.948139  1
  Sc  Sc9  1  0.485669  0.747903  0.548341  1
  Sc  Sc10  1  0.300721  0.535020  0.659757  1
  Sc  Sc11  1  0.698818  0.466097  0.340858  1
  V  V12  1  0.914911  0.133780  0.574808  1
  Si  Si13  1  0.892365  0.112053  0.249352  1
  Si  Si14  1  0.107362  0.892675  0.748949  1
  Si  Si15  1  0.356545  0.643369  0.252636  1
  Si  Si16  1  0.646968  0.352555  0.747622  1
  Si  Si17  1  0.997255  0.230769  0.877945  1
  Si  Si18  1  0.768129  0.994541  0.629237  1
  Si  Si19  1  0.002176  0.770296  0.122179  1
  Si  Si20  1  0.230515  0.002991  0.376069  1
  Si  Si21  1  0.595360  0.055660  0.071815  1
  Si  Si22  1  0.947121  0.401213  0.425089  1
  Si  Si23  1  0.404771  0.945842  0.926671  1
  Si  Si24  1  0.049676  0.597691  0.573945  1
  Si  Si25  1  0.395571  0.152148  0.386626  1
  Si  Si26  1  0.847873  0.610506  0.111020  1
  Si  Si27  1  0.606350  0.846674  0.611626  1
  Si  Si28  1  0.150346  0.391745  0.889913  1
  Os  Os29  1  0.642319  0.832783  0.282099  1
  Os  Os30  1  0.827437  0.638366  0.786744  1
  Os  Os31  1  0.356162  0.168992  0.715601  1
  Os  Os32  1  0.173325  0.363388  0.211581  1
  Os  Os33  1  0.142433  0.908451  0.079750  1
  Os  Os34  1  0.081093  0.866857  0.424899  1
  Os  Os35  1  0.859377  0.090515  0.922883  1
