# generated using pymatgen
data_Tb3Er3Th2(CdIr)2
_symmetry_space_group_name_H-M   'P 1'
_cell_length_a   9.73268435
_cell_length_b   9.73268469
_cell_length_c   9.73268300
_cell_angle_alpha   60.00000233
_cell_angle_beta   60.00000120
_cell_angle_gamma   60.00000193
_symmetry_Int_Tables_number   1
_chemical_formula_structural   Tb3Er3Th2(CdIr)2
_chemical_formula_sum   'Tb6 Er6 Th4 Cd4 Ir4'
_cell_volume   651.90286656
_cell_formula_units_Z   2
loop_
 _symmetry_equiv_pos_site_id
 _symmetry_equiv_pos_as_xyz
  1  'x, y, z'
loop_
 _atom_site_type_symbol
 _atom_site_label
 _atom_site_symmetry_multiplicity
 _atom_site_fract_x
 _atom_site_fract_y
 _atom_site_fract_z
 _atom_site_occupancy
  Tb  Tb0  1  0.185826  0.814174  0.814174  1
  Tb  Tb1  1  0.814174  0.185826  0.185826  1
  Tb  Tb2  1  0.814174  0.185826  0.814174  1
  Tb  Tb3  1  0.185826  0.814174  0.185826  1
  Tb  Tb4  1  0.814174  0.814174  0.185826  1
  Tb  Tb5  1  0.185826  0.185826  0.814174  1
  Er  Er6  1  0.063134  0.436866  0.436866  1
  Er  Er7  1  0.436866  0.063134  0.063134  1
  Er  Er8  1  0.436866  0.063134  0.436866  1
  Er  Er9  1  0.063134  0.436866  0.063134  1
  Er  Er10  1  0.436866  0.436866  0.063134  1
  Er  Er11  1  0.063134  0.063134  0.436866  1
  Th  Th12  1  0.600133  0.600133  0.600133  1
  Th  Th13  1  0.600133  0.600133  0.199603  1
  Th  Th14  1  0.600133  0.199603  0.600133  1
  Th  Th15  1  0.199603  0.600133  0.600133  1
  Cd  Cd16  1  0.832785  0.832785  0.832785  1
  Cd  Cd17  1  0.832785  0.832785  0.501644  1
  Cd  Cd18  1  0.832785  0.501644  0.832785  1
  Cd  Cd19  1  0.501644  0.832785  0.832785  1
  Ir  Ir20  1  0.392948  0.392948  0.392948  1
  Ir  Ir21  1  0.392948  0.392948  0.821155  1
  Ir  Ir22  1  0.392948  0.821155  0.392948  1
  Ir  Ir23  1  0.821155  0.392948  0.392948  1
