# generated using pymatgen
data_Ba12Al3Ni(O4F)4
_symmetry_space_group_name_H-M   'P 1'
_cell_length_a   7.37319621
_cell_length_b   8.22379200
_cell_length_c   10.60140932
_cell_angle_alpha   90.00000000
_cell_angle_beta   90.02795142
_cell_angle_gamma   90.00000000
_symmetry_Int_Tables_number   1
_chemical_formula_structural   Ba12Al3Ni(O4F)4
_chemical_formula_sum   'Ba12 Al3 Ni1 O16 F4'
_cell_volume   642.82307832
_cell_formula_units_Z   1
loop_
 _symmetry_equiv_pos_site_id
 _symmetry_equiv_pos_as_xyz
  1  'x, y, z'
loop_
 _atom_site_type_symbol
 _atom_site_label
 _atom_site_symmetry_multiplicity
 _atom_site_fract_x
 _atom_site_fract_y
 _atom_site_fract_z
 _atom_site_occupancy
  Ba  Ba0  1  0.400087  0.025137  0.833412  1
  Ba  Ba1  1  0.099388  0.475454  0.332753  1
  Ba  Ba2  1  0.599214  0.525634  0.166786  1
  Ba  Ba3  1  0.902365  0.976353  0.667014  1
  Ba  Ba4  1  0.599214  0.974366  0.166786  1
  Ba  Ba5  1  0.902365  0.523647  0.667014  1
  Ba  Ba6  1  0.400087  0.474863  0.833412  1
  Ba  Ba7  1  0.099388  0.024546  0.332753  1
  Ba  Ba8  1  0.901825  0.250000  0.966871  1
  Ba  Ba9  1  0.595823  0.250000  0.464700  1
  Ba  Ba10  1  0.096164  0.750000  0.034612  1
  Ba  Ba11  1  0.406885  0.750000  0.533939  1
  Al  Al12  1  0.310412  0.250000  0.103071  1
  Al  Al13  1  0.811096  0.750000  0.397256  1
  Al  Al14  1  0.689624  0.750000  0.896981  1
  Ni  Ni15  1  0.192312  0.250000  0.601385  1
  O  O16  1  0.308766  0.056927  0.570477  1
  O  O17  1  0.194189  0.434780  0.072487  1
  O  O18  1  0.694402  0.565362  0.427708  1
  O  O19  1  0.805690  0.934601  0.928660  1
  O  O20  1  0.694402  0.934638  0.427708  1
  O  O21  1  0.805690  0.565399  0.928660  1
  O  O22  1  0.308766  0.443073  0.570477  1
  O  O23  1  0.194189  0.065220  0.072487  1
  O  O24  1  0.976222  0.250000  0.507416  1
  O  O25  1  0.514664  0.250000  0.011154  1
  O  O26  1  0.015081  0.750000  0.489235  1
  O  O27  1  0.485104  0.750000  0.988883  1
  O  O28  1  0.127320  0.250000  0.773262  1
  O  O29  1  0.370363  0.250000  0.267674  1
  O  O30  1  0.870954  0.750000  0.232705  1
  O  O31  1  0.630456  0.750000  0.732524  1
  F  F32  1  0.659906  0.250000  0.727175  1
  F  F33  1  0.837627  0.250000  0.227515  1
  F  F34  1  0.338357  0.750000  0.271993  1
  F  F35  1  0.161599  0.750000  0.773057  1
