# generated using pymatgen
data_Ta3Nb3Ru10
_symmetry_space_group_name_H-M   'P 1'
_cell_length_a   4.32251100
_cell_length_b   5.45883593
_cell_length_c   10.58858079
_cell_angle_alpha   90.06666114
_cell_angle_beta   90.00000000
_cell_angle_gamma   90.00000000
_symmetry_Int_Tables_number   1
_chemical_formula_structural   Ta3Nb3Ru10
_chemical_formula_sum   'Ta3 Nb3 Ru10'
_cell_volume   249.84669492
_cell_formula_units_Z   1
loop_
 _symmetry_equiv_pos_site_id
 _symmetry_equiv_pos_as_xyz
  1  'x, y, z'
loop_
 _atom_site_type_symbol
 _atom_site_label
 _atom_site_symmetry_multiplicity
 _atom_site_fract_x
 _atom_site_fract_y
 _atom_site_fract_z
 _atom_site_occupancy
  Ta  Ta0  1  0.000000  0.499011  0.500079  1
  Ta  Ta1  1  0.000000  0.999968  0.000144  1
  Ta  Ta2  1  0.500000  0.849242  0.357761  1
  Nb  Nb3  1  0.500000  0.150385  0.643062  1
  Nb  Nb4  1  0.500000  0.349667  0.143001  1
  Nb  Nb5  1  0.500000  0.650530  0.857056  1
  Ru  Ru6  1  0.000000  0.500533  0.000034  1
  Ru  Ru7  1  0.000000  0.997413  0.498774  1
  Ru  Ru8  1  0.000000  0.623181  0.263125  1
  Ru  Ru9  1  0.000000  0.377583  0.737697  1
  Ru  Ru10  1  0.000000  0.123334  0.237521  1
  Ru  Ru11  1  0.000000  0.878005  0.761944  1
  Ru  Ru12  1  0.500000  0.825442  0.108637  1
  Ru  Ru13  1  0.500000  0.174876  0.891571  1
  Ru  Ru14  1  0.500000  0.325640  0.391528  1
  Ru  Ru15  1  0.500000  0.675187  0.608064  1
