# generated using pymatgen
data_Er11Tm9Ir7Ru5
_symmetry_space_group_name_H-M   'P 1'
_cell_length_a   10.71377958
_cell_length_b   10.71213361
_cell_length_c   6.35805101
_cell_angle_alpha   89.97734030
_cell_angle_beta   89.98175961
_cell_angle_gamma   90.06183964
_symmetry_Int_Tables_number   1
_chemical_formula_structural   Er11Tm9Ir7Ru5
_chemical_formula_sum   'Er11 Tm9 Ir7 Ru5'
_cell_volume   729.69670762
_cell_formula_units_Z   1
loop_
 _symmetry_equiv_pos_site_id
 _symmetry_equiv_pos_as_xyz
  1  'x, y, z'
loop_
 _atom_site_type_symbol
 _atom_site_label
 _atom_site_symmetry_multiplicity
 _atom_site_fract_x
 _atom_site_fract_y
 _atom_site_fract_z
 _atom_site_occupancy
  Er  Er0  1  0.293232  0.086130  0.376534  1
  Er  Er1  1  0.292702  0.913670  0.876626  1
  Er  Er2  1  0.707547  0.086549  0.876911  1
  Er  Er3  1  0.707307  0.914035  0.375640  1
  Er  Er4  1  0.586346  0.793292  0.876661  1
  Er  Er5  1  0.587168  0.206915  0.376671  1
  Er  Er6  1  0.413681  0.793274  0.376597  1
  Er  Er7  1  0.413557  0.206626  0.876029  1
  Er  Er8  1  0.206392  0.413760  0.623312  1
  Er  Er9  1  0.206481  0.586259  0.123467  1
  Er  Er10  1  0.793327  0.412929  0.123378  1
  Tm  Tm11  1  0.793771  0.586360  0.623824  1
  Tm  Tm12  1  0.913982  0.706421  0.123252  1
  Tm  Tm13  1  0.913586  0.292846  0.622867  1
  Tm  Tm14  1  0.086050  0.706968  0.623131  1
  Tm  Tm15  1  0.085788  0.292985  0.124191  1
  Tm  Tm16  1  0.999478  0.000933  0.499400  1
  Tm  Tm17  1  0.999064  0.000490  0.000764  1
  Tm  Tm18  1  0.500149  0.500101  0.000063  1
  Tm  Tm19  1  0.499994  0.499917  0.500032  1
  Ir  Ir20  1  0.847135  0.846360  0.749968  1
  Ir  Ir21  1  0.153167  0.153134  0.750372  1
  Ir  Ir22  1  0.152806  0.846888  0.250230  1
  Ir  Ir23  1  0.652219  0.348060  0.749842  1
  Ir  Ir24  1  0.653066  0.652515  0.249973  1
  Ir  Ir25  1  0.347336  0.347149  0.250171  1
  Ir  Ir26  1  0.347332  0.652585  0.749915  1
  Ru  Ru27  1  0.847679  0.152585  0.250176  1
  Ru  Ru28  1  0.500165  0.000243  0.122562  1
  Ru  Ru29  1  0.499921  0.000001  0.622688  1
  Ru  Ru30  1  0.999921  0.500129  0.877184  1
  Ru  Ru31  1  0.999651  0.499890  0.377568  1
