# generated using pymatgen
data_Yb2ErTh5(Pt2Pb)4
_symmetry_space_group_name_H-M   'P 1'
_cell_length_a   8.09285555
_cell_length_b   8.08929853
_cell_length_c   7.36152300
_cell_angle_alpha   90.00000000
_cell_angle_beta   90.00000000
_cell_angle_gamma   90.17395732
_symmetry_Int_Tables_number   1
_chemical_formula_structural   Yb2ErTh5(Pt2Pb)4
_chemical_formula_sum   'Yb2 Er1 Th5 Pt8 Pb4'
_cell_volume   481.92374271
_cell_formula_units_Z   1
loop_
 _symmetry_equiv_pos_site_id
 _symmetry_equiv_pos_as_xyz
  1  'x, y, z'
loop_
 _atom_site_type_symbol
 _atom_site_label
 _atom_site_symmetry_multiplicity
 _atom_site_fract_x
 _atom_site_fract_y
 _atom_site_fract_z
 _atom_site_occupancy
  Yb  Yb0  1  0.662692  0.662939  0.500000  1
  Yb  Yb1  1  0.158529  0.840303  0.000000  1
  Er  Er2  1  0.840825  0.157546  0.000000  1
  Th  Th3  1  0.676816  0.677171  0.000000  1
  Th  Th4  1  0.342124  0.342840  0.500000  1
  Th  Th5  1  0.824516  0.173340  0.500000  1
  Th  Th6  1  0.324713  0.325169  0.000000  1
  Th  Th7  1  0.173794  0.824133  0.500000  1
  Pt  Pt8  1  0.873082  0.874934  0.735389  1
  Pt  Pt9  1  0.130723  0.131856  0.734968  1
  Pt  Pt10  1  0.628974  0.367880  0.768268  1
  Pt  Pt11  1  0.628974  0.367880  0.231732  1
  Pt  Pt12  1  0.369607  0.626702  0.233833  1
  Pt  Pt13  1  0.130723  0.131856  0.265032  1
  Pt  Pt14  1  0.873082  0.874934  0.264611  1
  Pt  Pt15  1  0.369607  0.626702  0.766167  1
  Pb  Pb16  1  0.501175  0.993899  0.751825  1
  Pb  Pb17  1  0.501175  0.993899  0.248175  1
  Pb  Pb18  1  0.994435  0.503008  0.751439  1
  Pb  Pb19  1  0.994435  0.503008  0.248561  1
