# generated using pymatgen
data_Ca4Al18Pt5Rh
_symmetry_space_group_name_H-M   'P 1'
_cell_length_a   7.65363335
_cell_length_b   7.65370235
_cell_length_c   9.56323200
_cell_angle_alpha   89.98284952
_cell_angle_beta   89.98265473
_cell_angle_gamma   119.49832086
_symmetry_Int_Tables_number   1
_chemical_formula_structural   Ca4Al18Pt5Rh
_chemical_formula_sum   'Ca4 Al18 Pt5 Rh1'
_cell_volume   487.58216648
_cell_formula_units_Z   1
loop_
 _symmetry_equiv_pos_site_id
 _symmetry_equiv_pos_as_xyz
  1  'x, y, z'
loop_
 _atom_site_type_symbol
 _atom_site_label
 _atom_site_symmetry_multiplicity
 _atom_site_fract_x
 _atom_site_fract_y
 _atom_site_fract_z
 _atom_site_occupancy
  Ca  Ca0  1  0.996495  0.672540  0.750290  1
  Ca  Ca1  1  0.005126  0.328701  0.250103  1
  Ca  Ca2  1  0.671303  0.994877  0.749897  1
  Ca  Ca3  1  0.327464  0.003506  0.249712  1
  Al  Al4  1  0.132455  0.132885  0.750298  1
  Al  Al5  1  0.867117  0.867546  0.249700  1
  Al  Al6  1  0.999733  0.335222  0.576414  1
  Al  Al7  1  0.999263  0.664999  0.423277  1
  Al  Al8  1  0.996549  0.660624  0.074593  1
  Al  Al9  1  0.339377  0.003452  0.925409  1
  Al  Al10  1  0.995159  0.335056  0.925113  1
  Al  Al11  1  0.664943  0.004841  0.074886  1
  Al  Al12  1  0.664779  0.000266  0.423586  1
  Al  Al13  1  0.335000  0.000737  0.576723  1
  Al  Al14  1  0.335403  0.331745  0.049541  1
  Al  Al15  1  0.668253  0.664595  0.950461  1
  Al  Al16  1  0.666925  0.666863  0.552862  1
  Al  Al17  1  0.333135  0.333076  0.447138  1
  Al  Al18  1  0.339764  0.544707  0.750422  1
  Al  Al19  1  0.659788  0.451590  0.246778  1
  Al  Al20  1  0.548410  0.340210  0.753221  1
  Al  Al21  1  0.455291  0.660237  0.249579  1
  Pt  Pt22  1  0.670654  0.329343  0.499996  1
  Pt  Pt23  1  0.328774  0.671229  0.500001  1
  Pt  Pt24  1  0.329100  0.670903  0.000000  1
  Pt  Pt25  1  0.999729  0.000275  0.499997  1
  Pt  Pt26  1  0.999921  0.000077  0.000000  1
  Rh  Rh27  1  0.670094  0.329904  0.000001  1
