# generated using pymatgen
data_Tb20CdHg5Ru2
_symmetry_space_group_name_H-M   'P 1'
_cell_length_a   9.62685013
_cell_length_b   9.63491375
_cell_length_c   9.81650600
_cell_angle_alpha   90.00000000
_cell_angle_beta   90.00000000
_cell_angle_gamma   120.02771180
_symmetry_Int_Tables_number   1
_chemical_formula_structural   Tb20CdHg5Ru2
_chemical_formula_sum   'Tb20 Cd1 Hg5 Ru2'
_cell_volume   788.31223812
_cell_formula_units_Z   1
loop_
 _symmetry_equiv_pos_site_id
 _symmetry_equiv_pos_as_xyz
  1  'x, y, z'
loop_
 _atom_site_type_symbol
 _atom_site_label
 _atom_site_symmetry_multiplicity
 _atom_site_fract_x
 _atom_site_fract_y
 _atom_site_fract_z
 _atom_site_occupancy
  Tb  Tb0  1  0.003129  0.001565  0.497338  1
  Tb  Tb1  1  0.003129  0.001565  0.002662  1
  Tb  Tb2  1  0.209398  0.790676  0.439282  1
  Tb  Tb3  1  0.209398  0.418724  0.439282  1
  Tb  Tb4  1  0.581152  0.790577  0.440066  1
  Tb  Tb5  1  0.790272  0.209349  0.560099  1
  Tb  Tb6  1  0.790272  0.580921  0.560099  1
  Tb  Tb7  1  0.418826  0.209412  0.560180  1
  Tb  Tb8  1  0.790272  0.209349  0.939901  1
  Tb  Tb9  1  0.790272  0.580921  0.939901  1
  Tb  Tb10  1  0.418826  0.209412  0.939820  1
  Tb  Tb11  1  0.209398  0.790676  0.060718  1
  Tb  Tb12  1  0.209398  0.418724  0.060718  1
  Tb  Tb13  1  0.581152  0.790577  0.059934  1
  Tb  Tb14  1  0.541384  0.458557  0.250000  1
  Tb  Tb15  1  0.541384  0.082826  0.250000  1
  Tb  Tb16  1  0.917820  0.458910  0.250000  1
  Tb  Tb17  1  0.455720  0.538318  0.750000  1
  Tb  Tb18  1  0.455720  0.917402  0.750000  1
  Tb  Tb19  1  0.082511  0.541255  0.750000  1
  Cd  Cd20  1  0.769514  0.884756  0.750000  1
  Hg  Hg21  1  0.881765  0.119080  0.250000  1
  Hg  Hg22  1  0.881765  0.762687  0.250000  1
  Hg  Hg23  1  0.238338  0.119170  0.250000  1
  Hg  Hg24  1  0.115311  0.881004  0.750000  1
  Hg  Hg25  1  0.115311  0.234304  0.750000  1
  Ru  Ru26  1  0.332925  0.666463  0.250000  1
  Ru  Ru27  1  0.665640  0.332820  0.750000  1
