# generated using pymatgen
data_NdTm3Co5(Ni3B2)3
_symmetry_space_group_name_H-M   'P 1'
_cell_length_a   4.98850324
_cell_length_b   4.98850300
_cell_length_c   13.02589400
_cell_angle_alpha   90.00000000
_cell_angle_beta   90.00000000
_cell_angle_gamma   119.74924660
_symmetry_Int_Tables_number   1
_chemical_formula_structural   NdTm3Co5(Ni3B2)3
_chemical_formula_sum   'Nd1 Tm3 Co5 Ni9 B6'
_cell_volume   281.43006355
_cell_formula_units_Z   1
loop_
 _symmetry_equiv_pos_site_id
 _symmetry_equiv_pos_as_xyz
  1  'x, y, z'
loop_
 _atom_site_type_symbol
 _atom_site_label
 _atom_site_symmetry_multiplicity
 _atom_site_fract_x
 _atom_site_fract_y
 _atom_site_fract_z
 _atom_site_occupancy
  Nd  Nd0  1  0.000000  0.000000  0.001050  1
  Tm  Tm1  1  0.000000  0.000000  0.498497  1
  Tm  Tm2  1  0.000000  0.000000  0.736507  1
  Tm  Tm3  1  0.000000  0.000000  0.264583  1
  Co  Co4  1  0.500000  0.000000  0.615433  1
  Co  Co5  1  0.000000  0.500000  0.615433  1
  Co  Co6  1  0.500000  0.500000  0.383205  1
  Co  Co7  1  0.500000  0.000000  0.384067  1
  Co  Co8  1  0.000000  0.500000  0.384067  1
  Ni  Ni9  1  0.665904  0.334096  0.000195  1
  Ni  Ni10  1  0.334096  0.665904  0.000195  1
  Ni  Ni11  1  0.500000  0.500000  0.840793  1
  Ni  Ni12  1  0.500000  0.000000  0.841751  1
  Ni  Ni13  1  0.000000  0.500000  0.841751  1
  Ni  Ni14  1  0.500000  0.500000  0.159824  1
  Ni  Ni15  1  0.500000  0.000000  0.159013  1
  Ni  Ni16  1  0.000000  0.500000  0.159013  1
  Ni  Ni17  1  0.500000  0.500000  0.615867  1
  B  B18  1  0.668767  0.331233  0.498459  1
  B  B19  1  0.331233  0.668767  0.498459  1
  B  B20  1  0.670293  0.329707  0.730015  1
  B  B21  1  0.329707  0.670293  0.730015  1
  B  B22  1  0.332572  0.667428  0.270904  1
  B  B23  1  0.667428  0.332572  0.270904  1
