# generated using pymatgen
data_Os2RhO6
_symmetry_space_group_name_H-M   'P 1'
_cell_length_a   6.44493977
_cell_length_b   6.44319258
_cell_length_c   10.57831717
_cell_angle_alpha   72.26714347
_cell_angle_beta   72.26218578
_cell_angle_gamma   89.99479865
_symmetry_Int_Tables_number   1
_chemical_formula_structural   Os2RhO6
_chemical_formula_sum   'Os8 Rh4 O24'
_cell_volume   396.42707582
_cell_formula_units_Z   4
loop_
 _symmetry_equiv_pos_site_id
 _symmetry_equiv_pos_as_xyz
  1  'x, y, z'
loop_
 _atom_site_type_symbol
 _atom_site_label
 _atom_site_symmetry_multiplicity
 _atom_site_fract_x
 _atom_site_fract_y
 _atom_site_fract_z
 _atom_site_occupancy
  Os  Os0  1  0.249756  0.749879  0.500358  1
  Os  Os1  1  0.749676  0.249816  0.500451  1
  Os  Os2  1  0.083599  0.583578  0.832954  1
  Os  Os3  1  0.583603  0.083489  0.832905  1
  Os  Os4  1  0.499891  0.499667  0.000427  1
  Os  Os5  1  0.999810  0.999636  0.000492  1
  Os  Os6  1  0.333489  0.333619  0.332911  1
  Os  Os7  1  0.833517  0.833611  0.332899  1
  Rh  Rh8  1  0.416586  0.916598  0.166741  1
  Rh  Rh9  1  0.166638  0.166692  0.666610  1
  Rh  Rh10  1  0.916796  0.416909  0.166528  1
  Rh  Rh11  1  0.666549  0.666590  0.666854  1
  O  O12  1  0.732551  0.916716  0.166555  1
  O  O13  1  0.232417  0.416674  0.166768  1
  O  O14  1  0.100953  0.916649  0.166559  1
  O  O15  1  0.600802  0.416606  0.166771  1
  O  O16  1  0.166626  0.851072  0.666689  1
  O  O17  1  0.666632  0.351132  0.666652  1
  O  O18  1  0.166701  0.482275  0.666674  1
  O  O19  1  0.666697  0.982194  0.666653  1
  O  O20  1  0.554776  0.752111  0.495864  1
  O  O21  1  0.054853  0.252177  0.495789  1
  O  O22  1  0.384066  0.581261  0.837457  1
  O  O23  1  0.884072  0.081189  0.837541  1
  O  O24  1  0.949347  0.752056  0.495846  1
  O  O25  1  0.449280  0.252110  0.495796  1
  O  O26  1  0.778565  0.581189  0.837477  1
  O  O27  1  0.278434  0.081129  0.837538  1
  O  O28  1  0.331205  0.028729  0.337431  1
  O  O29  1  0.831203  0.528624  0.337430  1
  O  O30  1  0.002081  0.699434  0.995886  1
  O  O31  1  0.502048  0.199397  0.995868  1
  O  O32  1  0.002164  0.304640  0.995851  1
  O  O33  1  0.502105  0.804683  0.995878  1
  O  O34  1  0.331268  0.633905  0.337428  1
  O  O35  1  0.831246  0.133970  0.337472  1
