# generated using pymatgen
data_Cs2Hf(SeO4)3
_symmetry_space_group_name_H-M   'P 1'
_cell_length_a   7.60445302
_cell_length_b   10.60221286
_cell_length_c   10.00374196
_cell_angle_alpha   102.83663896
_cell_angle_beta   89.99239444
_cell_angle_gamma   111.02148337
_symmetry_Int_Tables_number   1
_chemical_formula_structural   Cs2Hf(SeO4)3
_chemical_formula_sum   'Cs4 Hf2 Se6 O24'
_cell_volume   731.23702402
_cell_formula_units_Z   2
loop_
 _symmetry_equiv_pos_site_id
 _symmetry_equiv_pos_as_xyz
  1  'x, y, z'
loop_
 _atom_site_type_symbol
 _atom_site_label
 _atom_site_symmetry_multiplicity
 _atom_site_fract_x
 _atom_site_fract_y
 _atom_site_fract_z
 _atom_site_occupancy
  Cs  Cs0  1  0.692710  0.336591  0.064226  1
  Cs  Cs1  1  0.355162  0.663686  0.435577  1
  Cs  Cs2  1  0.643899  0.336549  0.564263  1
  Cs  Cs3  1  0.308518  0.663623  0.935598  1
  Hf  Hf4  1  0.000340  0.999996  0.000106  1
  Hf  Hf5  1  0.999667  0.000005  0.500110  1
  Se  Se6  1  0.790733  0.738625  0.181417  1
  Se  Se7  1  0.359114  0.999818  0.249918  1
  Se  Se8  1  0.051901  0.261504  0.319253  1
  Se  Se9  1  0.947829  0.738673  0.681426  1
  Se  Se10  1  0.640745  0.999903  0.750059  1
  Se  Se11  1  0.209705  0.261521  0.819254  1
  O  O12  1  0.795060  0.847279  0.076968  1
  O  O13  1  0.213861  0.981388  0.110152  1
  O  O14  1  0.960595  0.676942  0.153655  1
  O  O15  1  0.980780  0.157193  0.157023  1
  O  O16  1  0.577864  0.617857  0.162316  1
  O  O17  1  0.401086  0.856608  0.233907  1
  O  O18  1  0.544288  0.143113  0.266528  1
  O  O19  1  0.959004  0.381741  0.337127  1
  O  O20  1  0.821913  0.842450  0.343741  1
  O  O21  1  0.283349  0.324025  0.348031  1
  O  O22  1  0.230675  0.018165  0.388888  1
  O  O23  1  0.947182  0.153106  0.423833  1
  O  O24  1  0.052161  0.847298  0.576921  1
  O  O25  1  0.767609  0.981451  0.610282  1
  O  O26  1  0.716283  0.676927  0.653714  1
  O  O27  1  0.176505  0.157213  0.657006  1
  O  O28  1  0.039922  0.617897  0.662299  1
  O  O29  1  0.455572  0.856734  0.734021  1
  O  O30  1  0.598895  0.143232  0.766648  1
  O  O31  1  0.422831  0.381807  0.837168  1
  O  O32  1  0.020552  0.842490  0.843711  1
  O  O33  1  0.040669  0.323972  0.847994  1
  O  O34  1  0.787457  0.018194  0.889011  1
  O  O35  1  0.205962  0.153134  0.923799  1
