# generated using pymatgen
data_Ho2CrSi2MoC
_symmetry_space_group_name_H-M   'P 1'
_cell_length_a   5.73536520
_cell_length_b   5.73536588
_cell_length_c   7.04956306
_cell_angle_alpha   123.23930443
_cell_angle_beta   123.23930963
_cell_angle_gamma   38.12126659
_symmetry_Int_Tables_number   1
_chemical_formula_structural   Ho2CrSi2MoC
_chemical_formula_sum   'Ho2 Cr1 Si2 Mo1 C1'
_cell_volume   116.62160360
_cell_formula_units_Z   1
loop_
 _symmetry_equiv_pos_site_id
 _symmetry_equiv_pos_as_xyz
  1  'x, y, z'
loop_
 _atom_site_type_symbol
 _atom_site_label
 _atom_site_symmetry_multiplicity
 _atom_site_fract_x
 _atom_site_fract_y
 _atom_site_fract_z
 _atom_site_occupancy
  Ho  Ho0  1  0.574530  0.574530  0.294839  1
  Ho  Ho1  1  0.427546  0.427546  0.707315  1
  Cr  Cr2  1  0.205344  0.205344  0.079082  1
  Si  Si3  1  0.859428  0.859428  0.328154  1
  Si  Si4  1  0.129176  0.129176  0.665506  1
  Mo  Mo5  1  0.794869  0.794869  0.920100  1
  C  C6  1  0.009105  0.009105  0.005002  1
