# generated using pymatgen
data_Hf6Ti16Os7
_symmetry_space_group_name_H-M   'P 1'
_cell_length_a   8.93205049
_cell_length_b   8.93205064
_cell_length_c   8.93280800
_cell_angle_alpha   59.99558008
_cell_angle_beta   59.99557895
_cell_angle_gamma   59.99293499
_symmetry_Int_Tables_number   1
_chemical_formula_structural   Hf6Ti16Os7
_chemical_formula_sum   'Hf6 Ti16 Os7'
_cell_volume   503.87537687
_cell_formula_units_Z   1
loop_
 _symmetry_equiv_pos_site_id
 _symmetry_equiv_pos_as_xyz
  1  'x, y, z'
loop_
 _atom_site_type_symbol
 _atom_site_label
 _atom_site_symmetry_multiplicity
 _atom_site_fract_x
 _atom_site_fract_y
 _atom_site_fract_z
 _atom_site_occupancy
  Hf  Hf0  1  0.688816  0.311208  0.311132  1
  Hf  Hf1  1  0.311206  0.688818  0.688839  1
  Hf  Hf2  1  0.311208  0.688816  0.311132  1
  Hf  Hf3  1  0.311149  0.311149  0.688847  1
  Hf  Hf4  1  0.688818  0.311206  0.688839  1
  Hf  Hf5  1  0.688808  0.688808  0.311189  1
  Ti  Ti6  1  0.332112  0.332112  0.332090  1
  Ti  Ti7  1  0.332124  0.332124  0.003677  1
  Ti  Ti8  1  0.003704  0.332127  0.332101  1
  Ti  Ti9  1  0.332127  0.003704  0.332101  1
  Ti  Ti10  1  0.667866  0.667866  0.667956  1
  Ti  Ti11  1  0.667877  0.667877  0.996294  1
  Ti  Ti12  1  0.667837  0.996306  0.667940  1
  Ti  Ti13  1  0.996306  0.667837  0.667940  1
  Ti  Ti14  1  0.117247  0.117247  0.117189  1
  Ti  Ti15  1  0.117241  0.117241  0.648330  1
  Ti  Ti16  1  0.648334  0.117267  0.117190  1
  Ti  Ti17  1  0.117267  0.648334  0.117190  1
  Ti  Ti18  1  0.882777  0.882777  0.882800  1
  Ti  Ti19  1  0.882759  0.882759  0.351667  1
  Ti  Ti20  1  0.882739  0.351693  0.882760  1
  Ti  Ti21  1  0.351693  0.882739  0.882760  1
  Os  Os22  1  0.000029  0.000029  0.999946  1
  Os  Os23  1  0.499990  0.999998  0.000013  1
  Os  Os24  1  0.999987  0.499991  0.500020  1
  Os  Os25  1  0.999998  0.499990  0.000013  1
  Os  Os26  1  0.999996  0.999996  0.500022  1
  Os  Os27  1  0.499991  0.999987  0.500020  1
  Os  Os28  1  0.499997  0.499997  0.000001  1
