# generated using pymatgen
data_Er4Al4Ir3Pt
_symmetry_space_group_name_H-M   'P 1'
_cell_length_a   4.27763500
_cell_length_b   6.80382700
_cell_length_c   7.86616200
_cell_angle_alpha   89.99947740
_cell_angle_beta   90.00000000
_cell_angle_gamma   90.00000000
_symmetry_Int_Tables_number   1
_chemical_formula_structural   Er4Al4Ir3Pt
_chemical_formula_sum   'Er4 Al4 Ir3 Pt1'
_cell_volume   228.93904830
_cell_formula_units_Z   1
loop_
 _symmetry_equiv_pos_site_id
 _symmetry_equiv_pos_as_xyz
  1  'x, y, z'
loop_
 _atom_site_type_symbol
 _atom_site_label
 _atom_site_symmetry_multiplicity
 _atom_site_fract_x
 _atom_site_fract_y
 _atom_site_fract_z
 _atom_site_occupancy
  Er  Er0  1  0.250000  0.471924  0.182232  1
  Er  Er1  1  0.750000  0.534603  0.819230  1
  Er  Er2  1  0.750000  0.027664  0.677104  1
  Er  Er3  1  0.250000  0.970107  0.320835  1
  Al  Al4  1  0.250000  0.856287  0.938493  1
  Al  Al5  1  0.750000  0.139592  0.063667  1
  Al  Al6  1  0.750000  0.640452  0.438011  1
  Al  Al7  1  0.250000  0.360520  0.560087  1
  Ir  Ir8  1  0.250000  0.734010  0.620494  1
  Ir  Ir9  1  0.750000  0.266476  0.380495  1
  Ir  Ir10  1  0.750000  0.766307  0.118722  1
  Pt  Pt11  1  0.250000  0.232058  0.880629  1
