# generated using pymatgen
data_Tb20Zn3Si12Ir
_symmetry_space_group_name_H-M   'P 1'
_cell_length_a   7.31903100
_cell_length_b   7.94296646
_cell_length_c   14.72356500
_cell_angle_alpha   90.00000000
_cell_angle_beta   90.00000000
_cell_angle_gamma   89.93523572
_symmetry_Int_Tables_number   1
_chemical_formula_structural   Tb20Zn3Si12Ir
_chemical_formula_sum   'Tb20 Zn3 Si12 Ir1'
_cell_volume   855.95122177
_cell_formula_units_Z   1
loop_
 _symmetry_equiv_pos_site_id
 _symmetry_equiv_pos_as_xyz
  1  'x, y, z'
loop_
 _atom_site_type_symbol
 _atom_site_label
 _atom_site_symmetry_multiplicity
 _atom_site_fract_x
 _atom_site_fract_y
 _atom_site_fract_z
 _atom_site_occupancy
  Tb  Tb0  1  0.683601  0.174738  0.622427  1
  Tb  Tb1  1  0.183425  0.325332  0.877796  1
  Tb  Tb2  1  0.308216  0.830121  0.127332  1
  Tb  Tb3  1  0.821957  0.677903  0.375299  1
  Tb  Tb4  1  0.308216  0.830121  0.372668  1
  Tb  Tb5  1  0.821957  0.677903  0.124701  1
  Tb  Tb6  1  0.683601  0.174738  0.877573  1
  Tb  Tb7  1  0.183425  0.325332  0.622204  1
  Tb  Tb8  1  0.520391  0.687468  0.588122  1
  Tb  Tb9  1  0.019682  0.810686  0.911963  1
  Tb  Tb10  1  0.479348  0.310956  0.090135  1
  Tb  Tb11  1  0.985082  0.180827  0.407783  1
  Tb  Tb12  1  0.479348  0.310956  0.409865  1
  Tb  Tb13  1  0.985082  0.180827  0.092217  1
  Tb  Tb14  1  0.520391  0.687468  0.911878  1
  Tb  Tb15  1  0.019682  0.810686  0.588037  1
  Tb  Tb16  1  0.845144  0.525376  0.750000  1
  Tb  Tb17  1  0.343784  0.973444  0.750000  1
  Tb  Tb18  1  0.151188  0.482830  0.250000  1
  Tb  Tb19  1  0.670089  0.019248  0.250000  1
  Zn  Zn20  1  0.475999  0.404009  0.750000  1
  Zn  Zn21  1  0.975447  0.096678  0.750000  1
  Zn  Zn22  1  0.522194  0.594884  0.250000  1
  Si  Si23  1  0.649518  0.969478  0.461200  1
  Si  Si24  1  0.155405  0.527004  0.040113  1
  Si  Si25  1  0.346139  0.027352  0.960092  1
  Si  Si26  1  0.847241  0.471434  0.540475  1
  Si  Si27  1  0.346139  0.027352  0.539908  1
  Si  Si28  1  0.847241  0.471434  0.959525  1
  Si  Si29  1  0.649518  0.969478  0.038800  1
  Si  Si30  1  0.155405  0.527004  0.459887  1
  Si  Si31  1  0.731602  0.873785  0.750000  1
  Si  Si32  1  0.231418  0.625010  0.750000  1
  Si  Si33  1  0.268156  0.135323  0.250000  1
  Si  Si34  1  0.765402  0.374971  0.250000  1
  Ir  Ir35  1  0.019566  0.907842  0.250000  1
