# generated using pymatgen
data_KSc2MnH8
_symmetry_space_group_name_H-M   'P 1'
_cell_length_a   4.35631900
_cell_length_b   4.35632018
_cell_length_c   8.17309400
_cell_angle_alpha   90.00000000
_cell_angle_beta   90.00000000
_cell_angle_gamma   119.99999860
_symmetry_Int_Tables_number   1
_chemical_formula_structural   KSc2MnH8
_chemical_formula_sum   'K1 Sc2 Mn1 H8'
_cell_volume   134.32492241
_cell_formula_units_Z   1
loop_
 _symmetry_equiv_pos_site_id
 _symmetry_equiv_pos_as_xyz
  1  'x, y, z'
loop_
 _atom_site_type_symbol
 _atom_site_label
 _atom_site_symmetry_multiplicity
 _atom_site_fract_x
 _atom_site_fract_y
 _atom_site_fract_z
 _atom_site_occupancy
  K  K0  1  0.000000  0.000000  0.500000  1
  Sc  Sc1  1  0.666667  0.333333  0.878133  1
  Sc  Sc2  1  0.333333  0.666667  0.121867  1
  Mn  Mn3  1  0.000000  0.000000  0.000000  1
  H  H4  1  0.345916  0.172957  0.117989  1
  H  H5  1  0.827043  0.654084  0.117989  1
  H  H6  1  0.827043  0.172957  0.117989  1
  H  H7  1  0.654084  0.827043  0.882011  1
  H  H8  1  0.172957  0.345916  0.882011  1
  H  H9  1  0.172957  0.827043  0.882011  1
  H  H10  1  0.666667  0.333333  0.642020  1
  H  H11  1  0.333333  0.666667  0.357980  1
