# generated using pymatgen
data_Er7HfBePd24
_symmetry_space_group_name_H-M   'P 1'
_cell_length_a   8.26828638
_cell_length_b   8.26828576
_cell_length_c   8.26828600
_cell_angle_alpha   89.96686966
_cell_angle_beta   90.03312341
_cell_angle_gamma   90.03312177
_symmetry_Int_Tables_number   1
_chemical_formula_structural   Er7HfBePd24
_chemical_formula_sum   'Er7 Hf1 Be1 Pd24'
_cell_volume   565.25740613
_cell_formula_units_Z   1
loop_
 _symmetry_equiv_pos_site_id
 _symmetry_equiv_pos_as_xyz
  1  'x, y, z'
loop_
 _atom_site_type_symbol
 _atom_site_label
 _atom_site_symmetry_multiplicity
 _atom_site_fract_x
 _atom_site_fract_y
 _atom_site_fract_z
 _atom_site_occupancy
  Er  Er0  1  0.250800  0.251008  0.251008  1
  Er  Er1  1  0.748890  0.749183  0.749183  1
  Er  Er2  1  0.748992  0.749200  0.251008  1
  Er  Er3  1  0.748992  0.251008  0.749200  1
  Er  Er4  1  0.250817  0.251110  0.749183  1
  Er  Er5  1  0.250817  0.749183  0.251110  1
  Er  Er6  1  0.251104  0.748896  0.748896  1
  Hf  Hf7  1  0.747347  0.252653  0.252653  1
  Be  Be8  1  0.001393  0.998607  0.998607  1
  Pd  Pd9  1  0.253537  0.499171  0.000672  1
  Pd  Pd10  1  0.746372  0.495606  0.005132  1
  Pd  Pd11  1  0.994868  0.253628  0.495606  1
  Pd  Pd12  1  0.504394  0.253628  0.005132  1
  Pd  Pd13  1  0.999328  0.746463  0.499171  1
  Pd  Pd14  1  0.500829  0.746463  0.000672  1
  Pd  Pd15  1  0.504394  0.005132  0.253628  1
  Pd  Pd16  1  0.253537  0.000672  0.499171  1
  Pd  Pd17  1  0.500829  0.000672  0.746463  1
  Pd  Pd18  1  0.746372  0.005132  0.495606  1
  Pd  Pd19  1  0.994868  0.495606  0.253628  1
  Pd  Pd20  1  0.999328  0.499171  0.746463  1
  Pd  Pd21  1  0.250393  0.499321  0.499321  1
  Pd  Pd22  1  0.749026  0.495737  0.495737  1
  Pd  Pd23  1  0.504263  0.250974  0.495737  1
  Pd  Pd24  1  0.500679  0.749607  0.499321  1
  Pd  Pd25  1  0.504263  0.495737  0.250974  1
  Pd  Pd26  1  0.500679  0.499321  0.749607  1
  Pd  Pd27  1  0.268776  0.000329  0.000329  1
  Pd  Pd28  1  0.733821  0.004524  0.004524  1
  Pd  Pd29  1  0.995476  0.266179  0.004524  1
  Pd  Pd30  1  0.999671  0.731224  0.000329  1
  Pd  Pd31  1  0.995476  0.004524  0.266179  1
  Pd  Pd32  1  0.999671  0.000329  0.731224  1
