# generated using pymatgen
data_Tb4Ho2CuRh17
_symmetry_space_group_name_H-M   'P 1'
_cell_length_a   5.28534400
_cell_length_b   5.28724720
_cell_length_c   17.37981600
_cell_angle_alpha   90.00026008
_cell_angle_beta   89.99995664
_cell_angle_gamma   119.96433679
_symmetry_Int_Tables_number   1
_chemical_formula_structural   Tb4Ho2CuRh17
_chemical_formula_sum   'Tb4 Ho2 Cu1 Rh17'
_cell_volume   420.76018667
_cell_formula_units_Z   1
loop_
 _symmetry_equiv_pos_site_id
 _symmetry_equiv_pos_as_xyz
  1  'x, y, z'
loop_
 _atom_site_type_symbol
 _atom_site_label
 _atom_site_symmetry_multiplicity
 _atom_site_fract_x
 _atom_site_fract_y
 _atom_site_fract_z
 _atom_site_occupancy
  Tb  Tb0  1  0.333333  0.666704  0.957901  1
  Tb  Tb1  1  0.666661  0.333318  0.042046  1
  Tb  Tb2  1  0.333328  0.666649  0.749914  1
  Tb  Tb3  1  0.666674  0.333325  0.250044  1
  Ho  Ho4  1  0.666664  0.333324  0.457999  1
  Ho  Ho5  1  0.333325  0.666698  0.542158  1
  Cu  Cu6  1  0.333349  0.666698  0.250000  1
  Rh  Rh7  1  0.168624  0.831373  0.373598  1
  Rh  Rh8  1  0.168633  0.337228  0.373592  1
  Rh  Rh9  1  0.662746  0.831348  0.373605  1
  Rh  Rh10  1  0.832841  0.167134  0.624784  1
  Rh  Rh11  1  0.832836  0.665718  0.624788  1
  Rh  Rh12  1  0.334284  0.167154  0.624784  1
  Rh  Rh13  1  0.832923  0.167051  0.875006  1
  Rh  Rh14  1  0.832917  0.665893  0.874998  1
  Rh  Rh15  1  0.334111  0.167067  0.875001  1
  Rh  Rh16  1  0.168487  0.831524  0.126585  1
  Rh  Rh17  1  0.168484  0.336949  0.126594  1
  Rh  Rh18  1  0.663027  0.831497  0.126581  1
  Rh  Rh19  1  0.666724  0.333305  0.750004  1
  Rh  Rh20  1  0.999992  0.999945  0.250078  1
  Rh  Rh21  1  0.000006  0.000073  0.749940  1
  Rh  Rh22  1  0.000009  0.000020  0.497855  1
  Rh  Rh23  1  0.000016  0.000004  0.002145  1
