# generated using pymatgen
data_MgSc3Al2Ga2Au
_symmetry_space_group_name_H-M   'P 1'
_cell_length_a   6.85233722
_cell_length_b   6.78878405
_cell_length_c   8.41911203
_cell_angle_alpha   89.99091741
_cell_angle_beta   90.00112757
_cell_angle_gamma   119.69277517
_symmetry_Int_Tables_number   1
_chemical_formula_structural   MgSc3Al2Ga2Au
_chemical_formula_sum   'Mg2 Sc6 Al4 Ga4 Au2'
_cell_volume   340.22311588
_cell_formula_units_Z   2
loop_
 _symmetry_equiv_pos_site_id
 _symmetry_equiv_pos_as_xyz
  1  'x, y, z'
loop_
 _atom_site_type_symbol
 _atom_site_label
 _atom_site_symmetry_multiplicity
 _atom_site_fract_x
 _atom_site_fract_y
 _atom_site_fract_z
 _atom_site_occupancy
  Mg  Mg0  1  0.756785  0.757132  0.999477  1
  Mg  Mg1  1  0.242979  0.000314  0.000635  1
  Sc  Sc2  1  0.574358  0.999705  0.748706  1
  Sc  Sc3  1  0.000080  0.570587  0.747758  1
  Sc  Sc4  1  0.425564  0.425372  0.748713  1
  Sc  Sc5  1  0.999996  0.570535  0.252270  1
  Sc  Sc6  1  0.574475  0.999742  0.251286  1
  Sc  Sc7  1  0.425653  0.425395  0.251292  1
  Al  Al8  1  0.999824  0.243467  0.999985  1
  Al  Al9  1  0.749481  0.753516  0.499998  1
  Al  Al10  1  0.250517  0.004109  0.500043  1
  Al  Al11  1  0.999966  0.251660  0.500005  1
  Ga  Ga12  1  0.672470  0.328988  0.999937  1
  Ga  Ga13  1  0.666735  0.334535  0.499940  1
  Ga  Ga14  1  0.333148  0.667798  0.499924  1
  Ga  Ga15  1  0.327596  0.656604  0.000063  1
  Au  Au16  1  0.000199  0.005283  0.740825  1
  Au  Au17  1  0.000174  0.005258  0.259143  1
