# generated using pymatgen
data_Lu3Sc2In2Pb
_symmetry_space_group_name_H-M   'P 1'
_cell_length_a   6.29637500
_cell_length_b   8.74614863
_cell_length_c   8.72534202
_cell_angle_alpha   119.92154247
_cell_angle_beta   89.99869837
_cell_angle_gamma   90.00403178
_symmetry_Int_Tables_number   1
_chemical_formula_structural   Lu3Sc2In2Pb
_chemical_formula_sum   'Lu6 Sc4 In4 Pb2'
_cell_volume   416.45045018
_cell_formula_units_Z   2
loop_
 _symmetry_equiv_pos_site_id
 _symmetry_equiv_pos_as_xyz
  1  'x, y, z'
loop_
 _atom_site_type_symbol
 _atom_site_label
 _atom_site_symmetry_multiplicity
 _atom_site_fract_x
 _atom_site_fract_y
 _atom_site_fract_z
 _atom_site_occupancy
  Lu  Lu0  1  0.750046  0.231451  0.995769  1
  Lu  Lu1  1  0.750033  0.768576  0.764231  1
  Lu  Lu2  1  0.749934  0.000069  0.234392  1
  Lu  Lu3  1  0.250148  0.765310  0.998815  1
  Lu  Lu4  1  0.250059  0.234197  0.233233  1
  Lu  Lu5  1  0.249943  0.999857  0.764704  1
  Sc  Sc6  1  0.494863  0.331251  0.667724  1
  Sc  Sc7  1  0.495225  0.668829  0.336736  1
  Sc  Sc8  1  0.005340  0.669135  0.336821  1
  Sc  Sc9  1  0.005283  0.331003  0.668061  1
  In  In10  1  0.749748  0.000506  0.591926  1
  In  In11  1  0.249981  0.403647  0.001478  1
  In  In12  1  0.249626  0.596068  0.597992  1
  In  In13  1  0.249587  0.999367  0.404820  1
  Pb  Pb14  1  0.750295  0.597958  0.000372  1
  Pb  Pb15  1  0.749889  0.402779  0.402926  1
