# generated using pymatgen
data_Ho4CoTcRu6
_symmetry_space_group_name_H-M   'P 1'
_cell_length_a   5.19034662
_cell_length_b   5.34115755
_cell_length_c   8.92901900
_cell_angle_alpha   90.00000000
_cell_angle_beta   90.00000000
_cell_angle_gamma   121.46704295
_symmetry_Int_Tables_number   1
_chemical_formula_structural   Ho4CoTcRu6
_chemical_formula_sum   'Ho4 Co1 Tc1 Ru6'
_cell_volume   211.13210061
_cell_formula_units_Z   1
loop_
 _symmetry_equiv_pos_site_id
 _symmetry_equiv_pos_as_xyz
  1  'x, y, z'
loop_
 _atom_site_type_symbol
 _atom_site_label
 _atom_site_symmetry_multiplicity
 _atom_site_fract_x
 _atom_site_fract_y
 _atom_site_fract_z
 _atom_site_occupancy
  Ho  Ho0  1  0.328540  0.662393  0.431345  1
  Ho  Ho1  1  0.657540  0.327452  0.563400  1
  Ho  Ho2  1  0.657540  0.327452  0.936600  1
  Ho  Ho3  1  0.328540  0.662393  0.068655  1
  Co  Co4  1  0.834804  0.164323  0.250000  1
  Tc  Tc5  1  0.679088  0.839993  0.750000  1
  Ru  Ru6  1  0.984904  0.992938  0.497101  1
  Ru  Ru7  1  0.984904  0.992938  0.002899  1
  Ru  Ru8  1  0.832343  0.668641  0.250000  1
  Ru  Ru9  1  0.354896  0.178285  0.250000  1
  Ru  Ru10  1  0.175503  0.829399  0.750000  1
  Ru  Ru11  1  0.181397  0.353792  0.750000  1
