# generated using pymatgen
data_AlV2GaFe4
_symmetry_space_group_name_H-M   'P 1'
_cell_length_a   7.00095515
_cell_length_b   7.00095490
_cell_length_c   7.00095601
_cell_angle_alpha   33.52183796
_cell_angle_beta   33.52183809
_cell_angle_gamma   33.52184329
_symmetry_Int_Tables_number   1
_chemical_formula_structural   AlV2GaFe4
_chemical_formula_sum   'Al1 V2 Ga1 Fe4'
_cell_volume   93.21129418
_cell_formula_units_Z   1
loop_
 _symmetry_equiv_pos_site_id
 _symmetry_equiv_pos_as_xyz
  1  'x, y, z'
loop_
 _atom_site_type_symbol
 _atom_site_label
 _atom_site_symmetry_multiplicity
 _atom_site_fract_x
 _atom_site_fract_y
 _atom_site_fract_z
 _atom_site_occupancy
  Al  Al0  1  0.500000  0.500000  0.500000  1
  V  V1  1  0.250104  0.250104  0.250104  1
  V  V2  1  0.749896  0.749896  0.749896  1
  Ga  Ga3  1  0.000000  0.000000  0.000000  1
  Fe  Fe4  1  0.874226  0.874226  0.874226  1
  Fe  Fe5  1  0.375790  0.375790  0.375790  1
  Fe  Fe6  1  0.125774  0.125774  0.125774  1
  Fe  Fe7  1  0.624210  0.624210  0.624210  1
