# generated using pymatgen
data_Dy2MgGa7Ni2
_symmetry_space_group_name_H-M   'P 1'
_cell_length_a   4.17330565
_cell_length_b   6.48209954
_cell_length_c   8.02964320
_cell_angle_alpha   90.74219072
_cell_angle_beta   105.06227732
_cell_angle_gamma   89.99999721
_symmetry_Int_Tables_number   1
_chemical_formula_structural   Dy2MgGa7Ni2
_chemical_formula_sum   'Dy2 Mg1 Ga7 Ni2'
_cell_volume   209.73459743
_cell_formula_units_Z   1
loop_
 _symmetry_equiv_pos_site_id
 _symmetry_equiv_pos_as_xyz
  1  'x, y, z'
loop_
 _atom_site_type_symbol
 _atom_site_label
 _atom_site_symmetry_multiplicity
 _atom_site_fract_x
 _atom_site_fract_y
 _atom_site_fract_z
 _atom_site_occupancy
  Dy  Dy0  1  0.375235  0.758587  0.750469  1
  Dy  Dy1  1  0.624765  0.241413  0.249531  1
  Mg  Mg2  1  0.000000  0.500000  0.000000  1
  Ga  Ga3  1  0.000000  0.000000  0.000000  1
  Ga  Ga4  1  0.569039  0.754428  0.138078  1
  Ga  Ga5  1  0.430961  0.245572  0.861922  1
  Ga  Ga6  1  0.185415  0.543697  0.370830  1
  Ga  Ga7  1  0.814585  0.456303  0.629170  1
  Ga  Ga8  1  0.184255  0.945320  0.368510  1
  Ga  Ga9  1  0.815745  0.054680  0.631490  1
  Ni  Ni10  1  0.721222  0.753700  0.442446  1
  Ni  Ni11  1  0.278778  0.246300  0.557554  1
