# generated using pymatgen
data_Rb8ZrGeSe8
_symmetry_space_group_name_H-M   'P 1'
_cell_length_a   8.98872538
_cell_length_b   10.58194200
_cell_length_c   15.73388402
_cell_angle_alpha   90.00000000
_cell_angle_beta   89.68326275
_cell_angle_gamma   90.00000000
_symmetry_Int_Tables_number   1
_chemical_formula_structural   Rb8ZrGeSe8
_chemical_formula_sum   'Rb16 Zr2 Ge2 Se16'
_cell_volume   1496.55539792
_cell_formula_units_Z   2
loop_
 _symmetry_equiv_pos_site_id
 _symmetry_equiv_pos_as_xyz
  1  'x, y, z'
loop_
 _atom_site_type_symbol
 _atom_site_label
 _atom_site_symmetry_multiplicity
 _atom_site_fract_x
 _atom_site_fract_y
 _atom_site_fract_z
 _atom_site_occupancy
  Rb  Rb0  1  0.000000  0.000000  0.000000  1
  Rb  Rb1  1  0.500000  0.000000  0.500000  1
  Rb  Rb2  1  0.000000  0.500000  0.000000  1
  Rb  Rb3  1  0.500000  0.500000  0.500000  1
  Rb  Rb4  1  0.977964  0.750000  0.426433  1
  Rb  Rb5  1  0.482020  0.250000  0.072254  1
  Rb  Rb6  1  0.022036  0.250000  0.573567  1
  Rb  Rb7  1  0.517980  0.750000  0.927746  1
  Rb  Rb8  1  0.842715  0.056999  0.277759  1
  Rb  Rb9  1  0.340410  0.956564  0.226207  1
  Rb  Rb10  1  0.157285  0.556999  0.722241  1
  Rb  Rb11  1  0.659590  0.456564  0.773793  1
  Rb  Rb12  1  0.157285  0.943001  0.722241  1
  Rb  Rb13  1  0.659590  0.043436  0.773793  1
  Rb  Rb14  1  0.842715  0.443001  0.277759  1
  Rb  Rb15  1  0.340410  0.543436  0.226207  1
  Zr  Zr16  1  0.743449  0.750000  0.166357  1
  Zr  Zr17  1  0.256551  0.250000  0.833643  1
  Ge  Ge18  1  0.761758  0.750000  0.664356  1
  Ge  Ge19  1  0.238242  0.250000  0.335644  1
  Se  Se20  1  0.971662  0.250000  0.824592  1
  Se  Se21  1  0.507987  0.250000  0.325391  1
  Se  Se22  1  0.492013  0.750000  0.674609  1
  Se  Se23  1  0.028338  0.750000  0.175408  1
  Se  Se24  1  0.658236  0.549844  0.090858  1
  Se  Se25  1  0.153437  0.435580  0.408765  1
  Se  Se26  1  0.341764  0.049844  0.909142  1
  Se  Se27  1  0.846563  0.935580  0.591235  1
  Se  Se28  1  0.341764  0.450156  0.909142  1
  Se  Se29  1  0.846563  0.564420  0.591235  1
  Se  Se30  1  0.658236  0.950156  0.090858  1
  Se  Se31  1  0.153437  0.064420  0.408765  1
  Se  Se32  1  0.631489  0.750000  0.316702  1
  Se  Se33  1  0.136711  0.250000  0.192475  1
  Se  Se34  1  0.368511  0.250000  0.683298  1
  Se  Se35  1  0.863289  0.750000  0.807525  1
