# generated using pymatgen
data_LaDy15Cd4(CoNi)2
_symmetry_space_group_name_H-M   'P 1'
_cell_length_a   9.56865780
_cell_length_b   9.55043087
_cell_length_c   9.56390526
_cell_angle_alpha   59.84583891
_cell_angle_beta   59.98355254
_cell_angle_gamma   59.93685094
_symmetry_Int_Tables_number   1
_chemical_formula_structural   LaDy15Cd4(CoNi)2
_chemical_formula_sum   'La1 Dy15 Cd4 Co2 Ni2'
_cell_volume   616.91405713
_cell_formula_units_Z   1
loop_
 _symmetry_equiv_pos_site_id
 _symmetry_equiv_pos_as_xyz
  1  'x, y, z'
loop_
 _atom_site_type_symbol
 _atom_site_label
 _atom_site_symmetry_multiplicity
 _atom_site_fract_x
 _atom_site_fract_y
 _atom_site_fract_z
 _atom_site_occupancy
  La  La0  1  0.152833  0.536528  0.157804  1
  Dy  Dy1  1  0.692097  0.313762  0.683833  1
  Dy  Dy2  1  0.688058  0.312765  0.311120  1
  Dy  Dy3  1  0.935703  0.563924  0.564671  1
  Dy  Dy4  1  0.545978  0.150243  0.152563  1
  Dy  Dy5  1  0.151541  0.151142  0.545775  1
  Dy  Dy6  1  0.935074  0.939740  0.562209  1
  Dy  Dy7  1  0.311634  0.686467  0.313412  1
  Dy  Dy8  1  0.563291  0.938233  0.935186  1
  Dy  Dy9  1  0.562977  0.939740  0.562209  1
  Dy  Dy10  1  0.688485  0.686467  0.313412  1
  Dy  Dy11  1  0.564132  0.564722  0.937291  1
  Dy  Dy12  1  0.933854  0.564722  0.937291  1
  Dy  Dy13  1  0.312267  0.688492  0.686974  1
  Dy  Dy14  1  0.151215  0.150243  0.152563  1
  Dy  Dy15  1  0.310307  0.313762  0.683833  1
  Cd  Cd16  1  0.918262  0.244491  0.918986  1
  Cd  Cd17  1  0.916511  0.922664  0.918941  1
  Cd  Cd18  1  0.916507  0.921752  0.245235  1
  Cd  Cd19  1  0.241883  0.922664  0.918941  1
  Co  Co20  1  0.925656  0.354195  0.358978  1
  Co  Co21  1  0.361170  0.354195  0.358978  1
  Ni  Ni22  1  0.362571  0.352789  0.922070  1
  Ni  Ni23  1  0.357994  0.926293  0.357721  1
