# generated using pymatgen
data_K2Ba2Mn3CrN8
_symmetry_space_group_name_H-M   'P 1'
_cell_length_a   6.45779933
_cell_length_b   6.45779905
_cell_length_c   7.80744328
_cell_angle_alpha   86.95627667
_cell_angle_beta   93.04372400
_cell_angle_gamma   126.89090351
_symmetry_Int_Tables_number   1
_chemical_formula_structural   K2Ba2Mn3CrN8
_chemical_formula_sum   'K2 Ba2 Mn3 Cr1 N8'
_cell_volume   259.94528420
_cell_formula_units_Z   1
loop_
 _symmetry_equiv_pos_site_id
 _symmetry_equiv_pos_as_xyz
  1  'x, y, z'
loop_
 _atom_site_type_symbol
 _atom_site_label
 _atom_site_symmetry_multiplicity
 _atom_site_fract_x
 _atom_site_fract_y
 _atom_site_fract_z
 _atom_site_occupancy
  K  K0  1  0.845439  0.154561  0.545140  1
  K  K1  1  0.156656  0.843344  0.454724  1
  Ba  Ba2  1  0.658149  0.341851  0.080106  1
  Ba  Ba3  1  0.337770  0.662230  0.921000  1
  Mn  Mn4  1  0.449846  0.550154  0.359306  1
  Mn  Mn5  1  0.953285  0.046715  0.130912  1
  Mn  Mn6  1  0.044966  0.955034  0.870648  1
  Cr  Cr7  1  0.549060  0.450940  0.636995  1
  N  N8  1  0.892660  0.107340  0.909359  1
  N  N9  1  0.106568  0.893432  0.089564  1
  N  N10  1  0.604417  0.395583  0.424763  1
  N  N11  1  0.397088  0.602912  0.578942  1
  N  N12  1  0.337207  0.162578  0.762837  1
  N  N13  1  0.168808  0.339342  0.236433  1
  N  N14  1  0.660658  0.831192  0.236433  1
  N  N15  1  0.837422  0.662793  0.762837  1
