# generated using pymatgen
data_Sm4Lu4Mn(B8Os)3
_symmetry_space_group_name_H-M   'P 1'
_cell_length_a   3.63565500
_cell_length_b   9.12507572
_cell_length_c   11.54841751
_cell_angle_alpha   90.00580882
_cell_angle_beta   90.00000000
_cell_angle_gamma   90.00000000
_symmetry_Int_Tables_number   1
_chemical_formula_structural   Sm4Lu4Mn(B8Os)3
_chemical_formula_sum   'Sm4 Lu4 Mn1 B24 Os3'
_cell_volume   383.12599179
_cell_formula_units_Z   1
loop_
 _symmetry_equiv_pos_site_id
 _symmetry_equiv_pos_as_xyz
  1  'x, y, z'
loop_
 _atom_site_type_symbol
 _atom_site_label
 _atom_site_symmetry_multiplicity
 _atom_site_fract_x
 _atom_site_fract_y
 _atom_site_fract_z
 _atom_site_occupancy
  Sm  Sm0  1  0.000000  0.324890  0.412870  1
  Sm  Sm1  1  0.000000  0.677225  0.582203  1
  Sm  Sm2  1  0.000000  0.820054  0.088051  1
  Sm  Sm3  1  0.000000  0.178122  0.915134  1
  Lu  Lu4  1  0.000000  0.940173  0.371437  1
  Lu  Lu5  1  0.000000  0.056271  0.627083  1
  Lu  Lu6  1  0.000000  0.446533  0.130672  1
  Lu  Lu7  1  0.000000  0.556256  0.872289  1
  Mn  Mn8  1  0.000000  0.639360  0.319153  1
  B  B9  1  0.500000  0.555842  0.429498  1
  B  B10  1  0.500000  0.445054  0.568318  1
  B  B11  1  0.500000  0.055269  0.069135  1
  B  B12  1  0.500000  0.944884  0.931521  1
  B  B13  1  0.500000  0.748096  0.415796  1
  B  B14  1  0.500000  0.249824  0.581923  1
  B  B15  1  0.500000  0.251174  0.082798  1
  B  B16  1  0.500000  0.749740  0.917929  1
  B  B17  1  0.500000  0.789480  0.266825  1
  B  B18  1  0.500000  0.208499  0.733700  1
  B  B19  1  0.500000  0.291881  0.234121  1
  B  B20  1  0.500000  0.708682  0.765874  1
  B  B21  1  0.500000  0.630116  0.186735  1
  B  B22  1  0.500000  0.370185  0.815278  1
  B  B23  1  0.500000  0.129502  0.315049  1
  B  B24  1  0.500000  0.869957  0.684524  1
  B  B25  1  0.500000  0.983106  0.214384  1
  B  B26  1  0.500000  0.016387  0.785968  1
  B  B27  1  0.500000  0.486172  0.286821  1
  B  B28  1  0.500000  0.516449  0.713850  1
  B  B29  1  0.500000  0.600952  0.027979  1
  B  B30  1  0.500000  0.399737  0.973024  1
  B  B31  1  0.500000  0.100588  0.471904  1
  B  B32  1  0.500000  0.898826  0.527311  1
  Os  Os33  1  0.000000  0.360495  0.681144  1
  Os  Os34  1  0.000000  0.139282  0.180512  1
  Os  Os35  1  0.000000  0.860938  0.819189  1
