# generated using pymatgen
data_Nd4B4PtRh9
_symmetry_space_group_name_H-M   'P 1'
_cell_length_a   5.55556900
_cell_length_b   5.55557011
_cell_length_c   21.12904500
_cell_angle_alpha   90.00000000
_cell_angle_beta   90.00000000
_cell_angle_gamma   119.99626328
_symmetry_Int_Tables_number   1
_chemical_formula_structural   Nd4B4PtRh9
_chemical_formula_sum   'Nd8 B8 Pt2 Rh18'
_cell_volume   564.78613926
_cell_formula_units_Z   2
loop_
 _symmetry_equiv_pos_site_id
 _symmetry_equiv_pos_as_xyz
  1  'x, y, z'
loop_
 _atom_site_type_symbol
 _atom_site_label
 _atom_site_symmetry_multiplicity
 _atom_site_fract_x
 _atom_site_fract_y
 _atom_site_fract_z
 _atom_site_occupancy
  Nd  Nd0  1  0.666653  0.333347  0.521712  1
  Nd  Nd1  1  0.333347  0.666653  0.478288  1
  Nd  Nd2  1  0.333347  0.666653  0.021712  1
  Nd  Nd3  1  0.666653  0.333347  0.978288  1
  Nd  Nd4  1  0.666648  0.333352  0.674379  1
  Nd  Nd5  1  0.333352  0.666648  0.325621  1
  Nd  Nd6  1  0.333352  0.666648  0.174379  1
  Nd  Nd7  1  0.666648  0.333352  0.825621  1
  B  B8  1  0.999966  0.000034  0.677528  1
  B  B9  1  0.000034  0.999966  0.322472  1
  B  B10  1  0.000034  0.999966  0.177528  1
  B  B11  1  0.999966  0.000034  0.822472  1
  B  B12  1  0.666691  0.333309  0.325792  1
  B  B13  1  0.333309  0.666691  0.674208  1
  B  B14  1  0.333309  0.666691  0.825792  1
  B  B15  1  0.666691  0.333309  0.174208  1
  Pt  Pt16  1  0.000000  0.000000  0.500000  1
  Pt  Pt17  1  0.000000  0.000000  0.000000  1
  Rh  Rh18  1  0.167149  0.334356  0.750000  1
  Rh  Rh19  1  0.167151  0.832849  0.750000  1
  Rh  Rh20  1  0.665644  0.832851  0.750000  1
  Rh  Rh21  1  0.832851  0.665644  0.250000  1
  Rh  Rh22  1  0.832849  0.167151  0.250000  1
  Rh  Rh23  1  0.334356  0.167149  0.250000  1
  Rh  Rh24  1  0.163649  0.327386  0.609465  1
  Rh  Rh25  1  0.163651  0.836349  0.609470  1
  Rh  Rh26  1  0.672614  0.836351  0.609465  1
  Rh  Rh27  1  0.836351  0.672614  0.390535  1
  Rh  Rh28  1  0.836349  0.163651  0.390530  1
  Rh  Rh29  1  0.327386  0.163649  0.390535  1
  Rh  Rh30  1  0.836351  0.672614  0.109465  1
  Rh  Rh31  1  0.836349  0.163651  0.109470  1
  Rh  Rh32  1  0.327386  0.163649  0.109465  1
  Rh  Rh33  1  0.163649  0.327386  0.890535  1
  Rh  Rh34  1  0.163651  0.836349  0.890530  1
  Rh  Rh35  1  0.672614  0.836351  0.890535  1
