# generated using pymatgen
data_Gd2Dy10Co5Pb
_symmetry_space_group_name_H-M   'P 1'
_cell_length_a   8.31396154
_cell_length_b   8.31396221
_cell_length_c   8.31396200
_cell_angle_alpha   107.06010881
_cell_angle_beta   110.68874160
_cell_angle_gamma   110.69138239
_symmetry_Int_Tables_number   1
_chemical_formula_structural   Gd2Dy10Co5Pb
_chemical_formula_sum   'Gd2 Dy10 Co5 Pb1'
_cell_volume   441.80238940
_cell_formula_units_Z   1
loop_
 _symmetry_equiv_pos_site_id
 _symmetry_equiv_pos_as_xyz
  1  'x, y, z'
loop_
 _atom_site_type_symbol
 _atom_site_label
 _atom_site_symmetry_multiplicity
 _atom_site_fract_x
 _atom_site_fract_y
 _atom_site_fract_z
 _atom_site_occupancy
  Gd  Gd0  1  0.479320  0.293070  0.186250  1
  Gd  Gd1  1  0.106821  0.293070  0.813750  1
  Dy  Dy2  1  0.892825  0.707899  0.184926  1
  Dy  Dy3  1  0.522974  0.707899  0.815074  1
  Dy  Dy4  1  0.307612  0.621642  0.314032  1
  Dy  Dy5  1  0.307612  0.993581  0.685968  1
  Dy  Dy6  1  0.692104  0.379968  0.687864  1
  Dy  Dy7  1  0.692104  0.004239  0.312136  1
  Dy  Dy8  1  0.192594  0.205547  0.398681  1
  Dy  Dy9  1  0.806866  0.793913  0.601319  1
  Dy  Dy10  1  0.192594  0.793913  0.987046  1
  Dy  Dy11  1  0.806866  0.205547  0.012954  1
  Co  Co12  1  0.501451  0.613772  0.112321  1
  Co  Co13  1  0.501451  0.389130  0.887679  1
  Co  Co14  1  0.378248  0.999563  0.378684  1
  Co  Co15  1  0.620880  0.999563  0.621316  1
  Co  Co16  1  0.997427  0.997427  0.000000  1
  Pb  Pb17  1  0.000256  0.500256  0.500000  1
