# generated using pymatgen
data_Ce2Re4Tc13C3
_symmetry_space_group_name_H-M   'P 1'
_cell_length_a   7.01971744
_cell_length_b   7.01971678
_cell_length_c   7.02273772
_cell_angle_alpha   82.88306054
_cell_angle_beta   82.88306384
_cell_angle_gamma   82.85007194
_symmetry_Int_Tables_number   1
_chemical_formula_structural   Ce2Re4Tc13C3
_chemical_formula_sum   'Ce2 Re4 Tc13 C3'
_cell_volume   338.64479823
_cell_formula_units_Z   1
loop_
 _symmetry_equiv_pos_site_id
 _symmetry_equiv_pos_as_xyz
  1  'x, y, z'
loop_
 _atom_site_type_symbol
 _atom_site_label
 _atom_site_symmetry_multiplicity
 _atom_site_fract_x
 _atom_site_fract_y
 _atom_site_fract_z
 _atom_site_occupancy
  Ce  Ce0  1  0.649125  0.649477  0.648172  1
  Ce  Ce1  1  0.350523  0.350875  0.351828  1
  Re  Re2  1  0.000225  0.999775  0.500000  1
  Re  Re3  1  0.000432  0.500852  0.999774  1
  Re  Re4  1  0.499148  0.999568  0.000226  1
  Re  Re5  1  0.721593  0.278407  0.000000  1
  Tc  Tc6  1  0.279058  0.720942  0.000000  1
  Tc  Tc7  1  0.721837  0.000010  0.279260  1
  Tc  Tc8  1  0.999990  0.278163  0.720740  1
  Tc  Tc9  1  0.278668  0.999363  0.721844  1
  Tc  Tc10  1  0.000637  0.721332  0.278156  1
  Tc  Tc11  1  0.348222  0.348825  0.862986  1
  Tc  Tc12  1  0.349038  0.863437  0.349293  1
  Tc  Tc13  1  0.862690  0.349178  0.349320  1
  Tc  Tc14  1  0.651175  0.651778  0.137014  1
  Tc  Tc15  1  0.650822  0.137310  0.650680  1
  Tc  Tc16  1  0.136563  0.650962  0.650707  1
  Tc  Tc17  1  0.901282  0.901015  0.901857  1
  Tc  Tc18  1  0.098985  0.098718  0.098143  1
  C  C19  1  0.500321  0.499679  0.000000  1
  C  C20  1  0.499831  0.000167  0.500268  1
  C  C21  1  0.999833  0.500169  0.499732  1
