# generated using pymatgen
data_Pr5Sn2Os
_symmetry_space_group_name_H-M   'P 1'
_cell_length_a   8.26645500
_cell_length_b   9.25149900
_cell_length_c   12.86598400
_cell_angle_alpha   90.00000000
_cell_angle_beta   90.00000000
_cell_angle_gamma   90.00000000
_symmetry_Int_Tables_number   1
_chemical_formula_structural   Pr5Sn2Os
_chemical_formula_sum   'Pr20 Sn8 Os4'
_cell_volume   983.95314710
_cell_formula_units_Z   4
loop_
 _symmetry_equiv_pos_site_id
 _symmetry_equiv_pos_as_xyz
  1  'x, y, z'
loop_
 _atom_site_type_symbol
 _atom_site_label
 _atom_site_symmetry_multiplicity
 _atom_site_fract_x
 _atom_site_fract_y
 _atom_site_fract_z
 _atom_site_occupancy
  Pr  Pr0  1  0.839129  0.750000  0.785024  1
  Pr  Pr1  1  0.160871  0.250000  0.214976  1
  Pr  Pr2  1  0.339129  0.250000  0.714976  1
  Pr  Pr3  1  0.660871  0.750000  0.285024  1
  Pr  Pr4  1  0.370051  0.750000  0.695070  1
  Pr  Pr5  1  0.629949  0.250000  0.304930  1
  Pr  Pr6  1  0.870051  0.250000  0.804930  1
  Pr  Pr7  1  0.129949  0.750000  0.195070  1
  Pr  Pr8  1  0.947759  0.750000  0.502239  1
  Pr  Pr9  1  0.052241  0.250000  0.497761  1
  Pr  Pr10  1  0.447759  0.250000  0.997761  1
  Pr  Pr11  1  0.552241  0.750000  0.002239  1
  Pr  Pr12  1  0.673361  0.035145  0.569557  1
  Pr  Pr13  1  0.326639  0.964855  0.430443  1
  Pr  Pr14  1  0.173361  0.964855  0.930443  1
  Pr  Pr15  1  0.326639  0.535145  0.430443  1
  Pr  Pr16  1  0.826639  0.035145  0.069557  1
  Pr  Pr17  1  0.673361  0.464855  0.569557  1
  Pr  Pr18  1  0.826639  0.464855  0.069557  1
  Pr  Pr19  1  0.173361  0.535145  0.930443  1
  Sn  Sn20  1  0.566435  0.495957  0.829952  1
  Sn  Sn21  1  0.433565  0.504043  0.170048  1
  Sn  Sn22  1  0.066435  0.504043  0.670048  1
  Sn  Sn23  1  0.433565  0.995957  0.170048  1
  Sn  Sn24  1  0.933565  0.495957  0.329952  1
  Sn  Sn25  1  0.566435  0.004043  0.829952  1
  Sn  Sn26  1  0.933565  0.004043  0.329952  1
  Sn  Sn27  1  0.066435  0.995957  0.670048  1
  Os  Os28  1  0.579345  0.750000  0.509190  1
  Os  Os29  1  0.420655  0.250000  0.490810  1
  Os  Os30  1  0.079345  0.250000  0.990810  1
  Os  Os31  1  0.920655  0.750000  0.009190  1
