# generated using pymatgen
data_Mn17ZnCr3(WC3)2
_symmetry_space_group_name_H-M   'P 1'
_cell_length_a   7.42320054
_cell_length_b   7.42320071
_cell_length_c   7.42320045
_cell_angle_alpha   60.08310092
_cell_angle_beta   60.08310467
_cell_angle_gamma   60.08309950
_symmetry_Int_Tables_number   1
_chemical_formula_structural   Mn17ZnCr3(WC3)2
_chemical_formula_sum   'Mn17 Zn1 Cr3 W2 C6'
_cell_volume   289.78483373
_cell_formula_units_Z   1
loop_
 _symmetry_equiv_pos_site_id
 _symmetry_equiv_pos_as_xyz
  1  'x, y, z'
loop_
 _atom_site_type_symbol
 _atom_site_label
 _atom_site_symmetry_multiplicity
 _atom_site_fract_x
 _atom_site_fract_y
 _atom_site_fract_z
 _atom_site_occupancy
  Mn  Mn0  1  0.615369  0.615369  0.153081  1
  Mn  Mn1  1  0.615369  0.153080  0.615369  1
  Mn  Mn2  1  0.153081  0.615369  0.615369  1
  Mn  Mn3  1  0.615380  0.615380  0.615380  1
  Mn  Mn4  1  0.383721  0.383721  0.847614  1
  Mn  Mn5  1  0.383721  0.847614  0.383721  1
  Mn  Mn6  1  0.847614  0.383721  0.383721  1
  Mn  Mn7  1  0.384126  0.384126  0.384126  1
  Mn  Mn8  1  0.000196  0.000196  0.341220  1
  Mn  Mn9  1  0.658909  0.999403  0.342071  1
  Mn  Mn10  1  0.999403  0.658909  0.342071  1
  Mn  Mn11  1  0.658909  0.342071  0.999403  1
  Mn  Mn12  1  0.000196  0.341220  0.000196  1
  Mn  Mn13  1  0.999403  0.342071  0.658909  1
  Mn  Mn14  1  0.342071  0.658909  0.999403  1
  Mn  Mn15  1  0.342071  0.999403  0.658909  1
  Mn  Mn16  1  0.341220  0.000196  0.000196  1
  Zn  Zn17  1  0.000963  0.000963  0.000963  1
  Cr  Cr18  1  0.000530  0.000530  0.657729  1
  Cr  Cr19  1  0.000530  0.657729  0.000530  1
  Cr  Cr20  1  0.657729  0.000530  0.000530  1
  W  W21  1  0.749612  0.749612  0.749612  1
  W  W22  1  0.250147  0.250147  0.250147  1
  C  C23  1  0.721557  0.721557  0.281074  1
  C  C24  1  0.275428  0.724682  0.275428  1
  C  C25  1  0.724682  0.275428  0.275428  1
  C  C26  1  0.275428  0.275428  0.724682  1
  C  C27  1  0.721557  0.281074  0.721557  1
  C  C28  1  0.281074  0.721557  0.721557  1
