# generated using pymatgen
data_HoMgFeB6
_symmetry_space_group_name_H-M   'P 1'
_cell_length_a   3.41720500
_cell_length_b   8.83836700
_cell_length_c   11.19600100
_cell_angle_alpha   90.00000000
_cell_angle_beta   90.00000000
_cell_angle_gamma   90.00000000
_symmetry_Int_Tables_number   1
_chemical_formula_structural   HoMgFeB6
_chemical_formula_sum   'Ho4 Mg4 Fe4 B24'
_cell_volume   338.14735348
_cell_formula_units_Z   4
loop_
 _symmetry_equiv_pos_site_id
 _symmetry_equiv_pos_as_xyz
  1  'x, y, z'
loop_
 _atom_site_type_symbol
 _atom_site_label
 _atom_site_symmetry_multiplicity
 _atom_site_fract_x
 _atom_site_fract_y
 _atom_site_fract_z
 _atom_site_occupancy
  Ho  Ho0  1  0.000000  0.823534  0.085579  1
  Ho  Ho1  1  0.000000  0.176466  0.914421  1
  Ho  Ho2  1  0.000000  0.323534  0.414421  1
  Ho  Ho3  1  0.000000  0.676466  0.585579  1
  Mg  Mg4  1  0.000000  0.442696  0.130836  1
  Mg  Mg5  1  0.000000  0.557304  0.869164  1
  Mg  Mg6  1  0.000000  0.942696  0.369164  1
  Mg  Mg7  1  0.000000  0.057304  0.630836  1
  Fe  Fe8  1  0.000000  0.141545  0.182166  1
  Fe  Fe9  1  0.000000  0.858455  0.817834  1
  Fe  Fe10  1  0.000000  0.641545  0.317834  1
  Fe  Fe11  1  0.000000  0.358455  0.682166  1
  B  B12  1  0.500000  0.056713  0.069297  1
  B  B13  1  0.500000  0.943287  0.930703  1
  B  B14  1  0.500000  0.556713  0.430703  1
  B  B15  1  0.500000  0.443287  0.569297  1
  B  B16  1  0.500000  0.253773  0.083539  1
  B  B17  1  0.500000  0.746227  0.916461  1
  B  B18  1  0.500000  0.753773  0.416461  1
  B  B19  1  0.500000  0.246227  0.583539  1
  B  B20  1  0.500000  0.292400  0.236205  1
  B  B21  1  0.500000  0.707600  0.763795  1
  B  B22  1  0.500000  0.792400  0.263795  1
  B  B23  1  0.500000  0.207600  0.736205  1
  B  B24  1  0.500000  0.128075  0.316618  1
  B  B25  1  0.500000  0.871925  0.683382  1
  B  B26  1  0.500000  0.628075  0.183382  1
  B  B27  1  0.500000  0.371925  0.816618  1
  B  B28  1  0.500000  0.483157  0.286852  1
  B  B29  1  0.500000  0.516843  0.713148  1
  B  B30  1  0.500000  0.983157  0.213148  1
  B  B31  1  0.500000  0.016843  0.786852  1
  B  B32  1  0.500000  0.093281  0.474792  1
  B  B33  1  0.500000  0.906719  0.525208  1
  B  B34  1  0.500000  0.593281  0.025208  1
  B  B35  1  0.500000  0.406719  0.974792  1
