# generated using pymatgen
data_Tb2YHo(B6Os)2
_symmetry_space_group_name_H-M   'P 1'
_cell_length_a   3.65878300
_cell_length_b   9.16694410
_cell_length_c   11.55032912
_cell_angle_alpha   90.01670388
_cell_angle_beta   90.00000000
_cell_angle_gamma   90.00000000
_symmetry_Int_Tables_number   1
_chemical_formula_structural   Tb2YHo(B6Os)2
_chemical_formula_sum   'Tb4 Y2 Ho2 B24 Os4'
_cell_volume   387.39639632
_cell_formula_units_Z   2
loop_
 _symmetry_equiv_pos_site_id
 _symmetry_equiv_pos_as_xyz
  1  'x, y, z'
loop_
 _atom_site_type_symbol
 _atom_site_label
 _atom_site_symmetry_multiplicity
 _atom_site_fract_x
 _atom_site_fract_y
 _atom_site_fract_z
 _atom_site_occupancy
  Tb  Tb0  1  0.000000  0.322722  0.413705  1
  Tb  Tb1  1  0.000000  0.677278  0.586295  1
  Tb  Tb2  1  0.000000  0.822386  0.086126  1
  Tb  Tb3  1  0.000000  0.177614  0.913874  1
  Y  Y4  1  0.000000  0.944113  0.372924  1
  Y  Y5  1  0.000000  0.055887  0.627076  1
  Ho  Ho6  1  0.000000  0.444103  0.127053  1
  Ho  Ho7  1  0.000000  0.555897  0.872947  1
  B  B8  1  0.500000  0.554117  0.432697  1
  B  B9  1  0.500000  0.445883  0.567303  1
  B  B10  1  0.500000  0.054235  0.067222  1
  B  B11  1  0.500000  0.945765  0.932778  1
  B  B12  1  0.500000  0.747592  0.419702  1
  B  B13  1  0.500000  0.252408  0.580298  1
  B  B14  1  0.500000  0.248186  0.080287  1
  B  B15  1  0.500000  0.751814  0.919713  1
  B  B16  1  0.500000  0.790741  0.266583  1
  B  B17  1  0.500000  0.209259  0.733417  1
  B  B18  1  0.500000  0.291288  0.233132  1
  B  B19  1  0.500000  0.708712  0.766868  1
  B  B20  1  0.500000  0.631589  0.185362  1
  B  B21  1  0.500000  0.368411  0.814638  1
  B  B22  1  0.500000  0.132153  0.314322  1
  B  B23  1  0.500000  0.867847  0.685678  1
  B  B24  1  0.500000  0.983850  0.212960  1
  B  B25  1  0.500000  0.016150  0.787040  1
  B  B26  1  0.500000  0.483575  0.286605  1
  B  B27  1  0.500000  0.516425  0.713395  1
  B  B28  1  0.500000  0.607439  0.029778  1
  B  B29  1  0.500000  0.392561  0.970222  1
  B  B30  1  0.500000  0.108460  0.469961  1
  B  B31  1  0.500000  0.891540  0.530039  1
  Os  Os32  1  0.000000  0.637226  0.321056  1
  Os  Os33  1  0.000000  0.362774  0.678944  1
  Os  Os34  1  0.000000  0.138031  0.178561  1
  Os  Os35  1  0.000000  0.861969  0.821439  1
