# generated using pymatgen
data_La2Co9Mo3As7
_symmetry_space_group_name_H-M   'P 1'
_cell_length_a   3.89694400
_cell_length_b   9.46503496
_cell_length_c   9.46503500
_cell_angle_alpha   119.99999665
_cell_angle_beta   90.00000000
_cell_angle_gamma   90.00000000
_symmetry_Int_Tables_number   1
_chemical_formula_structural   La2Co9Mo3As7
_chemical_formula_sum   'La2 Co9 Mo3 As7'
_cell_volume   302.34254046
_cell_formula_units_Z   1
loop_
 _symmetry_equiv_pos_site_id
 _symmetry_equiv_pos_as_xyz
  1  'x, y, z'
loop_
 _atom_site_type_symbol
 _atom_site_label
 _atom_site_symmetry_multiplicity
 _atom_site_fract_x
 _atom_site_fract_y
 _atom_site_fract_z
 _atom_site_occupancy
  La  La0  1  0.000000  0.666667  0.333333  1
  La  La1  1  0.500000  0.333333  0.666667  1
  Co  Co2  1  0.000000  0.572817  0.939577  1
  Co  Co3  1  0.000000  0.366760  0.427183  1
  Co  Co4  1  0.000000  0.060423  0.633240  1
  Co  Co5  1  0.000000  0.874960  0.153383  1
  Co  Co6  1  0.000000  0.278423  0.125040  1
  Co  Co7  1  0.000000  0.846617  0.721577  1
  Co  Co8  1  0.500000  0.948738  0.377562  1
  Co  Co9  1  0.500000  0.428823  0.051262  1
  Co  Co10  1  0.500000  0.622438  0.571177  1
  Mo  Mo11  1  0.500000  0.785807  0.900664  1
  Mo  Mo12  1  0.500000  0.114857  0.214193  1
  Mo  Mo13  1  0.500000  0.099336  0.885143  1
  As  As14  1  0.000000  0.000000  0.000000  1
  As  As15  1  0.500000  0.704575  0.110714  1
  As  As16  1  0.500000  0.406140  0.295425  1
  As  As17  1  0.500000  0.889286  0.593860  1
  As  As18  1  0.000000  0.590951  0.697111  1
  As  As19  1  0.000000  0.106161  0.409049  1
  As  As20  1  0.000000  0.302889  0.893839  1
