# generated using pymatgen
data_Tm4CrSi8Tc5
_symmetry_space_group_name_H-M   'P 1'
_cell_length_a   6.76030226
_cell_length_b   6.66155151
_cell_length_c   6.76018507
_cell_angle_alpha   70.22297565
_cell_angle_beta   90.01543011
_cell_angle_gamma   90.19645981
_symmetry_Int_Tables_number   1
_chemical_formula_structural   Tm4CrSi8Tc5
_chemical_formula_sum   'Tm4 Cr1 Si8 Tc5'
_cell_volume   286.48018837
_cell_formula_units_Z   1
loop_
 _symmetry_equiv_pos_site_id
 _symmetry_equiv_pos_as_xyz
  1  'x, y, z'
loop_
 _atom_site_type_symbol
 _atom_site_label
 _atom_site_symmetry_multiplicity
 _atom_site_fract_x
 _atom_site_fract_y
 _atom_site_fract_z
 _atom_site_occupancy
  Tm  Tm0  1  0.331687  0.558336  0.808269  1
  Tm  Tm1  1  0.830684  0.942102  0.191987  1
  Tm  Tm2  1  0.667551  0.442733  0.189436  1
  Tm  Tm3  1  0.167697  0.057987  0.807726  1
  Cr  Cr4  1  0.652582  0.257133  0.761065  1
  Si  Si5  1  0.550508  0.881873  0.897604  1
  Si  Si6  1  0.049250  0.622263  0.100840  1
  Si  Si7  1  0.453285  0.127245  0.094333  1
  Si  Si8  1  0.947499  0.373652  0.898473  1
  Si  Si9  1  0.139252  0.867263  0.489147  1
  Si  Si10  1  0.641559  0.627240  0.515243  1
  Si  Si11  1  0.858024  0.132857  0.512954  1
  Si  Si12  1  0.364294  0.367301  0.492568  1
  Tc  Tc13  1  0.499481  0.002341  0.501274  1
  Tc  Tc14  1  0.998727  0.496692  0.500943  1
  Tc  Tc15  1  0.847112  0.755771  0.764770  1
  Tc  Tc16  1  0.346961  0.744180  0.236734  1
  Tc  Tc17  1  0.153847  0.243030  0.236632  1
