# generated using pymatgen
data_Tb3SnBi2Rh3
_symmetry_space_group_name_H-M   'P 1'
_cell_length_a   7.64490250
_cell_length_b   7.64490112
_cell_length_c   3.99413900
_cell_angle_alpha   90.00000000
_cell_angle_beta   90.00000000
_cell_angle_gamma   120.67974674
_symmetry_Int_Tables_number   1
_chemical_formula_structural   Tb3SnBi2Rh3
_chemical_formula_sum   'Tb3 Sn1 Bi2 Rh3'
_cell_volume   200.76220477
_cell_formula_units_Z   1
loop_
 _symmetry_equiv_pos_site_id
 _symmetry_equiv_pos_as_xyz
  1  'x, y, z'
loop_
 _atom_site_type_symbol
 _atom_site_label
 _atom_site_symmetry_multiplicity
 _atom_site_fract_x
 _atom_site_fract_y
 _atom_site_fract_z
 _atom_site_occupancy
  Tb  Tb0  1  0.404957  0.010307  0.500000  1
  Tb  Tb1  1  0.010307  0.404957  0.500000  1
  Tb  Tb2  1  0.589274  0.589274  0.500000  1
  Sn  Sn3  1  0.262561  0.262561  0.000000  1
  Bi  Bi4  1  0.737573  0.002306  0.000000  1
  Bi  Bi5  1  0.002306  0.737573  0.000000  1
  Rh  Rh6  1  0.330074  0.656526  0.000000  1
  Rh  Rh7  1  0.656526  0.330074  0.000000  1
  Rh  Rh8  1  0.006423  0.006423  0.500000  1
