# generated using pymatgen
data_BaTa8MnS16
_symmetry_space_group_name_H-M   'P 1'
_cell_length_a   6.71101766
_cell_length_b   6.71102214
_cell_length_c   14.27406546
_cell_angle_alpha   89.98485487
_cell_angle_beta   90.00392408
_cell_angle_gamma   120.00353844
_symmetry_Int_Tables_number   1
_chemical_formula_structural   BaTa8MnS16
_chemical_formula_sum   'Ba1 Ta8 Mn1 S16'
_cell_volume   556.72390069
_cell_formula_units_Z   1
loop_
 _symmetry_equiv_pos_site_id
 _symmetry_equiv_pos_as_xyz
  1  'x, y, z'
loop_
 _atom_site_type_symbol
 _atom_site_label
 _atom_site_symmetry_multiplicity
 _atom_site_fract_x
 _atom_site_fract_y
 _atom_site_fract_z
 _atom_site_occupancy
  Ba  Ba0  1  0.000000  0.000000  0.500000  1
  Ta  Ta1  1  0.505097  0.495077  0.780861  1
  Ta  Ta2  1  0.010111  0.504899  0.219134  1
  Ta  Ta3  1  0.494882  0.989639  0.219135  1
  Ta  Ta4  1  0.505118  0.010361  0.780865  1
  Ta  Ta5  1  0.989889  0.495101  0.780866  1
  Ta  Ta6  1  0.494903  0.504923  0.219139  1
  Ta  Ta7  1  0.000032  0.000158  0.780512  1
  Ta  Ta8  1  0.999968  0.999842  0.219488  1
  Mn  Mn9  1  0.000000  0.000000  0.000000  1
  S  S10  1  0.831583  0.168181  0.327578  1
  S  S11  1  0.831598  0.663002  0.327595  1
  S  S12  1  0.336703  0.168136  0.327595  1
  S  S13  1  0.663429  0.831799  0.888804  1
  S  S14  1  0.168402  0.336998  0.672405  1
  S  S15  1  0.168242  0.831789  0.888808  1
  S  S16  1  0.168284  0.336683  0.888797  1
  S  S17  1  0.831758  0.168211  0.111192  1
  S  S18  1  0.336571  0.168201  0.111196  1
  S  S19  1  0.663297  0.831864  0.672405  1
  S  S20  1  0.333313  0.666554  0.108808  1
  S  S21  1  0.666736  0.333672  0.668327  1
  S  S22  1  0.666687  0.333446  0.891192  1
  S  S23  1  0.333264  0.666328  0.331673  1
  S  S24  1  0.831716  0.663317  0.111203  1
  S  S25  1  0.168417  0.831819  0.672422  1
