# generated using pymatgen
data_Nb12Al9CrCoPdC4
_symmetry_space_group_name_H-M   'P 1'
_cell_length_a   8.29341548
_cell_length_b   8.29341667
_cell_length_c   8.32962800
_cell_angle_alpha   60.07287295
_cell_angle_beta   60.07287619
_cell_angle_gamma   59.96937619
_symmetry_Int_Tables_number   1
_chemical_formula_structural   Nb12Al9CrCoPdC4
_chemical_formula_sum   'Nb12 Al9 Cr1 Co1 Pd1 C4'
_cell_volume   405.46575521
_cell_formula_units_Z   1
loop_
 _symmetry_equiv_pos_site_id
 _symmetry_equiv_pos_as_xyz
  1  'x, y, z'
loop_
 _atom_site_type_symbol
 _atom_site_label
 _atom_site_symmetry_multiplicity
 _atom_site_fract_x
 _atom_site_fract_y
 _atom_site_fract_z
 _atom_site_occupancy
  Nb  Nb0  1  0.699669  0.309842  0.679166  1
  Nb  Nb1  1  0.941913  0.550698  0.566837  1
  Nb  Nb2  1  0.559512  0.937720  0.934849  1
  Nb  Nb3  1  0.939766  0.559766  0.936970  1
  Nb  Nb4  1  0.563276  0.567755  0.933869  1
  Nb  Nb5  1  0.942588  0.942786  0.563095  1
  Nb  Nb6  1  0.686724  0.682245  0.316131  1
  Nb  Nb7  1  0.308087  0.699302  0.683163  1
  Nb  Nb8  1  0.690488  0.312280  0.315151  1
  Nb  Nb9  1  0.307412  0.307214  0.686905  1
  Nb  Nb10  1  0.550331  0.940158  0.570834  1
  Nb  Nb11  1  0.310234  0.690234  0.313030  1
  Al  Al12  1  0.125000  0.125000  0.125000  1
  Al  Al13  1  0.330026  0.341406  0.330638  1
  Al  Al14  1  0.245727  0.905906  0.918452  1
  Al  Al15  1  0.912835  0.250490  0.912373  1
  Al  Al16  1  0.913547  0.901130  0.259161  1
  Al  Al17  1  0.337165  0.999510  0.337627  1
  Al  Al18  1  0.336453  0.348870  0.990839  1
  Al  Al19  1  0.004273  0.344094  0.331548  1
  Al  Al20  1  0.919974  0.908594  0.919362  1
  Cr  Cr21  1  0.125000  0.125000  0.625000  1
  Co  Co22  1  0.125000  0.625000  0.125000  1
  Pd  Pd23  1  0.625000  0.125000  0.125000  1
  C  C24  1  0.625000  0.625000  0.625000  1
  C  C25  1  0.125000  0.625000  0.625000  1
  C  C26  1  0.625000  0.125000  0.625000  1
  C  C27  1  0.625000  0.625000  0.125000  1
