# generated using pymatgen
data_GaSi6Ag6(GeP4)3
_symmetry_space_group_name_H-M   'P 1'
_cell_length_a   8.90787832
_cell_length_b   8.84570452
_cell_length_c   8.90787845
_cell_angle_alpha   109.32989585
_cell_angle_beta   109.61218896
_cell_angle_gamma   109.32989370
_symmetry_Int_Tables_number   1
_chemical_formula_structural   GaSi6Ag6(GeP4)3
_chemical_formula_sum   'Ga1 Si6 Ag6 Ge3 P12'
_cell_volume   541.26946895
_cell_formula_units_Z   1
loop_
 _symmetry_equiv_pos_site_id
 _symmetry_equiv_pos_as_xyz
  1  'x, y, z'
loop_
 _atom_site_type_symbol
 _atom_site_label
 _atom_site_symmetry_multiplicity
 _atom_site_fract_x
 _atom_site_fract_y
 _atom_site_fract_z
 _atom_site_occupancy
  Ga  Ga0  1  0.000000  0.410844  0.000000  1
  Si  Si1  1  0.499942  0.251269  0.751448  1
  Si  Si2  1  0.500058  0.751327  0.251506  1
  Si  Si3  1  0.748496  0.499820  0.248554  1
  Si  Si4  1  0.251506  0.751327  0.500058  1
  Si  Si5  1  0.248554  0.499820  0.748496  1
  Si  Si6  1  0.751448  0.251269  0.499942  1
  Ag  Ag7  1  0.000000  0.203859  0.199236  1
  Ag  Ag8  1  0.000000  0.797770  0.798468  1
  Ag  Ag9  1  0.201532  0.999302  0.201532  1
  Ag  Ag10  1  0.199236  0.203859  0.000000  1
  Ag  Ag11  1  0.800764  0.004622  0.800764  1
  Ag  Ag12  1  0.798468  0.797770  0.000000  1
  Ge  Ge13  1  0.584364  0.585166  0.584364  1
  Ge  Ge14  1  0.000000  0.000801  0.415636  1
  Ge  Ge15  1  0.415636  0.000801  0.000000  1
  P  P16  1  0.498703  0.498491  0.261457  1
  P  P17  1  0.237245  0.237033  0.738542  1
  P  P18  1  0.500286  0.760854  0.000000  1
  P  P19  1  0.760287  0.499254  0.000000  1
  P  P20  1  0.261457  0.498491  0.498703  1
  P  P21  1  0.499713  0.260568  0.499713  1
  P  P22  1  0.000000  0.760854  0.500286  1
  P  P23  1  0.239711  0.738967  0.239711  1
  P  P24  1  0.738542  0.237033  0.237245  1
  P  P25  1  0.762753  0.999788  0.501296  1
  P  P26  1  0.000000  0.499254  0.760287  1
  P  P27  1  0.501296  0.999788  0.762753  1
