# generated using pymatgen
data_La4LuMo3O14
_symmetry_space_group_name_H-M   'P 1'
_cell_length_a   7.59810574
_cell_length_b   7.59810655
_cell_length_c   7.59810651
_cell_angle_alpha   60.26631867
_cell_angle_beta   60.26631547
_cell_angle_gamma   60.26631614
_symmetry_Int_Tables_number   1
_chemical_formula_structural   La4LuMo3O14
_chemical_formula_sum   'La4 Lu1 Mo3 O14'
_cell_volume   312.04059266
_cell_formula_units_Z   1
loop_
 _symmetry_equiv_pos_site_id
 _symmetry_equiv_pos_as_xyz
  1  'x, y, z'
loop_
 _atom_site_type_symbol
 _atom_site_label
 _atom_site_symmetry_multiplicity
 _atom_site_fract_x
 _atom_site_fract_y
 _atom_site_fract_z
 _atom_site_occupancy
  La  La0  1  0.625000  0.125000  0.125000  1
  La  La1  1  0.125000  0.125000  0.125000  1
  La  La2  1  0.125000  0.625000  0.125000  1
  La  La3  1  0.125000  0.125000  0.625000  1
  Lu  Lu4  1  0.625000  0.625000  0.625000  1
  Mo  Mo5  1  0.625000  0.625000  0.125000  1
  Mo  Mo6  1  0.625000  0.125000  0.625000  1
  Mo  Mo7  1  0.125000  0.625000  0.625000  1
  O  O8  1  0.709667  0.301120  0.301120  1
  O  O9  1  0.714282  0.714282  0.274233  1
  O  O10  1  0.301120  0.709667  0.301120  1
  O  O11  1  0.000856  0.000856  0.000856  1
  O  O12  1  0.714282  0.274233  0.714282  1
  O  O13  1  0.975767  0.535718  0.535718  1
  O  O14  1  0.274233  0.714282  0.714282  1
  O  O15  1  0.535718  0.975767  0.535718  1
  O  O16  1  0.249144  0.249144  0.249144  1
  O  O17  1  0.948880  0.540333  0.948880  1
  O  O18  1  0.535718  0.535718  0.975767  1
  O  O19  1  0.948880  0.948880  0.540333  1
  O  O20  1  0.540333  0.948880  0.948880  1
  O  O21  1  0.301120  0.301120  0.709667  1
