# generated using pymatgen
data_Y(ThPt4)3
_symmetry_space_group_name_H-M   'P 1'
_cell_length_a   5.95435200
_cell_length_b   5.95435092
_cell_length_c   9.77245800
_cell_angle_alpha   90.00000000
_cell_angle_beta   90.00000000
_cell_angle_gamma   119.99998379
_symmetry_Int_Tables_number   1
_chemical_formula_structural   Y(ThPt4)3
_chemical_formula_sum   'Y1 Th3 Pt12'
_cell_volume   300.05678131
_cell_formula_units_Z   1
loop_
 _symmetry_equiv_pos_site_id
 _symmetry_equiv_pos_as_xyz
  1  'x, y, z'
loop_
 _atom_site_type_symbol
 _atom_site_label
 _atom_site_symmetry_multiplicity
 _atom_site_fract_x
 _atom_site_fract_y
 _atom_site_fract_z
 _atom_site_occupancy
  Y  Y0  1  0.000000  0.000000  0.500000  1
  Th  Th1  1  0.000000  0.000000  0.000000  1
  Th  Th2  1  0.333333  0.666667  0.253555  1
  Th  Th3  1  0.666667  0.333333  0.746445  1
  Pt  Pt4  1  0.500000  0.500000  0.500000  1
  Pt  Pt5  1  0.500000  0.000000  0.500000  1
  Pt  Pt6  1  0.000000  0.500000  0.500000  1
  Pt  Pt7  1  0.500000  0.500000  0.000000  1
  Pt  Pt8  1  0.500000  0.000000  0.000000  1
  Pt  Pt9  1  0.000000  0.500000  0.000000  1
  Pt  Pt10  1  0.824945  0.649888  0.250859  1
  Pt  Pt11  1  0.350112  0.175055  0.250859  1
  Pt  Pt12  1  0.824945  0.175055  0.250859  1
  Pt  Pt13  1  0.175055  0.350112  0.749141  1
  Pt  Pt14  1  0.649888  0.824945  0.749141  1
  Pt  Pt15  1  0.175055  0.824945  0.749141  1
