# generated using pymatgen
data_Nd6YFeO12
_symmetry_space_group_name_H-M   'P 1'
_cell_length_a   6.86936579
_cell_length_b   6.86936660
_cell_length_c   6.86936534
_cell_angle_alpha   93.64714992
_cell_angle_beta   93.64715041
_cell_angle_gamma   93.64715114
_symmetry_Int_Tables_number   1
_chemical_formula_structural   Nd6YFeO12
_chemical_formula_sum   'Nd6 Y1 Fe1 O12'
_cell_volume   322.09545380
_cell_formula_units_Z   1
loop_
 _symmetry_equiv_pos_site_id
 _symmetry_equiv_pos_as_xyz
  1  'x, y, z'
loop_
 _atom_site_type_symbol
 _atom_site_label
 _atom_site_symmetry_multiplicity
 _atom_site_fract_x
 _atom_site_fract_y
 _atom_site_fract_z
 _atom_site_occupancy
  Nd  Nd0  1  0.738185  0.923341  0.435195  1
  Nd  Nd1  1  0.435195  0.738185  0.923341  1
  Nd  Nd2  1  0.076659  0.564805  0.261815  1
  Nd  Nd3  1  0.923341  0.435195  0.738185  1
  Nd  Nd4  1  0.564805  0.261815  0.076659  1
  Nd  Nd5  1  0.261815  0.076659  0.564805  1
  Y  Y6  1  0.000000  0.000000  0.000000  1
  Fe  Fe7  1  0.500000  0.500000  0.500000  1
  O  O8  1  0.064794  0.910786  0.313063  1
  O  O9  1  0.686937  0.935206  0.089214  1
  O  O10  1  0.460232  0.792755  0.585076  1
  O  O11  1  0.089214  0.686937  0.935206  1
  O  O12  1  0.792755  0.585076  0.460232  1
  O  O13  1  0.414924  0.539768  0.207245  1
  O  O14  1  0.585076  0.460232  0.792755  1
  O  O15  1  0.207245  0.414924  0.539768  1
  O  O16  1  0.910786  0.313063  0.064794  1
  O  O17  1  0.539768  0.207245  0.414924  1
  O  O18  1  0.313063  0.064794  0.910786  1
  O  O19  1  0.935206  0.089214  0.686937  1
