# generated using pymatgen
data_TbHo15(TmSn4)4
_symmetry_space_group_name_H-M   'P 1'
_cell_length_a   7.97534089
_cell_length_b   8.12244746
_cell_length_c   15.37916100
_cell_angle_alpha   90.00541748
_cell_angle_beta   89.97285841
_cell_angle_gamma   89.98142937
_symmetry_Int_Tables_number   1
_chemical_formula_structural   TbHo15(TmSn4)4
_chemical_formula_sum   'Tb1 Ho15 Tm4 Sn16'
_cell_volume   996.25092210
_cell_formula_units_Z   1
loop_
 _symmetry_equiv_pos_site_id
 _symmetry_equiv_pos_as_xyz
  1  'x, y, z'
loop_
 _atom_site_type_symbol
 _atom_site_label
 _atom_site_symmetry_multiplicity
 _atom_site_fract_x
 _atom_site_fract_y
 _atom_site_fract_z
 _atom_site_occupancy
  Tb  Tb0  1  0.020269  0.179679  0.902977  1
  Ho  Ho1  1  0.367267  0.836820  0.877802  1
  Ho  Ho2  1  0.867313  0.663163  0.622065  1
  Ho  Ho3  1  0.632610  0.163081  0.377684  1
  Ho  Ho4  1  0.132791  0.336935  0.122421  1
  Ho  Ho5  1  0.632821  0.163107  0.122415  1
  Ho  Ho6  1  0.132634  0.336908  0.377699  1
  Ho  Ho7  1  0.367358  0.836854  0.622122  1
  Ho  Ho8  1  0.867278  0.663146  0.877846  1
  Ho  Ho9  1  0.520662  0.320587  0.902887  1
  Ho  Ho10  1  0.020799  0.179565  0.597199  1
  Ho  Ho11  1  0.479344  0.679588  0.402713  1
  Ho  Ho12  1  0.979439  0.820349  0.097297  1
  Ho  Ho13  1  0.479397  0.679581  0.097284  1
  Ho  Ho14  1  0.979309  0.820442  0.402732  1
  Ho  Ho15  1  0.520706  0.320521  0.597026  1
  Tm  Tm16  1  0.198302  0.503023  0.749864  1
  Tm  Tm17  1  0.698111  0.996922  0.749826  1
  Tm  Tm18  1  0.801842  0.497038  0.250088  1
  Tm  Tm19  1  0.301883  0.002938  0.250077  1
  Sn  Sn20  1  0.293474  0.035400  0.042600  1
  Sn  Sn21  1  0.792765  0.464052  0.457783  1
  Sn  Sn22  1  0.707229  0.964369  0.542004  1
  Sn  Sn23  1  0.207538  0.536450  0.958132  1
  Sn  Sn24  1  0.706232  0.963374  0.958285  1
  Sn  Sn25  1  0.207192  0.535823  0.541971  1
  Sn  Sn26  1  0.292827  0.035878  0.457814  1
  Sn  Sn27  1  0.792815  0.464091  0.042201  1
  Sn  Sn28  1  0.564552  0.618479  0.749983  1
  Sn  Sn29  1  0.064400  0.881247  0.749953  1
  Sn  Sn30  1  0.435586  0.381548  0.250059  1
  Sn  Sn31  1  0.935774  0.118593  0.250090  1
  Sn  Sn32  1  0.330681  0.148787  0.749786  1
  Sn  Sn33  1  0.829634  0.351493  0.749359  1
  Sn  Sn34  1  0.669651  0.851062  0.249963  1
  Sn  Sn35  1  0.169514  0.649104  0.249993  1
