# generated using pymatgen
data_Tb3YVFe3B16
_symmetry_space_group_name_H-M   'P 1'
_cell_length_a   3.41009800
_cell_length_b   5.93354647
_cell_length_c   11.48636309
_cell_angle_alpha   90.10541201
_cell_angle_beta   90.00000000
_cell_angle_gamma   90.00000000
_symmetry_Int_Tables_number   1
_chemical_formula_structural   Tb3YVFe3B16
_chemical_formula_sum   'Tb3 Y1 V1 Fe3 B16'
_cell_volume   232.41438966
_cell_formula_units_Z   1
loop_
 _symmetry_equiv_pos_site_id
 _symmetry_equiv_pos_as_xyz
  1  'x, y, z'
loop_
 _atom_site_type_symbol
 _atom_site_label
 _atom_site_symmetry_multiplicity
 _atom_site_fract_x
 _atom_site_fract_y
 _atom_site_fract_z
 _atom_site_occupancy
  Tb  Tb0  1  0.500000  0.373730  0.147601  1
  Tb  Tb1  1  0.500000  0.626744  0.851601  1
  Tb  Tb2  1  0.500000  0.123206  0.653366  1
  Y  Y3  1  0.500000  0.874440  0.346021  1
  V  V4  1  0.500000  0.373570  0.417287  1
  Fe  Fe5  1  0.500000  0.623950  0.583779  1
  Fe  Fe6  1  0.500000  0.134317  0.911200  1
  Fe  Fe7  1  0.500000  0.867573  0.085779  1
  B  B8  1  0.000000  0.111368  0.044999  1
  B  B9  1  0.000000  0.888911  0.953932  1
  B  B10  1  0.000000  0.390315  0.549337  1
  B  B11  1  0.000000  0.616692  0.455996  1
  B  B12  1  0.000000  0.134498  0.469434  1
  B  B13  1  0.000000  0.861105  0.534113  1
  B  B14  1  0.000000  0.360381  0.967688  1
  B  B15  1  0.000000  0.640378  0.031855  1
  B  B16  1  0.000000  0.023478  0.188670  1
  B  B17  1  0.000000  0.974595  0.810617  1
  B  B18  1  0.000000  0.477082  0.691986  1
  B  B19  1  0.000000  0.527423  0.307659  1
  B  B20  1  0.000000  0.214821  0.313446  1
  B  B21  1  0.000000  0.779759  0.683910  1
  B  B22  1  0.000000  0.281187  0.817216  1
  B  B23  1  0.000000  0.720473  0.182509  1
