# generated using pymatgen
data_Sm3In3HgPt2
_symmetry_space_group_name_H-M   'P 1'
_cell_length_a   7.79184000
_cell_length_b   7.79184017
_cell_length_c   4.07694700
_cell_angle_alpha   90.00000000
_cell_angle_beta   90.00000000
_cell_angle_gamma   120.00000777
_symmetry_Int_Tables_number   1
_chemical_formula_structural   Sm3In3HgPt2
_chemical_formula_sum   'Sm3 In3 Hg1 Pt2'
_cell_volume   214.36097555
_cell_formula_units_Z   1
loop_
 _symmetry_equiv_pos_site_id
 _symmetry_equiv_pos_as_xyz
  1  'x, y, z'
loop_
 _atom_site_type_symbol
 _atom_site_label
 _atom_site_symmetry_multiplicity
 _atom_site_fract_x
 _atom_site_fract_y
 _atom_site_fract_z
 _atom_site_occupancy
  Sm  Sm0  1  0.412230  0.018198  0.000000  1
  Sm  Sm1  1  0.981802  0.394032  0.000000  1
  Sm  Sm2  1  0.605968  0.587770  0.000000  1
  In  In3  1  0.750390  0.003211  0.500000  1
  In  In4  1  0.996789  0.747179  0.500000  1
  In  In5  1  0.252821  0.249610  0.500000  1
  Hg  Hg6  1  0.333333  0.666667  0.500000  1
  Pt  Pt7  1  0.666667  0.333333  0.500000  1
  Pt  Pt8  1  0.000000  0.000000  0.000000  1
