# generated using pymatgen
data_LaPr5TcBr10
_symmetry_space_group_name_H-M   'P 1'
_cell_length_a   7.78808796
_cell_length_b   9.49663799
_cell_length_c   9.72617886
_cell_angle_alpha   108.21797823
_cell_angle_beta   96.82382667
_cell_angle_gamma   105.46627741
_symmetry_Int_Tables_number   1
_chemical_formula_structural   LaPr5TcBr10
_chemical_formula_sum   'La1 Pr5 Tc1 Br10'
_cell_volume   642.29057966
_cell_formula_units_Z   1
loop_
 _symmetry_equiv_pos_site_id
 _symmetry_equiv_pos_as_xyz
  1  'x, y, z'
loop_
 _atom_site_type_symbol
 _atom_site_label
 _atom_site_symmetry_multiplicity
 _atom_site_fract_x
 _atom_site_fract_y
 _atom_site_fract_z
 _atom_site_occupancy
  La  La0  1  0.532136  0.218013  0.414611  1
  Pr  Pr1  1  0.465742  0.790723  0.587817  1
  Pr  Pr2  1  0.128058  0.354829  0.311153  1
  Pr  Pr3  1  0.872086  0.644198  0.688732  1
  Pr  Pr4  1  0.629345  0.550348  0.252342  1
  Pr  Pr5  1  0.372316  0.449182  0.748165  1
  Tc  Tc6  1  0.503722  0.482609  0.495067  1
  Br  Br7  1  0.146363  0.042665  0.226045  1
  Br  Br8  1  0.842794  0.955259  0.769605  1
  Br  Br9  1  0.253074  0.417926  0.048740  1
  Br  Br10  1  0.748265  0.584639  0.952484  1
  Br  Br11  1  0.707131  0.247701  0.151056  1
  Br  Br12  1  0.297449  0.756070  0.844251  1
  Br  Br13  1  0.049842  0.676413  0.420393  1
  Br  Br14  1  0.956676  0.327952  0.582989  1
  Br  Br15  1  0.410661  0.132191  0.676347  1
  Br  Br16  1  0.584340  0.869282  0.330203  1
