# generated using pymatgen
data_Sm4Pa(BN3)2
_symmetry_space_group_name_H-M   'P 1'
_cell_length_a   6.31328467
_cell_length_b   6.31328348
_cell_length_c   8.71919325
_cell_angle_alpha   74.12927096
_cell_angle_beta   74.12927529
_cell_angle_gamma   32.37238512
_symmetry_Int_Tables_number   1
_chemical_formula_structural   Sm4Pa(BN3)2
_chemical_formula_sum   'Sm4 Pa1 B2 N6'
_cell_volume   178.36881407
_cell_formula_units_Z   1
loop_
 _symmetry_equiv_pos_site_id
 _symmetry_equiv_pos_as_xyz
  1  'x, y, z'
loop_
 _atom_site_type_symbol
 _atom_site_label
 _atom_site_symmetry_multiplicity
 _atom_site_fract_x
 _atom_site_fract_y
 _atom_site_fract_z
 _atom_site_occupancy
  Sm  Sm0  1  0.623314  0.623314  0.621401  1
  Sm  Sm1  1  0.309144  0.309144  0.813341  1
  Sm  Sm2  1  0.690856  0.690856  0.186659  1
  Sm  Sm3  1  0.376686  0.376686  0.378599  1
  Pa  Pa4  1  0.000000  0.000000  0.000000  1
  B  B5  1  0.055023  0.055023  0.409193  1
  B  B6  1  0.944977  0.944977  0.590807  1
  N  N7  1  0.026859  0.026859  0.251272  1
  N  N8  1  0.361508  0.361508  0.075511  1
  N  N9  1  0.822608  0.822608  0.593721  1
  N  N10  1  0.973141  0.973141  0.748728  1
  N  N11  1  0.638492  0.638492  0.924489  1
  N  N12  1  0.177392  0.177392  0.406279  1
