# generated using pymatgen
data_Sr2Eu2TmPt4
_symmetry_space_group_name_H-M   'P 1'
_cell_length_a   7.87912600
_cell_length_b   8.00943500
_cell_length_c   15.21307100
_cell_angle_alpha   90.00000000
_cell_angle_beta   90.00000000
_cell_angle_gamma   90.00000000
_symmetry_Int_Tables_number   1
_chemical_formula_structural   Sr2Eu2TmPt4
_chemical_formula_sum   'Sr8 Eu8 Tm4 Pt16'
_cell_volume   960.05655896
_cell_formula_units_Z   4
loop_
 _symmetry_equiv_pos_site_id
 _symmetry_equiv_pos_as_xyz
  1  'x, y, z'
loop_
 _atom_site_type_symbol
 _atom_site_label
 _atom_site_symmetry_multiplicity
 _atom_site_fract_x
 _atom_site_fract_y
 _atom_site_fract_z
 _atom_site_occupancy
  Sr  Sr0  1  0.495829  0.323381  0.904044  1
  Sr  Sr1  1  0.995829  0.176619  0.595956  1
  Sr  Sr2  1  0.504171  0.676619  0.404044  1
  Sr  Sr3  1  0.004171  0.823381  0.095956  1
  Sr  Sr4  1  0.499699  0.677218  0.095036  1
  Sr  Sr5  1  0.999699  0.822782  0.404964  1
  Sr  Sr6  1  0.500301  0.322782  0.595036  1
  Sr  Sr7  1  0.000301  0.177218  0.904964  1
  Eu  Eu8  1  0.662010  0.166677  0.120678  1
  Eu  Eu9  1  0.162010  0.333323  0.379322  1
  Eu  Eu10  1  0.337990  0.833323  0.620679  1
  Eu  Eu11  1  0.837990  0.666677  0.879321  1
  Eu  Eu12  1  0.178241  0.492238  0.750162  1
  Eu  Eu13  1  0.678241  0.007762  0.749838  1
  Eu  Eu14  1  0.821759  0.507762  0.250162  1
  Eu  Eu15  1  0.321759  0.992238  0.249838  1
  Tm  Tm16  1  0.338598  0.833695  0.876210  1
  Tm  Tm17  1  0.838598  0.666305  0.623790  1
  Tm  Tm18  1  0.661402  0.166305  0.376211  1
  Tm  Tm19  1  0.161402  0.333695  0.123789  1
  Pt  Pt20  1  0.324240  0.046127  0.039371  1
  Pt  Pt21  1  0.824240  0.453873  0.460629  1
  Pt  Pt22  1  0.675760  0.953873  0.539371  1
  Pt  Pt23  1  0.175760  0.546127  0.960629  1
  Pt  Pt24  1  0.646216  0.959494  0.953844  1
  Pt  Pt25  1  0.146216  0.540506  0.546156  1
  Pt  Pt26  1  0.353784  0.040506  0.453844  1
  Pt  Pt27  1  0.853784  0.459494  0.046156  1
  Pt  Pt28  1  0.547219  0.635274  0.750830  1
  Pt  Pt29  1  0.047219  0.864726  0.749170  1
  Pt  Pt30  1  0.452781  0.364726  0.250830  1
  Pt  Pt31  1  0.952781  0.135274  0.249170  1
  Pt  Pt32  1  0.297965  0.115260  0.755486  1
  Pt  Pt33  1  0.797965  0.384740  0.744514  1
  Pt  Pt34  1  0.702035  0.884740  0.255486  1
  Pt  Pt35  1  0.202035  0.615260  0.244514  1
