# generated using pymatgen
data_Pa2AlZn16
_symmetry_space_group_name_H-M   'P 1'
_cell_length_a   6.80385809
_cell_length_b   6.80385606
_cell_length_c   6.80385612
_cell_angle_alpha   82.73238000
_cell_angle_beta   82.73238608
_cell_angle_gamma   82.73236259
_symmetry_Int_Tables_number   1
_chemical_formula_structural   Pa2AlZn16
_chemical_formula_sum   'Pa2 Al1 Zn16'
_cell_volume   307.96638343
_cell_formula_units_Z   1
loop_
 _symmetry_equiv_pos_site_id
 _symmetry_equiv_pos_as_xyz
  1  'x, y, z'
loop_
 _atom_site_type_symbol
 _atom_site_label
 _atom_site_symmetry_multiplicity
 _atom_site_fract_x
 _atom_site_fract_y
 _atom_site_fract_z
 _atom_site_occupancy
  Pa  Pa0  1  0.662693  0.662693  0.662693  1
  Pa  Pa1  1  0.336632  0.336632  0.336632  1
  Al  Al2  1  0.099620  0.099620  0.099620  1
  Zn  Zn3  1  0.353026  0.838216  0.353026  1
  Zn  Zn4  1  0.353026  0.353026  0.838216  1
  Zn  Zn5  1  0.838216  0.353026  0.353026  1
  Zn  Zn6  1  0.647722  0.161755  0.647722  1
  Zn  Zn7  1  0.647722  0.647722  0.161755  1
  Zn  Zn8  1  0.161755  0.647722  0.647722  1
  Zn  Zn9  1  0.299761  0.700488  0.000031  1
  Zn  Zn10  1  0.000031  0.299761  0.700488  1
  Zn  Zn11  1  0.700488  0.000031  0.299761  1
  Zn  Zn12  1  0.000031  0.700488  0.299761  1
  Zn  Zn13  1  0.299761  0.000031  0.700488  1
  Zn  Zn14  1  0.700488  0.299761  0.000031  1
  Zn  Zn15  1  0.999110  0.999110  0.502330  1
  Zn  Zn16  1  0.502330  0.999110  0.999110  1
  Zn  Zn17  1  0.999110  0.502330  0.999110  1
  Zn  Zn18  1  0.898478  0.898478  0.898478  1
