# generated using pymatgen
data_Er8In2IrPt
_symmetry_space_group_name_H-M   'P 1'
_cell_length_a   9.61379651
_cell_length_b   9.61054779
_cell_length_c   9.61054820
_cell_angle_alpha   59.95060789
_cell_angle_beta   59.98881310
_cell_angle_gamma   59.98882212
_symmetry_Int_Tables_number   1
_chemical_formula_structural   Er8In2IrPt
_chemical_formula_sum   'Er16 In4 Ir2 Pt2'
_cell_volume   627.53865733
_cell_formula_units_Z   2
loop_
 _symmetry_equiv_pos_site_id
 _symmetry_equiv_pos_as_xyz
  1  'x, y, z'
loop_
 _atom_site_type_symbol
 _atom_site_label
 _atom_site_symmetry_multiplicity
 _atom_site_fract_x
 _atom_site_fract_y
 _atom_site_fract_z
 _atom_site_occupancy
  Er  Er0  1  0.193240  0.187101  0.809629  1
  Er  Er1  1  0.439900  0.060100  0.060100  1
  Er  Er2  1  0.437052  0.061684  0.440400  1
  Er  Er3  1  0.060863  0.440400  0.061684  1
  Er  Er4  1  0.648987  0.049214  0.652812  1
  Er  Er5  1  0.189366  0.810634  0.810634  1
  Er  Er6  1  0.060863  0.061684  0.440400  1
  Er  Er7  1  0.809089  0.190911  0.190911  1
  Er  Er8  1  0.810030  0.809629  0.187101  1
  Er  Er9  1  0.648987  0.652812  0.049214  1
  Er  Er10  1  0.646314  0.651225  0.651225  1
  Er  Er11  1  0.062070  0.437930  0.437930  1
  Er  Er12  1  0.051238  0.651225  0.651225  1
  Er  Er13  1  0.810030  0.187101  0.809629  1
  Er  Er14  1  0.437052  0.440400  0.061684  1
  Er  Er15  1  0.193240  0.809629  0.187101  1
  In  In16  1  0.417165  0.749319  0.416351  1
  In  In17  1  0.417165  0.416351  0.749319  1
  In  In18  1  0.750473  0.416429  0.416429  1
  In  In19  1  0.416669  0.416429  0.416429  1
  Ir  Ir20  1  0.425926  0.857881  0.857881  1
  Ir  Ir21  1  0.858311  0.857881  0.857881  1
  Pt  Pt22  1  0.857985  0.426641  0.857389  1
  Pt  Pt23  1  0.857985  0.857389  0.426641  1
