# generated using pymatgen
data_Tb3Dy4Y(ReB6)4
_symmetry_space_group_name_H-M   'P 1'
_cell_length_a   3.69045600
_cell_length_b   9.18820700
_cell_length_c   11.57967300
_cell_angle_alpha   90.00236736
_cell_angle_beta   90.00000000
_cell_angle_gamma   90.00000000
_symmetry_Int_Tables_number   1
_chemical_formula_structural   Tb3Dy4Y(ReB6)4
_chemical_formula_sum   'Tb3 Dy4 Y1 Re4 B24'
_cell_volume   392.65135259
_cell_formula_units_Z   1
loop_
 _symmetry_equiv_pos_site_id
 _symmetry_equiv_pos_as_xyz
  1  'x, y, z'
loop_
 _atom_site_type_symbol
 _atom_site_label
 _atom_site_symmetry_multiplicity
 _atom_site_fract_x
 _atom_site_fract_y
 _atom_site_fract_z
 _atom_site_occupancy
  Tb  Tb0  1  0.000000  0.676254  0.586087  1
  Tb  Tb1  1  0.000000  0.823777  0.086110  1
  Tb  Tb2  1  0.000000  0.176254  0.913885  1
  Dy  Dy3  1  0.000000  0.943180  0.370027  1
  Dy  Dy4  1  0.000000  0.056835  0.629986  1
  Dy  Dy5  1  0.000000  0.443147  0.130035  1
  Dy  Dy6  1  0.000000  0.556841  0.869964  1
  Y  Y7  1  0.000000  0.323732  0.413964  1
  Re  Re8  1  0.000000  0.638714  0.320763  1
  Re  Re9  1  0.000000  0.361277  0.679149  1
  Re  Re10  1  0.000000  0.138757  0.179291  1
  Re  Re11  1  0.000000  0.861263  0.820781  1
  B  B12  1  0.500000  0.553477  0.432663  1
  B  B13  1  0.500000  0.446556  0.567315  1
  B  B14  1  0.500000  0.053520  0.067373  1
  B  B15  1  0.500000  0.946501  0.932626  1
  B  B16  1  0.500000  0.748957  0.418322  1
  B  B17  1  0.500000  0.250989  0.581599  1
  B  B18  1  0.500000  0.248977  0.081657  1
  B  B19  1  0.500000  0.751033  0.918339  1
  B  B20  1  0.500000  0.791970  0.265813  1
  B  B21  1  0.500000  0.208044  0.734197  1
  B  B22  1  0.500000  0.292027  0.234212  1
  B  B23  1  0.500000  0.708066  0.765802  1
  B  B24  1  0.500000  0.631089  0.186000  1
  B  B25  1  0.500000  0.368888  0.814024  1
  B  B26  1  0.500000  0.131094  0.314058  1
  B  B27  1  0.500000  0.868906  0.685965  1
  B  B28  1  0.500000  0.982848  0.212032  1
  B  B29  1  0.500000  0.017124  0.787960  1
  B  B30  1  0.500000  0.482778  0.287989  1
  B  B31  1  0.500000  0.517109  0.712028  1
  B  B32  1  0.500000  0.600124  0.028020  1
  B  B33  1  0.500000  0.399851  0.971983  1
  B  B34  1  0.500000  0.100230  0.471954  1
  B  B35  1  0.500000  0.899811  0.528026  1
