# generated using pymatgen
data_Sm7DyZn2(Si6Rh)2
_symmetry_space_group_name_H-M   'P 1'
_cell_length_a   8.17607903
_cell_length_b   8.17907603
_cell_length_c   8.33144922
_cell_angle_alpha   90.00000147
_cell_angle_beta   89.94593644
_cell_angle_gamma   120.01211313
_symmetry_Int_Tables_number   1
_chemical_formula_structural   Sm7DyZn2(Si6Rh)2
_chemical_formula_sum   'Sm7 Dy1 Zn2 Si12 Rh2'
_cell_volume   482.44435421
_cell_formula_units_Z   1
loop_
 _symmetry_equiv_pos_site_id
 _symmetry_equiv_pos_as_xyz
  1  'x, y, z'
loop_
 _atom_site_type_symbol
 _atom_site_label
 _atom_site_symmetry_multiplicity
 _atom_site_fract_x
 _atom_site_fract_y
 _atom_site_fract_z
 _atom_site_occupancy
  Sm  Sm0  1  0.000119  0.000060  0.246643  1
  Sm  Sm1  1  0.999810  0.999905  0.752314  1
  Sm  Sm2  1  0.501942  0.497999  0.243204  1
  Sm  Sm3  1  0.501942  0.003944  0.243204  1
  Sm  Sm4  1  0.995982  0.497991  0.242917  1
  Sm  Sm5  1  0.497738  0.502219  0.756425  1
  Sm  Sm6  1  0.497738  0.995517  0.756425  1
  Dy  Dy7  1  0.004444  0.502221  0.759428  1
  Zn  Zn8  1  0.332316  0.666158  0.489741  1
  Zn  Zn9  1  0.667896  0.333947  0.518966  1
  Si  Si10  1  0.165762  0.833331  0.506423  1
  Si  Si11  1  0.165762  0.332433  0.506423  1
  Si  Si12  1  0.667466  0.833734  0.504528  1
  Si  Si13  1  0.833753  0.166461  0.494903  1
  Si  Si14  1  0.833753  0.667292  0.494903  1
  Si  Si15  1  0.332801  0.166400  0.494266  1
  Si  Si16  1  0.833144  0.167402  0.995780  1
  Si  Si17  1  0.833144  0.665743  0.995780  1
  Si  Si18  1  0.334693  0.167346  0.996588  1
  Si  Si19  1  0.166987  0.832739  0.001614  1
  Si  Si20  1  0.166987  0.334250  0.001614  1
  Si  Si21  1  0.665597  0.832799  0.002425  1
  Rh  Rh22  1  0.667837  0.333917  0.994197  1
  Rh  Rh23  1  0.332389  0.666195  0.001289  1
