# generated using pymatgen
data_Ba3Er2ReO9
_symmetry_space_group_name_H-M   'P 1'
_cell_length_a   6.03572312
_cell_length_b   8.56703642
_cell_length_c   10.46304571
_cell_angle_alpha   65.83317008
_cell_angle_beta   73.23598270
_cell_angle_gamma   89.99999793
_symmetry_Int_Tables_number   1
_chemical_formula_structural   Ba3Er2ReO9
_chemical_formula_sum   'Ba6 Er4 Re2 O18'
_cell_volume   468.29334450
_cell_formula_units_Z   2
loop_
 _symmetry_equiv_pos_site_id
 _symmetry_equiv_pos_as_xyz
  1  'x, y, z'
loop_
 _atom_site_type_symbol
 _atom_site_label
 _atom_site_symmetry_multiplicity
 _atom_site_fract_x
 _atom_site_fract_y
 _atom_site_fract_z
 _atom_site_occupancy
  Ba  Ba0  1  0.500000  0.265155  0.000000  1
  Ba  Ba1  1  0.839339  0.580160  0.321320  1
  Ba  Ba2  1  0.160661  0.901481  0.678680  1
  Ba  Ba3  1  0.500000  0.734845  0.000000  1
  Ba  Ba4  1  0.839339  0.098519  0.321320  1
  Ba  Ba5  1  0.160661  0.419840  0.678680  1
  Er  Er6  1  0.000000  0.000000  0.000000  1
  Er  Er7  1  0.328638  0.328638  0.342724  1
  Er  Er8  1  0.671362  0.671362  0.657276  1
  Er  Er9  1  0.000000  0.500000  0.000000  1
  Re  Re10  1  0.334024  0.834024  0.331951  1
  Re  Re11  1  0.665976  0.165976  0.668048  1
  O  O12  1  0.000000  0.246802  0.000000  1
  O  O13  1  0.330598  0.601095  0.338802  1
  O  O14  1  0.669402  0.939899  0.661198  1
  O  O15  1  0.161953  0.410890  0.178221  1
  O  O16  1  0.489153  0.759710  0.480579  1
  O  O17  1  0.818374  0.089774  0.820450  1
  O  O18  1  0.340172  0.589110  0.821779  1
  O  O19  1  0.638825  0.910226  0.179550  1
  O  O20  1  0.969734  0.240290  0.519421  1
  O  O21  1  0.000000  0.753198  0.000000  1
  O  O22  1  0.330598  0.060101  0.338802  1
  O  O23  1  0.669402  0.398905  0.661198  1
  O  O24  1  0.838047  0.589110  0.821779  1
  O  O25  1  0.181626  0.910226  0.179550  1
  O  O26  1  0.510847  0.240290  0.519421  1
  O  O27  1  0.659828  0.410890  0.178221  1
  O  O28  1  0.030266  0.759710  0.480579  1
  O  O29  1  0.361175  0.089774  0.820450  1
