# generated using pymatgen
data_Yb3Ga3SbIrO12
_symmetry_space_group_name_H-M   'P 1'
_cell_length_a   10.82076093
_cell_length_b   10.82075980
_cell_length_c   10.82076100
_cell_angle_alpha   109.47122662
_cell_angle_beta   109.47122451
_cell_angle_gamma   109.47121623
_symmetry_Int_Tables_number   1
_chemical_formula_structural   Yb3Ga3SbIrO12
_chemical_formula_sum   'Yb12 Ga12 Sb4 Ir4 O48'
_cell_volume   975.32968770
_cell_formula_units_Z   4
loop_
 _symmetry_equiv_pos_site_id
 _symmetry_equiv_pos_as_xyz
  1  'x, y, z'
loop_
 _atom_site_type_symbol
 _atom_site_label
 _atom_site_symmetry_multiplicity
 _atom_site_fract_x
 _atom_site_fract_y
 _atom_site_fract_z
 _atom_site_occupancy
  Yb  Yb0  1  0.250000  0.378906  0.128906  1
  Yb  Yb1  1  0.371094  0.750000  0.121093  1
  Yb  Yb2  1  0.378906  0.128906  0.250000  1
  Yb  Yb3  1  0.878905  0.628906  0.250000  1
  Yb  Yb4  1  0.128906  0.250000  0.378906  1
  Yb  Yb5  1  0.750000  0.121093  0.371094  1
  Yb  Yb6  1  0.250000  0.878905  0.628906  1
  Yb  Yb7  1  0.871094  0.750000  0.621094  1
  Yb  Yb8  1  0.121093  0.371094  0.750000  1
  Yb  Yb9  1  0.621094  0.871094  0.750000  1
  Yb  Yb10  1  0.628906  0.250000  0.878905  1
  Yb  Yb11  1  0.750000  0.621094  0.871094  1
  Ga  Ga12  1  0.750000  0.875530  0.125530  1
  Ga  Ga13  1  0.874470  0.250001  0.124470  1
  Ga  Ga14  1  0.624470  0.374470  0.250000  1
  Ga  Ga15  1  0.124470  0.874470  0.250001  1
  Ga  Ga16  1  0.625530  0.750000  0.375530  1
  Ga  Ga17  1  0.250000  0.624470  0.374470  1
  Ga  Ga18  1  0.750000  0.375530  0.625530  1
  Ga  Ga19  1  0.374470  0.250000  0.624470  1
  Ga  Ga20  1  0.875530  0.125530  0.750000  1
  Ga  Ga21  1  0.375530  0.625530  0.750000  1
  Ga  Ga22  1  0.250001  0.124470  0.874470  1
  Ga  Ga23  1  0.125530  0.750000  0.875530  1
  Sb  Sb24  1  0.000000  0.000000  0.000000  1
  Sb  Sb25  1  0.500000  0.500000  0.000000  1
  Sb  Sb26  1  0.500000  0.000000  0.500000  1
  Sb  Sb27  1  0.000000  0.500000  0.500000  1
  Ir  Ir28  1  0.499999  0.000000  0.000000  1
  Ir  Ir29  1  0.000000  0.499999  0.000000  1
  Ir  Ir30  1  0.000000  0.000000  0.499999  1
  Ir  Ir31  1  0.499999  0.499999  0.499999  1
  O  O32  1  0.319725  0.905931  0.026005  1
  O  O33  1  0.201722  0.122268  0.025058  1
  O  O34  1  0.701723  0.676664  0.079454  1
  O  O35  1  0.879925  0.405931  0.086205  1
  O  O36  1  0.973995  0.680275  0.094069  1
  O  O37  1  0.622268  0.420546  0.097209  1
  O  O38  1  0.594069  0.913795  0.120075  1
  O  O39  1  0.025058  0.201722  0.122268  1
  O  O40  1  0.474941  0.597208  0.176664  1
  O  O41  1  0.206280  0.586205  0.180275  1
  O  O42  1  0.122268  0.025058  0.201722  1
  O  O43  1  0.586205  0.180275  0.206280  1
  O  O44  1  0.473995  0.379925  0.293720  1
  O  O45  1  0.323336  0.920545  0.298277  1
  O  O46  1  0.905931  0.026005  0.319725  1
  O  O47  1  0.920545  0.298277  0.323336  1
  O  O48  1  0.293720  0.473995  0.379925  1
  O  O49  1  0.579454  0.902791  0.377731  1
  O  O50  1  0.823335  0.525058  0.402790  1
  O  O51  1  0.086205  0.879925  0.405931  1
  O  O52  1  0.819725  0.793720  0.413795  1
  O  O53  1  0.097209  0.622268  0.420546  1
  O  O54  1  0.597208  0.176664  0.474941  1
  O  O55  1  0.379925  0.293720  0.473995  1
  O  O56  1  0.620075  0.706280  0.526005  1
  O  O57  1  0.402790  0.823335  0.525058  1
  O  O58  1  0.902791  0.377731  0.579454  1
  O  O59  1  0.180275  0.206280  0.586205  1
  O  O60  1  0.913795  0.120075  0.594069  1
  O  O61  1  0.176664  0.474941  0.597208  1
  O  O62  1  0.420546  0.097209  0.622268  1
  O  O63  1  0.706280  0.526005  0.620075  1
  O  O64  1  0.079454  0.701723  0.676664  1
  O  O65  1  0.094069  0.973995  0.680275  1
  O  O66  1  0.676664  0.079454  0.701723  1
  O  O67  1  0.526005  0.620075  0.706280  1
  O  O68  1  0.413795  0.819725  0.793720  1
  O  O69  1  0.877731  0.974941  0.798276  1
  O  O70  1  0.793720  0.413795  0.819725  1
  O  O71  1  0.525058  0.402790  0.823335  1
  O  O72  1  0.974941  0.798276  0.877731  1
  O  O73  1  0.405931  0.086205  0.879925  1
  O  O74  1  0.377731  0.579454  0.902791  1
  O  O75  1  0.026005  0.319725  0.905931  1
  O  O76  1  0.120075  0.594069  0.913795  1
  O  O77  1  0.298277  0.323336  0.920545  1
  O  O78  1  0.680275  0.094069  0.973995  1
  O  O79  1  0.798276  0.877731  0.974941  1
