# generated using pymatgen
data_CaTmAlSe4
_symmetry_space_group_name_H-M   'P 1'
_cell_length_a   14.48640700
_cell_length_b   8.32762700
_cell_length_c   6.59956400
_cell_angle_alpha   90.00000000
_cell_angle_beta   90.00000000
_cell_angle_gamma   90.00000000
_symmetry_Int_Tables_number   1
_chemical_formula_structural   CaTmAlSe4
_chemical_formula_sum   'Ca4 Tm4 Al4 Se16'
_cell_volume   796.15420293
_cell_formula_units_Z   4
loop_
 _symmetry_equiv_pos_site_id
 _symmetry_equiv_pos_as_xyz
  1  'x, y, z'
loop_
 _atom_site_type_symbol
 _atom_site_label
 _atom_site_symmetry_multiplicity
 _atom_site_fract_x
 _atom_site_fract_y
 _atom_site_fract_z
 _atom_site_occupancy
  Ca  Ca0  1  0.737956  0.750001  0.007806  1
  Ca  Ca1  1  0.237956  0.750001  0.492194  1
  Ca  Ca2  1  0.762044  0.250000  0.507806  1
  Ca  Ca3  1  0.262044  0.250000  0.992193  1
  Tm  Tm4  1  0.000000  0.000000  0.000000  1
  Tm  Tm5  1  0.000000  0.499999  0.000000  1
  Tm  Tm6  1  0.500000  0.000000  0.500000  1
  Tm  Tm7  1  0.500000  0.499999  0.500000  1
  Al  Al8  1  0.582846  0.250000  0.099712  1
  Al  Al9  1  0.082846  0.250000  0.400288  1
  Al  Al10  1  0.917154  0.750001  0.599713  1
  Al  Al11  1  0.417154  0.750001  0.900288  1
  Se  Se12  1  0.915394  0.750001  0.235688  1
  Se  Se13  1  0.157564  0.019986  0.251543  1
  Se  Se14  1  0.157564  0.480014  0.251543  1
  Se  Se15  1  0.929609  0.250000  0.246424  1
  Se  Se16  1  0.429609  0.250000  0.253576  1
  Se  Se17  1  0.657564  0.019986  0.248457  1
  Se  Se18  1  0.657564  0.480014  0.248457  1
  Se  Se19  1  0.415393  0.750001  0.264311  1
  Se  Se20  1  0.584606  0.250000  0.735688  1
  Se  Se21  1  0.342436  0.519987  0.751543  1
  Se  Se22  1  0.342436  0.980013  0.751543  1
  Se  Se23  1  0.570391  0.750001  0.746423  1
  Se  Se24  1  0.070391  0.750001  0.753576  1
  Se  Se25  1  0.842436  0.519987  0.748456  1
  Se  Se26  1  0.842436  0.980013  0.748456  1
  Se  Se27  1  0.084607  0.250000  0.764311  1
