# generated using pymatgen
data_Sr4Zn9Cu11
_symmetry_space_group_name_H-M   'P 1'
_cell_length_a   5.24506300
_cell_length_b   6.55862519
_cell_length_c   12.48022649
_cell_angle_alpha   90.02987147
_cell_angle_beta   90.00000000
_cell_angle_gamma   90.00000000
_symmetry_Int_Tables_number   1
_chemical_formula_structural   Sr4Zn9Cu11
_chemical_formula_sum   'Sr4 Zn9 Cu11'
_cell_volume   429.32475394
_cell_formula_units_Z   1
loop_
 _symmetry_equiv_pos_site_id
 _symmetry_equiv_pos_as_xyz
  1  'x, y, z'
loop_
 _atom_site_type_symbol
 _atom_site_label
 _atom_site_symmetry_multiplicity
 _atom_site_fract_x
 _atom_site_fract_y
 _atom_site_fract_z
 _atom_site_occupancy
  Sr  Sr0  1  0.250000  0.636701  0.912877  1
  Sr  Sr1  1  0.250000  0.859011  0.409787  1
  Sr  Sr2  1  0.750000  0.360291  0.089715  1
  Sr  Sr3  1  0.750000  0.144736  0.584763  1
  Zn  Zn4  1  0.750000  0.843653  0.783353  1
  Zn  Zn5  1  0.250000  0.957050  0.709380  1
  Zn  Zn6  1  0.250000  0.544405  0.211337  1
  Zn  Zn7  1  0.750000  0.045530  0.288307  1
  Zn  Zn8  1  0.750000  0.447363  0.787120  1
  Zn  Zn9  1  0.250000  0.412138  0.520286  1
  Zn  Zn10  1  0.250000  0.086213  0.021464  1
  Zn  Zn11  1  0.750000  0.589457  0.478868  1
  Zn  Zn12  1  0.750000  0.913945  0.982926  1
  Cu  Cu13  1  0.250000  0.343703  0.716040  1
  Cu  Cu14  1  0.250000  0.159423  0.216070  1
  Cu  Cu15  1  0.750000  0.657716  0.283958  1
  Cu  Cu16  1  0.000213  0.151430  0.855319  1
  Cu  Cu17  1  0.502905  0.348274  0.353709  1
  Cu  Cu18  1  0.496637  0.847966  0.147467  1
  Cu  Cu19  1  0.003076  0.651663  0.645380  1
  Cu  Cu20  1  0.003363  0.847966  0.147467  1
  Cu  Cu21  1  0.496924  0.651663  0.645380  1
  Cu  Cu22  1  0.499787  0.151430  0.855319  1
  Cu  Cu23  1  0.997095  0.348274  0.353709  1
