# generated using pymatgen
data_Hf16Tc3Ni4Rh
_symmetry_space_group_name_H-M   'P 1'
_cell_length_a   8.63403096
_cell_length_b   8.63403072
_cell_length_c   8.63403197
_cell_angle_alpha   60.04431447
_cell_angle_beta   60.04431557
_cell_angle_gamma   60.04431582
_symmetry_Int_Tables_number   1
_chemical_formula_structural   Hf16Tc3Ni4Rh
_chemical_formula_sum   'Hf16 Tc3 Ni4 Rh1'
_cell_volume   455.57706938
_cell_formula_units_Z   1
loop_
 _symmetry_equiv_pos_site_id
 _symmetry_equiv_pos_as_xyz
  1  'x, y, z'
loop_
 _atom_site_type_symbol
 _atom_site_label
 _atom_site_symmetry_multiplicity
 _atom_site_fract_x
 _atom_site_fract_y
 _atom_site_fract_z
 _atom_site_occupancy
  Hf  Hf0  1  0.677650  0.107628  0.107628  1
  Hf  Hf1  1  0.107628  0.677650  0.107628  1
  Hf  Hf2  1  0.107628  0.107628  0.677650  1
  Hf  Hf3  1  0.105364  0.105364  0.105364  1
  Hf  Hf4  1  0.316135  0.316135  0.688419  1
  Hf  Hf5  1  0.684926  0.684926  0.315680  1
  Hf  Hf6  1  0.316135  0.688419  0.316135  1
  Hf  Hf7  1  0.684926  0.315680  0.684926  1
  Hf  Hf8  1  0.688419  0.316135  0.316135  1
  Hf  Hf9  1  0.315680  0.684926  0.684926  1
  Hf  Hf10  1  0.950159  0.950159  0.549814  1
  Hf  Hf11  1  0.551774  0.551774  0.946709  1
  Hf  Hf12  1  0.950159  0.549814  0.950159  1
  Hf  Hf13  1  0.551774  0.946709  0.551774  1
  Hf  Hf14  1  0.549814  0.950159  0.950159  1
  Hf  Hf15  1  0.946709  0.551774  0.551774  1
  Tc  Tc16  1  0.995493  0.333595  0.333595  1
  Tc  Tc17  1  0.333595  0.995493  0.333595  1
  Tc  Tc18  1  0.333595  0.333595  0.995493  1
  Ni  Ni19  1  0.318918  0.892568  0.892568  1
  Ni  Ni20  1  0.892568  0.318918  0.892568  1
  Ni  Ni21  1  0.892568  0.892568  0.318918  1
  Ni  Ni22  1  0.894506  0.894506  0.894506  1
  Rh  Rh23  1  0.333875  0.333875  0.333875  1
