# generated using pymatgen
data_MnFeAg2(P2O7)2
_symmetry_space_group_name_H-M   'P 1'
_cell_length_a   8.24140600
_cell_length_b   7.40967482
_cell_length_c   9.73595867
_cell_angle_alpha   67.66390483
_cell_angle_beta   90.00000000
_cell_angle_gamma   90.00000000
_symmetry_Int_Tables_number   1
_chemical_formula_structural   MnFeAg2(P2O7)2
_chemical_formula_sum   'Mn2 Fe2 Ag4 P8 O28'
_cell_volume   549.92954864
_cell_formula_units_Z   2
loop_
 _symmetry_equiv_pos_site_id
 _symmetry_equiv_pos_as_xyz
  1  'x, y, z'
loop_
 _atom_site_type_symbol
 _atom_site_label
 _atom_site_symmetry_multiplicity
 _atom_site_fract_x
 _atom_site_fract_y
 _atom_site_fract_z
 _atom_site_occupancy
  Mn  Mn0  1  0.994521  0.761217  0.747963  1
  Mn  Mn1  1  0.494521  0.238783  0.752037  1
  Fe  Fe2  1  0.009241  0.239616  0.252801  1
  Fe  Fe3  1  0.509241  0.760384  0.247199  1
  Ag  Ag4  1  0.029226  0.211238  0.810480  1
  Ag  Ag5  1  0.529226  0.788762  0.689520  1
  Ag  Ag6  1  0.975589  0.801095  0.181683  1
  Ag  Ag7  1  0.475589  0.198905  0.318317  1
  P  P8  1  0.294437  0.835190  0.953528  1
  P  P9  1  0.794437  0.164810  0.546472  1
  P  P10  1  0.706193  0.179195  0.048085  1
  P  P11  1  0.206193  0.820805  0.451915  1
  P  P12  1  0.240847  0.431840  0.956959  1
  P  P13  1  0.740847  0.568160  0.543041  1
  P  P14  1  0.757324  0.582070  0.042769  1
  P  P15  1  0.257324  0.417930  0.457231  1
  O  O16  1  0.420680  0.965952  0.844437  1
  O  O17  1  0.920680  0.034048  0.655563  1
  O  O18  1  0.585889  0.042010  0.158818  1
  O  O19  1  0.085889  0.957990  0.341182  1
  O  O20  1  0.314598  0.819429  0.113691  1
  O  O21  1  0.814598  0.180571  0.386309  1
  O  O22  1  0.689683  0.186506  0.888878  1
  O  O23  1  0.189683  0.813494  0.611122  1
  O  O24  1  0.339833  0.626271  0.944031  1
  O  O25  1  0.839833  0.373729  0.555969  1
  O  O26  1  0.656946  0.390648  0.049402  1
  O  O27  1  0.156946  0.609352  0.450598  1
  O  O28  1  0.117584  0.877692  0.903228  1
  O  O29  1  0.617584  0.122308  0.596772  1
  O  O30  1  0.884631  0.144327  0.100205  1
  O  O31  1  0.384631  0.855673  0.399795  1
  O  O32  1  0.084376  0.499477  0.859206  1
  O  O33  1  0.584376  0.500523  0.640794  1
  O  O34  1  0.908675  0.511923  0.142528  1
  O  O35  1  0.408675  0.488077  0.357472  1
  O  O36  1  0.199747  0.321575  0.120525  1
  O  O37  1  0.699747  0.678425  0.379475  1
  O  O38  1  0.799153  0.699621  0.879486  1
  O  O39  1  0.299153  0.300379  0.620514  1
  O  O40  1  0.353692  0.319067  0.898487  1
  O  O41  1  0.853692  0.680933  0.601513  1
  O  O42  1  0.637134  0.692234  0.099755  1
  O  O43  1  0.137134  0.307766  0.400245  1
