# generated using pymatgen
data_Tb11Dy5Cd4(CoRu)2
_symmetry_space_group_name_H-M   'P 1'
_cell_length_a   9.68891044
_cell_length_b   9.61761195
_cell_length_c   9.61533413
_cell_angle_alpha   59.36500334
_cell_angle_beta   59.50925143
_cell_angle_gamma   59.52226922
_symmetry_Int_Tables_number   1
_chemical_formula_structural   Tb11Dy5Cd4(CoRu)2
_chemical_formula_sum   'Tb11 Dy5 Cd4 Co2 Ru2'
_cell_volume   625.85953490
_cell_formula_units_Z   1
loop_
 _symmetry_equiv_pos_site_id
 _symmetry_equiv_pos_as_xyz
  1  'x, y, z'
loop_
 _atom_site_type_symbol
 _atom_site_label
 _atom_site_symmetry_multiplicity
 _atom_site_fract_x
 _atom_site_fract_y
 _atom_site_fract_z
 _atom_site_occupancy
  Tb  Tb0  1  0.815216  0.187346  0.808988  1
  Tb  Tb1  1  0.438448  0.057460  0.436807  1
  Tb  Tb2  1  0.593434  0.211046  0.603369  1
  Tb  Tb3  1  0.815430  0.809379  0.186908  1
  Tb  Tb4  1  0.213820  0.599442  0.598980  1
  Tb  Tb5  1  0.807969  0.191422  0.191342  1
  Tb  Tb6  1  0.061838  0.437923  0.437702  1
  Tb  Tb7  1  0.187589  0.809571  0.188058  1
  Tb  Tb8  1  0.593121  0.602995  0.211472  1
  Tb  Tb9  1  0.188061  0.188522  0.808995  1
  Tb  Tb10  1  0.065894  0.435406  0.057476  1
  Dy  Dy11  1  0.438694  0.437388  0.057120  1
  Dy  Dy12  1  0.592371  0.598627  0.599047  1
  Dy  Dy13  1  0.187337  0.812957  0.812870  1
  Dy  Dy14  1  0.065323  0.057223  0.435824  1
  Dy  Dy15  1  0.438364  0.060864  0.061074  1
  Cd  Cd16  1  0.829771  0.829150  0.508591  1
  Cd  Cd17  1  0.830769  0.829673  0.829297  1
  Cd  Cd18  1  0.507452  0.829721  0.829968  1
  Cd  Cd19  1  0.829670  0.508689  0.828999  1
  Co  Co20  1  0.389768  0.830127  0.394835  1
  Co  Co21  1  0.390204  0.394455  0.830294  1
  Ru  Ru22  1  0.389567  0.389911  0.390404  1
  Ru  Ru23  1  0.829890  0.390700  0.391582  1
