# generated using pymatgen
data_Pr2Sm3(Sn5Pd2)2
_symmetry_space_group_name_H-M   'P 1'
_cell_length_a   14.28294500
_cell_length_b   14.28294500
_cell_length_c   4.64469600
_cell_angle_alpha   90.00000000
_cell_angle_beta   90.00000000
_cell_angle_gamma   90.00000000
_symmetry_Int_Tables_number   1
_chemical_formula_structural   Pr2Sm3(Sn5Pd2)2
_chemical_formula_sum   'Pr4 Sm6 Sn20 Pd8'
_cell_volume   947.52967875
_cell_formula_units_Z   2
loop_
 _symmetry_equiv_pos_site_id
 _symmetry_equiv_pos_as_xyz
  1  'x, y, z'
loop_
 _atom_site_type_symbol
 _atom_site_label
 _atom_site_symmetry_multiplicity
 _atom_site_fract_x
 _atom_site_fract_y
 _atom_site_fract_z
 _atom_site_occupancy
  Pr  Pr0  1  0.891194  0.391194  0.500000  1
  Pr  Pr1  1  0.108806  0.608806  0.500000  1
  Pr  Pr2  1  0.391194  0.108806  0.500000  1
  Pr  Pr3  1  0.608806  0.891194  0.500000  1
  Sm  Sm4  1  0.500000  0.500000  0.000000  1
  Sm  Sm5  1  0.000000  0.000000  0.000000  1
  Sm  Sm6  1  0.678925  0.178925  0.500000  1
  Sm  Sm7  1  0.321075  0.821075  0.500000  1
  Sm  Sm8  1  0.178925  0.321075  0.500000  1
  Sm  Sm9  1  0.821075  0.678925  0.500000  1
  Sn  Sn10  1  0.569439  0.069439  0.000000  1
  Sn  Sn11  1  0.430561  0.930561  0.000000  1
  Sn  Sn12  1  0.069439  0.430561  0.000000  1
  Sn  Sn13  1  0.930561  0.569439  0.000000  1
  Sn  Sn14  1  0.654576  0.699594  0.000000  1
  Sn  Sn15  1  0.345424  0.300406  0.000000  1
  Sn  Sn16  1  0.154576  0.800406  0.000000  1
  Sn  Sn17  1  0.845424  0.199594  0.000000  1
  Sn  Sn18  1  0.300406  0.654576  0.000000  1
  Sn  Sn19  1  0.699594  0.345424  0.000000  1
  Sn  Sn20  1  0.199594  0.154576  0.000000  1
  Sn  Sn21  1  0.800406  0.845424  0.000000  1
  Sn  Sn22  1  0.661253  0.502476  0.500000  1
  Sn  Sn23  1  0.338747  0.497524  0.500000  1
  Sn  Sn24  1  0.161253  0.997524  0.500000  1
  Sn  Sn25  1  0.838747  0.002476  0.500000  1
  Sn  Sn26  1  0.497524  0.661253  0.500000  1
  Sn  Sn27  1  0.502476  0.338747  0.500000  1
  Sn  Sn28  1  0.002476  0.161253  0.500000  1
  Sn  Sn29  1  0.997524  0.838747  0.500000  1
  Pd  Pd30  1  0.745638  0.529634  0.000000  1
  Pd  Pd31  1  0.254362  0.470366  0.000000  1
  Pd  Pd32  1  0.245638  0.970366  0.000000  1
  Pd  Pd33  1  0.754362  0.029634  0.000000  1
  Pd  Pd34  1  0.470366  0.745638  0.000000  1
  Pd  Pd35  1  0.529634  0.254362  0.000000  1
  Pd  Pd36  1  0.029634  0.245638  0.000000  1
  Pd  Pd37  1  0.970366  0.754362  0.000000  1
