# generated using pymatgen
data_Y12Zn3Si5Rh8
_symmetry_space_group_name_H-M   'P 1'
_cell_length_a   5.58359700
_cell_length_b   7.89142263
_cell_length_c   13.23191900
_cell_angle_alpha   90.23188691
_cell_angle_beta   90.00000000
_cell_angle_gamma   90.00000000
_symmetry_Int_Tables_number   1
_chemical_formula_structural   Y12Zn3Si5Rh8
_chemical_formula_sum   'Y12 Zn3 Si5 Rh8'
_cell_volume   583.02696986
_cell_formula_units_Z   1
loop_
 _symmetry_equiv_pos_site_id
 _symmetry_equiv_pos_as_xyz
  1  'x, y, z'
loop_
 _atom_site_type_symbol
 _atom_site_label
 _atom_site_symmetry_multiplicity
 _atom_site_fract_x
 _atom_site_fract_y
 _atom_site_fract_z
 _atom_site_occupancy
  Y  Y0  1  0.148311  0.601189  0.103153  1
  Y  Y1  1  0.148311  0.898811  0.896847  1
  Y  Y2  1  0.856180  0.104382  0.397706  1
  Y  Y3  1  0.856180  0.395618  0.602294  1
  Y  Y4  1  0.851851  0.399714  0.897909  1
  Y  Y5  1  0.851851  0.100286  0.102091  1
  Y  Y6  1  0.145765  0.900110  0.601897  1
  Y  Y7  1  0.145765  0.599890  0.398103  1
  Y  Y8  1  0.364971  0.243945  0.249721  1
  Y  Y9  1  0.364971  0.256055  0.750279  1
  Y  Y10  1  0.634488  0.742661  0.250249  1
  Y  Y11  1  0.634488  0.757339  0.749751  1
  Zn  Zn12  1  0.356453  0.250000  0.000000  1
  Zn  Zn13  1  0.632270  0.750000  0.500000  1
  Zn  Zn14  1  0.640560  0.750000  0.000000  1
  Si  Si15  1  0.866658  0.390318  0.250267  1
  Si  Si16  1  0.866658  0.109682  0.749733  1
  Si  Si17  1  0.137990  0.888065  0.252611  1
  Si  Si18  1  0.137990  0.611935  0.747389  1
  Si  Si19  1  0.380119  0.250000  0.500000  1
  Rh  Rh20  1  0.646209  0.465871  0.095356  1
  Rh  Rh21  1  0.646209  0.034129  0.904644  1
  Rh  Rh22  1  0.350248  0.979687  0.407572  1
  Rh  Rh23  1  0.350248  0.520313  0.592428  1
  Rh  Rh24  1  0.353779  0.534252  0.904047  1
  Rh  Rh25  1  0.353779  0.965748  0.095953  1
  Rh  Rh26  1  0.638851  0.041358  0.594169  1
  Rh  Rh27  1  0.638851  0.458642  0.405831  1
