# generated using pymatgen
data_Zr9VCuRe3
_symmetry_space_group_name_H-M   'P 1'
_cell_length_a   8.76165200
_cell_length_b   8.76165218
_cell_length_c   8.49092600
_cell_angle_alpha   90.00000000
_cell_angle_beta   90.00000000
_cell_angle_gamma   119.99999176
_symmetry_Int_Tables_number   1
_chemical_formula_structural   Zr9VCuRe3
_chemical_formula_sum   'Zr18 V2 Cu2 Re6'
_cell_volume   564.49192280
_cell_formula_units_Z   2
loop_
 _symmetry_equiv_pos_site_id
 _symmetry_equiv_pos_as_xyz
  1  'x, y, z'
loop_
 _atom_site_type_symbol
 _atom_site_label
 _atom_site_symmetry_multiplicity
 _atom_site_fract_x
 _atom_site_fract_y
 _atom_site_fract_z
 _atom_site_occupancy
  Zr  Zr0  1  0.194659  0.805341  0.446303  1
  Zr  Zr1  1  0.194659  0.389317  0.446303  1
  Zr  Zr2  1  0.610683  0.805341  0.446303  1
  Zr  Zr3  1  0.805341  0.194659  0.553697  1
  Zr  Zr4  1  0.805341  0.610683  0.553697  1
  Zr  Zr5  1  0.389317  0.194659  0.553697  1
  Zr  Zr6  1  0.805341  0.194659  0.946303  1
  Zr  Zr7  1  0.805341  0.610683  0.946303  1
  Zr  Zr8  1  0.389317  0.194659  0.946303  1
  Zr  Zr9  1  0.194659  0.805341  0.053697  1
  Zr  Zr10  1  0.194659  0.389317  0.053697  1
  Zr  Zr11  1  0.610683  0.805341  0.053697  1
  Zr  Zr12  1  0.542647  0.457353  0.250000  1
  Zr  Zr13  1  0.542647  0.085296  0.250000  1
  Zr  Zr14  1  0.914704  0.457353  0.250000  1
  Zr  Zr15  1  0.457353  0.542647  0.750000  1
  Zr  Zr16  1  0.457353  0.914704  0.750000  1
  Zr  Zr17  1  0.085296  0.542647  0.750000  1
  V  V18  1  0.000000  0.000000  0.500000  1
  V  V19  1  0.000000  0.000000  0.000000  1
  Cu  Cu20  1  0.333333  0.666667  0.250000  1
  Cu  Cu21  1  0.666667  0.333333  0.750000  1
  Re  Re22  1  0.893025  0.106975  0.250000  1
  Re  Re23  1  0.893025  0.786050  0.250000  1
  Re  Re24  1  0.213950  0.106975  0.250000  1
  Re  Re25  1  0.106975  0.893025  0.750000  1
  Re  Re26  1  0.106975  0.213950  0.750000  1
  Re  Re27  1  0.786050  0.893025  0.750000  1
