# generated using pymatgen
data_Y3Hf3Sn6(Ir2Rh)2
_symmetry_space_group_name_H-M   'P 1'
_cell_length_a   7.46830400
_cell_length_b   7.46830401
_cell_length_c   7.56671700
_cell_angle_alpha   90.00000000
_cell_angle_beta   90.00000000
_cell_angle_gamma   119.99999995
_symmetry_Int_Tables_number   1
_chemical_formula_structural   Y3Hf3Sn6(Ir2Rh)2
_chemical_formula_sum   'Y3 Hf3 Sn6 Ir4 Rh2'
_cell_volume   365.49555485
_cell_formula_units_Z   1
loop_
 _symmetry_equiv_pos_site_id
 _symmetry_equiv_pos_as_xyz
  1  'x, y, z'
loop_
 _atom_site_type_symbol
 _atom_site_label
 _atom_site_symmetry_multiplicity
 _atom_site_fract_x
 _atom_site_fract_y
 _atom_site_fract_z
 _atom_site_occupancy
  Y  Y0  1  0.998495  0.408008  0.250000  1
  Y  Y1  1  0.591992  0.590487  0.250000  1
  Y  Y2  1  0.409513  0.001505  0.250000  1
  Hf  Hf3  1  0.002718  0.395714  0.750000  1
  Hf  Hf4  1  0.604286  0.607004  0.750000  1
  Hf  Hf5  1  0.392996  0.997282  0.750000  1
  Sn  Sn6  1  0.265787  0.264457  0.506465  1
  Sn  Sn7  1  0.998671  0.734213  0.506465  1
  Sn  Sn8  1  0.998671  0.734213  0.993535  1
  Sn  Sn9  1  0.735543  0.001329  0.506465  1
  Sn  Sn10  1  0.735543  0.001329  0.993535  1
  Sn  Sn11  1  0.265787  0.264457  0.993535  1
  Ir  Ir12  1  0.333333  0.666667  0.536603  1
  Ir  Ir13  1  0.666667  0.333333  0.542113  1
  Ir  Ir14  1  0.333333  0.666667  0.963397  1
  Ir  Ir15  1  0.666667  0.333333  0.957887  1
  Rh  Rh16  1  0.000000  0.000000  0.750000  1
  Rh  Rh17  1  0.000000  0.000000  0.250000  1
