# generated using pymatgen
data_LaTm(P2Rh3)2
_symmetry_space_group_name_H-M   'P 1'
_cell_length_a   3.93974500
_cell_length_b   11.27663800
_cell_length_c   12.87704300
_cell_angle_alpha   90.00047738
_cell_angle_beta   90.00000000
_cell_angle_gamma   90.00000000
_symmetry_Int_Tables_number   1
_chemical_formula_structural   LaTm(P2Rh3)2
_chemical_formula_sum   'La3 Tm3 P12 Rh18'
_cell_volume   572.08939606
_cell_formula_units_Z   3
loop_
 _symmetry_equiv_pos_site_id
 _symmetry_equiv_pos_as_xyz
  1  'x, y, z'
loop_
 _atom_site_type_symbol
 _atom_site_label
 _atom_site_symmetry_multiplicity
 _atom_site_fract_x
 _atom_site_fract_y
 _atom_site_fract_z
 _atom_site_occupancy
  La  La0  1  0.000000  0.500123  0.523374  1
  La  La1  1  0.500000  0.001190  0.478536  1
  La  La2  1  0.500000  0.815692  0.204282  1
  Tm  Tm3  1  0.500000  0.186824  0.202339  1
  Tm  Tm4  1  0.000000  0.683809  0.796575  1
  Tm  Tm5  1  0.000000  0.312980  0.794965  1
  P  P6  1  0.500000  0.497846  0.878262  1
  P  P7  1  0.000000  0.002803  0.117203  1
  P  P8  1  0.500000  0.500999  0.346236  1
  P  P9  1  0.000000  0.998973  0.654469  1
  P  P10  1  0.500000  0.312381  0.620288  1
  P  P11  1  0.500000  0.687247  0.623786  1
  P  P12  1  0.000000  0.189384  0.378640  1
  P  P13  1  0.000000  0.811741  0.385917  1
  P  P14  1  0.500000  0.841929  0.894107  1
  P  P15  1  0.500000  0.155033  0.891905  1
  P  P16  1  0.000000  0.647871  0.104836  1
  P  P17  1  0.000000  0.346413  0.105780  1
  Rh  Rh18  1  0.500000  0.501454  0.166726  1
  Rh  Rh19  1  0.000000  0.007796  0.832877  1
  Rh  Rh20  1  0.500000  0.498912  0.705126  1
  Rh  Rh21  1  0.000000  0.003398  0.295401  1
  Rh  Rh22  1  0.000000  0.497676  0.975977  1
  Rh  Rh23  1  0.500000  0.001962  0.016358  1
  Rh  Rh24  1  0.500000  0.333893  0.993288  1
  Rh  Rh25  1  0.500000  0.662814  0.992171  1
  Rh  Rh26  1  0.000000  0.167817  0.006965  1
  Rh  Rh27  1  0.000000  0.833902  0.000246  1
  Rh  Rh28  1  0.500000  0.292828  0.428067  1
  Rh  Rh29  1  0.500000  0.707268  0.433673  1
  Rh  Rh30  1  0.000000  0.209135  0.571534  1
  Rh  Rh31  1  0.000000  0.793671  0.574848  1
  Rh  Rh32  1  0.500000  0.872365  0.716715  1
  Rh  Rh33  1  0.500000  0.128131  0.712616  1
  Rh  Rh34  1  0.000000  0.622371  0.291243  1
  Rh  Rh35  1  0.000000  0.371368  0.284669  1
