# generated using pymatgen
data_CaSm3Sn2Sb4Rh7
_symmetry_space_group_name_H-M   'P 1'
_cell_length_a   7.66998281
_cell_length_b   7.67630086
_cell_length_c   7.67519046
_cell_angle_alpha   109.45886547
_cell_angle_beta   109.42550586
_cell_angle_gamma   109.51850305
_symmetry_Int_Tables_number   1
_chemical_formula_structural   CaSm3Sn2Sb4Rh7
_chemical_formula_sum   'Ca1 Sm3 Sn2 Sb4 Rh7'
_cell_volume   347.91346244
_cell_formula_units_Z   1
loop_
 _symmetry_equiv_pos_site_id
 _symmetry_equiv_pos_as_xyz
  1  'x, y, z'
loop_
 _atom_site_type_symbol
 _atom_site_label
 _atom_site_symmetry_multiplicity
 _atom_site_fract_x
 _atom_site_fract_y
 _atom_site_fract_z
 _atom_site_occupancy
  Ca  Ca0  1  0.494702  0.999944  0.000000  1
  Sm  Sm1  1  0.999945  0.505980  0.000000  1
  Sm  Sm2  1  0.999465  0.000813  0.500347  1
  Sm  Sm3  1  0.499117  0.500466  0.499653  1
  Sn  Sn4  1  0.992652  0.312477  0.309317  1
  Sn  Sn5  1  0.683336  0.003161  0.690683  1
  Sb  Sb6  1  0.678242  0.686122  0.000000  1
  Sb  Sb7  1  0.001836  0.677100  0.675347  1
  Sb  Sb8  1  0.326488  0.001751  0.324653  1
  Sb  Sb9  1  0.317971  0.317992  0.000000  1
  Rh  Rh10  1  0.004804  0.994664  0.000000  1
  Rh  Rh11  1  0.501214  0.749280  0.253539  1
  Rh  Rh12  1  0.749197  0.502594  0.247870  1
  Rh  Rh13  1  0.249126  0.746709  0.496223  1
  Rh  Rh14  1  0.247676  0.495742  0.746461  1
  Rh  Rh15  1  0.501327  0.254724  0.752130  1
  Rh  Rh16  1  0.752902  0.250486  0.503777  1
