# generated using pymatgen
data_La6Nb4Al12Os7
_symmetry_space_group_name_H-M   'P 1'
_cell_length_a   9.13301115
_cell_length_b   9.13301131
_cell_length_c   9.13301100
_cell_angle_alpha   60.00000473
_cell_angle_beta   60.00000416
_cell_angle_gamma   60.00000544
_symmetry_Int_Tables_number   1
_chemical_formula_structural   La6Nb4Al12Os7
_chemical_formula_sum   'La6 Nb4 Al12 Os7'
_cell_volume   538.67523901
_cell_formula_units_Z   1
loop_
 _symmetry_equiv_pos_site_id
 _symmetry_equiv_pos_as_xyz
  1  'x, y, z'
loop_
 _atom_site_type_symbol
 _atom_site_label
 _atom_site_symmetry_multiplicity
 _atom_site_fract_x
 _atom_site_fract_y
 _atom_site_fract_z
 _atom_site_occupancy
  La  La0  1  0.699109  0.699109  0.300891  1
  La  La1  1  0.300891  0.699109  0.300891  1
  La  La2  1  0.699109  0.300891  0.300891  1
  La  La3  1  0.300891  0.300891  0.699109  1
  La  La4  1  0.699109  0.300891  0.699109  1
  La  La5  1  0.300891  0.699109  0.699109  1
  Nb  Nb6  1  0.880623  0.880623  0.358129  1
  Nb  Nb7  1  0.880623  0.358129  0.880623  1
  Nb  Nb8  1  0.358129  0.880623  0.880623  1
  Nb  Nb9  1  0.880623  0.880623  0.880623  1
  Al  Al10  1  0.119064  0.119064  0.642807  1
  Al  Al11  1  0.119064  0.642807  0.119064  1
  Al  Al12  1  0.642807  0.119064  0.119064  1
  Al  Al13  1  0.119064  0.119064  0.119064  1
  Al  Al14  1  0.671905  0.671905  0.984286  1
  Al  Al15  1  0.671905  0.984286  0.671905  1
  Al  Al16  1  0.984286  0.671905  0.671905  1
  Al  Al17  1  0.671905  0.671905  0.671905  1
  Al  Al18  1  0.325936  0.325936  0.022191  1
  Al  Al19  1  0.325936  0.022191  0.325936  1
  Al  Al20  1  0.022191  0.325936  0.325936  1
  Al  Al21  1  0.325936  0.325936  0.325936  1
  Os  Os22  1  0.000000  0.000000  0.000000  1
  Os  Os23  1  0.997771  0.997771  0.502229  1
  Os  Os24  1  0.502229  0.997771  0.502229  1
  Os  Os25  1  0.997771  0.502229  0.502229  1
  Os  Os26  1  0.502229  0.502229  0.997771  1
  Os  Os27  1  0.997771  0.502229  0.997771  1
  Os  Os28  1  0.502229  0.997771  0.997771  1
