# generated using pymatgen
data_Ca3NdRuRh3O14
_symmetry_space_group_name_H-M   'P 1'
_cell_length_a   7.27493850
_cell_length_b   7.27493664
_cell_length_c   7.34375273
_cell_angle_alpha   60.30948735
_cell_angle_beta   60.30949422
_cell_angle_gamma   60.00000230
_symmetry_Int_Tables_number   1
_chemical_formula_structural   Ca3NdRuRh3O14
_chemical_formula_sum   'Ca3 Nd1 Ru1 Rh3 O14'
_cell_volume   276.10701677
_cell_formula_units_Z   1
loop_
 _symmetry_equiv_pos_site_id
 _symmetry_equiv_pos_as_xyz
  1  'x, y, z'
loop_
 _atom_site_type_symbol
 _atom_site_label
 _atom_site_symmetry_multiplicity
 _atom_site_fract_x
 _atom_site_fract_y
 _atom_site_fract_z
 _atom_site_occupancy
  Ca  Ca0  1  0.625000  0.125000  0.625000  1
  Ca  Ca1  1  0.125000  0.625000  0.625000  1
  Ca  Ca2  1  0.625000  0.625000  0.625000  1
  Nd  Nd3  1  0.625000  0.625000  0.125000  1
  Ru  Ru4  1  0.125000  0.125000  0.625000  1
  Rh  Rh5  1  0.625000  0.125000  0.125000  1
  Rh  Rh6  1  0.125000  0.625000  0.125000  1
  Rh  Rh7  1  0.125000  0.125000  0.125000  1
  O  O8  1  0.194383  0.194383  0.802605  1
  O  O9  1  0.201059  0.796034  0.206871  1
  O  O10  1  0.453966  0.048941  0.043129  1
  O  O11  1  0.194383  0.808630  0.802605  1
  O  O12  1  0.055617  0.441370  0.447395  1
  O  O13  1  0.796034  0.796034  0.206871  1
  O  O14  1  0.453966  0.453966  0.043129  1
  O  O15  1  0.498967  0.498967  0.503099  1
  O  O16  1  0.055617  0.055617  0.447395  1
  O  O17  1  0.441370  0.055617  0.447395  1
  O  O18  1  0.048941  0.453966  0.043129  1
  O  O19  1  0.751033  0.751033  0.746901  1
  O  O20  1  0.808630  0.194383  0.802605  1
  O  O21  1  0.796034  0.201059  0.206871  1
