# generated using pymatgen
data_Tb3ThHgRu
_symmetry_space_group_name_H-M   'P 1'
_cell_length_a   9.69806778
_cell_length_b   9.69806878
_cell_length_c   9.69806900
_cell_angle_alpha   60.00000267
_cell_angle_beta   59.99999924
_cell_angle_gamma   59.99999702
_symmetry_Int_Tables_number   1
_chemical_formula_structural   Tb3ThHgRu
_chemical_formula_sum   'Tb12 Th4 Hg4 Ru4'
_cell_volume   644.97182522
_cell_formula_units_Z   4
loop_
 _symmetry_equiv_pos_site_id
 _symmetry_equiv_pos_as_xyz
  1  'x, y, z'
loop_
 _atom_site_type_symbol
 _atom_site_label
 _atom_site_symmetry_multiplicity
 _atom_site_fract_x
 _atom_site_fract_y
 _atom_site_fract_z
 _atom_site_occupancy
  Tb  Tb0  1  0.061083  0.438917  0.438917  1
  Tb  Tb1  1  0.438917  0.061083  0.061083  1
  Tb  Tb2  1  0.438917  0.061083  0.438917  1
  Tb  Tb3  1  0.061083  0.438917  0.061083  1
  Tb  Tb4  1  0.438917  0.438917  0.061083  1
  Tb  Tb5  1  0.061083  0.061083  0.438917  1
  Tb  Tb6  1  0.186735  0.813265  0.813265  1
  Tb  Tb7  1  0.813265  0.186735  0.186735  1
  Tb  Tb8  1  0.813265  0.186735  0.813265  1
  Tb  Tb9  1  0.186735  0.813265  0.186735  1
  Tb  Tb10  1  0.813265  0.813265  0.186735  1
  Tb  Tb11  1  0.186735  0.186735  0.813265  1
  Th  Th12  1  0.598492  0.598492  0.598492  1
  Th  Th13  1  0.598492  0.598492  0.204523  1
  Th  Th14  1  0.598492  0.204523  0.598492  1
  Th  Th15  1  0.204523  0.598492  0.598492  1
  Hg  Hg16  1  0.834867  0.834867  0.834867  1
  Hg  Hg17  1  0.834867  0.834867  0.495399  1
  Hg  Hg18  1  0.834867  0.495399  0.834867  1
  Hg  Hg19  1  0.495399  0.834867  0.834867  1
  Ru  Ru20  1  0.393709  0.393709  0.393709  1
  Ru  Ru21  1  0.393709  0.393709  0.818873  1
  Ru  Ru22  1  0.393709  0.818873  0.393709  1
  Ru  Ru23  1  0.818873  0.393709  0.393709  1
