# generated using pymatgen
data_DyAlFe4Re7
_symmetry_space_group_name_H-M   'P 1'
_cell_length_a   4.80923792
_cell_length_b   6.73058981
_cell_length_c   6.73058918
_cell_angle_alpha   81.71896497
_cell_angle_beta   69.06752657
_cell_angle_gamma   69.06752202
_symmetry_Int_Tables_number   1
_chemical_formula_structural   DyAlFe4Re7
_chemical_formula_sum   'Dy1 Al1 Fe4 Re7'
_cell_volume   190.02097548
_cell_formula_units_Z   1
loop_
 _symmetry_equiv_pos_site_id
 _symmetry_equiv_pos_as_xyz
  1  'x, y, z'
loop_
 _atom_site_type_symbol
 _atom_site_label
 _atom_site_symmetry_multiplicity
 _atom_site_fract_x
 _atom_site_fract_y
 _atom_site_fract_z
 _atom_site_occupancy
  Dy  Dy0  1  0.993545  0.006455  0.006455  1
  Al  Al1  1  0.277396  0.222604  0.222604  1
  Fe  Fe2  1  0.003092  0.999976  0.490213  1
  Fe  Fe3  1  0.506719  0.999976  0.490213  1
  Fe  Fe4  1  0.506719  0.490213  0.999976  1
  Fe  Fe5  1  0.003092  0.490213  0.999976  1
  Re  Re6  1  0.999921  0.356357  0.643800  1
  Re  Re7  1  0.999921  0.643800  0.356357  1
  Re  Re8  1  0.633931  0.366069  0.366069  1
  Re  Re9  1  0.353384  0.646616  0.646616  1
  Re  Re10  1  0.505106  0.779954  0.209834  1
  Re  Re11  1  0.505106  0.209834  0.779954  1
  Re  Re12  1  0.712066  0.787934  0.787934  1
