# generated using pymatgen
data_ErLuRe2C3
_symmetry_space_group_name_H-M   'P 1'
_cell_length_a   6.00333706
_cell_length_b   6.00333573
_cell_length_c   5.61323164
_cell_angle_alpha   68.01269102
_cell_angle_beta   68.01269480
_cell_angle_gamma   31.65151795
_symmetry_Int_Tables_number   1
_chemical_formula_structural   ErLuRe2C3
_chemical_formula_sum   'Er1 Lu1 Re2 C3'
_cell_volume   97.78979642
_cell_formula_units_Z   1
loop_
 _symmetry_equiv_pos_site_id
 _symmetry_equiv_pos_as_xyz
  1  'x, y, z'
loop_
 _atom_site_type_symbol
 _atom_site_label
 _atom_site_symmetry_multiplicity
 _atom_site_fract_x
 _atom_site_fract_y
 _atom_site_fract_z
 _atom_site_occupancy
  Er  Er0  1  0.391245  0.391245  0.819961  1
  Lu  Lu1  1  0.610528  0.610528  0.176141  1
  Re  Re2  1  0.843917  0.843917  0.322586  1
  Re  Re3  1  0.155702  0.155702  0.677790  1
  C  C4  1  0.244833  0.244833  0.265550  1
  C  C5  1  0.752973  0.752973  0.735135  1
  C  C6  1  0.000803  0.000803  0.002837  1
