# generated using pymatgen
data_Sr8RuRhO12
_symmetry_space_group_name_H-M   'P 1'
_cell_length_a   6.94360391
_cell_length_b   6.94360483
_cell_length_c   6.94360423
_cell_angle_alpha   90.12906666
_cell_angle_beta   90.12906945
_cell_angle_gamma   90.12906718
_symmetry_Int_Tables_number   1
_chemical_formula_structural   Sr8RuRhO12
_chemical_formula_sum   'Sr8 Ru1 Rh1 O12'
_cell_volume   334.77389396
_cell_formula_units_Z   1
loop_
 _symmetry_equiv_pos_site_id
 _symmetry_equiv_pos_as_xyz
  1  'x, y, z'
loop_
 _atom_site_type_symbol
 _atom_site_label
 _atom_site_symmetry_multiplicity
 _atom_site_fract_x
 _atom_site_fract_y
 _atom_site_fract_z
 _atom_site_occupancy
  Sr  Sr0  1  0.878278  0.614082  0.257216  1
  Sr  Sr1  1  0.121722  0.385918  0.742784  1
  Sr  Sr2  1  0.257216  0.878278  0.614082  1
  Sr  Sr3  1  0.614082  0.257216  0.878278  1
  Sr  Sr4  1  0.745148  0.745148  0.745148  1
  Sr  Sr5  1  0.385918  0.742784  0.121722  1
  Sr  Sr6  1  0.254852  0.254852  0.254852  1
  Sr  Sr7  1  0.742784  0.121722  0.385918  1
  Ru  Ru8  1  0.000000  0.000000  0.000000  1
  Rh  Rh9  1  0.500000  0.500000  0.500000  1
  O  O10  1  0.438631  0.577567  0.790006  1
  O  O11  1  0.577567  0.790006  0.438631  1
  O  O12  1  0.946809  0.277436  0.068850  1
  O  O13  1  0.561369  0.422433  0.209994  1
  O  O14  1  0.209994  0.561369  0.422433  1
  O  O15  1  0.053191  0.722564  0.931150  1
  O  O16  1  0.790006  0.438631  0.577567  1
  O  O17  1  0.722564  0.931150  0.053191  1
  O  O18  1  0.068850  0.946809  0.277436  1
  O  O19  1  0.931150  0.053191  0.722564  1
  O  O20  1  0.422433  0.209994  0.561369  1
  O  O21  1  0.277436  0.068850  0.946809  1
