# generated using pymatgen
data_Pr2Se5O13
_symmetry_space_group_name_H-M   'P 1'
_cell_length_a   10.48036600
_cell_length_b   10.35826426
_cell_length_c   13.11416800
_cell_angle_alpha   68.10085857
_cell_angle_beta   90.00000000
_cell_angle_gamma   90.00000000
_symmetry_Int_Tables_number   1
_chemical_formula_structural   Pr2Se5O13
_chemical_formula_sum   'Pr8 Se20 O52'
_cell_volume   1320.92491859
_cell_formula_units_Z   4
loop_
 _symmetry_equiv_pos_site_id
 _symmetry_equiv_pos_as_xyz
  1  'x, y, z'
loop_
 _atom_site_type_symbol
 _atom_site_label
 _atom_site_symmetry_multiplicity
 _atom_site_fract_x
 _atom_site_fract_y
 _atom_site_fract_z
 _atom_site_occupancy
  Pr  Pr0  1  0.254815  0.180413  0.091584  1
  Pr  Pr1  1  0.819916  0.063417  0.078720  1
  Pr  Pr2  1  0.180084  0.936583  0.921280  1
  Pr  Pr3  1  0.745185  0.819587  0.908416  1
  Pr  Pr4  1  0.680084  0.063417  0.578720  1
  Pr  Pr5  1  0.754815  0.819587  0.408416  1
  Pr  Pr6  1  0.245185  0.180413  0.591584  1
  Pr  Pr7  1  0.319916  0.936583  0.421280  1
  Se  Se8  1  0.919601  0.101352  0.772968  1
  Se  Se9  1  0.423146  0.640269  0.038339  1
  Se  Se10  1  0.576854  0.359731  0.961661  1
  Se  Se11  1  0.268278  0.348266  0.306673  1
  Se  Se12  1  0.768278  0.651734  0.193327  1
  Se  Se13  1  0.923146  0.359731  0.461661  1
  Se  Se14  1  0.419601  0.898648  0.727032  1
  Se  Se15  1  0.430592  0.844006  0.179048  1
  Se  Se16  1  0.518072  0.414114  0.397630  1
  Se  Se17  1  0.231722  0.348266  0.806673  1
  Se  Se18  1  0.930592  0.155994  0.320952  1
  Se  Se19  1  0.018072  0.585886  0.102370  1
  Se  Se20  1  0.981928  0.414114  0.897630  1
  Se  Se21  1  0.580399  0.101352  0.272968  1
  Se  Se22  1  0.731722  0.651734  0.693327  1
  Se  Se23  1  0.080399  0.898648  0.227032  1
  Se  Se24  1  0.076854  0.640269  0.538339  1
  Se  Se25  1  0.481928  0.585886  0.602370  1
  Se  Se26  1  0.569408  0.155994  0.820952  1
  Se  Se27  1  0.069408  0.844006  0.679048  1
  O  O28  1  0.272194  0.336092  0.687056  1
  O  O29  1  0.237925  0.179151  0.902212  1
  O  O30  1  0.369868  0.790764  0.942387  1
  O  O31  1  0.424529  0.086597  0.233504  1
  O  O32  1  0.336104  0.019068  0.765994  1
  O  O33  1  0.836104  0.980932  0.734006  1
  O  O34  1  0.560431  0.985336  0.410526  1
  O  O35  1  0.663896  0.980932  0.234006  1
  O  O36  1  0.939569  0.985336  0.910526  1
  O  O37  1  0.439569  0.014664  0.589474  1
  O  O38  1  0.896003  0.629883  0.010854  1
  O  O39  1  0.396003  0.370117  0.489146  1
  O  O40  1  0.603997  0.629883  0.510854  1
  O  O41  1  0.762075  0.820849  0.097788  1
  O  O42  1  0.262075  0.179151  0.402212  1
  O  O43  1  0.684875  0.054810  0.909893  1
  O  O44  1  0.575471  0.913403  0.766496  1
  O  O45  1  0.924529  0.913403  0.266496  1
  O  O46  1  0.583013  0.654875  0.016938  1
  O  O47  1  0.368511  0.794073  0.305914  1
  O  O48  1  0.902847  0.327987  0.332806  1
  O  O49  1  0.130132  0.790764  0.442387  1
  O  O50  1  0.868511  0.205927  0.194086  1
  O  O51  1  0.315125  0.945190  0.090107  1
  O  O52  1  0.558528  0.636066  0.713989  1
  O  O53  1  0.941472  0.636066  0.213989  1
  O  O54  1  0.227806  0.336092  0.187056  1
  O  O55  1  0.376232  0.716605  0.560628  1
  O  O56  1  0.060431  0.014664  0.089474  1
  O  O57  1  0.876232  0.283395  0.939372  1
  O  O58  1  0.058528  0.363934  0.786011  1
  O  O59  1  0.075471  0.086597  0.733504  1
  O  O60  1  0.630132  0.209236  0.057613  1
  O  O61  1  0.103997  0.370117  0.989146  1
  O  O62  1  0.772194  0.663908  0.812944  1
  O  O63  1  0.737925  0.820849  0.597788  1
  O  O64  1  0.727806  0.663908  0.312944  1
  O  O65  1  0.402847  0.672013  0.167194  1
  O  O66  1  0.441472  0.363934  0.286011  1
  O  O67  1  0.597153  0.327987  0.832806  1
  O  O68  1  0.869868  0.209236  0.557613  1
  O  O69  1  0.184875  0.945190  0.590107  1
  O  O70  1  0.631489  0.205927  0.694086  1
  O  O71  1  0.163896  0.019068  0.265994  1
  O  O72  1  0.623768  0.283395  0.439372  1
  O  O73  1  0.916987  0.654875  0.516938  1
  O  O74  1  0.097153  0.672013  0.667194  1
  O  O75  1  0.083013  0.345125  0.483062  1
  O  O76  1  0.123768  0.716605  0.060628  1
  O  O77  1  0.416987  0.345125  0.983062  1
  O  O78  1  0.815125  0.054810  0.409893  1
  O  O79  1  0.131489  0.794073  0.805914  1
