# generated using pymatgen
data_Lu2FeC2
_symmetry_space_group_name_H-M   'P 1'
_cell_length_a   4.90229300
_cell_length_b   6.19858800
_cell_length_c   9.43042000
_cell_angle_alpha   90.00000000
_cell_angle_beta   90.00000000
_cell_angle_gamma   90.00000000
_symmetry_Int_Tables_number   1
_chemical_formula_structural   Lu2FeC2
_chemical_formula_sum   'Lu8 Fe4 C8'
_cell_volume   286.56495039
_cell_formula_units_Z   4
loop_
 _symmetry_equiv_pos_site_id
 _symmetry_equiv_pos_as_xyz
  1  'x, y, z'
loop_
 _atom_site_type_symbol
 _atom_site_label
 _atom_site_symmetry_multiplicity
 _atom_site_fract_x
 _atom_site_fract_y
 _atom_site_fract_z
 _atom_site_occupancy
  Lu  Lu0  1  0.250000  0.823236  0.943728  1
  Lu  Lu1  1  0.250000  0.323236  0.556272  1
  Lu  Lu2  1  0.750000  0.176764  0.056272  1
  Lu  Lu3  1  0.750000  0.676764  0.443728  1
  Lu  Lu4  1  0.250000  0.477548  0.214611  1
  Lu  Lu5  1  0.250000  0.977548  0.285389  1
  Lu  Lu6  1  0.750000  0.522452  0.785389  1
  Lu  Lu7  1  0.750000  0.022452  0.714611  1
  Fe  Fe8  1  0.250000  0.275547  0.859405  1
  Fe  Fe9  1  0.250000  0.775547  0.640595  1
  Fe  Fe10  1  0.750000  0.724453  0.140595  1
  Fe  Fe11  1  0.750000  0.224453  0.359405  1
  C  C12  1  0.250000  0.041364  0.738344  1
  C  C13  1  0.250000  0.541364  0.761656  1
  C  C14  1  0.750000  0.958636  0.261656  1
  C  C15  1  0.750000  0.458636  0.238344  1
  C  C16  1  0.250000  0.684227  0.453801  1
  C  C17  1  0.250000  0.184227  0.046199  1
  C  C18  1  0.750000  0.315773  0.546199  1
  C  C19  1  0.750000  0.815773  0.953801  1
