# generated using pymatgen
data_Ho5ErSn2(BRh6)2
_symmetry_space_group_name_H-M   'P 1'
_cell_length_a   5.81264000
_cell_length_b   5.81263922
_cell_length_c   13.77856800
_cell_angle_alpha   90.00000000
_cell_angle_beta   90.00000000
_cell_angle_gamma   120.00000445
_symmetry_Int_Tables_number   1
_chemical_formula_structural   Ho5ErSn2(BRh6)2
_chemical_formula_sum   'Ho5 Er1 Sn2 B2 Rh12'
_cell_volume   403.16376297
_cell_formula_units_Z   1
loop_
 _symmetry_equiv_pos_site_id
 _symmetry_equiv_pos_as_xyz
  1  'x, y, z'
loop_
 _atom_site_type_symbol
 _atom_site_label
 _atom_site_symmetry_multiplicity
 _atom_site_fract_x
 _atom_site_fract_y
 _atom_site_fract_z
 _atom_site_occupancy
  Ho  Ho0  1  0.000000  0.000000  0.749936  1
  Ho  Ho1  1  0.000000  0.000000  0.249902  1
  Ho  Ho2  1  0.333333  0.666667  0.410778  1
  Ho  Ho3  1  0.666667  0.333333  0.910971  1
  Ho  Ho4  1  0.666667  0.333333  0.588990  1
  Er  Er5  1  0.333333  0.666667  0.088154  1
  Sn  Sn6  1  0.333333  0.666667  0.750162  1
  Sn  Sn7  1  0.666667  0.333333  0.250006  1
  B  B8  1  0.000000  0.000000  0.499761  1
  B  B9  1  0.000000  0.000000  0.000085  1
  Rh  Rh10  1  0.344692  0.172346  0.413288  1
  Rh  Rh11  1  0.827654  0.172346  0.413288  1
  Rh  Rh12  1  0.827654  0.655308  0.413288  1
  Rh  Rh13  1  0.172134  0.344267  0.913743  1
  Rh  Rh14  1  0.656259  0.828129  0.586593  1
  Rh  Rh15  1  0.655733  0.827866  0.913743  1
  Rh  Rh16  1  0.343882  0.171942  0.086794  1
  Rh  Rh17  1  0.171871  0.343741  0.586593  1
  Rh  Rh18  1  0.171871  0.828129  0.586593  1
  Rh  Rh19  1  0.828058  0.171942  0.086794  1
  Rh  Rh20  1  0.828058  0.656118  0.086794  1
  Rh  Rh21  1  0.172134  0.827866  0.913743  1
