# generated using pymatgen
data_Tb5Tl2In2CoNi
_symmetry_space_group_name_H-M   'P 1'
_cell_length_a   3.59649400
_cell_length_b   8.09313747
_cell_length_c   18.15365456
_cell_angle_alpha   89.99426382
_cell_angle_beta   90.00000000
_cell_angle_gamma   90.00000000
_symmetry_Int_Tables_number   1
_chemical_formula_structural   Tb5Tl2In2CoNi
_chemical_formula_sum   'Tb10 Tl4 In4 Co2 Ni2'
_cell_volume   528.39697514
_cell_formula_units_Z   2
loop_
 _symmetry_equiv_pos_site_id
 _symmetry_equiv_pos_as_xyz
  1  'x, y, z'
loop_
 _atom_site_type_symbol
 _atom_site_label
 _atom_site_symmetry_multiplicity
 _atom_site_fract_x
 _atom_site_fract_y
 _atom_site_fract_z
 _atom_site_occupancy
  Tb  Tb0  1  0.000000  0.500000  0.500000  1
  Tb  Tb1  1  0.000000  0.000000  0.000000  1
  Tb  Tb2  1  0.000000  0.738935  0.277681  1
  Tb  Tb3  1  0.000000  0.261065  0.722319  1
  Tb  Tb4  1  0.000000  0.745366  0.778909  1
  Tb  Tb5  1  0.000000  0.254634  0.221091  1
  Tb  Tb6  1  0.000000  0.614796  0.091829  1
  Tb  Tb7  1  0.000000  0.385204  0.908171  1
  Tb  Tb8  1  0.000000  0.883533  0.590950  1
  Tb  Tb9  1  0.000000  0.116467  0.409050  1
  Tl  Tl10  1  0.500000  0.705702  0.931389  1
  Tl  Tl11  1  0.500000  0.294298  0.068611  1
  Tl  Tl12  1  0.500000  0.794512  0.431986  1
  Tl  Tl13  1  0.500000  0.205488  0.568014  1
  In  In14  1  0.500000  0.571942  0.652471  1
  In  In15  1  0.500000  0.428058  0.347529  1
  In  In16  1  0.500000  0.926549  0.153152  1
  In  In17  1  0.500000  0.073451  0.846848  1
  Co  Co18  1  0.500000  0.523423  0.196836  1
  Co  Co19  1  0.500000  0.476577  0.803164  1
  Ni  Ni20  1  0.500000  0.975789  0.697372  1
  Ni  Ni21  1  0.500000  0.024211  0.302628  1
