# generated using pymatgen
data_Tb2Y2Sn3Sb3Rh7
_symmetry_space_group_name_H-M   'P 1'
_cell_length_a   7.62441145
_cell_length_b   7.62998215
_cell_length_c   7.62401876
_cell_angle_alpha   109.49006812
_cell_angle_beta   109.46047046
_cell_angle_gamma   109.48000309
_symmetry_Int_Tables_number   1
_chemical_formula_structural   Tb2Y2Sn3Sb3Rh7
_chemical_formula_sum   'Tb2 Y2 Sn3 Sb3 Rh7'
_cell_volume   341.35116187
_cell_formula_units_Z   1
loop_
 _symmetry_equiv_pos_site_id
 _symmetry_equiv_pos_as_xyz
  1  'x, y, z'
loop_
 _atom_site_type_symbol
 _atom_site_label
 _atom_site_symmetry_multiplicity
 _atom_site_fract_x
 _atom_site_fract_y
 _atom_site_fract_z
 _atom_site_occupancy
  Tb  Tb0  1  0.997724  0.999845  0.502961  1
  Tb  Tb1  1  0.494762  0.496884  0.497039  1
  Y  Y2  1  0.487236  0.000116  0.000000  1
  Y  Y3  1  0.998157  0.503206  0.000000  1
  Sn  Sn4  1  0.993160  0.307365  0.307460  1
  Sn  Sn5  1  0.685700  0.999905  0.692540  1
  Sn  Sn6  1  0.685675  0.692660  0.000000  1
  Sb  Sb7  1  0.995013  0.674080  0.674000  1
  Sb  Sb8  1  0.321013  0.000079  0.326000  1
  Sb  Sb9  1  0.320994  0.325879  0.000000  1
  Rh  Rh10  1  0.016764  0.999939  0.000000  1
  Rh  Rh11  1  0.502948  0.753402  0.253473  1
  Rh  Rh12  1  0.749513  0.500117  0.246680  1
  Rh  Rh13  1  0.249511  0.746576  0.499992  1
  Rh  Rh14  1  0.249475  0.499928  0.746527  1
  Rh  Rh15  1  0.502833  0.253437  0.753320  1
  Rh  Rh16  1  0.749519  0.246584  0.500008  1
