# generated using pymatgen
data_Tb3Er5Pd4
_symmetry_space_group_name_H-M   'P 1'
_cell_length_a   4.86713702
_cell_length_b   7.09106239
_cell_length_c   8.70677213
_cell_angle_alpha   89.96953012
_cell_angle_beta   89.99567040
_cell_angle_gamma   89.99185193
_symmetry_Int_Tables_number   1
_chemical_formula_structural   Tb3Er5Pd4
_chemical_formula_sum   'Tb3 Er5 Pd4'
_cell_volume   300.49827972
_cell_formula_units_Z   1
loop_
 _symmetry_equiv_pos_site_id
 _symmetry_equiv_pos_as_xyz
  1  'x, y, z'
loop_
 _atom_site_type_symbol
 _atom_site_label
 _atom_site_symmetry_multiplicity
 _atom_site_fract_x
 _atom_site_fract_y
 _atom_site_fract_z
 _atom_site_occupancy
  Tb  Tb0  1  0.250037  0.984432  0.325585  1
  Tb  Tb1  1  0.750006  0.515614  0.826779  1
  Tb  Tb2  1  0.750020  0.015698  0.673513  1
  Er  Er3  1  0.249994  0.855218  0.921129  1
  Er  Er4  1  0.250049  0.355430  0.578579  1
  Er  Er5  1  0.749932  0.145147  0.079277  1
  Er  Er6  1  0.749988  0.644414  0.419702  1
  Er  Er7  1  0.249986  0.483946  0.173462  1
  Pd  Pd8  1  0.249992  0.257299  0.908866  1
  Pd  Pd9  1  0.249992  0.756892  0.593241  1
  Pd  Pd10  1  0.750002  0.741799  0.093734  1
  Pd  Pd11  1  0.750001  0.244113  0.406132  1
