# generated using pymatgen
data_Dy2HoCd3IrAu2
_symmetry_space_group_name_H-M   'P 1'
_cell_length_a   7.88114208
_cell_length_b   7.88065572
_cell_length_c   3.78457100
_cell_angle_alpha   90.00000000
_cell_angle_beta   90.00000000
_cell_angle_gamma   119.98557612
_symmetry_Int_Tables_number   1
_chemical_formula_structural   Dy2HoCd3IrAu2
_chemical_formula_sum   'Dy2 Ho1 Cd3 Ir1 Au2'
_cell_volume   203.59256073
_cell_formula_units_Z   1
loop_
 _symmetry_equiv_pos_site_id
 _symmetry_equiv_pos_as_xyz
  1  'x, y, z'
loop_
 _atom_site_type_symbol
 _atom_site_label
 _atom_site_symmetry_multiplicity
 _atom_site_fract_x
 _atom_site_fract_y
 _atom_site_fract_z
 _atom_site_occupancy
  Dy  Dy0  1  0.581617  0.971862  0.000000  1
  Dy  Dy1  1  0.028164  0.609751  0.000000  1
  Ho  Ho2  1  0.390183  0.418478  0.000000  1
  Cd  Cd3  1  0.269957  0.003608  0.500000  1
  Cd  Cd4  1  0.996533  0.266412  0.500000  1
  Cd  Cd5  1  0.733526  0.729966  0.500000  1
  Ir  Ir6  1  0.333367  0.666478  0.500000  1
  Au  Au7  1  0.666568  0.333362  0.500000  1
  Au  Au8  1  0.000086  0.000082  0.000000  1
