# generated using pymatgen
data_ErLu4Tl3InPt2
_symmetry_space_group_name_H-M   'P 1'
_cell_length_a   3.59026200
_cell_length_b   8.10732794
_cell_length_c   18.14573685
_cell_angle_alpha   89.88694721
_cell_angle_beta   90.00000000
_cell_angle_gamma   90.00000000
_symmetry_Int_Tables_number   1
_chemical_formula_structural   ErLu4Tl3InPt2
_chemical_formula_sum   'Er2 Lu8 Tl6 In2 Pt4'
_cell_volume   528.17476264
_cell_formula_units_Z   2
loop_
 _symmetry_equiv_pos_site_id
 _symmetry_equiv_pos_as_xyz
  1  'x, y, z'
loop_
 _atom_site_type_symbol
 _atom_site_label
 _atom_site_symmetry_multiplicity
 _atom_site_fract_x
 _atom_site_fract_y
 _atom_site_fract_z
 _atom_site_occupancy
  Er  Er0  1  0.000000  0.000000  0.000000  1
  Er  Er1  1  0.000000  0.500000  0.500000  1
  Lu  Lu2  1  0.000000  0.116092  0.413968  1
  Lu  Lu3  1  0.000000  0.883908  0.586032  1
  Lu  Lu4  1  0.000000  0.384327  0.913011  1
  Lu  Lu5  1  0.000000  0.615673  0.086989  1
  Lu  Lu6  1  0.000000  0.245006  0.221773  1
  Lu  Lu7  1  0.000000  0.754994  0.778227  1
  Lu  Lu8  1  0.000000  0.255307  0.721282  1
  Lu  Lu9  1  0.000000  0.744693  0.278718  1
  Tl  Tl10  1  0.500000  0.424127  0.353182  1
  Tl  Tl11  1  0.500000  0.575873  0.646818  1
  Tl  Tl12  1  0.500000  0.077162  0.852795  1
  Tl  Tl13  1  0.500000  0.922838  0.147205  1
  Tl  Tl14  1  0.500000  0.293439  0.065061  1
  Tl  Tl15  1  0.500000  0.706561  0.934939  1
  In  In16  1  0.500000  0.204708  0.565836  1
  In  In17  1  0.500000  0.795292  0.434164  1
  Pt  Pt18  1  0.500000  0.024540  0.305190  1
  Pt  Pt19  1  0.500000  0.975460  0.694810  1
  Pt  Pt20  1  0.500000  0.472791  0.804147  1
  Pt  Pt21  1  0.500000  0.527209  0.195853  1
