# generated using pymatgen
data_Hf3Zr3GaNiTe
_symmetry_space_group_name_H-M   'P 1'
_cell_length_a   7.74872600
_cell_length_b   7.74872501
_cell_length_c   3.54630600
_cell_angle_alpha   90.00000000
_cell_angle_beta   90.00000000
_cell_angle_gamma   119.99999568
_symmetry_Int_Tables_number   1
_chemical_formula_structural   Hf3Zr3GaNiTe
_chemical_formula_sum   'Hf3 Zr3 Ga1 Ni1 Te1'
_cell_volume   184.40275728
_cell_formula_units_Z   1
loop_
 _symmetry_equiv_pos_site_id
 _symmetry_equiv_pos_as_xyz
  1  'x, y, z'
loop_
 _atom_site_type_symbol
 _atom_site_label
 _atom_site_symmetry_multiplicity
 _atom_site_fract_x
 _atom_site_fract_y
 _atom_site_fract_z
 _atom_site_occupancy
  Hf  Hf0  1  0.248300  0.009178  0.500000  1
  Hf  Hf1  1  0.990822  0.239123  0.500000  1
  Hf  Hf2  1  0.760877  0.751700  0.500000  1
  Zr  Zr3  1  0.599077  0.006738  0.000000  1
  Zr  Zr4  1  0.993262  0.592339  0.000000  1
  Zr  Zr5  1  0.407661  0.400923  0.000000  1
  Ga  Ga6  1  0.666667  0.333333  0.500000  1
  Ni  Ni7  1  0.000000  0.000000  0.000000  1
  Te  Te8  1  0.333333  0.666667  0.500000  1
