# generated using pymatgen
data_Mn6FeCo5(Mo3N)4
_symmetry_space_group_name_H-M   'P 1'
_cell_length_a   7.79849367
_cell_length_b   7.81026222
_cell_length_c   7.81215011
_cell_angle_alpha   60.12711186
_cell_angle_beta   60.05257292
_cell_angle_gamma   60.06182963
_symmetry_Int_Tables_number   1
_chemical_formula_structural   Mn6FeCo5(Mo3N)4
_chemical_formula_sum   'Mn6 Fe1 Co5 Mo12 N4'
_cell_volume   337.07229183
_cell_formula_units_Z   1
loop_
 _symmetry_equiv_pos_site_id
 _symmetry_equiv_pos_as_xyz
  1  'x, y, z'
loop_
 _atom_site_type_symbol
 _atom_site_label
 _atom_site_symmetry_multiplicity
 _atom_site_fract_x
 _atom_site_fract_y
 _atom_site_fract_z
 _atom_site_occupancy
  Mn  Mn0  1  0.624958  0.125761  0.627972  1
  Mn  Mn1  1  0.629201  0.621054  0.123585  1
  Mn  Mn2  1  0.124321  0.620007  0.630542  1
  Mn  Mn3  1  0.626927  0.618298  0.629856  1
  Mn  Mn4  1  0.823727  0.528749  0.824497  1
  Mn  Mn5  1  0.425290  0.424796  0.722957  1
  Fe  Fe6  1  0.730982  0.423556  0.420011  1
  Co  Co7  1  0.421360  0.419481  0.418566  1
  Co  Co8  1  0.507169  0.832594  0.830188  1
  Co  Co9  1  0.829514  0.832054  0.830247  1
  Co  Co10  1  0.830689  0.831980  0.506059  1
  Co  Co11  1  0.420073  0.742103  0.418747  1
  Mo  Mo12  1  0.198232  0.200956  0.800933  1
  Mo  Mo13  1  0.451410  0.048956  0.047731  1
  Mo  Mo14  1  0.047934  0.451084  0.451464  1
  Mo  Mo15  1  0.450016  0.449334  0.049216  1
  Mo  Mo16  1  0.454109  0.045665  0.454002  1
  Mo  Mo17  1  0.052742  0.447715  0.051091  1
  Mo  Mo18  1  0.801043  0.199755  0.802007  1
  Mo  Mo19  1  0.799523  0.201969  0.199605  1
  Mo  Mo20  1  0.202489  0.797297  0.797792  1
  Mo  Mo21  1  0.204730  0.795740  0.204298  1
  Mo  Mo22  1  0.046484  0.047357  0.452787  1
  Mo  Mo23  1  0.796506  0.796157  0.203636  1
  N  N24  1  0.124431  0.627026  0.125168  1
  N  N25  1  0.125931  0.124457  0.623707  1
  N  N26  1  0.624752  0.123341  0.126752  1
  N  N27  1  0.125457  0.122762  0.126584  1
