# generated using pymatgen
data_CeLu15Cd4Ni3Ir
_symmetry_space_group_name_H-M   'P 1'
_cell_length_a   9.41937591
_cell_length_b   9.41937696
_cell_length_c   9.41937676
_cell_angle_alpha   59.33724805
_cell_angle_beta   59.33724752
_cell_angle_gamma   59.33725673
_symmetry_Int_Tables_number   1
_chemical_formula_structural   CeLu15Cd4Ni3Ir
_chemical_formula_sum   'Ce1 Lu15 Cd4 Ni3 Ir1'
_cell_volume   582.03503834
_cell_formula_units_Z   1
loop_
 _symmetry_equiv_pos_site_id
 _symmetry_equiv_pos_as_xyz
  1  'x, y, z'
loop_
 _atom_site_type_symbol
 _atom_site_label
 _atom_site_symmetry_multiplicity
 _atom_site_fract_x
 _atom_site_fract_y
 _atom_site_fract_z
 _atom_site_occupancy
  Ce  Ce0  1  0.346111  0.346111  0.346111  1
  Lu  Lu1  1  0.350348  0.350348  0.951873  1
  Lu  Lu2  1  0.350348  0.951873  0.350348  1
  Lu  Lu3  1  0.951873  0.350348  0.350348  1
  Lu  Lu4  1  0.810608  0.187471  0.187471  1
  Lu  Lu5  1  0.188762  0.811736  0.811736  1
  Lu  Lu6  1  0.187471  0.810608  0.187471  1
  Lu  Lu7  1  0.811736  0.188762  0.811736  1
  Lu  Lu8  1  0.187471  0.187471  0.810608  1
  Lu  Lu9  1  0.811736  0.811736  0.188762  1
  Lu  Lu10  1  0.936171  0.565181  0.565181  1
  Lu  Lu11  1  0.560781  0.937388  0.937388  1
  Lu  Lu12  1  0.565181  0.936171  0.565181  1
  Lu  Lu13  1  0.937388  0.560781  0.937388  1
  Lu  Lu14  1  0.565181  0.565181  0.936171  1
  Lu  Lu15  1  0.937388  0.937388  0.560781  1
  Cd  Cd16  1  0.581437  0.581437  0.581437  1
  Cd  Cd17  1  0.582266  0.582266  0.253648  1
  Cd  Cd18  1  0.582266  0.253648  0.582266  1
  Cd  Cd19  1  0.253648  0.582266  0.582266  1
  Ni  Ni20  1  0.142769  0.142769  0.573910  1
  Ni  Ni21  1  0.142769  0.573910  0.142769  1
  Ni  Ni22  1  0.573910  0.142769  0.142769  1
  Ir  Ir23  1  0.142373  0.142373  0.142373  1
