# generated using pymatgen
data_Ba2MgSb3Pt4
_symmetry_space_group_name_H-M   'P 1'
_cell_length_a   4.79375623
_cell_length_b   4.70404900
_cell_length_c   10.79604569
_cell_angle_alpha   90.00000000
_cell_angle_beta   91.48595101
_cell_angle_gamma   90.00000000
_symmetry_Int_Tables_number   1
_chemical_formula_structural   Ba2MgSb3Pt4
_chemical_formula_sum   'Ba2 Mg1 Sb3 Pt4'
_cell_volume   243.36965408
_cell_formula_units_Z   1
loop_
 _symmetry_equiv_pos_site_id
 _symmetry_equiv_pos_as_xyz
  1  'x, y, z'
loop_
 _atom_site_type_symbol
 _atom_site_label
 _atom_site_symmetry_multiplicity
 _atom_site_fract_x
 _atom_site_fract_y
 _atom_site_fract_z
 _atom_site_occupancy
  Ba  Ba0  1  0.257577  0.750001  0.253236  1
  Ba  Ba1  1  0.742407  0.250000  0.747144  1
  Mg  Mg2  1  0.251349  0.250000  0.000945  1
  Sb  Sb3  1  0.791645  0.250000  0.377238  1
  Sb  Sb4  1  0.209344  0.750001  0.621343  1
  Sb  Sb5  1  0.746828  0.750001  0.999359  1
  Pt  Pt6  1  0.758253  0.250000  0.123431  1
  Pt  Pt7  1  0.694610  0.750001  0.497627  1
  Pt  Pt8  1  0.307455  0.250000  0.502941  1
  Pt  Pt9  1  0.240533  0.750001  0.876737  1
