# generated using pymatgen
data_TbSmCo12SiP6
_symmetry_space_group_name_H-M   'P 1'
_cell_length_a   9.05315400
_cell_length_b   9.05315506
_cell_length_c   3.60041800
_cell_angle_alpha   90.00000000
_cell_angle_beta   90.00000000
_cell_angle_gamma   120.00000342
_symmetry_Int_Tables_number   1
_chemical_formula_structural   TbSmCo12SiP6
_chemical_formula_sum   'Tb1 Sm1 Co12 Si1 P6'
_cell_volume   255.55442669
_cell_formula_units_Z   1
loop_
 _symmetry_equiv_pos_site_id
 _symmetry_equiv_pos_as_xyz
  1  'x, y, z'
loop_
 _atom_site_type_symbol
 _atom_site_label
 _atom_site_symmetry_multiplicity
 _atom_site_fract_x
 _atom_site_fract_y
 _atom_site_fract_z
 _atom_site_occupancy
  Tb  Tb0  1  0.000000  0.000000  0.000000  1
  Sm  Sm1  1  0.333333  0.666667  0.500000  1
  Co  Co2  1  0.099289  0.391743  0.000000  1
  Co  Co3  1  0.608257  0.707545  0.000000  1
  Co  Co4  1  0.292455  0.900711  0.000000  1
  Co  Co5  1  0.050737  0.768533  0.500000  1
  Co  Co6  1  0.231467  0.282204  0.500000  1
  Co  Co7  1  0.717796  0.949263  0.500000  1
  Co  Co8  1  0.823842  0.613847  0.000000  1
  Co  Co9  1  0.386153  0.209994  0.000000  1
  Co  Co10  1  0.790006  0.176158  0.000000  1
  Co  Co11  1  0.896837  0.434667  0.500000  1
  Co  Co12  1  0.565333  0.462170  0.500000  1
  Co  Co13  1  0.537830  0.103163  0.500000  1
  Si  Si14  1  0.666667  0.333333  0.000000  1
  P  P15  1  0.776867  0.734715  0.500000  1
  P  P16  1  0.265285  0.042151  0.500000  1
  P  P17  1  0.957849  0.223133  0.500000  1
  P  P18  1  0.070098  0.626662  0.000000  1
  P  P19  1  0.373338  0.443436  0.000000  1
  P  P20  1  0.556564  0.929902  0.000000  1
