# generated using pymatgen
data_Tb5ErAl24Ru7Rh
_symmetry_space_group_name_H-M   'P 1'
_cell_length_a   8.79168904
_cell_length_b   8.79168805
_cell_length_c   9.62217862
_cell_angle_alpha   89.88109661
_cell_angle_beta   90.11889609
_cell_angle_gamma   119.83627335
_symmetry_Int_Tables_number   1
_chemical_formula_structural   Tb5ErAl24Ru7Rh
_chemical_formula_sum   'Tb5 Er1 Al24 Ru7 Rh1'
_cell_volume   645.15123342
_cell_formula_units_Z   1
loop_
 _symmetry_equiv_pos_site_id
 _symmetry_equiv_pos_as_xyz
  1  'x, y, z'
loop_
 _atom_site_type_symbol
 _atom_site_label
 _atom_site_symmetry_multiplicity
 _atom_site_fract_x
 _atom_site_fract_y
 _atom_site_fract_z
 _atom_site_occupancy
  Tb  Tb0  1  0.190858  0.385418  0.250868  1
  Tb  Tb1  1  0.809102  0.614559  0.749097  1
  Tb  Tb2  1  0.614582  0.809142  0.250868  1
  Tb  Tb3  1  0.385441  0.190898  0.749097  1
  Tb  Tb4  1  0.193439  0.806561  0.250582  1
  Er  Er5  1  0.805982  0.194018  0.749306  1
  Al  Al6  1  0.332549  0.667451  0.018948  1
  Al  Al7  1  0.667705  0.332295  0.980559  1
  Al  Al8  1  0.666820  0.333180  0.518602  1
  Al  Al9  1  0.333417  0.666583  0.481898  1
  Al  Al10  1  0.163272  0.325518  0.577411  1
  Al  Al11  1  0.836298  0.674229  0.422981  1
  Al  Al12  1  0.674482  0.836728  0.577411  1
  Al  Al13  1  0.838463  0.674708  0.077172  1
  Al  Al14  1  0.325771  0.163702  0.422981  1
  Al  Al15  1  0.161041  0.325022  0.922435  1
  Al  Al16  1  0.163362  0.836638  0.576962  1
  Al  Al17  1  0.325292  0.161537  0.077172  1
  Al  Al18  1  0.836644  0.163356  0.423677  1
  Al  Al19  1  0.674978  0.838959  0.922435  1
  Al  Al20  1  0.837009  0.162991  0.076609  1
  Al  Al21  1  0.162969  0.837031  0.922741  1
  Al  Al22  1  0.561876  0.124981  0.249762  1
  Al  Al23  1  0.439027  0.875747  0.750241  1
  Al  Al24  1  0.875019  0.438124  0.249762  1
  Al  Al25  1  0.124253  0.560973  0.750241  1
  Al  Al26  1  0.561914  0.438086  0.250855  1
  Al  Al27  1  0.438056  0.561944  0.749183  1
  Al  Al28  1  0.999731  0.000269  0.250066  1
  Al  Al29  1  0.999869  0.000131  0.749968  1
  Ru  Ru30  1  0.500621  0.000354  0.999624  1
  Ru  Ru31  1  0.999646  0.499379  0.999624  1
  Ru  Ru32  1  0.500627  0.000372  0.500390  1
  Ru  Ru33  1  0.999628  0.499373  0.500390  1
  Ru  Ru34  1  0.500154  0.499846  0.500124  1
  Ru  Ru35  1  0.999968  0.000032  0.000081  1
  Ru  Ru36  1  0.999980  0.000020  0.499953  1
  Rh  Rh37  1  0.500154  0.499846  0.999925  1
