# generated using pymatgen
data_Dy4Ho4Ti11Si16Ru
_symmetry_space_group_name_H-M   'P 1'
_cell_length_a   7.02554339
_cell_length_b   7.02547364
_cell_length_c   12.87880003
_cell_angle_alpha   89.97029798
_cell_angle_beta   90.03376345
_cell_angle_gamma   89.89866480
_symmetry_Int_Tables_number   1
_chemical_formula_structural   Dy4Ho4Ti11Si16Ru
_chemical_formula_sum   'Dy4 Ho4 Ti11 Si16 Ru1'
_cell_volume   635.66765820
_cell_formula_units_Z   1
loop_
 _symmetry_equiv_pos_site_id
 _symmetry_equiv_pos_as_xyz
  1  'x, y, z'
loop_
 _atom_site_type_symbol
 _atom_site_label
 _atom_site_symmetry_multiplicity
 _atom_site_fract_x
 _atom_site_fract_y
 _atom_site_fract_z
 _atom_site_occupancy
  Dy  Dy0  1  0.840527  0.499587  0.284997  1
  Dy  Dy1  1  0.503267  0.159134  0.217967  1
  Dy  Dy2  1  0.499549  0.840472  0.715054  1
  Dy  Dy3  1  0.341591  0.001644  0.468321  1
  Ho  Ho4  1  0.996190  0.659545  0.032620  1
  Ho  Ho5  1  0.001394  0.341758  0.531790  1
  Ho  Ho6  1  0.659599  0.996157  0.967299  1
  Ho  Ho7  1  0.158946  0.503027  0.782015  1
  Ti  Ti8  1  0.344143  0.507138  0.374587  1
  Ti  Ti9  1  0.849293  0.996011  0.375850  1
  Ti  Ti10  1  0.006160  0.151716  0.124601  1
  Ti  Ti11  1  0.996087  0.849269  0.624225  1
  Ti  Ti12  1  0.507143  0.344257  0.625509  1
  Ti  Ti13  1  0.151677  0.006136  0.875346  1
  Ti  Ti14  1  0.825214  0.172559  0.748649  1
  Ti  Ti15  1  0.172424  0.825140  0.251310  1
  Ti  Ti16  1  0.326139  0.326203  0.999952  1
  Ti  Ti17  1  0.492983  0.651446  0.127844  1
  Ti  Ti18  1  0.651360  0.493056  0.872098  1
  Si  Si19  1  0.046483  0.712608  0.435564  1
  Si  Si20  1  0.952227  0.291571  0.934349  1
  Si  Si21  1  0.713084  0.046782  0.564506  1
  Si  Si22  1  0.207666  0.453324  0.184235  1
  Si  Si23  1  0.790930  0.549773  0.681972  1
  Si  Si24  1  0.453132  0.207831  0.815759  1
  Si  Si25  1  0.550060  0.790466  0.317965  1
  Si  Si26  1  0.291401  0.952033  0.065547  1
  Si  Si27  1  0.797632  0.868489  0.185082  1
  Si  Si28  1  0.299944  0.626637  0.565841  1
  Si  Si29  1  0.703703  0.369254  0.065405  1
  Si  Si30  1  0.627126  0.300250  0.434343  1
  Si  Si31  1  0.369063  0.703513  0.934434  1
  Si  Si32  1  0.130734  0.203311  0.315952  1
  Si  Si33  1  0.203060  0.131273  0.684058  1
  Si  Si34  1  0.868676  0.797443  0.814939  1
  Ru  Ru35  1  0.671392  0.671188  0.500014  1
