# generated using pymatgen
data_K3Rb5Ba4(SnAs4)2
_symmetry_space_group_name_H-M   'P 1'
_cell_length_a   10.90579961
_cell_length_b   10.80164237
_cell_length_c   8.08284410
_cell_angle_alpha   88.65971761
_cell_angle_beta   88.57683681
_cell_angle_gamma   119.40058637
_symmetry_Int_Tables_number   1
_chemical_formula_structural   K3Rb5Ba4(SnAs4)2
_chemical_formula_sum   'K3 Rb5 Ba4 Sn2 As8'
_cell_volume   828.58489365
_cell_formula_units_Z   1
loop_
 _symmetry_equiv_pos_site_id
 _symmetry_equiv_pos_as_xyz
  1  'x, y, z'
loop_
 _atom_site_type_symbol
 _atom_site_label
 _atom_site_symmetry_multiplicity
 _atom_site_fract_x
 _atom_site_fract_y
 _atom_site_fract_z
 _atom_site_occupancy
  K  K0  1  0.055049  0.524839  0.616601  1
  K  K1  1  0.524111  0.054802  0.116746  1
  K  K2  1  0.285782  0.138930  0.821049  1
  Rb  Rb3  1  0.868654  0.723385  0.772463  1
  Rb  Rb4  1  0.858253  0.149358  0.803190  1
  Rb  Rb5  1  0.722363  0.868710  0.272312  1
  Rb  Rb6  1  0.136342  0.279006  0.325177  1
  Rb  Rb7  1  0.150401  0.859299  0.303624  1
  Ba  Ba8  1  0.469608  0.942994  0.613604  1
  Ba  Ba9  1  0.468348  0.520366  0.621418  1
  Ba  Ba10  1  0.941001  0.469792  0.113334  1
  Ba  Ba11  1  0.521390  0.468057  0.120859  1
  Sn  Sn12  1  0.668086  0.336478  0.503085  1
  Sn  Sn13  1  0.336377  0.668427  0.001706  1
  As  As14  1  0.663024  0.345498  0.838158  1
  As  As15  1  0.346581  0.665368  0.336759  1
  As  As16  1  0.601233  0.794190  0.871382  1
  As  As17  1  0.201645  0.393935  0.909810  1
  As  As18  1  0.196390  0.797349  0.893282  1
  As  As19  1  0.396469  0.200957  0.418633  1
  As  As20  1  0.794621  0.602477  0.370033  1
  As  As21  1  0.794269  0.195782  0.394271  1
