# generated using pymatgen
data_Lu12Tc2AsRu
_symmetry_space_group_name_H-M   'P 1'
_cell_length_a   6.14244987
_cell_length_b   7.39459543
_cell_length_c   8.90008300
_cell_angle_alpha   90.00000000
_cell_angle_beta   90.00000000
_cell_angle_gamma   90.29303583
_symmetry_Int_Tables_number   1
_chemical_formula_structural   Lu12Tc2AsRu
_chemical_formula_sum   'Lu12 Tc2 As1 Ru1'
_cell_volume   404.24477570
_cell_formula_units_Z   1
loop_
 _symmetry_equiv_pos_site_id
 _symmetry_equiv_pos_as_xyz
  1  'x, y, z'
loop_
 _atom_site_type_symbol
 _atom_site_label
 _atom_site_symmetry_multiplicity
 _atom_site_fract_x
 _atom_site_fract_y
 _atom_site_fract_z
 _atom_site_occupancy
  Lu  Lu0  1  0.349639  0.664378  0.058152  1
  Lu  Lu1  1  0.156111  0.190389  0.441249  1
  Lu  Lu2  1  0.660121  0.322156  0.564619  1
  Lu  Lu3  1  0.834729  0.822247  0.934673  1
  Lu  Lu4  1  0.660121  0.322156  0.935381  1
  Lu  Lu5  1  0.834729  0.822247  0.565327  1
  Lu  Lu6  1  0.349639  0.664378  0.441848  1
  Lu  Lu7  1  0.156111  0.190389  0.058751  1
  Lu  Lu8  1  0.870365  0.528802  0.250000  1
  Lu  Lu9  1  0.620028  0.040943  0.250000  1
  Lu  Lu10  1  0.120391  0.466498  0.750000  1
  Lu  Lu11  1  0.370429  0.960719  0.750000  1
  Tc  Tc12  1  0.455474  0.379851  0.250000  1
  Tc  Tc13  1  0.961589  0.119665  0.750000  1
  As  As14  1  0.066848  0.882472  0.250000  1
  Ru  Ru15  1  0.533673  0.622710  0.750000  1
