# generated using pymatgen
data_Dy3Er3NiI10
_symmetry_space_group_name_H-M   'P 1'
_cell_length_a   7.69265807
_cell_length_b   9.62919536
_cell_length_c   9.65326504
_cell_angle_alpha   106.87616991
_cell_angle_beta   96.75645043
_cell_angle_gamma   104.22006827
_symmetry_Int_Tables_number   1
_chemical_formula_structural   Dy3Er3NiI10
_chemical_formula_sum   'Dy3 Er3 Ni1 I10'
_cell_volume   649.38830297
_cell_formula_units_Z   1
loop_
 _symmetry_equiv_pos_site_id
 _symmetry_equiv_pos_as_xyz
  1  'x, y, z'
loop_
 _atom_site_type_symbol
 _atom_site_label
 _atom_site_symmetry_multiplicity
 _atom_site_fract_x
 _atom_site_fract_y
 _atom_site_fract_z
 _atom_site_occupancy
  Dy  Dy0  1  0.337496  0.118517  0.160944  1
  Dy  Dy1  1  0.662010  0.880195  0.838498  1
  Dy  Dy2  1  0.966011  0.278621  0.082399  1
  Er  Er3  1  0.033725  0.723625  0.917745  1
  Er  Er4  1  0.887450  0.958958  0.233307  1
  Er  Er5  1  0.112177  0.040960  0.766194  1
  Ni  Ni6  1  0.999424  0.999840  0.000097  1
  I  I7  1  0.346598  0.449028  0.273117  1
  I  I8  1  0.656504  0.550657  0.727972  1
  I  I9  1  0.770533  0.253004  0.344102  1
  I  I10  1  0.228147  0.745967  0.657090  1
  I  I11  1  0.543408  0.186727  0.905979  1
  I  I12  1  0.455310  0.812391  0.093392  1
  I  I13  1  0.746333  0.913901  0.537322  1
  I  I14  1  0.253090  0.085698  0.462629  1
  I  I15  1  0.915022  0.628441  0.180410  1
  I  I16  1  0.086761  0.373470  0.818802  1
