# generated using pymatgen
data_TaCd(Ni7B2)3
_symmetry_space_group_name_H-M   'P 1'
_cell_length_a   7.44568872
_cell_length_b   7.43354159
_cell_length_c   7.43488600
_cell_angle_alpha   59.99401710
_cell_angle_beta   60.04798278
_cell_angle_gamma   59.96748585
_symmetry_Int_Tables_number   1
_chemical_formula_structural   TaCd(Ni7B2)3
_chemical_formula_sum   'Ta1 Cd1 Ni21 B6'
_cell_volume   290.99843557
_cell_formula_units_Z   1
loop_
 _symmetry_equiv_pos_site_id
 _symmetry_equiv_pos_as_xyz
  1  'x, y, z'
loop_
 _atom_site_type_symbol
 _atom_site_label
 _atom_site_symmetry_multiplicity
 _atom_site_fract_x
 _atom_site_fract_y
 _atom_site_fract_z
 _atom_site_occupancy
  Ta  Ta0  1  0.249712  0.250158  0.250065  1
  Cd  Cd1  1  0.750371  0.749694  0.749968  1
  Ni  Ni2  1  0.999962  0.000069  0.999985  1
  Ni  Ni3  1  0.611483  0.611753  0.164930  1
  Ni  Ni4  1  0.611668  0.165160  0.611586  1
  Ni  Ni5  1  0.164545  0.611978  0.611739  1
  Ni  Ni6  1  0.611483  0.611753  0.611833  1
  Ni  Ni7  1  0.382970  0.382935  0.851279  1
  Ni  Ni8  1  0.382857  0.851047  0.383048  1
  Ni  Ni9  1  0.851475  0.382752  0.382886  1
  Ni  Ni10  1  0.382970  0.382935  0.382816  1
  Ni  Ni11  1  0.002721  0.002583  0.335680  1
  Ni  Ni12  1  0.658856  0.002701  0.335802  1
  Ni  Ni13  1  0.002741  0.659021  0.335548  1
  Ni  Ni14  1  0.659295  0.335842  0.002431  1
  Ni  Ni15  1  0.002710  0.335655  0.002621  1
  Ni  Ni16  1  0.002710  0.335655  0.659014  1
  Ni  Ni17  1  0.335541  0.658865  0.002797  1
  Ni  Ni18  1  0.335693  0.002684  0.658756  1
  Ni  Ni19  1  0.335693  0.002684  0.002867  1
  Ni  Ni20  1  0.002721  0.002583  0.659016  1
  Ni  Ni21  1  0.002741  0.659021  0.002689  1
  Ni  Ni22  1  0.658856  0.002701  0.002642  1
  B  B23  1  0.729547  0.729410  0.270521  1
  B  B24  1  0.270386  0.729511  0.270501  1
  B  B25  1  0.729713  0.270412  0.270372  1
  B  B26  1  0.270484  0.270514  0.729501  1
  B  B27  1  0.729713  0.270412  0.729503  1
  B  B28  1  0.270386  0.729511  0.729602  1
