# generated using pymatgen
data_CaTb7(Si3Ni)4
_symmetry_space_group_name_H-M   'P 1'
_cell_length_a   7.96994900
_cell_length_b   7.97704365
_cell_length_c   8.17403100
_cell_angle_alpha   90.00000000
_cell_angle_beta   90.00000000
_cell_angle_gamma   119.97058792
_symmetry_Int_Tables_number   1
_chemical_formula_structural   CaTb7(Si3Ni)4
_chemical_formula_sum   'Ca1 Tb7 Si12 Ni4'
_cell_volume   450.18711554
_cell_formula_units_Z   1
loop_
 _symmetry_equiv_pos_site_id
 _symmetry_equiv_pos_as_xyz
  1  'x, y, z'
loop_
 _atom_site_type_symbol
 _atom_site_label
 _atom_site_symmetry_multiplicity
 _atom_site_fract_x
 _atom_site_fract_y
 _atom_site_fract_z
 _atom_site_occupancy
  Ca  Ca0  1  0.500376  0.000750  0.250000  1
  Tb  Tb1  1  0.499748  0.999498  0.750000  1
  Tb  Tb2  1  0.999527  0.499761  0.250000  1
  Tb  Tb3  1  0.000522  0.500270  0.750000  1
  Tb  Tb4  1  0.500235  0.499761  0.250000  1
  Tb  Tb5  1  0.499746  0.500270  0.750000  1
  Tb  Tb6  1  0.000015  0.000030  0.250000  1
  Tb  Tb7  1  0.000020  0.000040  0.750000  1
  Si  Si8  1  0.170496  0.340992  0.000272  1
  Si  Si9  1  0.829429  0.658857  0.999872  1
  Si  Si10  1  0.657899  0.828884  0.998204  1
  Si  Si11  1  0.829429  0.658857  0.500128  1
  Si  Si12  1  0.342070  0.171127  0.997716  1
  Si  Si13  1  0.170496  0.340992  0.499728  1
  Si  Si14  1  0.170987  0.828884  0.998204  1
  Si  Si15  1  0.342070  0.171127  0.502284  1
  Si  Si16  1  0.829057  0.171127  0.997716  1
  Si  Si17  1  0.657899  0.828884  0.501796  1
  Si  Si18  1  0.829057  0.171127  0.502284  1
  Si  Si19  1  0.170987  0.828884  0.501796  1
  Ni  Ni20  1  0.332368  0.664735  0.996775  1
  Ni  Ni21  1  0.667601  0.335200  0.994901  1
  Ni  Ni22  1  0.667601  0.335200  0.505099  1
  Ni  Ni23  1  0.332368  0.664735  0.503225  1
