# generated using pymatgen
data_Pr2NdMg3Ag2Ir
_symmetry_space_group_name_H-M   'P 1'
_cell_length_a   7.95217511
_cell_length_b   7.94766645
_cell_length_c   4.04793100
_cell_angle_alpha   90.00000000
_cell_angle_beta   90.00000000
_cell_angle_gamma   119.87666576
_symmetry_Int_Tables_number   1
_chemical_formula_structural   Pr2NdMg3Ag2Ir
_chemical_formula_sum   'Pr2 Nd1 Mg3 Ag2 Ir1'
_cell_volume   221.83379019
_cell_formula_units_Z   1
loop_
 _symmetry_equiv_pos_site_id
 _symmetry_equiv_pos_as_xyz
  1  'x, y, z'
loop_
 _atom_site_type_symbol
 _atom_site_label
 _atom_site_symmetry_multiplicity
 _atom_site_fract_x
 _atom_site_fract_y
 _atom_site_fract_z
 _atom_site_occupancy
  Pr  Pr0  1  0.570170  0.973752  0.000000  1
  Pr  Pr1  1  0.026204  0.596049  0.000000  1
  Nd  Nd2  1  0.402813  0.430561  0.000000  1
  Mg  Mg3  1  0.247036  0.998264  0.500000  1
  Mg  Mg4  1  0.003756  0.249829  0.500000  1
  Mg  Mg5  1  0.749438  0.752049  0.500000  1
  Ag  Ag6  1  0.665740  0.333783  0.500000  1
  Ag  Ag7  1  0.000777  0.000858  0.000000  1
  Ir  Ir8  1  0.334067  0.664853  0.500000  1
