# generated using pymatgen
data_TbTmTh3Bi3C
_symmetry_space_group_name_H-M   'P 1'
_cell_length_a   9.34646200
_cell_length_b   9.34646378
_cell_length_c   6.47219400
_cell_angle_alpha   90.00000000
_cell_angle_beta   90.00000000
_cell_angle_gamma   120.00000080
_symmetry_Int_Tables_number   1
_chemical_formula_structural   TbTmTh3Bi3C
_chemical_formula_sum   'Tb2 Tm2 Th6 Bi6 C2'
_cell_volume   489.63981639
_cell_formula_units_Z   2
loop_
 _symmetry_equiv_pos_site_id
 _symmetry_equiv_pos_as_xyz
  1  'x, y, z'
loop_
 _atom_site_type_symbol
 _atom_site_label
 _atom_site_symmetry_multiplicity
 _atom_site_fract_x
 _atom_site_fract_y
 _atom_site_fract_z
 _atom_site_occupancy
  Tb  Tb0  1  0.666667  0.333333  0.000000  1
  Tb  Tb1  1  0.333333  0.666667  0.000000  1
  Tm  Tm2  1  0.333333  0.666667  0.500000  1
  Tm  Tm3  1  0.666667  0.333333  0.500000  1
  Th  Th4  1  0.780434  0.780434  0.750247  1
  Th  Th5  1  0.219566  0.000000  0.750247  1
  Th  Th6  1  0.000000  0.219566  0.750247  1
  Th  Th7  1  0.219566  0.219566  0.249753  1
  Th  Th8  1  0.780434  0.000000  0.249753  1
  Th  Th9  1  0.000000  0.780434  0.249753  1
  Bi  Bi10  1  0.405903  0.405903  0.748614  1
  Bi  Bi11  1  0.594097  0.000000  0.748614  1
  Bi  Bi12  1  0.000000  0.594097  0.748614  1
  Bi  Bi13  1  0.594097  0.594097  0.251386  1
  Bi  Bi14  1  0.405903  0.000000  0.251386  1
  Bi  Bi15  1  0.000000  0.405903  0.251386  1
  C  C16  1  0.000000  0.000000  0.000000  1
  C  C17  1  0.000000  0.000000  0.500000  1
