# generated using pymatgen
data_Tb2(SeO4)3
_symmetry_space_group_name_H-M   'P 1'
_cell_length_a   10.00423658
_cell_length_b   10.00423688
_cell_length_c   10.00423620
_cell_angle_alpha   58.08563433
_cell_angle_beta   58.08563211
_cell_angle_gamma   58.08564075
_symmetry_Int_Tables_number   1
_chemical_formula_structural   Tb2(SeO4)3
_chemical_formula_sum   'Tb4 Se6 O24'
_cell_volume   676.92937170
_cell_formula_units_Z   2
loop_
 _symmetry_equiv_pos_site_id
 _symmetry_equiv_pos_as_xyz
  1  'x, y, z'
loop_
 _atom_site_type_symbol
 _atom_site_label
 _atom_site_symmetry_multiplicity
 _atom_site_fract_x
 _atom_site_fract_y
 _atom_site_fract_z
 _atom_site_occupancy
  Tb  Tb0  1  0.643842  0.643842  0.643842  1
  Tb  Tb1  1  0.356158  0.356158  0.356158  1
  Tb  Tb2  1  0.143842  0.143842  0.143842  1
  Tb  Tb3  1  0.856158  0.856158  0.856158  1
  Se  Se4  1  0.750000  0.037628  0.462372  1
  Se  Se5  1  0.962371  0.537629  0.250000  1
  Se  Se6  1  0.537629  0.250000  0.962372  1
  Se  Se7  1  0.462371  0.750000  0.037629  1
  Se  Se8  1  0.037629  0.462371  0.750000  1
  Se  Se9  1  0.250000  0.962371  0.537629  1
  O  O10  1  0.917193  0.064641  0.291839  1
  O  O11  1  0.775828  0.008032  0.628431  1
  O  O12  1  0.991968  0.371569  0.224172  1
  O  O13  1  0.708161  0.082807  0.935359  1
  O  O14  1  0.582807  0.208161  0.435359  1
  O  O15  1  0.871569  0.491968  0.724172  1
  O  O16  1  0.508032  0.275828  0.128431  1
  O  O17  1  0.791839  0.564641  0.417193  1
  O  O18  1  0.935359  0.708161  0.082807  1
  O  O19  1  0.564641  0.417193  0.791839  1
  O  O20  1  0.371569  0.224172  0.991968  1
  O  O21  1  0.275828  0.128431  0.508032  1
  O  O22  1  0.724172  0.871569  0.491968  1
  O  O23  1  0.628431  0.775828  0.008032  1
  O  O24  1  0.435359  0.582807  0.208161  1
  O  O25  1  0.064641  0.291839  0.917193  1
  O  O26  1  0.208161  0.435359  0.582807  1
  O  O27  1  0.491968  0.724172  0.871569  1
  O  O28  1  0.128431  0.508032  0.275828  1
  O  O29  1  0.417193  0.791839  0.564641  1
  O  O30  1  0.291839  0.917193  0.064641  1
  O  O31  1  0.008032  0.628431  0.775828  1
  O  O32  1  0.224172  0.991968  0.371569  1
  O  O33  1  0.082807  0.935359  0.708161  1
