# generated using pymatgen
data_Lu5(In2Rh)2
_symmetry_space_group_name_H-M   'P 1'
_cell_length_a   3.52724500
_cell_length_b   7.94637400
_cell_length_c   18.07144600
_cell_angle_alpha   90.00000000
_cell_angle_beta   90.00000000
_cell_angle_gamma   90.00000000
_symmetry_Int_Tables_number   1
_chemical_formula_structural   Lu5(In2Rh)2
_chemical_formula_sum   'Lu10 In8 Rh4'
_cell_volume   506.52108949
_cell_formula_units_Z   2
loop_
 _symmetry_equiv_pos_site_id
 _symmetry_equiv_pos_as_xyz
  1  'x, y, z'
loop_
 _atom_site_type_symbol
 _atom_site_label
 _atom_site_symmetry_multiplicity
 _atom_site_fract_x
 _atom_site_fract_y
 _atom_site_fract_z
 _atom_site_occupancy
  Lu  Lu0  1  0.000000  0.883243  0.087395  1
  Lu  Lu1  1  0.000000  0.755117  0.279403  1
  Lu  Lu2  1  0.000000  0.744883  0.779403  1
  Lu  Lu3  1  0.000000  0.383243  0.412605  1
  Lu  Lu4  1  0.000000  0.116757  0.912605  1
  Lu  Lu5  1  0.000000  0.244883  0.720597  1
  Lu  Lu6  1  0.000000  0.500000  0.000000  1
  Lu  Lu7  1  0.000000  0.255117  0.220597  1
  Lu  Lu8  1  0.000000  0.616757  0.587395  1
  Lu  Lu9  1  0.000000  0.000000  0.500000  1
  In  In10  1  0.500000  0.207141  0.066614  1
  In  In11  1  0.500000  0.425841  0.850121  1
  In  In12  1  0.500000  0.574159  0.149879  1
  In  In13  1  0.500000  0.074159  0.350121  1
  In  In14  1  0.500000  0.925841  0.649879  1
  In  In15  1  0.500000  0.792859  0.933386  1
  In  In16  1  0.500000  0.707141  0.433386  1
  In  In17  1  0.500000  0.292859  0.566614  1
  Rh  Rh18  1  0.500000  0.974675  0.195872  1
  Rh  Rh19  1  0.500000  0.025325  0.804128  1
  Rh  Rh20  1  0.500000  0.525325  0.695872  1
  Rh  Rh21  1  0.500000  0.474675  0.304128  1
