# generated using pymatgen
data_Ho3Hf(Co4P3)2
_symmetry_space_group_name_H-M   'P 1'
_cell_length_a   3.70423500
_cell_length_b   10.66718800
_cell_length_c   12.35347200
_cell_angle_alpha   90.00000000
_cell_angle_beta   90.00000000
_cell_angle_gamma   90.00000000
_symmetry_Int_Tables_number   1
_chemical_formula_structural   Ho3Hf(Co4P3)2
_chemical_formula_sum   'Ho6 Hf2 Co16 P12'
_cell_volume   488.13226541
_cell_formula_units_Z   2
loop_
 _symmetry_equiv_pos_site_id
 _symmetry_equiv_pos_as_xyz
  1  'x, y, z'
loop_
 _atom_site_type_symbol
 _atom_site_label
 _atom_site_symmetry_multiplicity
 _atom_site_fract_x
 _atom_site_fract_y
 _atom_site_fract_z
 _atom_site_occupancy
  Ho  Ho0  1  0.000000  0.500000  0.528468  1
  Ho  Ho1  1  0.500000  0.000000  0.471532  1
  Ho  Ho2  1  0.500000  0.821781  0.204554  1
  Ho  Ho3  1  0.500000  0.178219  0.204554  1
  Ho  Ho4  1  0.000000  0.678219  0.795446  1
  Ho  Ho5  1  0.000000  0.321781  0.795446  1
  Hf  Hf6  1  0.500000  0.500000  0.157236  1
  Hf  Hf7  1  0.000000  0.000000  0.842764  1
  Co  Co8  1  0.000000  0.500000  0.986439  1
  Co  Co9  1  0.500000  0.000000  0.013561  1
  Co  Co10  1  0.500000  0.295227  0.433058  1
  Co  Co11  1  0.500000  0.704773  0.433058  1
  Co  Co12  1  0.000000  0.204773  0.566942  1
  Co  Co13  1  0.000000  0.795227  0.566942  1
  Co  Co14  1  0.500000  0.877640  0.702994  1
  Co  Co15  1  0.500000  0.122360  0.702994  1
  Co  Co16  1  0.000000  0.622360  0.297006  1
  Co  Co17  1  0.000000  0.377640  0.297006  1
  Co  Co18  1  0.500000  0.332098  0.993210  1
  Co  Co19  1  0.500000  0.667902  0.993210  1
  Co  Co20  1  0.000000  0.167902  0.006790  1
  Co  Co21  1  0.000000  0.832098  0.006790  1
  Co  Co22  1  0.500000  0.500000  0.702719  1
  Co  Co23  1  0.000000  0.000000  0.297281  1
  P  P24  1  0.500000  0.310505  0.615792  1
  P  P25  1  0.500000  0.689495  0.615792  1
  P  P26  1  0.000000  0.189495  0.384208  1
  P  P27  1  0.000000  0.810505  0.384208  1
  P  P28  1  0.500000  0.500000  0.882825  1
  P  P29  1  0.000000  0.000000  0.117175  1
  P  P30  1  0.500000  0.838407  0.892933  1
  P  P31  1  0.500000  0.161593  0.892933  1
  P  P32  1  0.000000  0.661593  0.107067  1
  P  P33  1  0.000000  0.338407  0.107067  1
  P  P34  1  0.500000  0.500000  0.361911  1
  P  P35  1  0.000000  0.000000  0.638089  1
