# generated using pymatgen
data_Rb16Hf3GeSe16
_symmetry_space_group_name_H-M   'P 1'
_cell_length_a   8.61374618
_cell_length_b   10.34591000
_cell_length_c   15.31802000
_cell_angle_alpha   90.00000000
_cell_angle_beta   89.79866025
_cell_angle_gamma   90.00000000
_symmetry_Int_Tables_number   1
_chemical_formula_structural   Rb16Hf3GeSe16
_chemical_formula_sum   'Rb16 Hf3 Ge1 Se16'
_cell_volume   1365.08821514
_cell_formula_units_Z   1
loop_
 _symmetry_equiv_pos_site_id
 _symmetry_equiv_pos_as_xyz
  1  'x, y, z'
loop_
 _atom_site_type_symbol
 _atom_site_label
 _atom_site_symmetry_multiplicity
 _atom_site_fract_x
 _atom_site_fract_y
 _atom_site_fract_z
 _atom_site_occupancy
  Rb  Rb0  1  0.499664  0.493261  0.500918  1
  Rb  Rb1  1  0.160581  0.454412  0.274771  1
  Rb  Rb2  1  0.160581  0.045588  0.274771  1
  Rb  Rb3  1  0.007407  0.750000  0.425811  1
  Rb  Rb4  1  0.992053  0.250000  0.571764  1
  Rb  Rb5  1  0.662664  0.941336  0.220724  1
  Rb  Rb6  1  0.338197  0.053613  0.779671  1
  Rb  Rb7  1  0.838444  0.946935  0.722140  1
  Rb  Rb8  1  0.338197  0.446387  0.779671  1
  Rb  Rb9  1  0.000392  0.506747  0.001884  1
  Rb  Rb10  1  0.502095  0.250000  0.079043  1
  Rb  Rb11  1  0.662664  0.558664  0.220724  1
  Rb  Rb12  1  0.491081  0.750000  0.925378  1
  Rb  Rb13  1  0.000392  0.993253  0.001884  1
  Rb  Rb14  1  0.838444  0.553065  0.722140  1
  Rb  Rb15  1  0.499664  0.006739  0.500918  1
  Hf  Hf16  1  0.740645  0.250000  0.836493  1
  Hf  Hf17  1  0.757093  0.250000  0.331156  1
  Hf  Hf18  1  0.241957  0.750000  0.666157  1
  Ge  Ge19  1  0.263172  0.750000  0.166054  1
  Se  Se20  1  0.534174  0.750000  0.672684  1
  Se  Se21  1  0.464426  0.250000  0.324008  1
  Se  Se22  1  0.366553  0.750000  0.313032  1
  Se  Se23  1  0.127667  0.750000  0.819127  1
  Se  Se24  1  0.032608  0.250000  0.827959  1
  Se  Se25  1  0.983184  0.750000  0.174091  1
  Se  Se26  1  0.629109  0.250000  0.683017  1
  Se  Se27  1  0.870748  0.250000  0.178273  1
  Se  Se28  1  0.846240  0.448948  0.409497  1
  Se  Se29  1  0.649511  0.051195  0.914678  1
  Se  Se30  1  0.350014  0.937275  0.090077  1
  Se  Se31  1  0.350014  0.562725  0.090077  1
  Se  Se32  1  0.152308  0.550806  0.588615  1
  Se  Se33  1  0.846240  0.051052  0.409497  1
  Se  Se34  1  0.152308  0.949194  0.588615  1
  Se  Se35  1  0.649511  0.448805  0.914678  1
