# generated using pymatgen
data_PmAl2Ni3
_symmetry_space_group_name_H-M   'P 1'
_cell_length_a   5.08482919
_cell_length_b   5.25351448
_cell_length_c   4.03653700
_cell_angle_alpha   90.00000000
_cell_angle_beta   90.00000000
_cell_angle_gamma   58.89641008
_symmetry_Int_Tables_number   1
_chemical_formula_structural   PmAl2Ni3
_chemical_formula_sum   'Pm1 Al2 Ni3'
_cell_volume   92.32686176
_cell_formula_units_Z   1
loop_
 _symmetry_equiv_pos_site_id
 _symmetry_equiv_pos_as_xyz
  1  'x, y, z'
loop_
 _atom_site_type_symbol
 _atom_site_label
 _atom_site_symmetry_multiplicity
 _atom_site_fract_x
 _atom_site_fract_y
 _atom_site_fract_z
 _atom_site_occupancy
  Pm  Pm0  1  0.999996  0.000120  0.000000  1
  Al  Al1  1  0.500231  0.999915  0.499999  1
  Al  Al2  1  0.499819  0.500179  0.499999  1
  Ni  Ni3  1  0.334004  0.332994  0.000000  1
  Ni  Ni4  1  0.665955  0.667022  0.000000  1
  Ni  Ni5  1  0.999989  0.499773  0.499999  1
