# generated using pymatgen
data_Li3Tb4HoTe8
_symmetry_space_group_name_H-M   'P 1'
_cell_length_a   8.71246580
_cell_length_b   8.71246693
_cell_length_c   8.71246500
_cell_angle_alpha   59.73278658
_cell_angle_beta   59.73278225
_cell_angle_gamma   59.73278738
_symmetry_Int_Tables_number   1
_chemical_formula_structural   Li3Tb4HoTe8
_chemical_formula_sum   'Li3 Tb4 Ho1 Te8'
_cell_volume   464.79850381
_cell_formula_units_Z   1
loop_
 _symmetry_equiv_pos_site_id
 _symmetry_equiv_pos_as_xyz
  1  'x, y, z'
loop_
 _atom_site_type_symbol
 _atom_site_label
 _atom_site_symmetry_multiplicity
 _atom_site_fract_x
 _atom_site_fract_y
 _atom_site_fract_z
 _atom_site_occupancy
  Li  Li0  1  0.125000  0.625000  0.125000  1
  Li  Li1  1  0.125000  0.125000  0.625000  1
  Li  Li2  1  0.625000  0.125000  0.125000  1
  Tb  Tb3  1  0.625000  0.125000  0.625000  1
  Tb  Tb4  1  0.625000  0.625000  0.625000  1
  Tb  Tb5  1  0.125000  0.625000  0.625000  1
  Tb  Tb6  1  0.625000  0.625000  0.125000  1
  Ho  Ho7  1  0.125000  0.125000  0.125000  1
  Te  Te8  1  0.373498  0.884099  0.373498  1
  Te  Te9  1  0.876502  0.365901  0.876502  1
  Te  Te10  1  0.876502  0.876502  0.365901  1
  Te  Te11  1  0.877494  0.877494  0.877494  1
  Te  Te12  1  0.884099  0.373498  0.373498  1
  Te  Te13  1  0.373498  0.373498  0.884099  1
  Te  Te14  1  0.372506  0.372506  0.372506  1
  Te  Te15  1  0.365901  0.876502  0.876502  1
