# generated using pymatgen
data_Zr8Mn9Si16Ru3
_symmetry_space_group_name_H-M   'P 1'
_cell_length_a   9.81522350
_cell_length_b   9.82292518
_cell_length_c   13.16891235
_cell_angle_alpha   53.74916967
_cell_angle_beta   53.77063856
_cell_angle_gamma   30.77542951
_symmetry_Int_Tables_number   1
_chemical_formula_structural   Zr8Mn9Si16Ru3
_chemical_formula_sum   'Zr8 Mn9 Si16 Ru3'
_cell_volume   513.20767406
_cell_formula_units_Z   1
loop_
 _symmetry_equiv_pos_site_id
 _symmetry_equiv_pos_as_xyz
  1  'x, y, z'
loop_
 _atom_site_type_symbol
 _atom_site_label
 _atom_site_symmetry_multiplicity
 _atom_site_fract_x
 _atom_site_fract_y
 _atom_site_fract_z
 _atom_site_occupancy
  Zr  Zr0  1  0.036790  0.293175  0.641377  1
  Zr  Zr1  1  0.706528  0.962006  0.859489  1
  Zr  Zr2  1  0.961744  0.705375  0.359146  1
  Zr  Zr3  1  0.294480  0.036332  0.141863  1
  Zr  Zr4  1  0.292721  0.564264  0.643167  1
  Zr  Zr5  1  0.435423  0.704793  0.858458  1
  Zr  Zr6  1  0.707859  0.435401  0.356977  1
  Zr  Zr7  1  0.564532  0.292569  0.142699  1
  Mn  Mn8  1  0.894170  0.148279  0.583701  1
  Mn  Mn9  1  0.851689  0.106015  0.917042  1
  Mn  Mn10  1  0.106469  0.851533  0.416440  1
  Mn  Mn11  1  0.148010  0.894022  0.083333  1
  Mn  Mn12  1  0.834367  0.647523  0.773131  1
  Mn  Mn13  1  0.349915  0.167801  0.727355  1
  Mn  Mn14  1  0.167264  0.352292  0.224298  1
  Mn  Mn15  1  0.648017  0.834877  0.271696  1
  Mn  Mn16  1  0.244946  0.512831  0.937304  1
  Si  Si17  1  0.968351  0.254866  0.895297  1
  Si  Si18  1  0.744700  0.032772  0.604444  1
  Si  Si19  1  0.031684  0.745704  0.103308  1
  Si  Si20  1  0.255910  0.966398  0.396062  1
  Si  Si21  1  0.140972  0.392594  0.893858  1
  Si  Si22  1  0.609704  0.859364  0.607983  1
  Si  Si23  1  0.864578  0.610662  0.103618  1
  Si  Si24  1  0.389899  0.139733  0.392603  1
  Si  Si25  1  0.080358  0.579842  0.564811  1
  Si  Si26  1  0.419400  0.920386  0.934583  1
  Si  Si27  1  0.918085  0.421772  0.434092  1
  Si  Si28  1  0.575697  0.086155  0.063241  1
  Si  Si29  1  0.618205  0.377582  0.752896  1
  Si  Si30  1  0.374910  0.624789  0.250069  1
  Si  Si31  1  0.112534  0.883141  0.753021  1
  Si  Si32  1  0.890567  0.109360  0.249938  1
  Ru  Ru33  1  0.484571  0.759782  0.563001  1
  Ru  Ru34  1  0.758965  0.485509  0.063060  1
  Ru  Ru35  1  0.515984  0.240500  0.436640  1
