# generated using pymatgen
data_TbDy4Rh5
_symmetry_space_group_name_H-M   'P 1'
_cell_length_a   3.43263400
_cell_length_b   3.43263400
_cell_length_c   17.15365900
_cell_angle_alpha   90.00000000
_cell_angle_beta   90.00000000
_cell_angle_gamma   90.00000000
_symmetry_Int_Tables_number   1
_chemical_formula_structural   TbDy4Rh5
_chemical_formula_sum   'Tb1 Dy4 Rh5'
_cell_volume   202.12115536
_cell_formula_units_Z   1
loop_
 _symmetry_equiv_pos_site_id
 _symmetry_equiv_pos_as_xyz
  1  'x, y, z'
loop_
 _atom_site_type_symbol
 _atom_site_label
 _atom_site_symmetry_multiplicity
 _atom_site_fract_x
 _atom_site_fract_y
 _atom_site_fract_z
 _atom_site_occupancy
  Tb  Tb0  1  0.000000  0.000000  0.000000  1
  Dy  Dy1  1  0.000000  0.000000  0.200892  1
  Dy  Dy2  1  0.000000  0.000000  0.400553  1
  Dy  Dy3  1  0.000000  0.000000  0.599447  1
  Dy  Dy4  1  0.000000  0.000000  0.799108  1
  Rh  Rh5  1  0.500000  0.500000  0.101774  1
  Rh  Rh6  1  0.500000  0.500000  0.301592  1
  Rh  Rh7  1  0.500000  0.500000  0.500000  1
  Rh  Rh8  1  0.500000  0.500000  0.698408  1
  Rh  Rh9  1  0.500000  0.500000  0.898226  1
