# generated using pymatgen
data_Sc2B4Mo2Ru3
_symmetry_space_group_name_H-M   'P 1'
_cell_length_a   3.06009200
_cell_length_b   8.69961505
_cell_length_c   10.00888979
_cell_angle_alpha   89.99458332
_cell_angle_beta   90.00000000
_cell_angle_gamma   90.00000000
_symmetry_Int_Tables_number   1
_chemical_formula_structural   Sc2B4Mo2Ru3
_chemical_formula_sum   'Sc4 B8 Mo4 Ru6'
_cell_volume   266.45288355
_cell_formula_units_Z   2
loop_
 _symmetry_equiv_pos_site_id
 _symmetry_equiv_pos_as_xyz
  1  'x, y, z'
loop_
 _atom_site_type_symbol
 _atom_site_label
 _atom_site_symmetry_multiplicity
 _atom_site_fract_x
 _atom_site_fract_y
 _atom_site_fract_z
 _atom_site_occupancy
  Sc  Sc0  1  0.500000  0.839897  0.181281  1
  Sc  Sc1  1  0.500000  0.160103  0.818719  1
  Sc  Sc2  1  0.500000  0.660152  0.681204  1
  Sc  Sc3  1  0.500000  0.339848  0.318796  1
  B  B4  1  0.500000  0.966096  0.586631  1
  B  B5  1  0.500000  0.033904  0.413369  1
  B  B6  1  0.500000  0.853782  0.898489  1
  B  B7  1  0.500000  0.146218  0.101511  1
  B  B8  1  0.500000  0.646185  0.398350  1
  B  B9  1  0.500000  0.353815  0.601650  1
  B  B10  1  0.500000  0.466313  0.913324  1
  B  B11  1  0.500000  0.533687  0.086676  1
  Mo  Mo12  1  0.000000  0.662576  0.952333  1
  Mo  Mo13  1  0.000000  0.337424  0.047667  1
  Mo  Mo14  1  0.000000  0.837452  0.452259  1
  Mo  Mo15  1  0.000000  0.162548  0.547741  1
  Ru  Ru16  1  0.000000  0.000000  0.000000  1
  Ru  Ru17  1  0.000000  0.406681  0.760821  1
  Ru  Ru18  1  0.000000  0.593319  0.239179  1
  Ru  Ru19  1  0.000000  0.500000  0.500000  1
  Ru  Ru20  1  0.000000  0.906629  0.739196  1
  Ru  Ru21  1  0.000000  0.093371  0.260804  1
