# generated using pymatgen
data_Er4Ti4Ir3Rh
_symmetry_space_group_name_H-M   'P 1'
_cell_length_a   4.33215800
_cell_length_b   6.87291373
_cell_length_c   8.09927791
_cell_angle_alpha   90.25212961
_cell_angle_beta   90.00000000
_cell_angle_gamma   90.00000000
_symmetry_Int_Tables_number   1
_chemical_formula_structural   Er4Ti4Ir3Rh
_chemical_formula_sum   'Er4 Ti4 Ir3 Rh1'
_cell_volume   241.15000567
_cell_formula_units_Z   1
loop_
 _symmetry_equiv_pos_site_id
 _symmetry_equiv_pos_as_xyz
  1  'x, y, z'
loop_
 _atom_site_type_symbol
 _atom_site_label
 _atom_site_symmetry_multiplicity
 _atom_site_fract_x
 _atom_site_fract_y
 _atom_site_fract_z
 _atom_site_occupancy
  Er  Er0  1  0.250000  0.982780  0.318305  1
  Er  Er1  1  0.250000  0.484351  0.181565  1
  Er  Er2  1  0.750000  0.014879  0.681535  1
  Er  Er3  1  0.750000  0.518225  0.817106  1
  Ti  Ti4  1  0.250000  0.359909  0.564667  1
  Ti  Ti5  1  0.250000  0.861062  0.933441  1
  Ti  Ti6  1  0.750000  0.638670  0.433361  1
  Ti  Ti7  1  0.750000  0.139742  0.069366  1
  Ir  Ir8  1  0.250000  0.722405  0.596286  1
  Ir  Ir9  1  0.750000  0.778283  0.094570  1
  Ir  Ir10  1  0.750000  0.276319  0.403997  1
  Rh  Rh11  1  0.250000  0.223374  0.905800  1
