# generated using pymatgen
data_K2CaLaB24
_symmetry_space_group_name_H-M   'P 1'
_cell_length_a   7.26729267
_cell_length_b   7.26729357
_cell_length_c   5.90558100
_cell_angle_alpha   90.00000000
_cell_angle_beta   90.00000000
_cell_angle_gamma   109.59587326
_symmetry_Int_Tables_number   1
_chemical_formula_structural   K2CaLaB24
_chemical_formula_sum   'K2 Ca1 La1 B24'
_cell_volume   293.83025530
_cell_formula_units_Z   1
loop_
 _symmetry_equiv_pos_site_id
 _symmetry_equiv_pos_as_xyz
  1  'x, y, z'
loop_
 _atom_site_type_symbol
 _atom_site_label
 _atom_site_symmetry_multiplicity
 _atom_site_fract_x
 _atom_site_fract_y
 _atom_site_fract_z
 _atom_site_occupancy
  K  K0  1  0.748633  0.251367  0.500000  1
  K  K1  1  0.251367  0.748633  0.500000  1
  Ca  Ca2  1  0.500000  0.500000  0.000000  1
  La  La3  1  0.000000  0.000000  0.000000  1
  B  B4  1  0.175841  0.324948  0.649579  1
  B  B5  1  0.925598  0.574043  0.150171  1
  B  B6  1  0.675052  0.824159  0.649579  1
  B  B7  1  0.425957  0.074402  0.150171  1
  B  B8  1  0.175841  0.324948  0.350421  1
  B  B9  1  0.925598  0.574043  0.849829  1
  B  B10  1  0.675052  0.824159  0.350421  1
  B  B11  1  0.425957  0.074402  0.849829  1
  B  B12  1  0.399390  0.399390  0.500000  1
  B  B13  1  0.149258  0.649229  0.000000  1
  B  B14  1  0.899101  0.899101  0.500000  1
  B  B15  1  0.649229  0.149258  0.000000  1
  B  B16  1  0.324948  0.175841  0.649579  1
  B  B17  1  0.074402  0.425957  0.150171  1
  B  B18  1  0.824159  0.675052  0.649579  1
  B  B19  1  0.574043  0.925598  0.150171  1
  B  B20  1  0.100899  0.100899  0.500000  1
  B  B21  1  0.850742  0.350771  0.000000  1
  B  B22  1  0.600610  0.600610  0.500000  1
  B  B23  1  0.350771  0.850742  0.000000  1
  B  B24  1  0.324948  0.175841  0.350421  1
  B  B25  1  0.074402  0.425957  0.849829  1
  B  B26  1  0.824159  0.675052  0.350421  1
  B  B27  1  0.574043  0.925598  0.849829  1
