# generated using pymatgen
data_TbHo11Co4BiRh
_symmetry_space_group_name_H-M   'P 1'
_cell_length_a   8.29745827
_cell_length_b   8.29776983
_cell_length_c   8.29559508
_cell_angle_alpha   110.97326123
_cell_angle_beta   110.65488243
_cell_angle_gamma   106.82859418
_symmetry_Int_Tables_number   1
_chemical_formula_structural   TbHo11Co4BiRh
_chemical_formula_sum   'Tb1 Ho11 Co4 Bi1 Rh1'
_cell_volume   438.91313185
_cell_formula_units_Z   1
loop_
 _symmetry_equiv_pos_site_id
 _symmetry_equiv_pos_as_xyz
  1  'x, y, z'
loop_
 _atom_site_type_symbol
 _atom_site_label
 _atom_site_symmetry_multiplicity
 _atom_site_fract_x
 _atom_site_fract_y
 _atom_site_fract_z
 _atom_site_occupancy
  Tb  Tb0  1  0.815976  0.711388  0.527360  1
  Ho  Ho1  1  0.183639  0.288516  0.472161  1
  Ho  Ho2  1  0.184027  0.711526  0.895538  1
  Ho  Ho3  1  0.816284  0.288383  0.104672  1
  Ho  Ho4  1  0.688375  0.379294  0.691127  1
  Ho  Ho5  1  0.311290  0.620485  0.308927  1
  Ho  Ho6  1  0.688429  0.997620  0.308912  1
  Ho  Ho7  1  0.311821  0.002728  0.691108  1
  Ho  Ho8  1  0.592402  0.790084  0.802754  1
  Ho  Ho9  1  0.407289  0.209780  0.197272  1
  Ho  Ho10  1  0.987490  0.789975  0.197265  1
  Ho  Ho11  1  0.012678  0.210368  0.802767  1
  Co  Co12  1  0.623132  0.000196  0.623327  1
  Co  Co13  1  0.376781  0.999994  0.376774  1
  Co  Co14  1  0.111456  0.611004  0.499885  1
  Co  Co15  1  0.888882  0.388433  0.499884  1
  Bi  Bi16  1  0.499968  0.499978  0.999941  1
  Rh  Rh17  1  0.000082  0.000248  0.000324  1
