# generated using pymatgen
data_ZrSc3(TiRe3)2
_symmetry_space_group_name_H-M   'P 1'
_cell_length_a   5.28835000
_cell_length_b   5.28834962
_cell_length_c   8.77753000
_cell_angle_alpha   90.00000000
_cell_angle_beta   90.00000000
_cell_angle_gamma   120.00000241
_symmetry_Int_Tables_number   1
_chemical_formula_structural   ZrSc3(TiRe3)2
_chemical_formula_sum   'Zr1 Sc3 Ti2 Re6'
_cell_volume   212.59022566
_cell_formula_units_Z   1
loop_
 _symmetry_equiv_pos_site_id
 _symmetry_equiv_pos_as_xyz
  1  'x, y, z'
loop_
 _atom_site_type_symbol
 _atom_site_label
 _atom_site_symmetry_multiplicity
 _atom_site_fract_x
 _atom_site_fract_y
 _atom_site_fract_z
 _atom_site_occupancy
  Zr  Zr0  1  0.333333  0.666667  0.065200  1
  Sc  Sc1  1  0.333333  0.666667  0.436276  1
  Sc  Sc2  1  0.666667  0.333333  0.934671  1
  Sc  Sc3  1  0.666667  0.333333  0.564309  1
  Ti  Ti4  1  0.000000  0.000000  0.499538  1
  Ti  Ti5  1  0.000000  0.000000  0.000048  1
  Re  Re6  1  0.660349  0.830174  0.750241  1
  Re  Re7  1  0.339829  0.169914  0.249745  1
  Re  Re8  1  0.830086  0.169914  0.249745  1
  Re  Re9  1  0.169826  0.339651  0.750241  1
  Re  Re10  1  0.169826  0.830174  0.750241  1
  Re  Re11  1  0.830086  0.660171  0.249745  1
