# generated using pymatgen
data_YHo19(Bi2P)4
_symmetry_space_group_name_H-M   'P 1'
_cell_length_a   7.95686201
_cell_length_b   8.94818700
_cell_length_c   12.10094901
_cell_angle_alpha   90.00000000
_cell_angle_beta   90.00483423
_cell_angle_gamma   90.00000000
_symmetry_Int_Tables_number   1
_chemical_formula_structural   YHo19(Bi2P)4
_chemical_formula_sum   'Y1 Ho19 Bi8 P4'
_cell_volume   861.58138500
_cell_formula_units_Z   1
loop_
 _symmetry_equiv_pos_site_id
 _symmetry_equiv_pos_as_xyz
  1  'x, y, z'
loop_
 _atom_site_type_symbol
 _atom_site_label
 _atom_site_symmetry_multiplicity
 _atom_site_fract_x
 _atom_site_fract_y
 _atom_site_fract_z
 _atom_site_occupancy
  Y  Y0  1  0.850203  0.750000  0.793825  1
  Ho  Ho1  1  0.149665  0.250000  0.205834  1
  Ho  Ho2  1  0.350266  0.250000  0.705781  1
  Ho  Ho3  1  0.649676  0.750000  0.294164  1
  Ho  Ho4  1  0.375816  0.750000  0.699664  1
  Ho  Ho5  1  0.623968  0.250000  0.300324  1
  Ho  Ho6  1  0.876011  0.250000  0.800230  1
  Ho  Ho7  1  0.124057  0.750000  0.199822  1
  Ho  Ho8  1  0.958295  0.750000  0.501798  1
  Ho  Ho9  1  0.041799  0.250000  0.498063  1
  Ho  Ho10  1  0.458242  0.250000  0.998088  1
  Ho  Ho11  1  0.541699  0.750000  0.001999  1
  Ho  Ho12  1  0.682424  0.050738  0.563945  1
  Ho  Ho13  1  0.317622  0.949398  0.436013  1
  Ho  Ho14  1  0.182466  0.949404  0.936045  1
  Ho  Ho15  1  0.317622  0.550602  0.436013  1
  Ho  Ho16  1  0.817515  0.050631  0.063955  1
  Ho  Ho17  1  0.682424  0.449262  0.563945  1
  Ho  Ho18  1  0.817515  0.449369  0.063955  1
  Ho  Ho19  1  0.182466  0.550596  0.936045  1
  Bi  Bi20  1  0.576374  0.490346  0.826690  1
  Bi  Bi21  1  0.423160  0.509438  0.173359  1
  Bi  Bi22  1  0.077189  0.509128  0.673116  1
  Bi  Bi23  1  0.423160  0.990562  0.173359  1
  Bi  Bi24  1  0.923179  0.490545  0.326652  1
  Bi  Bi25  1  0.576374  0.009654  0.826690  1
  Bi  Bi26  1  0.923179  0.009455  0.326652  1
  Bi  Bi27  1  0.077189  0.990872  0.673116  1
  P  P28  1  0.575388  0.750000  0.512887  1
  P  P29  1  0.424670  0.250000  0.487177  1
  P  P30  1  0.075372  0.250000  0.987165  1
  P  P31  1  0.925017  0.750000  0.013628  1
