# generated using pymatgen
data_Ho2Ni12AsP6
_symmetry_space_group_name_H-M   'P 1'
_cell_length_a   9.11620500
_cell_length_b   9.11620515
_cell_length_c   3.65768800
_cell_angle_alpha   90.00000000
_cell_angle_beta   90.00000000
_cell_angle_gamma   119.99999680
_symmetry_Int_Tables_number   1
_chemical_formula_structural   Ho2Ni12AsP6
_chemical_formula_sum   'Ho2 Ni12 As1 P6'
_cell_volume   263.24823974
_cell_formula_units_Z   1
loop_
 _symmetry_equiv_pos_site_id
 _symmetry_equiv_pos_as_xyz
  1  'x, y, z'
loop_
 _atom_site_type_symbol
 _atom_site_label
 _atom_site_symmetry_multiplicity
 _atom_site_fract_x
 _atom_site_fract_y
 _atom_site_fract_z
 _atom_site_occupancy
  Ho  Ho0  1  0.666667  0.333333  0.500000  1
  Ho  Ho1  1  0.333333  0.666667  0.000000  1
  Ni  Ni2  1  0.617716  0.565546  0.000000  1
  Ni  Ni3  1  0.843086  0.714672  0.500000  1
  Ni  Ni4  1  0.947830  0.382284  0.000000  1
  Ni  Ni5  1  0.285328  0.128414  0.500000  1
  Ni  Ni6  1  0.135621  0.243597  0.000000  1
  Ni  Ni7  1  0.107976  0.864379  0.000000  1
  Ni  Ni8  1  0.756403  0.892024  0.000000  1
  Ni  Ni9  1  0.374834  0.437859  0.500000  1
  Ni  Ni10  1  0.562141  0.936975  0.500000  1
  Ni  Ni11  1  0.063025  0.625166  0.500000  1
  Ni  Ni12  1  0.871586  0.156914  0.500000  1
  Ni  Ni13  1  0.434454  0.052170  0.000000  1
  As  As14  1  0.000000  0.000000  0.500000  1
  P  P15  1  0.703832  0.111974  0.000000  1
  P  P16  1  0.113318  0.406782  0.500000  1
  P  P17  1  0.593218  0.706537  0.500000  1
  P  P18  1  0.293463  0.886682  0.500000  1
  P  P19  1  0.888026  0.591858  0.000000  1
  P  P20  1  0.408142  0.296168  0.000000  1
