# generated using pymatgen
data_LiTm(TeO4)2
_symmetry_space_group_name_H-M   'P 1'
_cell_length_a   5.94609800
_cell_length_b   5.07693147
_cell_length_c   10.96515600
_cell_angle_alpha   64.71880498
_cell_angle_beta   90.00000000
_cell_angle_gamma   90.00000000
_symmetry_Int_Tables_number   1
_chemical_formula_structural   LiTm(TeO4)2
_chemical_formula_sum   'Li2 Tm2 Te4 O16'
_cell_volume   299.31164535
_cell_formula_units_Z   2
loop_
 _symmetry_equiv_pos_site_id
 _symmetry_equiv_pos_as_xyz
  1  'x, y, z'
loop_
 _atom_site_type_symbol
 _atom_site_label
 _atom_site_symmetry_multiplicity
 _atom_site_fract_x
 _atom_site_fract_y
 _atom_site_fract_z
 _atom_site_occupancy
  Li  Li0  1  0.719706  0.000000  0.750000  1
  Li  Li1  1  0.280294  0.000000  0.250000  1
  Tm  Tm2  1  0.368362  0.500000  0.750000  1
  Tm  Tm3  1  0.631638  0.500000  0.250000  1
  Te  Te4  1  0.840995  0.743662  0.502954  1
  Te  Te5  1  0.159005  0.256338  0.497046  1
  Te  Te6  1  0.840995  0.256338  0.997046  1
  Te  Te7  1  0.159005  0.743662  0.002954  1
  O  O8  1  0.891842  0.830040  0.102361  1
  O  O9  1  0.108158  0.169960  0.897639  1
  O  O10  1  0.891842  0.169960  0.397639  1
  O  O11  1  0.108158  0.830040  0.602361  1
  O  O12  1  0.368798  0.727959  0.879965  1
  O  O13  1  0.631202  0.272041  0.120035  1
  O  O14  1  0.368798  0.272041  0.620035  1
  O  O15  1  0.631202  0.727959  0.379965  1
  O  O16  1  0.910194  0.674086  0.890312  1
  O  O17  1  0.089806  0.325914  0.109688  1
  O  O18  1  0.910194  0.325914  0.609688  1
  O  O19  1  0.089806  0.674086  0.390312  1
  O  O20  1  0.646140  0.774168  0.630344  1
  O  O21  1  0.353860  0.225832  0.369656  1
  O  O22  1  0.646140  0.225832  0.869656  1
  O  O23  1  0.353860  0.774168  0.130344  1
