# generated using pymatgen
data_Sm10Si16Hg
_symmetry_space_group_name_H-M   'P 1'
_cell_length_a   11.32005262
_cell_length_b   11.25955643
_cell_length_c   11.32002476
_cell_angle_alpha   144.56107050
_cell_angle_beta   135.92593537
_cell_angle_gamma   57.88198922
_symmetry_Int_Tables_number   1
_chemical_formula_structural   Sm10Si16Hg
_chemical_formula_sum   'Sm10 Si16 Hg1'
_cell_volume   576.75749063
_cell_formula_units_Z   1
loop_
 _symmetry_equiv_pos_site_id
 _symmetry_equiv_pos_as_xyz
  1  'x, y, z'
loop_
 _atom_site_type_symbol
 _atom_site_label
 _atom_site_symmetry_multiplicity
 _atom_site_fract_x
 _atom_site_fract_y
 _atom_site_fract_z
 _atom_site_occupancy
  Sm  Sm0  1  0.754177  0.761234  0.516155  1
  Sm  Sm1  1  0.444034  0.969569  0.016205  1
  Sm  Sm2  1  0.849252  0.365157  0.018346  1
  Sm  Sm3  1  0.953361  0.969571  0.525535  1
  Sm  Sm4  1  0.151639  0.165484  0.517817  1
  Sm  Sm5  1  0.346818  0.365153  0.515903  1
  Sm  Sm6  1  0.245083  0.761240  0.007065  1
  Sm  Sm7  1  0.545940  0.560659  0.500247  1
  Sm  Sm8  1  0.060409  0.560656  0.014716  1
  Sm  Sm9  1  0.647667  0.165481  0.013831  1
  Si  Si10  1  0.199203  0.591582  0.392374  1
  Si  Si11  1  0.000219  0.085018  0.084801  1
  Si  Si12  1  0.700463  0.282771  0.582307  1
  Si  Si13  1  0.801354  0.187533  0.386173  1
  Si  Si14  1  0.896542  0.504447  0.607909  1
  Si  Si15  1  0.413321  0.861831  0.448508  1
  Si  Si16  1  0.102852  0.710359  0.607510  1
  Si  Si17  1  0.300820  0.896282  0.595457  1
  Si  Si18  1  0.586451  0.040217  0.453767  1
  Si  Si19  1  0.999329  0.430226  0.430893  1
  Si  Si20  1  0.884151  0.839140  0.954990  1
  Si  Si21  1  0.399786  0.499496  0.099703  1
  Si  Si22  1  0.115927  0.075008  0.959084  1
  Si  Si23  1  0.289353  0.236690  0.947340  1
  Si  Si24  1  0.498957  0.401162  0.902220  1
  Si  Si25  1  0.596624  0.703853  0.107238  1
  Hg  Hg26  1  0.716267  0.671683  0.955406  1
