# generated using pymatgen
data_TbCe6HoF30
_symmetry_space_group_name_H-M   'P 1'
_cell_length_a   8.61717091
_cell_length_b   8.61717037
_cell_length_c   8.60451500
_cell_angle_alpha   79.67231256
_cell_angle_beta   79.67231322
_cell_angle_gamma   100.29561900
_symmetry_Int_Tables_number   1
_chemical_formula_structural   TbCe6HoF30
_chemical_formula_sum   'Tb1 Ce6 Ho1 F30'
_cell_volume   603.54278245
_cell_formula_units_Z   1
loop_
 _symmetry_equiv_pos_site_id
 _symmetry_equiv_pos_as_xyz
  1  'x, y, z'
loop_
 _atom_site_type_symbol
 _atom_site_label
 _atom_site_symmetry_multiplicity
 _atom_site_fract_x
 _atom_site_fract_y
 _atom_site_fract_z
 _atom_site_occupancy
  Tb  Tb0  1  0.178493  0.821507  0.250000  1
  Ce  Ce1  1  0.749513  0.250487  0.250000  1
  Ce  Ce2  1  0.250555  0.749445  0.750000  1
  Ce  Ce3  1  0.754411  0.678397  0.673474  1
  Ce  Ce4  1  0.321603  0.245589  0.826526  1
  Ce  Ce5  1  0.245132  0.321369  0.327314  1
  Ce  Ce6  1  0.678631  0.754868  0.172686  1
  Ho  Ho7  1  0.821457  0.178543  0.750000  1
  F  F8  1  0.317866  0.349495  0.053156  1
  F  F9  1  0.943436  0.814963  0.155417  1
  F  F10  1  0.843989  0.449899  0.683706  1
  F  F11  1  0.451910  0.844618  0.182982  1
  F  F12  1  0.814790  0.944614  0.656394  1
  F  F13  1  0.349575  0.317925  0.553174  1
  F  F14  1  0.682075  0.650425  0.946825  1
  F  F15  1  0.055386  0.185210  0.843606  1
  F  F16  1  0.155382  0.548090  0.317018  1
  F  F17  1  0.550101  0.156011  0.816294  1
  F  F18  1  0.185037  0.056564  0.344583  1
  F  F19  1  0.650505  0.682134  0.446844  1
  F  F20  1  0.776841  0.275484  0.989900  1
  F  F21  1  0.010768  0.276304  0.216552  1
  F  F22  1  0.779869  0.510249  0.223015  1
  F  F23  1  0.510302  0.779786  0.723034  1
  F  F24  1  0.276381  0.010785  0.716565  1
  F  F25  1  0.276223  0.776607  0.490343  1
  F  F26  1  0.223393  0.723777  0.009657  1
  F  F27  1  0.989215  0.723619  0.783435  1
  F  F28  1  0.220214  0.489698  0.776966  1
  F  F29  1  0.489751  0.220131  0.276985  1
  F  F30  1  0.723696  0.989232  0.283448  1
  F  F31  1  0.724516  0.223159  0.510100  1
  F  F32  1  0.466373  0.533627  0.250000  1
  F  F33  1  0.750239  0.963955  0.964057  1
  F  F34  1  0.036045  0.249761  0.535943  1
  F  F35  1  0.250229  0.037454  0.034527  1
  F  F36  1  0.962546  0.749771  0.465473  1
  F  F37  1  0.533553  0.466447  0.750000  1
