# generated using pymatgen
data_Cs4MnZnSe4
_symmetry_space_group_name_H-M   'P 1'
_cell_length_a   8.88319078
_cell_length_b   8.88319122
_cell_length_c   8.88319064
_cell_angle_alpha   135.23251860
_cell_angle_beta   128.94203104
_cell_angle_gamma   70.21422212
_symmetry_Int_Tables_number   1
_chemical_formula_structural   Cs4MnZnSe4
_chemical_formula_sum   'Cs4 Mn1 Zn1 Se4'
_cell_volume   376.45458224
_cell_formula_units_Z   1
loop_
 _symmetry_equiv_pos_site_id
 _symmetry_equiv_pos_as_xyz
  1  'x, y, z'
loop_
 _atom_site_type_symbol
 _atom_site_label
 _atom_site_symmetry_multiplicity
 _atom_site_fract_x
 _atom_site_fract_y
 _atom_site_fract_z
 _atom_site_occupancy
  Cs  Cs0  1  0.520022  0.854206  0.667325  1
  Cs  Cs1  1  0.479978  0.147303  0.334185  1
  Cs  Cs2  1  0.813117  0.645794  0.165815  1
  Cs  Cs3  1  0.186883  0.352697  0.832675  1
  Mn  Mn4  1  0.000000  0.750000  0.750000  1
  Zn  Zn5  1  0.000000  0.250000  0.250000  1
  Se  Se6  1  0.079625  0.907529  0.178198  1
  Se  Se7  1  0.729331  0.401427  0.321802  1
  Se  Se8  1  0.920375  0.098573  0.827904  1
  Se  Se9  1  0.270670  0.592471  0.672096  1
