# generated using pymatgen
data_Pr10(SnBi)3
_symmetry_space_group_name_H-M   'P 1'
_cell_length_a   9.52085000
_cell_length_b   9.52085090
_cell_length_c   6.71006100
_cell_angle_alpha   90.00000000
_cell_angle_beta   90.00000000
_cell_angle_gamma   119.99999689
_symmetry_Int_Tables_number   1
_chemical_formula_structural   Pr10(SnBi)3
_chemical_formula_sum   'Pr10 Sn3 Bi3'
_cell_volume   526.75491958
_cell_formula_units_Z   1
loop_
 _symmetry_equiv_pos_site_id
 _symmetry_equiv_pos_as_xyz
  1  'x, y, z'
loop_
 _atom_site_type_symbol
 _atom_site_label
 _atom_site_symmetry_multiplicity
 _atom_site_fract_x
 _atom_site_fract_y
 _atom_site_fract_z
 _atom_site_occupancy
  Pr  Pr0  1  0.666667  0.333333  0.503480  1
  Pr  Pr1  1  0.333333  0.666667  0.503480  1
  Pr  Pr2  1  0.333333  0.666667  0.996520  1
  Pr  Pr3  1  0.666667  0.333333  0.996520  1
  Pr  Pr4  1  0.756031  0.756031  0.250000  1
  Pr  Pr5  1  0.243969  0.000000  0.250000  1
  Pr  Pr6  1  0.000000  0.243969  0.250000  1
  Pr  Pr7  1  0.244373  0.244373  0.750000  1
  Pr  Pr8  1  0.755627  0.000000  0.750000  1
  Pr  Pr9  1  0.000000  0.755627  0.750000  1
  Sn  Sn10  1  0.608553  0.608553  0.750000  1
  Sn  Sn11  1  0.391447  0.000000  0.750000  1
  Sn  Sn12  1  0.000000  0.391447  0.750000  1
  Bi  Bi13  1  0.390657  0.390657  0.250000  1
  Bi  Bi14  1  0.609343  0.000000  0.250000  1
  Bi  Bi15  1  0.000000  0.609343  0.250000  1
