# generated using pymatgen
data_Er9Tm11(IrRh5)2
_symmetry_space_group_name_H-M   'P 1'
_cell_length_a   10.77764001
_cell_length_b   10.77805001
_cell_length_c   6.30949912
_cell_angle_alpha   89.99494660
_cell_angle_beta   90.01417021
_cell_angle_gamma   89.99933127
_symmetry_Int_Tables_number   1
_chemical_formula_structural   Er9Tm11(IrRh5)2
_chemical_formula_sum   'Er9 Tm11 Ir2 Rh10'
_cell_volume   732.92365181
_cell_formula_units_Z   1
loop_
 _symmetry_equiv_pos_site_id
 _symmetry_equiv_pos_as_xyz
  1  'x, y, z'
loop_
 _atom_site_type_symbol
 _atom_site_label
 _atom_site_symmetry_multiplicity
 _atom_site_fract_x
 _atom_site_fract_y
 _atom_site_fract_z
 _atom_site_occupancy
  Er  Er0  1  0.290775  0.089383  0.377552  1
  Er  Er1  1  0.290766  0.910581  0.877594  1
  Er  Er2  1  0.709060  0.087974  0.876825  1
  Er  Er3  1  0.709054  0.912016  0.376839  1
  Er  Er4  1  0.586515  0.790274  0.877305  1
  Er  Er5  1  0.586527  0.209722  0.377332  1
  Er  Er6  1  0.411260  0.790663  0.377749  1
  Er  Er7  1  0.411339  0.209294  0.877850  1
  Er  Er8  1  0.209997  0.413474  0.622075  1
  Tm  Tm9  1  0.209869  0.586539  0.121886  1
  Tm  Tm10  1  0.791579  0.411675  0.122526  1
  Tm  Tm11  1  0.791553  0.588317  0.622524  1
  Tm  Tm12  1  0.912492  0.708934  0.122450  1
  Tm  Tm13  1  0.912379  0.291020  0.622453  1
  Tm  Tm14  1  0.089498  0.708599  0.622675  1
  Tm  Tm15  1  0.089460  0.291462  0.122703  1
  Tm  Tm16  1  0.999818  0.999732  0.500111  1
  Tm  Tm17  1  0.999822  0.000276  0.000113  1
  Tm  Tm18  1  0.500011  0.499790  0.000094  1
  Tm  Tm19  1  0.500120  0.500259  0.500010  1
  Ir  Ir20  1  0.346165  0.345526  0.249768  1
  Ir  Ir21  1  0.346123  0.654544  0.750182  1
  Rh  Rh22  1  0.845937  0.153988  0.250368  1
  Rh  Rh23  1  0.845932  0.846005  0.750381  1
  Rh  Rh24  1  0.152725  0.153634  0.750042  1
  Rh  Rh25  1  0.152763  0.846198  0.249950  1
  Rh  Rh26  1  0.655057  0.346420  0.750169  1
  Rh  Rh27  1  0.655069  0.653568  0.250177  1
  Rh  Rh28  1  0.500338  0.999902  0.122939  1
  Rh  Rh29  1  0.500341  0.000094  0.622950  1
  Rh  Rh30  1  0.998842  0.499963  0.877364  1
  Rh  Rh31  1  0.998814  0.500174  0.377043  1
