# generated using pymatgen
data_Dy10Y6Cd4Co3Ir
_symmetry_space_group_name_H-M   'P 1'
_cell_length_a   9.55978001
_cell_length_b   9.52596904
_cell_length_c   9.52596900
_cell_angle_alpha   59.99999668
_cell_angle_beta   60.11692409
_cell_angle_gamma   60.11692652
_symmetry_Int_Tables_number   1
_chemical_formula_structural   Dy10Y6Cd4Co3Ir
_chemical_formula_sum   'Dy10 Y6 Cd4 Co3 Ir1'
_cell_volume   614.49238113
_cell_formula_units_Z   1
loop_
 _symmetry_equiv_pos_site_id
 _symmetry_equiv_pos_as_xyz
  1  'x, y, z'
loop_
 _atom_site_type_symbol
 _atom_site_label
 _atom_site_symmetry_multiplicity
 _atom_site_fract_x
 _atom_site_fract_y
 _atom_site_fract_z
 _atom_site_occupancy
  Dy  Dy0  1  0.342778  0.349970  0.349970  1
  Dy  Dy1  1  0.342778  0.349970  0.957281  1
  Dy  Dy2  1  0.342778  0.957281  0.349970  1
  Dy  Dy3  1  0.960406  0.346531  0.346531  1
  Dy  Dy4  1  0.816345  0.188289  0.188289  1
  Dy  Dy5  1  0.188144  0.812296  0.812296  1
  Dy  Dy6  1  0.188144  0.812296  0.187264  1
  Dy  Dy7  1  0.816345  0.188289  0.807078  1
  Dy  Dy8  1  0.188144  0.187264  0.812296  1
  Dy  Dy9  1  0.816345  0.807078  0.188289  1
  Y  Y10  1  0.937100  0.562607  0.562607  1
  Y  Y11  1  0.562366  0.938237  0.938237  1
  Y  Y12  1  0.562366  0.938237  0.561161  1
  Y  Y13  1  0.937100  0.562607  0.937686  1
  Y  Y14  1  0.562366  0.561161  0.938237  1
  Y  Y15  1  0.937100  0.937686  0.562607  1
  Cd  Cd16  1  0.580412  0.579993  0.579993  1
  Cd  Cd17  1  0.580412  0.579993  0.259602  1
  Cd  Cd18  1  0.580412  0.259602  0.579993  1
  Cd  Cd19  1  0.259173  0.580276  0.580276  1
  Co  Co20  1  0.141240  0.141271  0.141271  1
  Co  Co21  1  0.141240  0.141271  0.576218  1
  Co  Co22  1  0.141240  0.576218  0.141271  1
  Ir  Ir23  1  0.575268  0.141577  0.141577  1
