# generated using pymatgen
data_Tm9Sc(SiSb)4
_symmetry_space_group_name_H-M   'P 1'
_cell_length_a   8.38336401
_cell_length_b   8.38349147
_cell_length_c   7.72761008
_cell_angle_alpha   89.99026928
_cell_angle_beta   89.99433819
_cell_angle_gamma   125.28031287
_symmetry_Int_Tables_number   1
_chemical_formula_structural   Tm9Sc(SiSb)4
_chemical_formula_sum   'Tm9 Sc1 Si4 Sb4'
_cell_volume   443.36094375
_cell_formula_units_Z   1
loop_
 _symmetry_equiv_pos_site_id
 _symmetry_equiv_pos_as_xyz
  1  'x, y, z'
loop_
 _atom_site_type_symbol
 _atom_site_label
 _atom_site_symmetry_multiplicity
 _atom_site_fract_x
 _atom_site_fract_y
 _atom_site_fract_z
 _atom_site_occupancy
  Tm  Tm0  1  0.539781  0.789619  0.166523  1
  Tm  Tm1  1  0.291891  0.041847  0.335817  1
  Tm  Tm2  1  0.210382  0.460216  0.833487  1
  Tm  Tm3  1  0.958147  0.708102  0.664173  1
  Tm  Tm4  1  0.708109  0.958153  0.664183  1
  Tm  Tm5  1  0.460219  0.210381  0.833477  1
  Tm  Tm6  1  0.789618  0.539784  0.166513  1
  Tm  Tm7  1  0.041853  0.291898  0.335827  1
  Tm  Tm8  1  0.000000  0.000000  0.000000  1
  Sc  Sc9  1  0.500000  0.500000  0.500000  1
  Si  Si10  1  0.632236  0.632236  0.866541  1
  Si  Si11  1  0.134681  0.134680  0.630918  1
  Si  Si12  1  0.865319  0.865320  0.369082  1
  Si  Si13  1  0.367764  0.367764  0.133459  1
  Sb  Sb14  1  0.295514  0.704488  0.500001  1
  Sb  Sb15  1  0.206318  0.793680  0.000003  1
  Sb  Sb16  1  0.704486  0.295512  0.499999  1
  Sb  Sb17  1  0.793682  0.206320  0.999997  1
