# generated using pymatgen
data_Sm6UO11F
_symmetry_space_group_name_H-M   'P 1'
_cell_length_a   6.74463962
_cell_length_b   6.72353396
_cell_length_c   6.76014494
_cell_angle_alpha   99.20834971
_cell_angle_beta   99.21035602
_cell_angle_gamma   99.03302867
_symmetry_Int_Tables_number   1
_chemical_formula_structural   Sm6UO11F
_chemical_formula_sum   'Sm6 U1 O11 F1'
_cell_volume   293.41278161
_cell_formula_units_Z   1
loop_
 _symmetry_equiv_pos_site_id
 _symmetry_equiv_pos_as_xyz
  1  'x, y, z'
loop_
 _atom_site_type_symbol
 _atom_site_label
 _atom_site_symmetry_multiplicity
 _atom_site_fract_x
 _atom_site_fract_y
 _atom_site_fract_z
 _atom_site_occupancy
  Sm  Sm0  1  0.312331  0.608682  0.147408  1
  Sm  Sm1  1  0.618302  0.137072  0.290737  1
  Sm  Sm2  1  0.390902  0.842677  0.692641  1
  Sm  Sm3  1  0.699268  0.400569  0.869250  1
  Sm  Sm4  1  0.856382  0.690247  0.393643  1
  Sm  Sm5  1  0.126453  0.313032  0.610146  1
  U  U6  1  0.003441  0.001058  0.997787  1
  O  O7  1  0.926447  0.691785  0.052440  1
  O  O8  1  0.174761  0.583605  0.434506  1
  O  O9  1  0.814496  0.406990  0.566790  1
  O  O10  1  0.567261  0.831286  0.420383  1
  O  O11  1  0.587493  0.436531  0.180563  1
  O  O12  1  0.411840  0.557435  0.818840  1
  O  O13  1  0.954076  0.074565  0.306616  1
  O  O14  1  0.059073  0.932626  0.689942  1
  O  O15  1  0.689173  0.057201  0.929962  1
  O  O16  1  0.069129  0.311869  0.949241  1
  O  O17  1  0.311528  0.945662  0.070901  1
  F  F18  1  0.427642  0.177108  0.578206  1
