# generated using pymatgen
data_UTcF12
_symmetry_space_group_name_H-M   'P 1'
_cell_length_a   5.29671200
_cell_length_b   9.19034400
_cell_length_c   10.34791800
_cell_angle_alpha   90.00000000
_cell_angle_beta   90.00000000
_cell_angle_gamma   90.00000000
_symmetry_Int_Tables_number   1
_chemical_formula_structural   UTcF12
_chemical_formula_sum   'U2 Tc2 F24'
_cell_volume   503.72221651
_cell_formula_units_Z   2
loop_
 _symmetry_equiv_pos_site_id
 _symmetry_equiv_pos_as_xyz
  1  'x, y, z'
loop_
 _atom_site_type_symbol
 _atom_site_label
 _atom_site_symmetry_multiplicity
 _atom_site_fract_x
 _atom_site_fract_y
 _atom_site_fract_z
 _atom_site_occupancy
  U  U0  1  0.068701  0.250000  0.867164  1
  U  U1  1  0.568701  0.750000  0.632836  1
  Tc  Tc2  1  0.932526  0.750000  0.134289  1
  Tc  Tc3  1  0.432526  0.250000  0.365711  1
  F  F4  1  0.194315  0.750000  0.014666  1
  F  F5  1  0.389542  0.905292  0.736770  1
  F  F6  1  0.094948  0.606553  0.229597  1
  F  F7  1  0.281043  0.750000  0.504070  1
  F  F8  1  0.670256  0.750000  0.254145  1
  F  F9  1  0.889542  0.405292  0.763230  1
  F  F10  1  0.170256  0.250000  0.245855  1
  F  F11  1  0.389542  0.594708  0.736770  1
  F  F12  1  0.854265  0.750000  0.763173  1
  F  F13  1  0.268782  0.107055  0.461369  1
  F  F14  1  0.594948  0.393447  0.270403  1
  F  F15  1  0.746176  0.905048  0.528256  1
  F  F16  1  0.354265  0.250000  0.736827  1
  F  F17  1  0.094948  0.893447  0.229597  1
  F  F18  1  0.268782  0.392945  0.461369  1
  F  F19  1  0.246176  0.094952  0.971744  1
  F  F20  1  0.694315  0.250000  0.485334  1
  F  F21  1  0.781043  0.250000  0.995930  1
  F  F22  1  0.889542  0.094708  0.763230  1
  F  F23  1  0.246176  0.405048  0.971744  1
  F  F24  1  0.768782  0.607055  0.038631  1
  F  F25  1  0.768782  0.892945  0.038631  1
  F  F26  1  0.746176  0.594952  0.528256  1
  F  F27  1  0.594948  0.106553  0.270403  1
