# generated using pymatgen
data_CsZrCuAs2
_symmetry_space_group_name_H-M   'P 1'
_cell_length_a   8.34725828
_cell_length_b   8.34725864
_cell_length_c   8.34725763
_cell_angle_alpha   150.28970496
_cell_angle_beta   150.28971061
_cell_angle_gamma   42.51630526
_symmetry_Int_Tables_number   1
_chemical_formula_structural   CsZrCuAs2
_chemical_formula_sum   'Cs1 Zr1 Cu1 As2'
_cell_volume   142.50905117
_cell_formula_units_Z   1
loop_
 _symmetry_equiv_pos_site_id
 _symmetry_equiv_pos_as_xyz
  1  'x, y, z'
loop_
 _atom_site_type_symbol
 _atom_site_label
 _atom_site_symmetry_multiplicity
 _atom_site_fract_x
 _atom_site_fract_y
 _atom_site_fract_z
 _atom_site_occupancy
  Cs  Cs0  1  0.000000  0.000000  0.000000  1
  Zr  Zr1  1  0.250000  0.750000  0.500000  1
  Cu  Cu2  1  0.750000  0.250000  0.500000  1
  As  As3  1  0.653836  0.653836  0.000000  1
  As  As4  1  0.346164  0.346164  0.000000  1
