# generated using pymatgen
data_Li2Ni9Mo3As7
_symmetry_space_group_name_H-M   'P 1'
_cell_length_a   9.45957700
_cell_length_b   9.45957639
_cell_length_c   3.75270600
_cell_angle_alpha   90.00000000
_cell_angle_beta   90.00000000
_cell_angle_gamma   120.00000562
_symmetry_Int_Tables_number   1
_chemical_formula_structural   Li2Ni9Mo3As7
_chemical_formula_sum   'Li2 Ni9 Mo3 As7'
_cell_volume   290.81617237
_cell_formula_units_Z   1
loop_
 _symmetry_equiv_pos_site_id
 _symmetry_equiv_pos_as_xyz
  1  'x, y, z'
loop_
 _atom_site_type_symbol
 _atom_site_label
 _atom_site_symmetry_multiplicity
 _atom_site_fract_x
 _atom_site_fract_y
 _atom_site_fract_z
 _atom_site_occupancy
  Li  Li0  1  0.333333  0.666667  0.000000  1
  Li  Li1  1  0.000000  0.000000  0.500000  1
  Ni  Ni2  1  0.279178  0.382396  0.500000  1
  Ni  Ni3  1  0.617604  0.896781  0.500000  1
  Ni  Ni4  1  0.103219  0.720822  0.500000  1
  Ni  Ni5  1  0.500093  0.454627  0.000000  1
  Ni  Ni6  1  0.545373  0.045466  0.000000  1
  Ni  Ni7  1  0.954534  0.499907  0.000000  1
  Ni  Ni8  1  0.720487  0.762175  0.000000  1
  Ni  Ni9  1  0.237825  0.958312  0.000000  1
  Ni  Ni10  1  0.041688  0.279513  0.000000  1
  Mo  Mo11  1  0.762754  0.552639  0.500000  1
  Mo  Mo12  1  0.447361  0.210115  0.500000  1
  Mo  Mo13  1  0.789885  0.237246  0.500000  1
  As  As14  1  0.962226  0.755644  0.000000  1
  As  As15  1  0.244356  0.206581  0.000000  1
  As  As16  1  0.793419  0.037774  0.000000  1
  As  As17  1  0.666667  0.333333  0.000000  1
  As  As18  1  0.536868  0.623444  0.500000  1
  As  As19  1  0.376556  0.913425  0.500000  1
  As  As20  1  0.086575  0.463132  0.500000  1
