# generated using pymatgen
data_Dy12CuTc3
_symmetry_space_group_name_H-M   'P 1'
_cell_length_a   6.31441019
_cell_length_b   7.34205139
_cell_length_c   9.23003400
_cell_angle_alpha   90.00000000
_cell_angle_beta   90.00000000
_cell_angle_gamma   90.10527533
_symmetry_Int_Tables_number   1
_chemical_formula_structural   Dy12CuTc3
_chemical_formula_sum   'Dy12 Cu1 Tc3'
_cell_volume   427.91033808
_cell_formula_units_Z   1
loop_
 _symmetry_equiv_pos_site_id
 _symmetry_equiv_pos_as_xyz
  1  'x, y, z'
loop_
 _atom_site_type_symbol
 _atom_site_label
 _atom_site_symmetry_multiplicity
 _atom_site_fract_x
 _atom_site_fract_y
 _atom_site_fract_z
 _atom_site_occupancy
  Dy  Dy0  1  0.326795  0.676572  0.067988  1
  Dy  Dy1  1  0.165186  0.179133  0.435851  1
  Dy  Dy2  1  0.667391  0.316927  0.558930  1
  Dy  Dy3  1  0.840997  0.827046  0.940675  1
  Dy  Dy4  1  0.667391  0.316927  0.941070  1
  Dy  Dy5  1  0.840997  0.827046  0.559325  1
  Dy  Dy6  1  0.326795  0.676572  0.432012  1
  Dy  Dy7  1  0.165186  0.179133  0.064149  1
  Dy  Dy8  1  0.867658  0.540988  0.250000  1
  Dy  Dy9  1  0.626377  0.039153  0.250000  1
  Dy  Dy10  1  0.127388  0.456043  0.750000  1
  Dy  Dy11  1  0.371525  0.967405  0.750000  1
  Cu  Cu12  1  0.551441  0.611031  0.750000  1
  Tc  Tc13  1  0.037573  0.885993  0.250000  1
  Tc  Tc14  1  0.463697  0.387549  0.250000  1
  Tc  Tc15  1  0.953603  0.112480  0.750000  1
