# generated using pymatgen
data_Ta2Te10PdPt
_symmetry_space_group_name_H-M   'P 1'
_cell_length_a   7.44422540
_cell_length_b   7.44422546
_cell_length_c   15.78479109
_cell_angle_alpha   90.01171093
_cell_angle_beta   89.98828844
_cell_angle_gamma   150.87251139
_symmetry_Int_Tables_number   1
_chemical_formula_structural   Ta2Te10PdPt
_chemical_formula_sum   'Ta2 Te10 Pd1 Pt1'
_cell_volume   425.78255500
_cell_formula_units_Z   1
loop_
 _symmetry_equiv_pos_site_id
 _symmetry_equiv_pos_as_xyz
  1  'x, y, z'
loop_
 _atom_site_type_symbol
 _atom_site_label
 _atom_site_symmetry_multiplicity
 _atom_site_fract_x
 _atom_site_fract_y
 _atom_site_fract_z
 _atom_site_occupancy
  Ta  Ta0  1  0.507288  0.492712  0.749695  1
  Ta  Ta1  1  0.492712  0.507288  0.250305  1
  Te  Te2  1  0.158026  0.841974  0.750316  1
  Te  Te3  1  0.841974  0.158026  0.249684  1
  Te  Te4  1  0.399060  0.600940  0.086127  1
  Te  Te5  1  0.600940  0.399060  0.913873  1
  Te  Te6  1  0.903885  0.096115  0.850444  1
  Te  Te7  1  0.096115  0.903885  0.149556  1
  Te  Te8  1  0.096447  0.903553  0.350996  1
  Te  Te9  1  0.903553  0.096447  0.649004  1
  Te  Te10  1  0.399262  0.600738  0.415017  1
  Te  Te11  1  0.600738  0.399262  0.584983  1
  Pd  Pd12  1  0.000000  0.000000  0.000000  1
  Pt  Pt13  1  0.000000  0.000000  0.500000  1
