# generated using pymatgen
data_Er4SiAsSe2
_symmetry_space_group_name_H-M   'P 1'
_cell_length_a   7.07043869
_cell_length_b   7.07043804
_cell_length_c   7.07043780
_cell_angle_alpha   132.16221854
_cell_angle_beta   132.16222480
_cell_angle_gamma   69.97294290
_symmetry_Int_Tables_number   1
_chemical_formula_structural   Er4SiAsSe2
_chemical_formula_sum   'Er4 Si1 As1 Se2'
_cell_volume   190.41223080
_cell_formula_units_Z   1
loop_
 _symmetry_equiv_pos_site_id
 _symmetry_equiv_pos_as_xyz
  1  'x, y, z'
loop_
 _atom_site_type_symbol
 _atom_site_label
 _atom_site_symmetry_multiplicity
 _atom_site_fract_x
 _atom_site_fract_y
 _atom_site_fract_z
 _atom_site_occupancy
  Er  Er0  1  0.245603  0.245603  0.000000  1
  Er  Er1  1  0.754397  0.754397  0.000000  1
  Er  Er2  1  0.507156  0.007156  0.500000  1
  Er  Er3  1  0.992844  0.492844  0.500000  1
  Si  Si4  1  0.750000  0.250000  0.500000  1
  As  As5  1  0.000000  0.000000  0.000000  1
  Se  Se6  1  0.250000  0.750000  0.500000  1
  Se  Se7  1  0.500000  0.500000  0.000000  1
