# generated using pymatgen
data_Co8Si3Mo12AsC2
_symmetry_space_group_name_H-M   'P 1'
_cell_length_a   7.73113888
_cell_length_b   7.73130289
_cell_length_c   7.73130300
_cell_angle_alpha   59.99999525
_cell_angle_beta   59.99929348
_cell_angle_gamma   59.99929325
_symmetry_Int_Tables_number   1
_chemical_formula_structural   Co8Si3Mo12AsC2
_chemical_formula_sum   'Co8 Si3 Mo12 As1 C2'
_cell_volume   326.76023874
_cell_formula_units_Z   1
loop_
 _symmetry_equiv_pos_site_id
 _symmetry_equiv_pos_as_xyz
  1  'x, y, z'
loop_
 _atom_site_type_symbol
 _atom_site_label
 _atom_site_symmetry_multiplicity
 _atom_site_fract_x
 _atom_site_fract_y
 _atom_site_fract_z
 _atom_site_occupancy
  Co  Co0  1  0.421784  0.414894  0.748430  1
  Co  Co1  1  0.421784  0.748430  0.414894  1
  Co  Co2  1  0.745294  0.418236  0.418236  1
  Co  Co3  1  0.421784  0.414894  0.414894  1
  Co  Co4  1  0.828216  0.835106  0.501570  1
  Co  Co5  1  0.828216  0.501570  0.835106  1
  Co  Co6  1  0.504706  0.831764  0.831764  1
  Co  Co7  1  0.828216  0.835106  0.835106  1
  Si  Si8  1  0.625000  0.625000  0.125000  1
  Si  Si9  1  0.625000  0.125000  0.625000  1
  Si  Si10  1  0.625000  0.625000  0.625000  1
  Mo  Mo11  1  0.052836  0.056613  0.445276  1
  Mo  Mo12  1  0.445660  0.053423  0.447494  1
  Mo  Mo13  1  0.052836  0.445276  0.445276  1
  Mo  Mo14  1  0.445660  0.447494  0.053423  1
  Mo  Mo15  1  0.052836  0.445276  0.056613  1
  Mo  Mo16  1  0.445660  0.053423  0.053423  1
  Mo  Mo17  1  0.197164  0.193387  0.804724  1
  Mo  Mo18  1  0.804340  0.196577  0.802506  1
  Mo  Mo19  1  0.197164  0.804724  0.804724  1
  Mo  Mo20  1  0.804340  0.802506  0.196577  1
  Mo  Mo21  1  0.197164  0.804724  0.193387  1
  Mo  Mo22  1  0.804340  0.196577  0.196577  1
  As  As23  1  0.125000  0.625000  0.625000  1
  C  C24  1  0.250754  0.249749  0.249749  1
  C  C25  1  0.999246  0.000251  0.000251  1
