# generated using pymatgen
data_NdDy7(P7Ir8)2
_symmetry_space_group_name_H-M   'P 1'
_cell_length_a   3.94648900
_cell_length_b   12.70893353
_cell_length_c   13.14804909
_cell_angle_alpha   80.71610916
_cell_angle_beta   90.00000000
_cell_angle_gamma   90.00000000
_symmetry_Int_Tables_number   1
_chemical_formula_structural   NdDy7(P7Ir8)2
_chemical_formula_sum   'Nd1 Dy7 P14 Ir16'
_cell_volume   650.81111379
_cell_formula_units_Z   1
loop_
 _symmetry_equiv_pos_site_id
 _symmetry_equiv_pos_as_xyz
  1  'x, y, z'
loop_
 _atom_site_type_symbol
 _atom_site_label
 _atom_site_symmetry_multiplicity
 _atom_site_fract_x
 _atom_site_fract_y
 _atom_site_fract_z
 _atom_site_occupancy
  Nd  Nd0  1  0.250000  0.279179  0.102508  1
  Dy  Dy1  1  0.750000  0.791293  0.561141  1
  Dy  Dy2  1  0.250000  0.208672  0.439179  1
  Dy  Dy3  1  0.750000  0.479610  0.705433  1
  Dy  Dy4  1  0.250000  0.520817  0.294769  1
  Dy  Dy5  1  0.750000  0.720207  0.897605  1
  Dy  Dy6  1  0.250000  0.102389  0.788536  1
  Dy  Dy7  1  0.750000  0.897460  0.211712  1
  P  P8  1  0.250000  0.906815  0.411598  1
  P  P9  1  0.750000  0.473369  0.129659  1
  P  P10  1  0.250000  0.527646  0.870313  1
  P  P11  1  0.750000  0.092908  0.588653  1
  P  P12  1  0.250000  0.741810  0.079486  1
  P  P13  1  0.750000  0.257139  0.917979  1
  P  P14  1  0.750000  0.157450  0.283836  1
  P  P15  1  0.250000  0.842842  0.717420  1
  P  P16  1  0.250000  0.048952  0.100857  1
  P  P17  1  0.750000  0.947731  0.899286  1
  P  P18  1  0.250000  0.312254  0.689346  1
  P  P19  1  0.750000  0.687803  0.310280  1
  P  P20  1  0.250000  0.607863  0.566467  1
  P  P21  1  0.750000  0.392562  0.434547  1
  Ir  Ir22  1  0.250000  0.990762  0.576562  1
  Ir  Ir23  1  0.750000  0.008973  0.424073  1
  Ir  Ir24  1  0.250000  0.662433  0.730634  1
  Ir  Ir25  1  0.750000  0.339085  0.271840  1
  Ir  Ir26  1  0.250000  0.554237  0.046096  1
  Ir  Ir27  1  0.750000  0.449318  0.951636  1
  Ir  Ir28  1  0.250000  0.060151  0.273085  1
  Ir  Ir29  1  0.750000  0.938758  0.727499  1
  Ir  Ir30  1  0.250000  0.422028  0.524678  1
  Ir  Ir31  1  0.750000  0.578572  0.475713  1
  Ir  Ir32  1  0.250000  0.914357  0.996920  1
  Ir  Ir33  1  0.750000  0.083975  0.001716  1
  Ir  Ir34  1  0.250000  0.729520  0.394257  1
  Ir  Ir35  1  0.750000  0.270390  0.605651  1
  Ir  Ir36  1  0.250000  0.341857  0.857227  1
  Ir  Ir37  1  0.750000  0.658814  0.141802  1
