# generated using pymatgen
data_NbMo(SeO3)4
_symmetry_space_group_name_H-M   'P 1'
_cell_length_a   8.73809443
_cell_length_b   4.98640385
_cell_length_c   7.19647451
_cell_angle_alpha   68.84904107
_cell_angle_beta   91.82850313
_cell_angle_gamma   92.14058871
_symmetry_Int_Tables_number   1
_chemical_formula_structural   NbMo(SeO3)4
_chemical_formula_sum   'Nb1 Mo1 Se4 O12'
_cell_volume   292.17741634
_cell_formula_units_Z   1
loop_
 _symmetry_equiv_pos_site_id
 _symmetry_equiv_pos_as_xyz
  1  'x, y, z'
loop_
 _atom_site_type_symbol
 _atom_site_label
 _atom_site_symmetry_multiplicity
 _atom_site_fract_x
 _atom_site_fract_y
 _atom_site_fract_z
 _atom_site_occupancy
  Nb  Nb0  1  0.000000  0.500000  0.000000  1
  Mo  Mo1  1  0.500000  0.500000  0.500000  1
  Se  Se2  1  0.635082  0.136372  0.187571  1
  Se  Se3  1  0.157110  0.857034  0.319279  1
  Se  Se4  1  0.364918  0.863628  0.812429  1
  Se  Se5  1  0.842890  0.142966  0.680721  1
  O  O6  1  0.145404  0.167091  0.105580  1
  O  O7  1  0.661512  0.861267  0.411995  1
  O  O8  1  0.854596  0.832909  0.894420  1
  O  O9  1  0.338488  0.138733  0.588005  1
  O  O10  1  0.050558  0.610410  0.241403  1
  O  O11  1  0.561947  0.407589  0.243335  1
  O  O12  1  0.660144  0.223490  0.710011  1
  O  O13  1  0.166531  0.744103  0.844614  1
  O  O14  1  0.339856  0.776510  0.289989  1
  O  O15  1  0.833469  0.255897  0.155386  1
  O  O16  1  0.438053  0.592411  0.756665  1
  O  O17  1  0.949442  0.389590  0.758597  1
