# generated using pymatgen
data_TbPa3(NiP)4
_symmetry_space_group_name_H-M   'P 1'
_cell_length_a   3.90059000
_cell_length_b   3.90058997
_cell_length_c   15.56684700
_cell_angle_alpha   90.00000000
_cell_angle_beta   90.00000000
_cell_angle_gamma   120.00000022
_symmetry_Int_Tables_number   1
_chemical_formula_structural   TbPa3(NiP)4
_chemical_formula_sum   'Tb1 Pa3 Ni4 P4'
_cell_volume   205.11238798
_cell_formula_units_Z   1
loop_
 _symmetry_equiv_pos_site_id
 _symmetry_equiv_pos_as_xyz
  1  'x, y, z'
loop_
 _atom_site_type_symbol
 _atom_site_label
 _atom_site_symmetry_multiplicity
 _atom_site_fract_x
 _atom_site_fract_y
 _atom_site_fract_z
 _atom_site_occupancy
  Tb  Tb0  1  0.000000  0.000000  0.750000  1
  Pa  Pa1  1  0.000000  0.000000  0.250000  1
  Pa  Pa2  1  0.000000  0.000000  0.999214  1
  Pa  Pa3  1  0.000000  0.000000  0.500786  1
  Ni  Ni4  1  0.333333  0.666667  0.124281  1
  Ni  Ni5  1  0.666667  0.333333  0.884797  1
  Ni  Ni6  1  0.666667  0.333333  0.615203  1
  Ni  Ni7  1  0.333333  0.666667  0.375719  1
  P  P8  1  0.333333  0.666667  0.625614  1
  P  P9  1  0.666667  0.333333  0.375045  1
  P  P10  1  0.666667  0.333333  0.124955  1
  P  P11  1  0.333333  0.666667  0.874386  1
