# generated using pymatgen
data_Tm4Al18Ir4PtAu
_symmetry_space_group_name_H-M   'P 1'
_cell_length_a   7.58077406
_cell_length_b   7.58077229
_cell_length_c   9.41442207
_cell_angle_alpha   90.00371515
_cell_angle_beta   90.00370929
_cell_angle_gamma   119.59320188
_symmetry_Int_Tables_number   1
_chemical_formula_structural   Tm4Al18Ir4PtAu
_chemical_formula_sum   'Tm4 Al18 Ir4 Pt1 Au1'
_cell_volume   470.45380795
_cell_formula_units_Z   1
loop_
 _symmetry_equiv_pos_site_id
 _symmetry_equiv_pos_as_xyz
  1  'x, y, z'
loop_
 _atom_site_type_symbol
 _atom_site_label
 _atom_site_symmetry_multiplicity
 _atom_site_fract_x
 _atom_site_fract_y
 _atom_site_fract_z
 _atom_site_occupancy
  Tm  Tm0  1  0.995488  0.673649  0.252069  1
  Tm  Tm1  1  0.003949  0.326089  0.747964  1
  Tm  Tm2  1  0.673911  0.996051  0.252036  1
  Tm  Tm3  1  0.326351  0.004512  0.747931  1
  Al  Al4  1  0.134975  0.134350  0.256462  1
  Al  Al5  1  0.865650  0.865025  0.743538  1
  Al  Al6  1  0.004081  0.344186  0.080471  1
  Al  Al7  1  0.001904  0.659160  0.919399  1
  Al  Al8  1  0.001069  0.664259  0.573640  1
  Al  Al9  1  0.335741  0.998931  0.426360  1
  Al  Al10  1  0.999227  0.335449  0.425968  1
  Al  Al11  1  0.664551  0.000773  0.574032  1
  Al  Al12  1  0.655814  0.995919  0.919529  1
  Al  Al13  1  0.340840  0.998096  0.080601  1
  Al  Al14  1  0.332312  0.332337  0.552797  1
  Al  Al15  1  0.667663  0.667688  0.447203  1
  Al  Al16  1  0.658515  0.661676  0.061824  1
  Al  Al17  1  0.338324  0.341485  0.938176  1
  Al  Al18  1  0.339708  0.551564  0.251844  1
  Al  Al19  1  0.660674  0.450542  0.746391  1
  Al  Al20  1  0.549458  0.339326  0.253609  1
  Al  Al21  1  0.448436  0.660292  0.748156  1
  Ir  Ir22  1  0.327901  0.672099  0.000000  1
  Ir  Ir23  1  0.328009  0.671991  0.500000  1
  Ir  Ir24  1  0.672633  0.327367  0.500000  1
  Ir  Ir25  1  0.000196  0.999804  0.500000  1
  Pt  Pt26  1  0.672845  0.327155  0.000000  1
  Au  Au27  1  0.999773  0.000227  0.000000  1
