# generated using pymatgen
data_YTm7(LuSb)12
_symmetry_space_group_name_H-M   'P 1'
_cell_length_a   8.03963268
_cell_length_b   9.11271800
_cell_length_c   11.67378100
_cell_angle_alpha   90.00000000
_cell_angle_beta   90.02353225
_cell_angle_gamma   90.00000000
_symmetry_Int_Tables_number   1
_chemical_formula_structural   YTm7(LuSb)12
_chemical_formula_sum   'Y1 Tm7 Lu12 Sb12'
_cell_volume   855.25504115
_cell_formula_units_Z   1
loop_
 _symmetry_equiv_pos_site_id
 _symmetry_equiv_pos_as_xyz
  1  'x, y, z'
loop_
 _atom_site_type_symbol
 _atom_site_label
 _atom_site_symmetry_multiplicity
 _atom_site_fract_x
 _atom_site_fract_y
 _atom_site_fract_z
 _atom_site_occupancy
  Y  Y0  1  0.175485  0.750000  0.228650  1
  Tm  Tm1  1  0.675799  0.250000  0.271266  1
  Tm  Tm2  1  0.824211  0.250000  0.771099  1
  Tm  Tm3  1  0.324202  0.750000  0.729008  1
  Tm  Tm4  1  0.659348  0.750000  0.291161  1
  Tm  Tm5  1  0.158779  0.250000  0.209078  1
  Tm  Tm6  1  0.341279  0.250000  0.709060  1
  Tm  Tm7  1  0.840719  0.750000  0.790646  1
  Lu  Lu8  1  0.809451  0.938517  0.065981  1
  Lu  Lu9  1  0.309072  0.061480  0.434129  1
  Lu  Lu10  1  0.191086  0.438692  0.934097  1
  Lu  Lu11  1  0.690822  0.561210  0.566080  1
  Lu  Lu12  1  0.191086  0.061308  0.934097  1
  Lu  Lu13  1  0.690822  0.938790  0.566080  1
  Lu  Lu14  1  0.809451  0.561483  0.065981  1
  Lu  Lu15  1  0.309072  0.438520  0.434129  1
  Lu  Lu16  1  0.525144  0.250000  0.995032  1
  Lu  Lu17  1  0.024496  0.750000  0.505202  1
  Lu  Lu18  1  0.475458  0.750000  0.004551  1
  Lu  Lu19  1  0.974977  0.250000  0.495432  1
  Sb  Sb20  1  0.935290  0.991919  0.326724  1
  Sb  Sb21  1  0.438168  0.009751  0.173915  1
  Sb  Sb22  1  0.063072  0.490834  0.674054  1
  Sb  Sb23  1  0.563036  0.508997  0.825798  1
  Sb  Sb24  1  0.063072  0.009166  0.674054  1
  Sb  Sb25  1  0.563036  0.991003  0.825798  1
  Sb  Sb26  1  0.935290  0.508081  0.326724  1
  Sb  Sb27  1  0.438168  0.490249  0.173915  1
  Sb  Sb28  1  0.902077  0.250000  0.025024  1
  Sb  Sb29  1  0.402215  0.750000  0.475087  1
  Sb  Sb30  1  0.097993  0.750000  0.972961  1
  Sb  Sb31  1  0.597826  0.250000  0.525193  1
