# generated using pymatgen
data_Ho2Er2Sn6Ir7
_symmetry_space_group_name_H-M   'P 1'
_cell_length_a   7.58274568
_cell_length_b   7.58648314
_cell_length_c   7.58274510
_cell_angle_alpha   109.47072779
_cell_angle_beta   109.45223424
_cell_angle_gamma   109.47073086
_symmetry_Int_Tables_number   1
_chemical_formula_structural   Ho2Er2Sn6Ir7
_chemical_formula_sum   'Ho2 Er2 Sn6 Ir7'
_cell_volume   335.87565467
_cell_formula_units_Z   1
loop_
 _symmetry_equiv_pos_site_id
 _symmetry_equiv_pos_as_xyz
  1  'x, y, z'
loop_
 _atom_site_type_symbol
 _atom_site_label
 _atom_site_symmetry_multiplicity
 _atom_site_fract_x
 _atom_site_fract_y
 _atom_site_fract_z
 _atom_site_occupancy
  Ho  Ho0  1  0.000000  0.000000  0.500000  1
  Ho  Ho1  1  0.500000  0.000000  0.000000  1
  Er  Er2  1  0.000000  0.500000  0.000000  1
  Er  Er3  1  0.500000  0.500000  0.500000  1
  Sn  Sn4  1  0.686574  0.686375  0.999801  1
  Sn  Sn5  1  0.313447  0.000000  0.313447  1
  Sn  Sn6  1  0.000199  0.313625  0.313426  1
  Sn  Sn7  1  0.313426  0.313625  0.000199  1
  Sn  Sn8  1  0.686553  0.000000  0.686553  1
  Sn  Sn9  1  0.999801  0.686375  0.686574  1
  Ir  Ir10  1  0.750023  0.250186  0.500163  1
  Ir  Ir11  1  0.750000  0.500000  0.250000  1
  Ir  Ir12  1  0.500163  0.250186  0.750023  1
  Ir  Ir13  1  0.250000  0.500000  0.750000  1
  Ir  Ir14  1  0.249977  0.749814  0.499837  1
  Ir  Ir15  1  0.499837  0.749814  0.249977  1
  Ir  Ir16  1  0.000000  0.000000  0.000000  1
