# generated using pymatgen
data_Ho3Tm3Bi2Mo
_symmetry_space_group_name_H-M   'P 1'
_cell_length_a   8.22147700
_cell_length_b   8.22147594
_cell_length_c   4.35743700
_cell_angle_alpha   90.00000000
_cell_angle_beta   90.00000000
_cell_angle_gamma   120.00000025
_symmetry_Int_Tables_number   1
_chemical_formula_structural   Ho3Tm3Bi2Mo
_chemical_formula_sum   'Ho3 Tm3 Bi2 Mo1'
_cell_volume   255.07117546
_cell_formula_units_Z   1
loop_
 _symmetry_equiv_pos_site_id
 _symmetry_equiv_pos_as_xyz
  1  'x, y, z'
loop_
 _atom_site_type_symbol
 _atom_site_label
 _atom_site_symmetry_multiplicity
 _atom_site_fract_x
 _atom_site_fract_y
 _atom_site_fract_z
 _atom_site_occupancy
  Ho  Ho0  1  0.000000  0.609448  0.500000  1
  Ho  Ho1  1  0.390552  0.390552  0.500000  1
  Ho  Ho2  1  0.609448  0.000000  0.500000  1
  Tm  Tm3  1  0.234101  0.000000  0.000000  1
  Tm  Tm4  1  0.765899  0.765899  0.000000  1
  Tm  Tm5  1  0.000000  0.234101  0.000000  1
  Bi  Bi6  1  0.333333  0.666667  0.000000  1
  Bi  Bi7  1  0.666667  0.333333  0.000000  1
  Mo  Mo8  1  0.000000  0.000000  0.500000  1
