# generated using pymatgen
data_LiLa8Y11Si16
_symmetry_space_group_name_H-M   'P 1'
_cell_length_a   7.52897849
_cell_length_b   7.87347755
_cell_length_c   14.99047900
_cell_angle_alpha   90.00000000
_cell_angle_beta   90.00000000
_cell_angle_gamma   90.07201031
_symmetry_Int_Tables_number   1
_chemical_formula_structural   LiLa8Y11Si16
_chemical_formula_sum   'Li1 La8 Y11 Si16'
_cell_volume   888.62354734
_cell_formula_units_Z   1
loop_
 _symmetry_equiv_pos_site_id
 _symmetry_equiv_pos_as_xyz
  1  'x, y, z'
loop_
 _atom_site_type_symbol
 _atom_site_label
 _atom_site_symmetry_multiplicity
 _atom_site_fract_x
 _atom_site_fract_y
 _atom_site_fract_z
 _atom_site_occupancy
  Li  Li0  1  0.654346  0.991633  0.750000  1
  La  La1  1  0.020205  0.178460  0.402172  1
  La  La2  1  0.519749  0.322912  0.402284  1
  La  La3  1  0.482102  0.686541  0.898209  1
  La  La4  1  0.482102  0.686541  0.601791  1
  La  La5  1  0.971338  0.823162  0.601684  1
  La  La6  1  0.971338  0.823162  0.898316  1
  La  La7  1  0.519749  0.322912  0.097716  1
  La  La8  1  0.020205  0.178460  0.097828  1
  Y  Y9  1  0.331221  0.174016  0.625525  1
  Y  Y10  1  0.678273  0.819843  0.376299  1
  Y  Y11  1  0.177845  0.678259  0.377625  1
  Y  Y12  1  0.819447  0.313833  0.875051  1
  Y  Y13  1  0.819447  0.313833  0.624949  1
  Y  Y14  1  0.845438  0.489878  0.250000  1
  Y  Y15  1  0.343451  0.010948  0.250000  1
  Y  Y16  1  0.331221  0.174016  0.874475  1
  Y  Y17  1  0.177845  0.678259  0.122375  1
  Y  Y18  1  0.678273  0.819843  0.123701  1
  Y  Y19  1  0.152956  0.507775  0.750000  1
  Si  Si20  1  0.265919  0.881548  0.750000  1
  Si  Si21  1  0.470890  0.611827  0.250000  1
  Si  Si22  1  0.033761  0.110532  0.750000  1
  Si  Si23  1  0.526864  0.399763  0.750000  1
  Si  Si24  1  0.146497  0.469777  0.541000  1
  Si  Si25  1  0.971338  0.884920  0.250000  1
  Si  Si26  1  0.725025  0.119385  0.250000  1
  Si  Si27  1  0.855324  0.530300  0.036575  1
  Si  Si28  1  0.355836  0.968947  0.038898  1
  Si  Si29  1  0.146497  0.469777  0.959000  1
  Si  Si30  1  0.646975  0.034516  0.533171  1
  Si  Si31  1  0.355836  0.968947  0.461102  1
  Si  Si32  1  0.855324  0.530300  0.463425  1
  Si  Si33  1  0.774488  0.609356  0.750000  1
  Si  Si34  1  0.225900  0.381305  0.250000  1
  Si  Si35  1  0.646975  0.034516  0.966829  1
