# generated using pymatgen
data_Yb2PaCr(Co4P3)2
_symmetry_space_group_name_H-M   'P 1'
_cell_length_a   3.68906900
_cell_length_b   10.55590700
_cell_length_c   12.13494200
_cell_angle_alpha   90.00000000
_cell_angle_beta   90.00000000
_cell_angle_gamma   90.00000000
_symmetry_Int_Tables_number   1
_chemical_formula_structural   Yb2PaCr(Co4P3)2
_chemical_formula_sum   'Yb4 Pa2 Cr2 Co16 P12'
_cell_volume   472.55247111
_cell_formula_units_Z   2
loop_
 _symmetry_equiv_pos_site_id
 _symmetry_equiv_pos_as_xyz
  1  'x, y, z'
loop_
 _atom_site_type_symbol
 _atom_site_label
 _atom_site_symmetry_multiplicity
 _atom_site_fract_x
 _atom_site_fract_y
 _atom_site_fract_z
 _atom_site_occupancy
  Yb  Yb0  1  0.500000  0.817081  0.203941  1
  Yb  Yb1  1  0.500000  0.182919  0.203941  1
  Yb  Yb2  1  0.000000  0.682919  0.796059  1
  Yb  Yb3  1  0.000000  0.317081  0.796059  1
  Pa  Pa4  1  0.000000  0.500000  0.530222  1
  Pa  Pa5  1  0.500000  0.000000  0.469778  1
  Cr  Cr6  1  0.500000  0.500000  0.154233  1
  Cr  Cr7  1  0.000000  0.000000  0.845767  1
  Co  Co8  1  0.500000  0.500000  0.696911  1
  Co  Co9  1  0.000000  0.000000  0.303089  1
  Co  Co10  1  0.000000  0.500000  0.986266  1
  Co  Co11  1  0.500000  0.000000  0.013734  1
  Co  Co12  1  0.500000  0.332635  0.992625  1
  Co  Co13  1  0.500000  0.667365  0.992625  1
  Co  Co14  1  0.000000  0.167365  0.007375  1
  Co  Co15  1  0.000000  0.832635  0.007375  1
  Co  Co16  1  0.500000  0.299839  0.432687  1
  Co  Co17  1  0.500000  0.700161  0.432687  1
  Co  Co18  1  0.000000  0.200161  0.567313  1
  Co  Co19  1  0.000000  0.799839  0.567313  1
  Co  Co20  1  0.500000  0.880076  0.709660  1
  Co  Co21  1  0.500000  0.119924  0.709660  1
  Co  Co22  1  0.000000  0.619924  0.290340  1
  Co  Co23  1  0.000000  0.380076  0.290340  1
  P  P24  1  0.500000  0.500000  0.880382  1
  P  P25  1  0.000000  0.000000  0.119618  1
  P  P26  1  0.500000  0.500000  0.343905  1
  P  P27  1  0.000000  0.000000  0.656095  1
  P  P28  1  0.500000  0.306656  0.618837  1
  P  P29  1  0.500000  0.693344  0.618837  1
  P  P30  1  0.000000  0.193344  0.381163  1
  P  P31  1  0.000000  0.806656  0.381163  1
  P  P32  1  0.500000  0.846559  0.893045  1
  P  P33  1  0.500000  0.153441  0.893045  1
  P  P34  1  0.000000  0.653441  0.106955  1
  P  P35  1  0.000000  0.346559  0.106955  1
