# generated using pymatgen
data_Ca2ErTl(BO4)2
_symmetry_space_group_name_H-M   'P 1'
_cell_length_a   3.59302500
_cell_length_b   9.76284463
_cell_length_c   10.48517843
_cell_angle_alpha   90.68324756
_cell_angle_beta   90.00000000
_cell_angle_gamma   90.00000000
_symmetry_Int_Tables_number   1
_chemical_formula_structural   Ca2ErTl(BO4)2
_chemical_formula_sum   'Ca4 Er2 Tl2 B4 O16'
_cell_volume   367.77445684
_cell_formula_units_Z   2
loop_
 _symmetry_equiv_pos_site_id
 _symmetry_equiv_pos_as_xyz
  1  'x, y, z'
loop_
 _atom_site_type_symbol
 _atom_site_label
 _atom_site_symmetry_multiplicity
 _atom_site_fract_x
 _atom_site_fract_y
 _atom_site_fract_z
 _atom_site_occupancy
  Ca  Ca0  1  0.250000  0.657819  0.082693  1
  Ca  Ca1  1  0.750000  0.342181  0.917307  1
  Ca  Ca2  1  0.750000  0.176518  0.412230  1
  Ca  Ca3  1  0.250000  0.823482  0.587770  1
  Er  Er4  1  0.750000  0.586379  0.390246  1
  Er  Er5  1  0.250000  0.413621  0.609754  1
  Tl  Tl6  1  0.250000  0.073919  0.118053  1
  Tl  Tl7  1  0.750000  0.926081  0.881947  1
  B  B8  1  0.250000  0.375904  0.191461  1
  B  B9  1  0.750000  0.624096  0.808539  1
  B  B10  1  0.750000  0.859869  0.306298  1
  B  B11  1  0.250000  0.140131  0.693702  1
  O  O12  1  0.250000  0.498520  0.260672  1
  O  O13  1  0.750000  0.501480  0.739328  1
  O  O14  1  0.750000  0.994017  0.261510  1
  O  O15  1  0.250000  0.005983  0.738490  1
  O  O16  1  0.250000  0.250687  0.258684  1
  O  O17  1  0.750000  0.749313  0.741316  1
  O  O18  1  0.750000  0.745158  0.226824  1
  O  O19  1  0.250000  0.254842  0.773176  1
  O  O20  1  0.250000  0.380755  0.060572  1
  O  O21  1  0.750000  0.619245  0.939428  1
  O  O22  1  0.750000  0.839474  0.438419  1
  O  O23  1  0.250000  0.160526  0.561581  1
  O  O24  1  0.250000  0.612026  0.509364  1
  O  O25  1  0.750000  0.387974  0.490636  1
  O  O26  1  0.750000  0.122525  0.996732  1
  O  O27  1  0.250000  0.877475  0.003268  1
