# generated using pymatgen
data_ScPa2(Fe3P2)3
_symmetry_space_group_name_H-M   'P 1'
_cell_length_a   3.71548900
_cell_length_b   10.49904600
_cell_length_c   11.87947500
_cell_angle_alpha   90.00000000
_cell_angle_beta   90.00000000
_cell_angle_gamma   90.00000000
_symmetry_Int_Tables_number   1
_chemical_formula_structural   ScPa2(Fe3P2)3
_chemical_formula_sum   'Sc2 Pa4 Fe18 P12'
_cell_volume   463.40750852
_cell_formula_units_Z   2
loop_
 _symmetry_equiv_pos_site_id
 _symmetry_equiv_pos_as_xyz
  1  'x, y, z'
loop_
 _atom_site_type_symbol
 _atom_site_label
 _atom_site_symmetry_multiplicity
 _atom_site_fract_x
 _atom_site_fract_y
 _atom_site_fract_z
 _atom_site_occupancy
  Sc  Sc0  1  0.250000  0.697125  0.991423  1
  Sc  Sc1  1  0.250000  0.802875  0.491423  1
  Pa  Pa2  1  0.250000  0.570512  0.697435  1
  Pa  Pa3  1  0.250000  0.929488  0.197435  1
  Pa  Pa4  1  0.750000  0.415592  0.292578  1
  Pa  Pa5  1  0.750000  0.084408  0.792578  1
  Fe  Fe6  1  0.750000  0.296219  0.005711  1
  Fe  Fe7  1  0.750000  0.203781  0.505711  1
  Fe  Fe8  1  0.250000  0.393323  0.483925  1
  Fe  Fe9  1  0.250000  0.106677  0.983925  1
  Fe  Fe10  1  0.750000  0.583314  0.517914  1
  Fe  Fe11  1  0.750000  0.916686  0.017914  1
  Fe  Fe12  1  0.250000  0.229472  0.169719  1
  Fe  Fe13  1  0.250000  0.270528  0.669719  1
  Fe  Fe14  1  0.750000  0.782750  0.831624  1
  Fe  Fe15  1  0.750000  0.717250  0.331624  1
  Fe  Fe16  1  0.250000  0.883245  0.710783  1
  Fe  Fe17  1  0.250000  0.616755  0.210783  1
  Fe  Fe18  1  0.750000  0.121334  0.296276  1
  Fe  Fe19  1  0.750000  0.378666  0.796276  1
  Fe  Fe20  1  0.250000  0.458528  0.929742  1
  Fe  Fe21  1  0.250000  0.041472  0.429742  1
  Fe  Fe22  1  0.750000  0.528488  0.070097  1
  Fe  Fe23  1  0.750000  0.971512  0.570097  1
  P  P24  1  0.250000  0.424059  0.109276  1
  P  P25  1  0.250000  0.075941  0.609276  1
  P  P26  1  0.750000  0.568725  0.883629  1
  P  P27  1  0.750000  0.931275  0.383629  1
  P  P28  1  0.250000  0.272339  0.861095  1
  P  P29  1  0.250000  0.227661  0.361095  1
  P  P30  1  0.750000  0.725471  0.144706  1
  P  P31  1  0.750000  0.774529  0.644706  1
  P  P32  1  0.250000  0.584791  0.399280  1
  P  P33  1  0.250000  0.915209  0.899280  1
  P  P34  1  0.750000  0.382971  0.604788  1
  P  P35  1  0.750000  0.117029  0.104788  1
