# generated using pymatgen
data_CsTb5Er5(C2I9)2
_symmetry_space_group_name_H-M   'P 1'
_cell_length_a   11.45029618
_cell_length_b   11.47321069
_cell_length_c   11.48985490
_cell_angle_alpha   113.18553683
_cell_angle_beta   86.80065636
_cell_angle_gamma   119.94913494
_symmetry_Int_Tables_number   1
_chemical_formula_structural   CsTb5Er5(C2I9)2
_chemical_formula_sum   'Cs1 Tb5 Er5 C4 I18'
_cell_volume   1183.33400509
_cell_formula_units_Z   1
loop_
 _symmetry_equiv_pos_site_id
 _symmetry_equiv_pos_as_xyz
  1  'x, y, z'
loop_
 _atom_site_type_symbol
 _atom_site_label
 _atom_site_symmetry_multiplicity
 _atom_site_fract_x
 _atom_site_fract_y
 _atom_site_fract_z
 _atom_site_occupancy
  Cs  Cs0  1  0.499953  0.999601  0.499788  1
  Tb  Tb1  1  0.104952  0.945415  0.001023  1
  Tb  Tb2  1  0.036026  0.962477  0.675112  1
  Tb  Tb3  1  0.322208  0.275349  0.288860  1
  Tb  Tb4  1  0.722232  0.646426  0.984853  1
  Tb  Tb5  1  0.895122  0.055226  0.999326  1
  Er  Er6  1  0.680599  0.725937  0.713289  1
  Er  Er7  1  0.274998  0.350829  0.016265  1
  Er  Er8  1  0.093500  0.387727  0.289994  1
  Er  Er9  1  0.964826  0.038531  0.322180  1
  Er  Er10  1  0.906807  0.612486  0.710348  1
  C  C11  1  0.151725  0.220837  0.121325  1
  C  C12  1  0.847160  0.778664  0.878011  1
  C  C13  1  0.923212  0.854979  0.801765  1
  C  C14  1  0.075570  0.144443  0.197466  1
  I  I15  1  0.448870  0.530209  0.830769  1
  I  I16  1  0.384490  0.038920  0.157561  1
  I  I17  1  0.776195  0.854865  0.500942  1
  I  I18  1  0.839885  0.311829  0.155158  1
  I  I19  1  0.548396  0.469323  0.166869  1
  I  I20  1  0.220032  0.143905  0.497674  1
  I  I21  1  0.318925  0.099499  0.831723  1
  I  I22  1  0.683865  0.905133  0.172399  1
  I  I23  1  0.975515  0.758796  0.172353  1
  I  I24  1  0.935036  0.296914  0.498830  1
  I  I25  1  0.027610  0.246214  0.831900  1
  I  I26  1  0.065256  0.699097  0.499386  1
  I  I27  1  0.259896  0.618318  0.182190  1
  I  I28  1  0.741142  0.378516  0.814934  1
  I  I29  1  0.644869  0.439110  0.503948  1
  I  I30  1  0.159741  0.688007  0.844597  1
  I  I31  1  0.616179  0.957172  0.840314  1
  I  I32  1  0.355206  0.565246  0.498845  1
