# generated using pymatgen
data_Sc2Co5SnB2
_symmetry_space_group_name_H-M   'P 1'
_cell_length_a   8.85727100
_cell_length_b   8.85727100
_cell_length_c   3.06946900
_cell_angle_alpha   90.00000000
_cell_angle_beta   90.00000000
_cell_angle_gamma   90.00000000
_symmetry_Int_Tables_number   1
_chemical_formula_structural   Sc2Co5SnB2
_chemical_formula_sum   'Sc4 Co10 Sn2 B4'
_cell_volume   240.80367856
_cell_formula_units_Z   2
loop_
 _symmetry_equiv_pos_site_id
 _symmetry_equiv_pos_as_xyz
  1  'x, y, z'
loop_
 _atom_site_type_symbol
 _atom_site_label
 _atom_site_symmetry_multiplicity
 _atom_site_fract_x
 _atom_site_fract_y
 _atom_site_fract_z
 _atom_site_occupancy
  Sc  Sc0  1  0.825268  0.325268  0.000000  1
  Sc  Sc1  1  0.325268  0.174732  0.000000  1
  Sc  Sc2  1  0.674732  0.825268  0.000000  1
  Sc  Sc3  1  0.174732  0.674732  0.000000  1
  Co  Co4  1  0.500000  0.000000  0.500000  1
  Co  Co5  1  0.000000  0.500000  0.500000  1
  Co  Co6  1  0.071056  0.229664  0.500000  1
  Co  Co7  1  0.229664  0.928944  0.500000  1
  Co  Co8  1  0.770336  0.071056  0.500000  1
  Co  Co9  1  0.928944  0.770336  0.500000  1
  Co  Co10  1  0.428944  0.729664  0.500000  1
  Co  Co11  1  0.571056  0.270336  0.500000  1
  Co  Co12  1  0.729664  0.571056  0.500000  1
  Co  Co13  1  0.270336  0.428944  0.500000  1
  Sn  Sn14  1  0.000000  0.000000  0.000000  1
  Sn  Sn15  1  0.500000  0.500000  0.000000  1
  B  B16  1  0.618074  0.118074  0.000000  1
  B  B17  1  0.118074  0.381926  0.000000  1
  B  B18  1  0.881926  0.618074  0.000000  1
  B  B19  1  0.381926  0.881926  0.000000  1
