# generated using pymatgen
data_Dy3Tm9(OsRu)2
_symmetry_space_group_name_H-M   'P 1'
_cell_length_a   6.25071320
_cell_length_b   7.30456064
_cell_length_c   9.00781778
_cell_angle_alpha   89.95409339
_cell_angle_beta   89.80442907
_cell_angle_gamma   89.98546767
_symmetry_Int_Tables_number   1
_chemical_formula_structural   Dy3Tm9(OsRu)2
_chemical_formula_sum   'Dy3 Tm9 Os2 Ru2'
_cell_volume   411.28283133
_cell_formula_units_Z   1
loop_
 _symmetry_equiv_pos_site_id
 _symmetry_equiv_pos_as_xyz
  1  'x, y, z'
loop_
 _atom_site_type_symbol
 _atom_site_label
 _atom_site_symmetry_multiplicity
 _atom_site_fract_x
 _atom_site_fract_y
 _atom_site_fract_z
 _atom_site_occupancy
  Dy  Dy0  1  0.168046  0.175747  0.061860  1
  Dy  Dy1  1  0.867997  0.541010  0.250417  1
  Dy  Dy2  1  0.632139  0.040299  0.250870  1
  Tm  Tm3  1  0.333302  0.674902  0.061915  1
  Tm  Tm4  1  0.167381  0.174629  0.439138  1
  Tm  Tm5  1  0.669923  0.324094  0.564636  1
  Tm  Tm6  1  0.829212  0.823322  0.934594  1
  Tm  Tm7  1  0.670468  0.324124  0.934978  1
  Tm  Tm8  1  0.829190  0.823590  0.564567  1
  Tm  Tm9  1  0.332952  0.675443  0.438194  1
  Tm  Tm10  1  0.130778  0.461459  0.749280  1
  Tm  Tm11  1  0.368864  0.961045  0.749194  1
  Os  Os12  1  0.961806  0.115701  0.748405  1
  Os  Os13  1  0.537302  0.616007  0.750399  1
  Ru  Ru14  1  0.039555  0.883698  0.250750  1
  Ru  Ru15  1  0.461085  0.384927  0.250802  1
