# generated using pymatgen
data_Yb2Y(HoIr)2
_symmetry_space_group_name_H-M   'P 1'
_cell_length_a   6.51792454
_cell_length_b   7.26809630
_cell_length_c   8.47837835
_cell_angle_alpha   97.03099113
_cell_angle_beta   112.60556651
_cell_angle_gamma   90.00000652
_symmetry_Int_Tables_number   1
_chemical_formula_structural   Yb2Y(HoIr)2
_chemical_formula_sum   'Yb4 Y2 Ho4 Ir4'
_cell_volume   367.51429024
_cell_formula_units_Z   2
loop_
 _symmetry_equiv_pos_site_id
 _symmetry_equiv_pos_as_xyz
  1  'x, y, z'
loop_
 _atom_site_type_symbol
 _atom_site_label
 _atom_site_symmetry_multiplicity
 _atom_site_fract_x
 _atom_site_fract_y
 _atom_site_fract_z
 _atom_site_occupancy
  Yb  Yb0  1  0.973842  0.920795  0.182756  1
  Yb  Yb1  1  0.791086  0.579205  0.817244  1
  Yb  Yb2  1  0.026060  0.079457  0.817274  1
  Yb  Yb3  1  0.208786  0.420543  0.182726  1
  Y  Y4  1  0.650871  0.817960  0.440063  1
  Y  Y5  1  0.210807  0.682040  0.559937  1
  Ho  Ho6  1  0.349657  0.181876  0.560503  1
  Ho  Ho7  1  0.789155  0.318124  0.439497  1
  Ho  Ho8  1  0.431585  0.750000  0.000000  1
  Ho  Ho9  1  0.568507  0.250000  0.000000  1
  Ir  Ir10  1  0.814829  0.571376  0.225444  1
  Ir  Ir11  1  0.589385  0.928624  0.774556  1
  Ir  Ir12  1  0.184709  0.426676  0.773987  1
  Ir  Ir13  1  0.410723  0.073324  0.226013  1
