# generated using pymatgen
data_Tb3Al8Si4Os3Ru
_symmetry_space_group_name_H-M   'P 1'
_cell_length_a   8.70543595
_cell_length_b   8.70543717
_cell_length_c   9.42272000
_cell_angle_alpha   90.00000000
_cell_angle_beta   90.00000000
_cell_angle_gamma   120.17320997
_symmetry_Int_Tables_number   1
_chemical_formula_structural   Tb3Al8Si4Os3Ru
_chemical_formula_sum   'Tb6 Al16 Si8 Os6 Ru2'
_cell_volume   617.34419706
_cell_formula_units_Z   2
loop_
 _symmetry_equiv_pos_site_id
 _symmetry_equiv_pos_as_xyz
  1  'x, y, z'
loop_
 _atom_site_type_symbol
 _atom_site_label
 _atom_site_symmetry_multiplicity
 _atom_site_fract_x
 _atom_site_fract_y
 _atom_site_fract_z
 _atom_site_occupancy
  Tb  Tb0  1  0.191391  0.386340  0.250000  1
  Tb  Tb1  1  0.808609  0.613660  0.750000  1
  Tb  Tb2  1  0.613660  0.808609  0.250000  1
  Tb  Tb3  1  0.386340  0.191391  0.750000  1
  Tb  Tb4  1  0.194010  0.805990  0.250000  1
  Tb  Tb5  1  0.805990  0.194010  0.750000  1
  Al  Al6  1  0.164729  0.328195  0.578723  1
  Al  Al7  1  0.835271  0.671805  0.421277  1
  Al  Al8  1  0.671805  0.835271  0.578723  1
  Al  Al9  1  0.835271  0.671805  0.078723  1
  Al  Al10  1  0.328195  0.164729  0.421277  1
  Al  Al11  1  0.164729  0.328195  0.921277  1
  Al  Al12  1  0.163969  0.836031  0.577926  1
  Al  Al13  1  0.328195  0.164729  0.078723  1
  Al  Al14  1  0.836031  0.163969  0.422074  1
  Al  Al15  1  0.671805  0.835271  0.921277  1
  Al  Al16  1  0.836031  0.163969  0.077926  1
  Al  Al17  1  0.163969  0.836031  0.922074  1
  Al  Al18  1  0.565157  0.434843  0.250000  1
  Al  Al19  1  0.434843  0.565157  0.750000  1
  Al  Al20  1  0.000421  0.999579  0.250000  1
  Al  Al21  1  0.999579  0.000421  0.750000  1
  Si  Si22  1  0.334927  0.665073  0.039296  1
  Si  Si23  1  0.665073  0.334927  0.960704  1
  Si  Si24  1  0.665073  0.334927  0.539296  1
  Si  Si25  1  0.334927  0.665073  0.460704  1
  Si  Si26  1  0.564863  0.125093  0.250000  1
  Si  Si27  1  0.435137  0.874907  0.750000  1
  Si  Si28  1  0.874907  0.435137  0.250000  1
  Si  Si29  1  0.125093  0.564863  0.750000  1
  Os  Os30  1  0.500000  0.000000  0.000000  1
  Os  Os31  1  0.000000  0.500000  0.000000  1
  Os  Os32  1  0.500000  0.000000  0.500000  1
  Os  Os33  1  0.500000  0.500000  0.000000  1
  Os  Os34  1  0.000000  0.500000  0.500000  1
  Os  Os35  1  0.500000  0.500000  0.500000  1
  Ru  Ru36  1  0.000000  0.000000  0.000000  1
  Ru  Ru37  1  0.000000  0.000000  0.500000  1
