# generated using pymatgen
data_Er16CdIn3Ir4
_symmetry_space_group_name_H-M   'P 1'
_cell_length_a   9.57873567
_cell_length_b   9.58101613
_cell_length_c   9.58101600
_cell_angle_alpha   60.00000046
_cell_angle_beta   59.99212468
_cell_angle_gamma   59.99212562
_symmetry_Int_Tables_number   1
_chemical_formula_structural   Er16CdIn3Ir4
_chemical_formula_sum   'Er16 Cd1 In3 Ir4'
_cell_volume   621.67675077
_cell_formula_units_Z   1
loop_
 _symmetry_equiv_pos_site_id
 _symmetry_equiv_pos_as_xyz
  1  'x, y, z'
loop_
 _atom_site_type_symbol
 _atom_site_label
 _atom_site_symmetry_multiplicity
 _atom_site_fract_x
 _atom_site_fract_y
 _atom_site_fract_z
 _atom_site_occupancy
  Er  Er0  1  0.599598  0.599341  0.599341  1
  Er  Er1  1  0.599598  0.599341  0.201719  1
  Er  Er2  1  0.599598  0.201719  0.599341  1
  Er  Er3  1  0.202137  0.599287  0.599287  1
  Er  Er4  1  0.059985  0.439867  0.439867  1
  Er  Er5  1  0.439390  0.060599  0.060599  1
  Er  Er6  1  0.439390  0.060599  0.439412  1
  Er  Er7  1  0.059985  0.439867  0.060281  1
  Er  Er8  1  0.439390  0.439412  0.060599  1
  Er  Er9  1  0.059985  0.060281  0.439867  1
  Er  Er10  1  0.188433  0.812163  0.812163  1
  Er  Er11  1  0.812297  0.188061  0.188061  1
  Er  Er12  1  0.812297  0.188061  0.811581  1
  Er  Er13  1  0.188433  0.812163  0.187241  1
  Er  Er14  1  0.812297  0.811581  0.188061  1
  Er  Er15  1  0.188433  0.187241  0.812163  1
  Cd  Cd16  1  0.503284  0.832238  0.832238  1
  In  In17  1  0.832055  0.832748  0.832748  1
  In  In18  1  0.832055  0.832748  0.502447  1
  In  In19  1  0.832055  0.502447  0.832748  1
  Ir  Ir20  1  0.391607  0.391563  0.391563  1
  Ir  Ir21  1  0.391607  0.391563  0.825266  1
  Ir  Ir22  1  0.391607  0.825266  0.391563  1
  Ir  Ir23  1  0.824482  0.391839  0.391839  1
