# generated using pymatgen
data_Na3Mn(SeO4)3
_symmetry_space_group_name_H-M   'P 1'
_cell_length_a   8.80346728
_cell_length_b   8.80346695
_cell_length_c   8.80346834
_cell_angle_alpha   107.28384221
_cell_angle_beta   107.28384748
_cell_angle_gamma   107.28385058
_symmetry_Int_Tables_number   1
_chemical_formula_structural   Na3Mn(SeO4)3
_chemical_formula_sum   'Na6 Mn2 Se6 O24'
_cell_volume   563.75005399
_cell_formula_units_Z   2
loop_
 _symmetry_equiv_pos_site_id
 _symmetry_equiv_pos_as_xyz
  1  'x, y, z'
loop_
 _atom_site_type_symbol
 _atom_site_label
 _atom_site_symmetry_multiplicity
 _atom_site_fract_x
 _atom_site_fract_y
 _atom_site_fract_z
 _atom_site_occupancy
  Na  Na0  1  0.614849  0.143337  0.775800  1
  Na  Na1  1  0.775800  0.614849  0.143337  1
  Na  Na2  1  0.143337  0.775800  0.614849  1
  Na  Na3  1  0.385151  0.856663  0.224200  1
  Na  Na4  1  0.224200  0.385151  0.856663  1
  Na  Na5  1  0.856663  0.224200  0.385151  1
  Mn  Mn6  1  0.000000  0.000000  0.000000  1
  Mn  Mn7  1  0.500000  0.500000  0.500000  1
  Se  Se8  1  0.890621  0.541654  0.760076  1
  Se  Se9  1  0.760076  0.890621  0.541654  1
  Se  Se10  1  0.541654  0.760076  0.890621  1
  Se  Se11  1  0.109379  0.458346  0.239924  1
  Se  Se12  1  0.239924  0.109379  0.458346  1
  Se  Se13  1  0.458346  0.239924  0.109379  1
  O  O14  1  0.735249  0.515231  0.567367  1
  O  O15  1  0.567367  0.735249  0.515231  1
  O  O16  1  0.515231  0.567367  0.735249  1
  O  O17  1  0.264751  0.484769  0.432633  1
  O  O18  1  0.432633  0.264751  0.484769  1
  O  O19  1  0.484769  0.432633  0.264751  1
  O  O20  1  0.803443  0.454228  0.873077  1
  O  O21  1  0.873077  0.803443  0.454228  1
  O  O22  1  0.454228  0.873077  0.803443  1
  O  O23  1  0.196557  0.545772  0.126923  1
  O  O24  1  0.126923  0.196557  0.545772  1
  O  O25  1  0.545772  0.126923  0.196557  1
  O  O26  1  0.004414  0.445353  0.682679  1
  O  O27  1  0.682679  0.004414  0.445353  1
  O  O28  1  0.445353  0.682679  0.004414  1
  O  O29  1  0.995586  0.554647  0.317321  1
  O  O30  1  0.317321  0.995586  0.554647  1
  O  O31  1  0.554647  0.317321  0.995586  1
  O  O32  1  0.019512  0.757916  0.868859  1
  O  O33  1  0.868859  0.019512  0.757916  1
  O  O34  1  0.757916  0.868859  0.019512  1
  O  O35  1  0.980488  0.242084  0.131141  1
  O  O36  1  0.131141  0.980488  0.242084  1
  O  O37  1  0.242084  0.131141  0.980488  1
