# generated using pymatgen
data_Sm2CoNi4P6Ru5
_symmetry_space_group_name_H-M   'P 1'
_cell_length_a   3.81161700
_cell_length_b   10.71912085
_cell_length_c   12.08479187
_cell_angle_alpha   90.22175069
_cell_angle_beta   90.00000000
_cell_angle_gamma   90.00000000
_symmetry_Int_Tables_number   1
_chemical_formula_structural   Sm2CoNi4P6Ru5
_chemical_formula_sum   'Sm4 Co2 Ni8 P12 Ru10'
_cell_volume   493.74685839
_cell_formula_units_Z   2
loop_
 _symmetry_equiv_pos_site_id
 _symmetry_equiv_pos_as_xyz
  1  'x, y, z'
loop_
 _atom_site_type_symbol
 _atom_site_label
 _atom_site_symmetry_multiplicity
 _atom_site_fract_x
 _atom_site_fract_y
 _atom_site_fract_z
 _atom_site_occupancy
  Sm  Sm0  1  0.250000  0.589054  0.708977  1
  Sm  Sm1  1  0.250000  0.910591  0.208332  1
  Sm  Sm2  1  0.750000  0.414699  0.292932  1
  Sm  Sm3  1  0.750000  0.085429  0.793054  1
  Co  Co4  1  0.250000  0.037234  0.433095  1
  Co  Co5  1  0.750000  0.965186  0.567100  1
  Ni  Ni6  1  0.750000  0.776395  0.817622  1
  Ni  Ni7  1  0.750000  0.725955  0.318538  1
  Ni  Ni8  1  0.250000  0.882679  0.699779  1
  Ni  Ni9  1  0.250000  0.617040  0.201087  1
  Ni  Ni10  1  0.750000  0.108598  0.301727  1
  Ni  Ni11  1  0.750000  0.391652  0.800925  1
  Ni  Ni12  1  0.250000  0.461382  0.931550  1
  Ni  Ni13  1  0.750000  0.535024  0.068910  1
  P  P14  1  0.250000  0.420746  0.111081  1
  P  P15  1  0.250000  0.075385  0.610636  1
  P  P16  1  0.750000  0.582804  0.891129  1
  P  P17  1  0.750000  0.921312  0.391156  1
  P  P18  1  0.250000  0.270078  0.874163  1
  P  P19  1  0.250000  0.228622  0.375030  1
  P  P20  1  0.750000  0.727091  0.126557  1
  P  P21  1  0.750000  0.774124  0.627242  1
  P  P22  1  0.250000  0.602089  0.390047  1
  P  P23  1  0.250000  0.898246  0.890256  1
  P  P24  1  0.750000  0.399214  0.608817  1
  P  P25  1  0.750000  0.100602  0.108548  1
  Ru  Ru26  1  0.250000  0.706636  0.983253  1
  Ru  Ru27  1  0.250000  0.794425  0.484105  1
  Ru  Ru28  1  0.750000  0.290939  0.012349  1
  Ru  Ru29  1  0.750000  0.208151  0.510762  1
  Ru  Ru30  1  0.250000  0.407200  0.488243  1
  Ru  Ru31  1  0.250000  0.092979  0.987737  1
  Ru  Ru32  1  0.750000  0.598416  0.510806  1
  Ru  Ru33  1  0.750000  0.902358  0.011009  1
  Ru  Ru34  1  0.250000  0.220949  0.182298  1
  Ru  Ru35  1  0.250000  0.276716  0.681148  1
