# generated using pymatgen
data_Nd6Al21Si3Os8
_symmetry_space_group_name_H-M   'P 1'
_cell_length_a   8.84898500
_cell_length_b   8.84898455
_cell_length_c   9.73058200
_cell_angle_alpha   90.00000000
_cell_angle_beta   90.00000000
_cell_angle_gamma   120.00000542
_symmetry_Int_Tables_number   1
_chemical_formula_structural   Nd6Al21Si3Os8
_chemical_formula_sum   'Nd6 Al21 Si3 Os8'
_cell_volume   659.86686445
_cell_formula_units_Z   1
loop_
 _symmetry_equiv_pos_site_id
 _symmetry_equiv_pos_as_xyz
  1  'x, y, z'
loop_
 _atom_site_type_symbol
 _atom_site_label
 _atom_site_symmetry_multiplicity
 _atom_site_fract_x
 _atom_site_fract_y
 _atom_site_fract_z
 _atom_site_occupancy
  Nd  Nd0  1  0.192826  0.385653  0.247309  1
  Nd  Nd1  1  0.805871  0.611742  0.752941  1
  Nd  Nd2  1  0.614347  0.807174  0.247309  1
  Nd  Nd3  1  0.388258  0.194129  0.752941  1
  Nd  Nd4  1  0.192826  0.807174  0.247309  1
  Nd  Nd5  1  0.805871  0.194129  0.752941  1
  Al  Al6  1  0.333333  0.666667  0.487525  1
  Al  Al7  1  0.163538  0.327075  0.571392  1
  Al  Al8  1  0.835890  0.671780  0.426131  1
  Al  Al9  1  0.672925  0.836462  0.571392  1
  Al  Al10  1  0.835799  0.671598  0.074061  1
  Al  Al11  1  0.328220  0.164110  0.426131  1
  Al  Al12  1  0.164360  0.328720  0.926130  1
  Al  Al13  1  0.163538  0.836462  0.571392  1
  Al  Al14  1  0.328402  0.164201  0.074061  1
  Al  Al15  1  0.835890  0.164110  0.426131  1
  Al  Al16  1  0.671280  0.835640  0.926130  1
  Al  Al17  1  0.835799  0.164201  0.074061  1
  Al  Al18  1  0.164360  0.835640  0.926130  1
  Al  Al19  1  0.564277  0.128553  0.248703  1
  Al  Al20  1  0.436199  0.872397  0.748497  1
  Al  Al21  1  0.871447  0.435723  0.248703  1
  Al  Al22  1  0.127603  0.563801  0.748497  1
  Al  Al23  1  0.564277  0.435723  0.248703  1
  Al  Al24  1  0.436199  0.563801  0.748497  1
  Al  Al25  1  0.000000  0.000000  0.249366  1
  Al  Al26  1  0.000000  0.000000  0.749650  1
  Si  Si27  1  0.333333  0.666667  0.026672  1
  Si  Si28  1  0.666667  0.333333  0.972664  1
  Si  Si29  1  0.666667  0.333333  0.529092  1
  Os  Os30  1  0.499385  0.998770  0.999232  1
  Os  Os31  1  0.001230  0.500615  0.999232  1
  Os  Os32  1  0.504353  0.008706  0.500967  1
  Os  Os33  1  0.499385  0.500615  0.999232  1
  Os  Os34  1  0.991294  0.495647  0.500967  1
  Os  Os35  1  0.504353  0.495647  0.500967  1
  Os  Os36  1  0.000000  0.000000  0.999532  1
  Os  Os37  1  0.000000  0.000000  0.499402  1
