# generated using pymatgen
data_Sc4BeB14
_symmetry_space_group_name_H-M   'P 1'
_cell_length_a   7.01023800
_cell_length_b   7.01023800
_cell_length_c   7.07672700
_cell_angle_alpha   90.00000000
_cell_angle_beta   90.00000000
_cell_angle_gamma   90.00000000
_symmetry_Int_Tables_number   1
_chemical_formula_structural   Sc4BeB14
_chemical_formula_sum   'Sc8 Be2 B28'
_cell_volume   347.77468619
_cell_formula_units_Z   2
loop_
 _symmetry_equiv_pos_site_id
 _symmetry_equiv_pos_as_xyz
  1  'x, y, z'
loop_
 _atom_site_type_symbol
 _atom_site_label
 _atom_site_symmetry_multiplicity
 _atom_site_fract_x
 _atom_site_fract_y
 _atom_site_fract_z
 _atom_site_occupancy
  Sc  Sc0  1  0.196070  0.330313  0.000000  1
  Sc  Sc1  1  0.669687  0.196070  0.000000  1
  Sc  Sc2  1  0.330313  0.803930  0.000000  1
  Sc  Sc3  1  0.696070  0.169687  0.500000  1
  Sc  Sc4  1  0.303930  0.830313  0.500000  1
  Sc  Sc5  1  0.803930  0.669687  0.000000  1
  Sc  Sc6  1  0.830313  0.696070  0.500000  1
  Sc  Sc7  1  0.169687  0.303930  0.500000  1
  Be  Be8  1  0.000000  0.000000  0.000000  1
  Be  Be9  1  0.500000  0.500000  0.500000  1
  B  B10  1  0.177107  0.038239  0.224222  1
  B  B11  1  0.961761  0.177107  0.224222  1
  B  B12  1  0.038239  0.822893  0.224222  1
  B  B13  1  0.677107  0.461761  0.275778  1
  B  B14  1  0.322893  0.538239  0.275778  1
  B  B15  1  0.822893  0.961761  0.224222  1
  B  B16  1  0.538239  0.677107  0.275778  1
  B  B17  1  0.461761  0.322893  0.275778  1
  B  B18  1  0.822893  0.961761  0.775778  1
  B  B19  1  0.038239  0.822893  0.775778  1
  B  B20  1  0.961761  0.177107  0.775778  1
  B  B21  1  0.322893  0.538239  0.724222  1
  B  B22  1  0.677107  0.461761  0.724222  1
  B  B23  1  0.177107  0.038239  0.775778  1
  B  B24  1  0.461761  0.322893  0.724222  1
  B  B25  1  0.538239  0.677107  0.724222  1
  B  B26  1  0.086737  0.586737  0.250000  1
  B  B27  1  0.413263  0.086737  0.250000  1
  B  B28  1  0.586737  0.913263  0.250000  1
  B  B29  1  0.913263  0.413263  0.250000  1
  B  B30  1  0.913263  0.413263  0.750000  1
  B  B31  1  0.586737  0.913263  0.750000  1
  B  B32  1  0.413263  0.086737  0.750000  1
  B  B33  1  0.086737  0.586737  0.750000  1
  B  B34  1  0.000000  0.000000  0.387021  1
  B  B35  1  0.500000  0.500000  0.112979  1
  B  B36  1  0.000000  0.000000  0.612979  1
  B  B37  1  0.500000  0.500000  0.887021  1
