# generated using pymatgen
data_NaSr21(In3Ga4)2
_symmetry_space_group_name_H-M   'P 1'
_cell_length_a   12.32273377
_cell_length_b   12.32273449
_cell_length_c   12.32273300
_cell_angle_alpha   60.00000668
_cell_angle_beta   60.00000475
_cell_angle_gamma   60.00000045
_symmetry_Int_Tables_number   1
_chemical_formula_structural   NaSr21(In3Ga4)2
_chemical_formula_sum   'Na1 Sr21 In6 Ga8'
_cell_volume   1323.14133375
_cell_formula_units_Z   1
loop_
 _symmetry_equiv_pos_site_id
 _symmetry_equiv_pos_as_xyz
  1  'x, y, z'
loop_
 _atom_site_type_symbol
 _atom_site_label
 _atom_site_symmetry_multiplicity
 _atom_site_fract_x
 _atom_site_fract_y
 _atom_site_fract_z
 _atom_site_occupancy
  Na  Na0  1  0.500000  0.500000  0.500000  1
  Sr  Sr1  1  0.867250  0.867250  0.398250  1
  Sr  Sr2  1  0.601750  0.132750  0.132750  1
  Sr  Sr3  1  0.867250  0.398250  0.867250  1
  Sr  Sr4  1  0.132750  0.132750  0.132750  1
  Sr  Sr5  1  0.398250  0.867250  0.867250  1
  Sr  Sr6  1  0.867250  0.867250  0.867250  1
  Sr  Sr7  1  0.166190  0.833810  0.500000  1
  Sr  Sr8  1  0.833810  0.500000  0.500000  1
  Sr  Sr9  1  0.132750  0.132750  0.601750  1
  Sr  Sr10  1  0.833810  0.166190  0.500000  1
  Sr  Sr11  1  0.166190  0.500000  0.500000  1
  Sr  Sr12  1  0.132750  0.601750  0.132750  1
  Sr  Sr13  1  0.500000  0.500000  0.166190  1
  Sr  Sr14  1  0.500000  0.166190  0.833810  1
  Sr  Sr15  1  0.500000  0.833810  0.166190  1
  Sr  Sr16  1  0.500000  0.500000  0.833810  1
  Sr  Sr17  1  0.500000  0.166190  0.500000  1
  Sr  Sr18  1  0.166190  0.500000  0.833810  1
  Sr  Sr19  1  0.000000  0.000000  0.000000  1
  Sr  Sr20  1  0.500000  0.833810  0.500000  1
  Sr  Sr21  1  0.833810  0.500000  0.166190  1
  In  In22  1  0.783235  0.216765  0.783235  1
  In  In23  1  0.783235  0.216765  0.216765  1
  In  In24  1  0.216765  0.783235  0.216765  1
  In  In25  1  0.216765  0.783235  0.783235  1
  In  In26  1  0.783235  0.783235  0.216765  1
  In  In27  1  0.216765  0.216765  0.783235  1
  Ga  Ga28  1  0.693874  0.918379  0.693874  1
  Ga  Ga29  1  0.693874  0.693874  0.918379  1
  Ga  Ga30  1  0.693874  0.693874  0.693874  1
  Ga  Ga31  1  0.306126  0.081621  0.306126  1
  Ga  Ga32  1  0.918379  0.693874  0.693874  1
  Ga  Ga33  1  0.306126  0.306126  0.081621  1
  Ga  Ga34  1  0.081621  0.306126  0.306126  1
  Ga  Ga35  1  0.306126  0.306126  0.306126  1
