# generated using pymatgen
data_Na12Li8Sn(GeAs4)3
_symmetry_space_group_name_H-M   'P 1'
_cell_length_a   9.70604869
_cell_length_b   9.70604797
_cell_length_c   14.10711587
_cell_angle_alpha   89.95061686
_cell_angle_beta   89.95061655
_cell_angle_gamma   144.07519370
_symmetry_Int_Tables_number   1
_chemical_formula_structural   Na12Li8Sn(GeAs4)3
_chemical_formula_sum   'Na12 Li8 Sn1 Ge3 As12'
_cell_volume   779.74851655
_cell_formula_units_Z   1
loop_
 _symmetry_equiv_pos_site_id
 _symmetry_equiv_pos_as_xyz
  1  'x, y, z'
loop_
 _atom_site_type_symbol
 _atom_site_label
 _atom_site_symmetry_multiplicity
 _atom_site_fract_x
 _atom_site_fract_y
 _atom_site_fract_z
 _atom_site_occupancy
  Na  Na0  1  0.595072  0.932609  0.822958  1
  Na  Na1  1  0.263642  0.264049  0.323958  1
  Na  Na2  1  0.235170  0.236914  0.820748  1
  Na  Na3  1  0.735951  0.736358  0.676042  1
  Na  Na4  1  0.432724  0.094090  0.674157  1
  Na  Na5  1  0.905910  0.567276  0.325843  1
  Na  Na6  1  0.067391  0.404928  0.177042  1
  Na  Na7  1  0.406126  0.065652  0.179364  1
  Na  Na8  1  0.566925  0.904982  0.324062  1
  Na  Na9  1  0.095018  0.433075  0.675938  1
  Na  Na10  1  0.934348  0.593874  0.820636  1
  Na  Na11  1  0.763086  0.764830  0.179252  1
  Li  Li12  1  0.082497  0.917503  0.000000  1
  Li  Li13  1  0.582458  0.417542  0.500000  1
  Li  Li14  1  0.916292  0.083708  0.000000  1
  Li  Li15  1  0.756101  0.243899  0.000000  1
  Li  Li16  1  0.745820  0.254180  0.500000  1
  Li  Li17  1  0.246741  0.753259  0.000000  1
  Li  Li18  1  0.254321  0.745679  0.500000  1
  Li  Li19  1  0.417489  0.582511  0.500000  1
  Sn  Sn20  1  0.591368  0.408632  0.000000  1
  Ge  Ge21  1  0.091001  0.908999  0.500000  1
  Ge  Ge22  1  0.407372  0.592628  0.000000  1
  Ge  Ge23  1  0.908840  0.091160  0.500000  1
  As  As24  1  0.072148  0.399191  0.390888  1
  As  As25  1  0.916665  0.581183  0.115418  1
  As  As26  1  0.418817  0.083335  0.884582  1
  As  As27  1  0.600809  0.927852  0.609112  1
  As  As28  1  0.926899  0.599999  0.608683  1
  As  As29  1  0.100223  0.427291  0.890258  1
  As  As30  1  0.572709  0.899777  0.109742  1
  As  As31  1  0.400001  0.073101  0.391317  1
  As  As32  1  0.219275  0.219300  0.599373  1
  As  As33  1  0.724567  0.734476  0.896042  1
  As  As34  1  0.265524  0.275433  0.103958  1
  As  As35  1  0.780700  0.780725  0.400627  1
