# generated using pymatgen
data_TbTm4Ni19
_symmetry_space_group_name_H-M   'P 1'
_cell_length_a   4.86097325
_cell_length_b   4.86097399
_cell_length_c   16.31406871
_cell_angle_alpha   81.43211805
_cell_angle_beta   81.43211549
_cell_angle_gamma   59.99999865
_symmetry_Int_Tables_number   1
_chemical_formula_structural   TbTm4Ni19
_chemical_formula_sum   'Tb1 Tm4 Ni19'
_cell_volume   328.86391259
_cell_formula_units_Z   1
loop_
 _symmetry_equiv_pos_site_id
 _symmetry_equiv_pos_as_xyz
  1  'x, y, z'
loop_
 _atom_site_type_symbol
 _atom_site_label
 _atom_site_symmetry_multiplicity
 _atom_site_fract_x
 _atom_site_fract_y
 _atom_site_fract_z
 _atom_site_occupancy
  Tb  Tb0  1  0.000000  0.000000  0.000000  1
  Tm  Tm1  1  0.921608  0.921608  0.235176  1
  Tm  Tm2  1  0.078392  0.078392  0.764824  1
  Tm  Tm3  1  0.848095  0.848095  0.455716  1
  Tm  Tm4  1  0.151905  0.151905  0.544284  1
  Ni  Ni5  1  0.500000  0.500000  0.500000  1
  Ni  Ni6  1  0.749514  0.749515  0.751457  1
  Ni  Ni7  1  0.250485  0.250485  0.248544  1
  Ni  Ni8  1  0.666728  0.666728  0.999817  1
  Ni  Ni9  1  0.333272  0.333272  0.000183  1
  Ni  Ni10  1  0.583896  0.583896  0.248314  1
  Ni  Ni11  1  0.416104  0.416104  0.751686  1
  Ni  Ni12  1  0.375390  0.375390  0.372053  1
  Ni  Ni13  1  0.877167  0.375390  0.372053  1
  Ni  Ni14  1  0.375390  0.877167  0.372053  1
  Ni  Ni15  1  0.624610  0.624610  0.627947  1
  Ni  Ni16  1  0.122833  0.624610  0.627947  1
  Ni  Ni17  1  0.624610  0.122833  0.627947  1
  Ni  Ni18  1  0.458829  0.458829  0.123477  1
  Ni  Ni19  1  0.958863  0.458829  0.123477  1
  Ni  Ni20  1  0.458829  0.958863  0.123477  1
  Ni  Ni21  1  0.541171  0.541171  0.876523  1
  Ni  Ni22  1  0.041137  0.541171  0.876523  1
  Ni  Ni23  1  0.541171  0.041137  0.876523  1
