# generated using pymatgen
data_La2Al16Pd5Pt4
_symmetry_space_group_name_H-M   'P 1'
_cell_length_a   11.18832334
_cell_length_b   11.15955418
_cell_length_c   11.15955500
_cell_angle_alpha   158.37457388
_cell_angle_beta   116.61236892
_cell_angle_gamma   67.80585989
_symmetry_Int_Tables_number   1
_chemical_formula_structural   La2Al16Pd5Pt4
_chemical_formula_sum   'La2 Al16 Pd5 Pt4'
_cell_volume   455.92432546
_cell_formula_units_Z   1
loop_
 _symmetry_equiv_pos_site_id
 _symmetry_equiv_pos_as_xyz
  1  'x, y, z'
loop_
 _atom_site_type_symbol
 _atom_site_label
 _atom_site_symmetry_multiplicity
 _atom_site_fract_x
 _atom_site_fract_y
 _atom_site_fract_z
 _atom_site_occupancy
  La  La0  1  0.230032  0.230300  0.999731  1
  La  La1  1  0.769506  0.769805  0.999700  1
  Al  Al2  1  0.274574  0.394805  0.879769  1
  Al  Al3  1  0.091552  0.918877  0.172675  1
  Al  Al4  1  0.510196  0.204075  0.306120  1
  Al  Al5  1  0.254181  0.081926  0.172254  1
  Al  Al6  1  0.913820  0.414691  0.499130  1
  Al  Al7  1  0.724057  0.604319  0.119739  1
  Al  Al8  1  0.897623  0.203599  0.694024  1
  Al  Al9  1  0.489354  0.796723  0.692631  1
  Al  Al10  1  0.381951  0.999206  0.382746  1
  Al  Al11  1  0.616121  0.999384  0.616737  1
  Al  Al12  1  0.484419  0.604277  0.880142  1
  Al  Al13  1  0.104068  0.796338  0.307729  1
  Al  Al14  1  0.909661  0.081195  0.828466  1
  Al  Al15  1  0.747999  0.919055  0.828944  1
  Al  Al16  1  0.514227  0.395050  0.119177  1
  Al  Al17  1  0.086890  0.586422  0.500468  1
  Pd  Pd18  1  0.760799  0.499661  0.261138  1
  Pd  Pd19  1  0.026763  0.339540  0.687223  1
  Pd  Pd20  1  0.622498  0.122723  0.499776  1
  Pd  Pd21  1  0.236896  0.499644  0.737252  1
  Pd  Pd22  1  0.001387  0.000265  0.001122  1
  Pt  Pt23  1  0.377136  0.877002  0.500134  1
  Pt  Pt24  1  0.652207  0.339489  0.312718  1
  Pt  Pt25  1  0.348560  0.661140  0.687420  1
  Pt  Pt26  1  0.973523  0.660490  0.313034  1
