# generated using pymatgen
data_TbEr10Cd9Pd4
_symmetry_space_group_name_H-M   'P 1'
_cell_length_a   13.04873799
_cell_length_b   13.04873926
_cell_length_c   3.66425000
_cell_angle_alpha   90.00000000
_cell_angle_beta   90.00000000
_cell_angle_gamma   111.63593123
_symmetry_Int_Tables_number   1
_chemical_formula_structural   TbEr10Cd9Pd4
_chemical_formula_sum   'Tb1 Er10 Cd9 Pd4'
_cell_volume   579.95298486
_cell_formula_units_Z   1
loop_
 _symmetry_equiv_pos_site_id
 _symmetry_equiv_pos_as_xyz
  1  'x, y, z'
loop_
 _atom_site_type_symbol
 _atom_site_label
 _atom_site_symmetry_multiplicity
 _atom_site_fract_x
 _atom_site_fract_y
 _atom_site_fract_z
 _atom_site_occupancy
  Tb  Tb0  1  0.000000  0.000000  0.000000  1
  Er  Er1  1  0.415712  0.074540  0.000000  1
  Er  Er2  1  0.584288  0.925460  0.000000  1
  Er  Er3  1  0.074540  0.415712  0.000000  1
  Er  Er4  1  0.925460  0.584288  0.000000  1
  Er  Er5  1  0.162472  0.837528  0.000000  1
  Er  Er6  1  0.837528  0.162472  0.000000  1
  Er  Er7  1  0.370691  0.629309  0.000000  1
  Er  Er8  1  0.629309  0.370691  0.000000  1
  Er  Er9  1  0.306325  0.306325  0.000000  1
  Er  Er10  1  0.693675  0.693675  0.000000  1
  Cd  Cd11  1  0.366453  0.844110  0.500000  1
  Cd  Cd12  1  0.633547  0.155890  0.500000  1
  Cd  Cd13  1  0.844110  0.366453  0.500000  1
  Cd  Cd14  1  0.155890  0.633547  0.500000  1
  Cd  Cd15  1  0.216409  0.070192  0.500000  1
  Cd  Cd16  1  0.783591  0.929808  0.500000  1
  Cd  Cd17  1  0.070192  0.216409  0.500000  1
  Cd  Cd18  1  0.929808  0.783591  0.500000  1
  Cd  Cd19  1  0.500000  0.500000  0.500000  1
  Pd  Pd20  1  0.451008  0.250030  0.500000  1
  Pd  Pd21  1  0.548992  0.749970  0.500000  1
  Pd  Pd22  1  0.250030  0.451008  0.500000  1
  Pd  Pd23  1  0.749970  0.548992  0.500000  1
