# generated using pymatgen
data_YHo4Si12Ir19
_symmetry_space_group_name_H-M   'P 1'
_cell_length_a   12.82354800
_cell_length_b   12.83181098
_cell_length_c   3.99285800
_cell_angle_alpha   90.00000000
_cell_angle_beta   90.00000000
_cell_angle_gamma   119.97870592
_symmetry_Int_Tables_number   1
_chemical_formula_structural   YHo4Si12Ir19
_chemical_formula_sum   'Y1 Ho4 Si12 Ir19'
_cell_volume   569.11993789
_cell_formula_units_Z   1
loop_
 _symmetry_equiv_pos_site_id
 _symmetry_equiv_pos_as_xyz
  1  'x, y, z'
loop_
 _atom_site_type_symbol
 _atom_site_label
 _atom_site_symmetry_multiplicity
 _atom_site_fract_x
 _atom_site_fract_y
 _atom_site_fract_z
 _atom_site_occupancy
  Y  Y0  1  0.184919  0.000000  0.500000  1
  Ho  Ho1  1  0.999999  0.184782  0.500000  1
  Ho  Ho2  1  0.815217  0.815218  0.500000  1
  Ho  Ho3  1  0.666936  0.333467  0.000000  1
  Ho  Ho4  1  0.333468  0.666533  0.000000  1
  Si  Si5  1  0.481203  0.312049  0.500000  1
  Si  Si6  1  0.818476  0.000000  0.000000  1
  Si  Si7  1  0.181423  0.181658  0.000000  1
  Si  Si8  1  0.999765  0.818342  0.000000  1
  Si  Si9  1  0.368100  0.000000  0.000000  1
  Si  Si10  1  0.688064  0.169061  0.500000  1
  Si  Si11  1  0.830844  0.518809  0.500000  1
  Si  Si12  1  0.519005  0.830939  0.500000  1
  Si  Si13  1  0.169155  0.687951  0.500000  1
  Si  Si14  1  0.312037  0.481191  0.500000  1
  Si  Si15  1  0.999921  0.367712  0.000000  1
  Si  Si16  1  0.632208  0.632288  0.000000  1
  Ir  Ir17  1  0.805871  0.182598  0.000000  1
  Ir  Ir18  1  0.377375  0.194821  0.000000  1
  Ir  Ir19  1  0.638460  0.512018  0.500000  1
  Ir  Ir20  1  0.873406  0.361267  0.500000  1
  Ir  Ir21  1  0.361527  0.873415  0.500000  1
  Ir  Ir22  1  0.512140  0.638733  0.500000  1
  Ir  Ir23  1  0.126442  0.487982  0.500000  1
  Ir  Ir24  1  0.817197  0.623209  0.000000  1
  Ir  Ir25  1  0.623273  0.817402  0.000000  1
  Ir  Ir26  1  0.182556  0.805179  0.000000  1
  Ir  Ir27  1  0.193989  0.376791  0.000000  1
  Ir  Ir28  1  0.999749  0.716964  0.500000  1
  Ir  Ir29  1  0.282786  0.283036  0.500000  1
  Ir  Ir30  1  0.717315  0.000000  0.500000  1
  Ir  Ir31  1  0.999411  0.552271  0.000000  1
  Ir  Ir32  1  0.447140  0.447729  0.000000  1
  Ir  Ir33  1  0.552821  0.000000  0.000000  1
  Ir  Ir34  1  0.999687  0.000000  0.000000  1
  Ir  Ir35  1  0.488112  0.126585  0.500000  1
