# generated using pymatgen
data_Y4MnSi8Tc5
_symmetry_space_group_name_H-M   'P 1'
_cell_length_a   6.75855245
_cell_length_b   6.77767114
_cell_length_c   6.76318591
_cell_angle_alpha   69.77307743
_cell_angle_beta   89.92448456
_cell_angle_gamma   89.68728023
_symmetry_Int_Tables_number   1
_chemical_formula_structural   Y4MnSi8Tc5
_chemical_formula_sum   'Y4 Mn1 Si8 Tc5'
_cell_volume   290.69319763
_cell_formula_units_Z   1
loop_
 _symmetry_equiv_pos_site_id
 _symmetry_equiv_pos_as_xyz
  1  'x, y, z'
loop_
 _atom_site_type_symbol
 _atom_site_label
 _atom_site_symmetry_multiplicity
 _atom_site_fract_x
 _atom_site_fract_y
 _atom_site_fract_z
 _atom_site_occupancy
  Y  Y0  1  0.167769  0.943170  0.189823  1
  Y  Y1  1  0.330662  0.439768  0.192960  1
  Y  Y2  1  0.831070  0.060950  0.805183  1
  Y  Y3  1  0.666951  0.555093  0.814623  1
  Mn  Mn4  1  0.647133  0.740915  0.236405  1
  Si  Si5  1  0.557212  0.113973  0.106285  1
  Si  Si6  1  0.360979  0.631744  0.511182  1
  Si  Si7  1  0.854060  0.866660  0.482934  1
  Si  Si8  1  0.055152  0.380951  0.896117  1
  Si  Si9  1  0.140551  0.128595  0.512403  1
  Si  Si10  1  0.643520  0.378868  0.481877  1
  Si  Si11  1  0.942710  0.626972  0.104853  1
  Si  Si12  1  0.451854  0.873580  0.903130  1
  Tc  Tc13  1  0.849771  0.246422  0.243284  1
  Tc  Tc14  1  0.351735  0.253523  0.754704  1
  Tc  Tc15  1  0.151189  0.758161  0.765985  1
  Tc  Tc16  1  0.499049  0.990614  0.499389  1
  Tc  Tc17  1  0.998632  0.510039  0.498863  1
