# generated using pymatgen
data_NaU(CuBi2)2
_symmetry_space_group_name_H-M   'P 1'
_cell_length_a   4.64507300
_cell_length_b   4.64507300
_cell_length_c   9.54193200
_cell_angle_alpha   90.00000000
_cell_angle_beta   90.00000000
_cell_angle_gamma   90.00000000
_symmetry_Int_Tables_number   1
_chemical_formula_structural   NaU(CuBi2)2
_chemical_formula_sum   'Na1 U1 Cu2 Bi4'
_cell_volume   205.88343448
_cell_formula_units_Z   1
loop_
 _symmetry_equiv_pos_site_id
 _symmetry_equiv_pos_as_xyz
  1  'x, y, z'
loop_
 _atom_site_type_symbol
 _atom_site_label
 _atom_site_symmetry_multiplicity
 _atom_site_fract_x
 _atom_site_fract_y
 _atom_site_fract_z
 _atom_site_occupancy
  Na  Na0  1  0.000000  0.500000  0.726222  1
  U  U1  1  0.500000  0.000000  0.283369  1
  Cu  Cu2  1  0.500000  0.500000  0.498948  1
  Cu  Cu3  1  0.000000  0.000000  0.498949  1
  Bi  Bi4  1  0.500000  0.500000  0.011703  1
  Bi  Bi5  1  0.000000  0.000000  0.011702  1
  Bi  Bi6  1  0.000000  0.500000  0.316825  1
  Bi  Bi7  1  0.500000  0.000000  0.652282  1
