# generated using pymatgen
data_K2Pd3O7
_symmetry_space_group_name_H-M   'P 1'
_cell_length_a   7.41907872
_cell_length_b   7.67037647
_cell_length_c   8.19243884
_cell_angle_alpha   105.99337076
_cell_angle_beta   105.69044202
_cell_angle_gamma   113.63859149
_symmetry_Int_Tables_number   1
_chemical_formula_structural   K2Pd3O7
_chemical_formula_sum   'K4 Pd6 O14'
_cell_volume   370.16434405
_cell_formula_units_Z   2
loop_
 _symmetry_equiv_pos_site_id
 _symmetry_equiv_pos_as_xyz
  1  'x, y, z'
loop_
 _atom_site_type_symbol
 _atom_site_label
 _atom_site_symmetry_multiplicity
 _atom_site_fract_x
 _atom_site_fract_y
 _atom_site_fract_z
 _atom_site_occupancy
  K  K0  1  0.328294  0.818459  0.073102  1
  K  K1  1  0.256803  0.687416  0.493613  1
  K  K2  1  0.743197  0.312584  0.506388  1
  K  K3  1  0.671707  0.181541  0.926898  1
  Pd  Pd4  1  0.358157  0.358153  0.075800  1
  Pd  Pd5  1  0.070908  0.073572  0.216700  1
  Pd  Pd6  1  0.783341  0.786409  0.356940  1
  Pd  Pd7  1  0.216658  0.213591  0.643060  1
  Pd  Pd8  1  0.929093  0.926428  0.783299  1
  Pd  Pd9  1  0.641843  0.641847  0.924200  1
  O  O10  1  0.038770  0.198669  0.027289  1
  O  O11  1  0.680101  0.520769  0.124680  1
  O  O12  1  0.743600  0.911906  0.162102  1
  O  O13  1  0.379068  0.209271  0.240624  1
  O  O14  1  0.462148  0.637055  0.287444  1
  O  O15  1  0.111703  0.949399  0.405992  1
  O  O16  1  0.135721  0.310140  0.445984  1
  O  O17  1  0.864279  0.689860  0.554016  1
  O  O18  1  0.888297  0.050601  0.594008  1
  O  O19  1  0.537852  0.362945  0.712556  1
  O  O20  1  0.620933  0.790729  0.759378  1
  O  O21  1  0.256399  0.088094  0.837897  1
  O  O22  1  0.319900  0.479231  0.875319  1
  O  O23  1  0.961229  0.801331  0.972711  1
