# generated using pymatgen
data_La4TlInPtAu3
_symmetry_space_group_name_H-M   'P 1'
_cell_length_a   8.33472080
_cell_length_b   8.31037603
_cell_length_c   3.86596500
_cell_angle_alpha   90.00000000
_cell_angle_beta   90.00000000
_cell_angle_gamma   89.85825045
_symmetry_Int_Tables_number   1
_chemical_formula_structural   La4TlInPtAu3
_chemical_formula_sum   'La4 Tl1 In1 Pt1 Au3'
_cell_volume   267.77394707
_cell_formula_units_Z   1
loop_
 _symmetry_equiv_pos_site_id
 _symmetry_equiv_pos_as_xyz
  1  'x, y, z'
loop_
 _atom_site_type_symbol
 _atom_site_label
 _atom_site_symmetry_multiplicity
 _atom_site_fract_x
 _atom_site_fract_y
 _atom_site_fract_z
 _atom_site_occupancy
  La  La0  1  0.661016  0.178287  0.500000  1
  La  La1  1  0.186294  0.313999  0.500000  1
  La  La2  1  0.827456  0.672111  0.500000  1
  La  La3  1  0.321371  0.838742  0.500000  1
  Tl  Tl4  1  0.996840  0.000481  0.000000  1
  In  In5  1  0.497599  0.501270  0.000000  1
  Pt  Pt6  1  0.381557  0.129625  0.000000  1
  Au  Au7  1  0.875404  0.375524  0.000000  1
  Au  Au8  1  0.130925  0.619656  0.000000  1
  Au  Au9  1  0.621538  0.870307  0.000000  1
