# generated using pymatgen
data_Nd2Al16RePt8
_symmetry_space_group_name_H-M   'P 1'
_cell_length_a   11.15456873
_cell_length_b   11.15456873
_cell_length_c   11.15456900
_cell_angle_alpha   158.48023746
_cell_angle_beta   116.95067955
_cell_angle_gamma   67.44845544
_symmetry_Int_Tables_number   1
_chemical_formula_structural   Nd2Al16RePt8
_chemical_formula_sum   'Nd2 Al16 Re1 Pt8'
_cell_volume   450.72775741
_cell_formula_units_Z   1
loop_
 _symmetry_equiv_pos_site_id
 _symmetry_equiv_pos_as_xyz
  1  'x, y, z'
loop_
 _atom_site_type_symbol
 _atom_site_label
 _atom_site_symmetry_multiplicity
 _atom_site_fract_x
 _atom_site_fract_y
 _atom_site_fract_z
 _atom_site_occupancy
  Nd  Nd0  1  0.231202  0.231013  0.000190  1
  Nd  Nd1  1  0.769177  0.768987  0.000190  1
  Al  Al2  1  0.275999  0.392381  0.883618  1
  Al  Al3  1  0.089768  0.924263  0.165504  1
  Al  Al4  1  0.504902  0.200201  0.304702  1
  Al  Al5  1  0.241242  0.075737  0.165504  1
  Al  Al6  1  0.907371  0.415836  0.491535  1
  Al  Al7  1  0.723702  0.598816  0.124886  1
  Al  Al8  1  0.901894  0.209313  0.692581  1
  Al  Al9  1  0.483268  0.790687  0.692581  1
  Al  Al10  1  0.388580  0.000000  0.388580  1
  Al  Al11  1  0.628317  0.000000  0.628317  1
  Al  Al12  1  0.491236  0.607619  0.883618  1
  Al  Al13  1  0.104500  0.799799  0.304702  1
  Al  Al14  1  0.907568  0.086955  0.820614  1
  Al  Al15  1  0.733658  0.913045  0.820614  1
  Al  Al16  1  0.526071  0.401184  0.124886  1
  Al  Al17  1  0.075699  0.584164  0.491535  1
  Re  Re18  1  0.784887  0.500000  0.284887  1
  Pt  Pt19  1  0.026533  0.343995  0.682537  1
  Pt  Pt20  1  0.627689  0.124381  0.503307  1
  Pt  Pt21  1  0.252432  0.500000  0.752432  1
  Pt  Pt22  1  0.378926  0.875619  0.503307  1
  Pt  Pt23  1  0.983934  0.000000  0.983934  1
  Pt  Pt24  1  0.645858  0.334406  0.311453  1
  Pt  Pt25  1  0.338541  0.656005  0.682537  1
  Pt  Pt26  1  0.977047  0.665594  0.311453  1
