# generated using pymatgen
data_Y10Tl7CdPd4
_symmetry_space_group_name_H-M   'P 1'
_cell_length_a   3.63375800
_cell_length_b   8.17421814
_cell_length_c   18.36604500
_cell_angle_alpha   89.95850477
_cell_angle_beta   90.00000000
_cell_angle_gamma   90.00000000
_symmetry_Int_Tables_number   1
_chemical_formula_structural   Y10Tl7CdPd4
_chemical_formula_sum   'Y10 Tl7 Cd1 Pd4'
_cell_volume   545.52888969
_cell_formula_units_Z   1
loop_
 _symmetry_equiv_pos_site_id
 _symmetry_equiv_pos_as_xyz
  1  'x, y, z'
loop_
 _atom_site_type_symbol
 _atom_site_label
 _atom_site_symmetry_multiplicity
 _atom_site_fract_x
 _atom_site_fract_y
 _atom_site_fract_z
 _atom_site_occupancy
  Y  Y0  1  0.500000  0.240939  0.782776  1
  Y  Y1  1  0.500000  0.759956  0.217377  1
  Y  Y2  1  0.500000  0.256749  0.280430  1
  Y  Y3  1  0.500000  0.739661  0.717449  1
  Y  Y4  1  0.500000  0.118130  0.584493  1
  Y  Y5  1  0.500000  0.882841  0.414306  1
  Y  Y6  1  0.500000  0.381775  0.084877  1
  Y  Y7  1  0.500000  0.617281  0.915924  1
  Y  Y8  1  0.500000  0.000363  0.000495  1
  Y  Y9  1  0.500000  0.500167  0.500173  1
  Tl  Tl10  1  0.000000  0.916800  0.850160  1
  Tl  Tl11  1  0.000000  0.416591  0.649982  1
  Tl  Tl12  1  0.000000  0.581640  0.350333  1
  Tl  Tl13  1  0.000000  0.206765  0.433999  1
  Tl  Tl14  1  0.000000  0.794591  0.565435  1
  Tl  Tl15  1  0.000000  0.293974  0.935397  1
  Tl  Tl16  1  0.000000  0.711358  0.067564  1
  Cd  Cd17  1  0.000000  0.081935  0.149787  1
  Pd  Pd18  1  0.000000  0.025730  0.696613  1
  Pd  Pd19  1  0.000000  0.974627  0.302324  1
  Pd  Pd20  1  0.000000  0.472282  0.196456  1
  Pd  Pd21  1  0.000000  0.525844  0.803654  1
