# generated using pymatgen
data_Sr5SbP2Au
_symmetry_space_group_name_H-M   'P 1'
_cell_length_a   8.02695100
_cell_length_b   8.52538100
_cell_length_c   15.74538800
_cell_angle_alpha   90.00000000
_cell_angle_beta   90.00000000
_cell_angle_gamma   90.00000000
_symmetry_Int_Tables_number   1
_chemical_formula_structural   Sr5SbP2Au
_chemical_formula_sum   'Sr20 Sb4 P8 Au4'
_cell_volume   1077.50123266
_cell_formula_units_Z   4
loop_
 _symmetry_equiv_pos_site_id
 _symmetry_equiv_pos_as_xyz
  1  'x, y, z'
loop_
 _atom_site_type_symbol
 _atom_site_label
 _atom_site_symmetry_multiplicity
 _atom_site_fract_x
 _atom_site_fract_y
 _atom_site_fract_z
 _atom_site_occupancy
  Sr  Sr0  1  0.482037  0.686676  0.587766  1
  Sr  Sr1  1  0.982037  0.813324  0.912234  1
  Sr  Sr2  1  0.017963  0.186676  0.412234  1
  Sr  Sr3  1  0.517963  0.313324  0.087766  1
  Sr  Sr4  1  0.482037  0.686676  0.912234  1
  Sr  Sr5  1  0.982037  0.813324  0.587766  1
  Sr  Sr6  1  0.017963  0.186676  0.087766  1
  Sr  Sr7  1  0.517963  0.313324  0.412234  1
  Sr  Sr8  1  0.371084  0.858738  0.392949  1
  Sr  Sr9  1  0.871084  0.641262  0.107051  1
  Sr  Sr10  1  0.128916  0.358738  0.607051  1
  Sr  Sr11  1  0.628916  0.141262  0.892949  1
  Sr  Sr12  1  0.628916  0.141262  0.607051  1
  Sr  Sr13  1  0.128916  0.358738  0.892949  1
  Sr  Sr14  1  0.871084  0.641262  0.392949  1
  Sr  Sr15  1  0.371084  0.858738  0.107051  1
  Sr  Sr16  1  0.291002  0.009699  0.750000  1
  Sr  Sr17  1  0.791002  0.490301  0.750000  1
  Sr  Sr18  1  0.208998  0.509699  0.250000  1
  Sr  Sr19  1  0.708998  0.990301  0.250000  1
  Sb  Sb20  1  0.189704  0.638526  0.750000  1
  Sb  Sb21  1  0.689704  0.861474  0.750000  1
  Sb  Sb22  1  0.310296  0.138526  0.250000  1
  Sb  Sb23  1  0.810296  0.361474  0.250000  1
  P  P24  1  0.731194  0.955886  0.051034  1
  P  P25  1  0.231194  0.544114  0.448966  1
  P  P26  1  0.768806  0.455886  0.948966  1
  P  P27  1  0.268806  0.044114  0.551034  1
  P  P28  1  0.268806  0.044114  0.948966  1
  P  P29  1  0.768806  0.455886  0.551034  1
  P  P30  1  0.231194  0.544114  0.051034  1
  P  P31  1  0.731194  0.955886  0.448966  1
  Au  Au32  1  0.426518  0.367133  0.750000  1
  Au  Au33  1  0.926518  0.132867  0.750000  1
  Au  Au34  1  0.073482  0.867133  0.250000  1
  Au  Au35  1  0.573482  0.632867  0.250000  1
