# generated using pymatgen
data_Tm3Lu7Si5P
_symmetry_space_group_name_H-M   'P 1'
_cell_length_a   8.22454500
_cell_length_b   8.23153428
_cell_length_c   6.13854400
_cell_angle_alpha   90.00000000
_cell_angle_beta   90.00000000
_cell_angle_gamma   119.97192045
_symmetry_Int_Tables_number   1
_chemical_formula_structural   Tm3Lu7Si5P
_chemical_formula_sum   'Tm3 Lu7 Si5 P1'
_cell_volume   360.00745188
_cell_formula_units_Z   1
loop_
 _symmetry_equiv_pos_site_id
 _symmetry_equiv_pos_as_xyz
  1  'x, y, z'
loop_
 _atom_site_type_symbol
 _atom_site_label
 _atom_site_symmetry_multiplicity
 _atom_site_fract_x
 _atom_site_fract_y
 _atom_site_fract_z
 _atom_site_occupancy
  Tm  Tm0  1  0.756446  0.000000  0.750000  1
  Tm  Tm1  1  0.000992  0.757839  0.750000  1
  Tm  Tm2  1  0.243152  0.242161  0.750000  1
  Lu  Lu3  1  0.666229  0.332657  0.999668  1
  Lu  Lu4  1  0.333571  0.667343  0.500332  1
  Lu  Lu5  1  0.333571  0.667343  0.999668  1
  Lu  Lu6  1  0.666229  0.332657  0.500332  1
  Lu  Lu7  1  0.757832  0.757152  0.250000  1
  Lu  Lu8  1  0.000681  0.242848  0.250000  1
  Lu  Lu9  1  0.242541  0.000000  0.250000  1
  Si  Si10  1  0.394957  0.394342  0.250000  1
  Si  Si11  1  0.000615  0.605658  0.250000  1
  Si  Si12  1  0.999952  0.394843  0.750000  1
  Si  Si13  1  0.605110  0.605157  0.750000  1
  Si  Si14  1  0.606012  0.000000  0.250000  1
  P  P15  1  0.392109  0.000000  0.750000  1
