# generated using pymatgen
data_NdLuSbTe
_symmetry_space_group_name_H-M   'P 1'
_cell_length_a   7.69700335
_cell_length_b   7.69700378
_cell_length_c   7.69700191
_cell_angle_alpha   33.25084484
_cell_angle_beta   33.25083930
_cell_angle_gamma   33.25084849
_symmetry_Int_Tables_number   1
_chemical_formula_structural   NdLuSbTe
_chemical_formula_sum   'Nd1 Lu1 Sb1 Te1'
_cell_volume   122.04928125
_cell_formula_units_Z   1
loop_
 _symmetry_equiv_pos_site_id
 _symmetry_equiv_pos_as_xyz
  1  'x, y, z'
loop_
 _atom_site_type_symbol
 _atom_site_label
 _atom_site_symmetry_multiplicity
 _atom_site_fract_x
 _atom_site_fract_y
 _atom_site_fract_z
 _atom_site_occupancy
  Nd  Nd0  1  0.253991  0.253991  0.253991  1
  Lu  Lu1  1  0.745907  0.745907  0.745907  1
  Sb  Sb2  1  0.005540  0.005540  0.005540  1
  Te  Te3  1  0.494562  0.494562  0.494562  1
