# generated using pymatgen
data_Ba(RhS2)4
_symmetry_space_group_name_H-M   'P 1'
_cell_length_a   3.62790402
_cell_length_b   7.95506817
_cell_length_c   9.01681700
_cell_angle_alpha   80.72447355
_cell_angle_beta   78.39434741
_cell_angle_gamma   76.81919885
_symmetry_Int_Tables_number   1
_chemical_formula_structural   Ba(RhS2)4
_chemical_formula_sum   'Ba1 Rh4 S8'
_cell_volume   246.37107806
_cell_formula_units_Z   1
loop_
 _symmetry_equiv_pos_site_id
 _symmetry_equiv_pos_as_xyz
  1  'x, y, z'
loop_
 _atom_site_type_symbol
 _atom_site_label
 _atom_site_symmetry_multiplicity
 _atom_site_fract_x
 _atom_site_fract_y
 _atom_site_fract_z
 _atom_site_occupancy
  Ba  Ba0  1  0.499622  0.000152  0.000602  1
  Rh  Rh1  1  0.631463  0.200682  0.536391  1
  Rh  Rh2  1  0.838299  0.504438  0.818960  1
  Rh  Rh3  1  0.161761  0.495412  0.181068  1
  Rh  Rh4  1  0.368585  0.799449  0.463379  1
  S  S5  1  0.454836  0.328562  0.761766  1
  S  S6  1  0.545343  0.671115  0.238198  1
  S  S7  1  0.901531  0.630377  0.566562  1
  S  S8  1  0.098373  0.369786  0.433469  1
  S  S9  1  0.207279  0.658262  0.927178  1
  S  S10  1  0.792797  0.341617  0.072790  1
  S  S11  1  0.830881  0.986034  0.352202  1
  S  S12  1  0.169228  0.014114  0.647429  1
