# generated using pymatgen
data_Er12Fe2Co2SnRh
_symmetry_space_group_name_H-M   'P 1'
_cell_length_a   8.23577583
_cell_length_b   8.23577609
_cell_length_c   8.23577697
_cell_angle_alpha   110.52490272
_cell_angle_beta   110.63951615
_cell_angle_gamma   107.27140553
_symmetry_Int_Tables_number   1
_chemical_formula_structural   Er12Fe2Co2SnRh
_chemical_formula_sum   'Er12 Fe2 Co2 Sn1 Rh1'
_cell_volume   429.54946700
_cell_formula_units_Z   1
loop_
 _symmetry_equiv_pos_site_id
 _symmetry_equiv_pos_as_xyz
  1  'x, y, z'
loop_
 _atom_site_type_symbol
 _atom_site_label
 _atom_site_symmetry_multiplicity
 _atom_site_fract_x
 _atom_site_fract_y
 _atom_site_fract_z
 _atom_site_occupancy
  Er  Er0  1  0.313160  0.616423  0.303262  1
  Er  Er1  1  0.686840  0.383578  0.696738  1
  Er  Er2  1  0.313160  0.009897  0.696738  1
  Er  Er3  1  0.686840  0.990103  0.303262  1
  Er  Er4  1  0.412104  0.214892  0.197213  1
  Er  Er5  1  0.587896  0.785108  0.802787  1
  Er  Er6  1  0.017679  0.214892  0.802787  1
  Er  Er7  1  0.982321  0.785108  0.197213  1
  Er  Er8  1  0.184801  0.287997  0.472798  1
  Er  Er9  1  0.815199  0.712003  0.527202  1
  Er  Er10  1  0.184801  0.712003  0.896804  1
  Er  Er11  1  0.815199  0.287997  0.103196  1
  Fe  Fe12  1  0.109207  0.609207  0.500000  1
  Fe  Fe13  1  0.890794  0.390794  0.500000  1
  Co  Co14  1  0.379832  0.000000  0.379832  1
  Co  Co15  1  0.620168  0.000000  0.620168  1
  Sn  Sn16  1  0.500000  0.500000  0.000000  1
  Rh  Rh17  1  0.000000  0.000000  0.000000  1
