# generated using pymatgen
data_Sc12InCo2Ni2Rh
_symmetry_space_group_name_H-M   'P 1'
_cell_length_a   7.74249822
_cell_length_b   7.74249774
_cell_length_c   7.74249791
_cell_angle_alpha   110.84040946
_cell_angle_beta   110.80500152
_cell_angle_gamma   106.80080679
_symmetry_Int_Tables_number   1
_chemical_formula_structural   Sc12InCo2Ni2Rh
_chemical_formula_sum   'Sc12 In1 Co2 Ni2 Rh1'
_cell_volume   356.71173033
_cell_formula_units_Z   1
loop_
 _symmetry_equiv_pos_site_id
 _symmetry_equiv_pos_as_xyz
  1  'x, y, z'
loop_
 _atom_site_type_symbol
 _atom_site_label
 _atom_site_symmetry_multiplicity
 _atom_site_fract_x
 _atom_site_fract_y
 _atom_site_fract_z
 _atom_site_occupancy
  Sc  Sc0  1  0.422760  0.226071  0.196689  1
  Sc  Sc1  1  0.577240  0.773929  0.803311  1
  Sc  Sc2  1  0.029382  0.226071  0.803311  1
  Sc  Sc3  1  0.970618  0.773929  0.196689  1
  Sc  Sc4  1  0.316042  0.617551  0.301509  1
  Sc  Sc5  1  0.683958  0.382449  0.698491  1
  Sc  Sc6  1  0.316042  0.014532  0.698491  1
  Sc  Sc7  1  0.683958  0.985468  0.301509  1
  Sc  Sc8  1  0.184545  0.283348  0.467894  1
  Sc  Sc9  1  0.815455  0.716651  0.532106  1
  Sc  Sc10  1  0.184545  0.716651  0.901196  1
  Sc  Sc11  1  0.815455  0.283348  0.098804  1
  In  In12  1  0.500000  0.500000  0.000000  1
  Co  Co13  1  0.119943  0.619943  0.500000  1
  Co  Co14  1  0.880057  0.380057  0.500000  1
  Ni  Ni15  1  0.356975  0.000000  0.356975  1
  Ni  Ni16  1  0.643025  0.000000  0.643025  1
  Rh  Rh17  1  0.000000  0.000000  0.000000  1
