# generated using pymatgen
data_Al9FePt
_symmetry_space_group_name_H-M   'P 1'
_cell_length_a   6.31964945
_cell_length_b   6.36664200
_cell_length_c   8.74363539
_cell_angle_alpha   90.00000000
_cell_angle_beta   94.60239099
_cell_angle_gamma   90.00000000
_symmetry_Int_Tables_number   1
_chemical_formula_structural   Al9FePt
_chemical_formula_sum   'Al18 Fe2 Pt2'
_cell_volume   350.66532704
_cell_formula_units_Z   2
loop_
 _symmetry_equiv_pos_site_id
 _symmetry_equiv_pos_as_xyz
  1  'x, y, z'
loop_
 _atom_site_type_symbol
 _atom_site_label
 _atom_site_symmetry_multiplicity
 _atom_site_fract_x
 _atom_site_fract_y
 _atom_site_fract_z
 _atom_site_occupancy
  Al  Al0  1  0.000029  0.484024  0.507834  1
  Al  Al1  1  0.999971  0.984024  0.992166  1
  Al  Al2  1  0.602883  0.487617  0.225390  1
  Al  Al3  1  0.397117  0.987617  0.274610  1
  Al  Al4  1  0.408441  0.536877  0.762850  1
  Al  Al5  1  0.591559  0.036877  0.737150  1
  Al  Al6  1  0.897976  0.786297  0.279015  1
  Al  Al7  1  0.102024  0.286297  0.220985  1
  Al  Al8  1  0.083106  0.207806  0.731821  1
  Al  Al9  1  0.916894  0.707806  0.768179  1
  Al  Al10  1  0.620896  0.691399  0.509976  1
  Al  Al11  1  0.379104  0.191399  0.990024  1
  Al  Al12  1  0.395376  0.302612  0.506578  1
  Al  Al13  1  0.604624  0.802612  0.993422  1
  Al  Al14  1  0.781505  0.106112  0.471398  1
  Al  Al15  1  0.218495  0.606112  0.028602  1
  Al  Al16  1  0.214441  0.890773  0.553909  1
  Al  Al17  1  0.785559  0.390773  0.946091  1
  Fe  Fe18  1  0.264941  0.881489  0.832668  1
  Fe  Fe19  1  0.735059  0.381489  0.667332  1
  Pt  Pt20  1  0.736723  0.124992  0.167976  1
  Pt  Pt21  1  0.263277  0.624992  0.332024  1
