# generated using pymatgen
data_Lu4Zr2MoO12
_symmetry_space_group_name_H-M   'P 1'
_cell_length_a   6.25380444
_cell_length_b   6.31872804
_cell_length_c   6.43354037
_cell_angle_alpha   100.09915782
_cell_angle_beta   98.87839983
_cell_angle_gamma   99.17384427
_symmetry_Int_Tables_number   1
_chemical_formula_structural   Lu4Zr2MoO12
_chemical_formula_sum   'Lu4 Zr2 Mo1 O12'
_cell_volume   242.70271959
_cell_formula_units_Z   1
loop_
 _symmetry_equiv_pos_site_id
 _symmetry_equiv_pos_as_xyz
  1  'x, y, z'
loop_
 _atom_site_type_symbol
 _atom_site_label
 _atom_site_symmetry_multiplicity
 _atom_site_fract_x
 _atom_site_fract_y
 _atom_site_fract_z
 _atom_site_occupancy
  Lu  Lu0  1  0.390609  0.699062  0.864468  1
  Lu  Lu1  1  0.696715  0.865077  0.391638  1
  Lu  Lu2  1  0.609391  0.300938  0.135532  1
  Lu  Lu3  1  0.303285  0.134923  0.608362  1
  Zr  Zr4  1  0.850426  0.393597  0.678005  1
  Zr  Zr5  1  0.149574  0.606403  0.321995  1
  Mo  Mo6  1  0.000000  0.000000  0.000000  1
  O  O7  1  0.036032  0.681587  0.903425  1
  O  O8  1  0.688161  0.927281  0.058064  1
  O  O9  1  0.923573  0.078846  0.687060  1
  O  O10  1  0.963968  0.318413  0.096575  1
  O  O11  1  0.311839  0.072719  0.941936  1
  O  O12  1  0.076427  0.921154  0.312940  1
  O  O13  1  0.583378  0.183871  0.430196  1
  O  O14  1  0.176434  0.430947  0.576489  1
  O  O15  1  0.419451  0.581685  0.176692  1
  O  O16  1  0.416622  0.816129  0.569804  1
  O  O17  1  0.823566  0.569053  0.423511  1
  O  O18  1  0.580549  0.418315  0.823308  1
