# generated using pymatgen
data_Ce5Ho3(Ti3Si4)4
_symmetry_space_group_name_H-M   'P 1'
_cell_length_a   7.08586516
_cell_length_b   7.08283536
_cell_length_c   13.06482698
_cell_angle_alpha   90.09744367
_cell_angle_beta   89.82562372
_cell_angle_gamma   90.24309858
_symmetry_Int_Tables_number   1
_chemical_formula_structural   Ce5Ho3(Ti3Si4)4
_chemical_formula_sum   'Ce5 Ho3 Ti12 Si16'
_cell_volume   655.68787714
_cell_formula_units_Z   1
loop_
 _symmetry_equiv_pos_site_id
 _symmetry_equiv_pos_as_xyz
  1  'x, y, z'
loop_
 _atom_site_type_symbol
 _atom_site_label
 _atom_site_symmetry_multiplicity
 _atom_site_fract_x
 _atom_site_fract_y
 _atom_site_fract_z
 _atom_site_occupancy
  Ce  Ce0  1  0.338773  0.003994  0.466779  1
  Ce  Ce1  1  0.489262  0.833089  0.716651  1
  Ce  Ce2  1  0.510216  0.165693  0.217520  1
  Ce  Ce3  1  0.834811  0.490580  0.282128  1
  Ce  Ce4  1  0.165978  0.510494  0.783439  1
  Ho  Ho5  1  0.659467  0.999247  0.967898  1
  Ho  Ho6  1  0.001638  0.338821  0.532353  1
  Ho  Ho7  1  0.999366  0.660064  0.032057  1
  Ti  Ti8  1  0.326677  0.326471  0.000028  1
  Ti  Ti9  1  0.174409  0.826852  0.250664  1
  Ti  Ti10  1  0.826194  0.173641  0.750648  1
  Ti  Ti11  1  0.671531  0.674891  0.499898  1
  Ti  Ti12  1  0.153052  0.009572  0.877379  1
  Ti  Ti13  1  0.495199  0.655255  0.125913  1
  Ti  Ti14  1  0.507013  0.342292  0.626942  1
  Ti  Ti15  1  0.655841  0.494925  0.873853  1
  Ti  Ti16  1  0.344025  0.506279  0.372575  1
  Ti  Ti17  1  0.844541  0.990979  0.376029  1
  Ti  Ti18  1  0.008459  0.154419  0.122838  1
  Ti  Ti19  1  0.993099  0.844485  0.623693  1
  Si  Si20  1  0.198682  0.130587  0.686483  1
  Si  Si21  1  0.372648  0.702656  0.938633  1
  Si  Si22  1  0.629597  0.300119  0.438641  1
  Si  Si23  1  0.702304  0.372208  0.061957  1
  Si  Si24  1  0.297045  0.624447  0.561513  1
  Si  Si25  1  0.800626  0.868980  0.183890  1
  Si  Si26  1  0.128471  0.200404  0.313579  1
  Si  Si27  1  0.868408  0.800735  0.815596  1
  Si  Si28  1  0.291876  0.954277  0.066433  1
  Si  Si29  1  0.545982  0.789521  0.314188  1
  Si  Si30  1  0.455644  0.208964  0.815711  1
  Si  Si31  1  0.791535  0.544572  0.684800  1
  Si  Si32  1  0.209359  0.456404  0.184078  1
  Si  Si33  1  0.710856  0.045178  0.566779  1
  Si  Si34  1  0.953591  0.292017  0.934144  1
  Si  Si35  1  0.043825  0.706888  0.434289  1
