# generated using pymatgen
data_La8Th2CoRu3
_symmetry_space_group_name_H-M   'P 1'
_cell_length_a   9.11719177
_cell_length_b   9.11107637
_cell_length_c   7.21429700
_cell_angle_alpha   85.76546269
_cell_angle_beta   85.68860842
_cell_angle_gamma   42.89963485
_symmetry_Int_Tables_number   1
_chemical_formula_structural   La8Th2CoRu3
_chemical_formula_sum   'La8 Th2 Co1 Ru3'
_cell_volume   406.62501796
_cell_formula_units_Z   1
loop_
 _symmetry_equiv_pos_site_id
 _symmetry_equiv_pos_as_xyz
  1  'x, y, z'
loop_
 _atom_site_type_symbol
 _atom_site_label
 _atom_site_symmetry_multiplicity
 _atom_site_fract_x
 _atom_site_fract_y
 _atom_site_fract_z
 _atom_site_occupancy
  La  La0  1  0.200604  0.984661  0.587556  1
  La  La1  1  0.021835  0.795884  0.899482  1
  La  La2  1  0.211343  0.364621  0.328492  1
  La  La3  1  0.640193  0.788879  0.182271  1
  La  La4  1  0.783824  0.642405  0.681698  1
  La  La5  1  0.357744  0.214754  0.819819  1
  La  La6  1  0.984668  0.196283  0.089449  1
  La  La7  1  0.806726  0.011636  0.408726  1
  Th  Th8  1  0.573076  0.425084  0.747448  1
  Th  Th9  1  0.423061  0.574277  0.252592  1
  Co  Co10  1  0.215789  0.585352  0.573963  1
  Ru  Ru11  1  0.412616  0.787711  0.930810  1
  Ru  Ru12  1  0.781084  0.417009  0.431461  1
  Ru  Ru13  1  0.587436  0.211442  0.066230  1
