# generated using pymatgen
data_Tb5Ho11Cd4(OsPt)2
_symmetry_space_group_name_H-M   'P 1'
_cell_length_a   9.67561770
_cell_length_b   9.66461878
_cell_length_c   9.68469404
_cell_angle_alpha   59.54886052
_cell_angle_beta   59.59195968
_cell_angle_gamma   59.61464924
_symmetry_Int_Tables_number   1
_chemical_formula_structural   Tb5Ho11Cd4(OsPt)2
_chemical_formula_sum   'Tb5 Ho11 Cd4 Os2 Pt2'
_cell_volume   634.33592835
_cell_formula_units_Z   1
loop_
 _symmetry_equiv_pos_site_id
 _symmetry_equiv_pos_as_xyz
  1  'x, y, z'
loop_
 _atom_site_type_symbol
 _atom_site_label
 _atom_site_symmetry_multiplicity
 _atom_site_fract_x
 _atom_site_fract_y
 _atom_site_fract_z
 _atom_site_occupancy
  Tb  Tb0  1  0.553329  0.939117  0.941679  1
  Tb  Tb1  1  0.555304  0.939107  0.566308  1
  Tb  Tb2  1  0.938834  0.554614  0.940280  1
  Tb  Tb3  1  0.565061  0.564030  0.936689  1
  Tb  Tb4  1  0.939413  0.939172  0.561398  1
  Ho  Ho5  1  0.350883  0.349842  0.351393  1
  Ho  Ho6  1  0.350551  0.351786  0.950173  1
  Ho  Ho7  1  0.345605  0.955473  0.350308  1
  Ho  Ho8  1  0.954049  0.346075  0.349793  1
  Ho  Ho9  1  0.816053  0.188056  0.188067  1
  Ho  Ho10  1  0.184413  0.815490  0.807381  1
  Ho  Ho11  1  0.187731  0.815392  0.189198  1
  Ho  Ho12  1  0.815253  0.185754  0.806697  1
  Ho  Ho13  1  0.188248  0.188781  0.810283  1
  Ho  Ho14  1  0.808061  0.808075  0.192089  1
  Ho  Ho15  1  0.941344  0.553286  0.565150  1
  Cd  Cd16  1  0.580746  0.579134  0.579119  1
  Cd  Cd17  1  0.579380  0.579368  0.258402  1
  Cd  Cd18  1  0.582103  0.254836  0.580064  1
  Cd  Cd19  1  0.254510  0.582130  0.579946  1
  Os  Os20  1  0.145538  0.145045  0.136182  1
  Os  Os21  1  0.144686  0.146760  0.573803  1
  Pt  Pt22  1  0.143275  0.574737  0.143854  1
  Pt  Pt23  1  0.575633  0.143943  0.141745  1
