# generated using pymatgen
data_Ba2Ti6BCl17
_symmetry_space_group_name_H-M   'P 1'
_cell_length_a   9.42054871
_cell_length_b   9.42054957
_cell_length_c   9.42054950
_cell_angle_alpha   104.99028723
_cell_angle_beta   104.99028745
_cell_angle_gamma   118.86120092
_symmetry_Int_Tables_number   1
_chemical_formula_structural   Ba2Ti6BCl17
_chemical_formula_sum   'Ba2 Ti6 B1 Cl17'
_cell_volume   630.43386558
_cell_formula_units_Z   1
loop_
 _symmetry_equiv_pos_site_id
 _symmetry_equiv_pos_as_xyz
  1  'x, y, z'
loop_
 _atom_site_type_symbol
 _atom_site_label
 _atom_site_symmetry_multiplicity
 _atom_site_fract_x
 _atom_site_fract_y
 _atom_site_fract_z
 _atom_site_occupancy
  Ba  Ba0  1  0.250000  0.750000  0.500000  1
  Ba  Ba1  1  0.750000  0.250000  0.500000  1
  Ti  Ti2  1  0.228218  0.228218  0.000000  1
  Ti  Ti3  1  0.771782  0.771782  0.000000  1
  Ti  Ti4  1  0.177133  0.063918  0.241052  1
  Ti  Ti5  1  0.936082  0.177133  0.113215  1
  Ti  Ti6  1  0.822867  0.936082  0.758948  1
  Ti  Ti7  1  0.063918  0.822867  0.886785  1
  B  B8  1  0.000000  0.000000  0.000000  1
  Cl  Cl9  1  0.873519  0.730477  0.603996  1
  Cl  Cl10  1  0.269523  0.873519  0.143042  1
  Cl  Cl11  1  0.135102  0.605772  0.740874  1
  Cl  Cl12  1  0.553056  0.677463  0.729380  1
  Cl  Cl13  1  0.864898  0.394228  0.259126  1
  Cl  Cl14  1  0.446944  0.322537  0.270620  1
  Cl  Cl15  1  0.823676  0.553056  0.875594  1
  Cl  Cl16  1  0.394228  0.135102  0.529330  1
  Cl  Cl17  1  0.605772  0.864898  0.470670  1
  Cl  Cl18  1  0.126481  0.269523  0.396004  1
  Cl  Cl19  1  0.322537  0.051917  0.875594  1
  Cl  Cl20  1  0.948083  0.823676  0.270620  1
  Cl  Cl21  1  0.730477  0.126481  0.856958  1
  Cl  Cl22  1  0.500000  0.500000  0.000000  1
  Cl  Cl23  1  0.176324  0.446944  0.124406  1
  Cl  Cl24  1  0.051917  0.176324  0.729380  1
  Cl  Cl25  1  0.677463  0.948083  0.124406  1
