# generated using pymatgen
data_Nb3Al(AsO4)6
_symmetry_space_group_name_H-M   'P 1'
_cell_length_a   9.31732627
_cell_length_b   9.31732745
_cell_length_c   9.31732634
_cell_angle_alpha   57.11091673
_cell_angle_beta   57.11091788
_cell_angle_gamma   57.11091960
_symmetry_Int_Tables_number   1
_chemical_formula_structural   Nb3Al(AsO4)6
_chemical_formula_sum   'Nb3 Al1 As6 O24'
_cell_volume   533.87133274
_cell_formula_units_Z   1
loop_
 _symmetry_equiv_pos_site_id
 _symmetry_equiv_pos_as_xyz
  1  'x, y, z'
loop_
 _atom_site_type_symbol
 _atom_site_label
 _atom_site_symmetry_multiplicity
 _atom_site_fract_x
 _atom_site_fract_y
 _atom_site_fract_z
 _atom_site_occupancy
  Nb  Nb0  1  0.856371  0.856371  0.856371  1
  Nb  Nb1  1  0.641558  0.641558  0.641558  1
  Nb  Nb2  1  0.362120  0.362120  0.362120  1
  Al  Al3  1  0.145642  0.145642  0.145642  1
  As  As4  1  0.254960  0.510544  0.972646  1
  As  As5  1  0.972646  0.254960  0.510544  1
  As  As6  1  0.510544  0.972646  0.254960  1
  As  As7  1  0.456598  0.032193  0.768830  1
  As  As8  1  0.032193  0.768830  0.456598  1
  As  As9  1  0.768830  0.456598  0.032193  1
  O  O10  1  0.710648  0.495802  0.864156  1
  O  O11  1  0.495802  0.864156  0.710648  1
  O  O12  1  0.048178  0.687646  0.967797  1
  O  O13  1  0.864156  0.710648  0.495802  1
  O  O14  1  0.414665  0.587260  0.769879  1
  O  O15  1  0.279464  0.310068  0.989479  1
  O  O16  1  0.967797  0.048178  0.687646  1
  O  O17  1  0.769879  0.414665  0.587260  1
  O  O18  1  0.587260  0.769879  0.414665  1
  O  O19  1  0.666249  0.010913  0.738199  1
  O  O20  1  0.298657  0.017246  0.978215  1
  O  O21  1  0.010913  0.738199  0.666249  1
  O  O22  1  0.989479  0.279464  0.310068  1
  O  O23  1  0.687646  0.967797  0.048178  1
  O  O24  1  0.310068  0.989479  0.279464  1
  O  O25  1  0.396928  0.235819  0.598693  1
  O  O26  1  0.235819  0.598693  0.396928  1
  O  O27  1  0.017246  0.978215  0.298657  1
  O  O28  1  0.738199  0.666249  0.010913  1
  O  O29  1  0.598693  0.396928  0.235819  1
  O  O30  1  0.139000  0.292617  0.500963  1
  O  O31  1  0.978215  0.298657  0.017246  1
  O  O32  1  0.500963  0.139000  0.292617  1
  O  O33  1  0.292617  0.500963  0.139000  1
