# generated using pymatgen
data_Dy6PtRh17
_symmetry_space_group_name_H-M   'P 1'
_cell_length_a   5.27458213
_cell_length_b   5.27539878
_cell_length_c   17.62005802
_cell_angle_alpha   89.99502791
_cell_angle_beta   90.00456658
_cell_angle_gamma   120.02076390
_symmetry_Int_Tables_number   1
_chemical_formula_structural   Dy6PtRh17
_chemical_formula_sum   'Dy6 Pt1 Rh17'
_cell_volume   424.51243042
_cell_formula_units_Z   1
loop_
 _symmetry_equiv_pos_site_id
 _symmetry_equiv_pos_as_xyz
  1  'x, y, z'
loop_
 _atom_site_type_symbol
 _atom_site_label
 _atom_site_symmetry_multiplicity
 _atom_site_fract_x
 _atom_site_fract_y
 _atom_site_fract_z
 _atom_site_occupancy
  Dy  Dy0  1  0.333334  0.666668  0.542219  1
  Dy  Dy1  1  0.666669  0.333330  0.043645  1
  Dy  Dy2  1  0.666666  0.333332  0.457781  1
  Dy  Dy3  1  0.333331  0.666670  0.956355  1
  Dy  Dy4  1  0.333320  0.666653  0.749375  1
  Dy  Dy5  1  0.666680  0.333347  0.250625  1
  Pt  Pt6  1  0.000000  0.000000  0.000000  1
  Rh  Rh7  1  0.167813  0.335631  0.126717  1
  Rh  Rh8  1  0.832577  0.665157  0.625526  1
  Rh  Rh9  1  0.664352  0.832160  0.126704  1
  Rh  Rh10  1  0.167827  0.832170  0.126698  1
  Rh  Rh11  1  0.832597  0.167434  0.625521  1
  Rh  Rh12  1  0.334867  0.167429  0.625516  1
  Rh  Rh13  1  0.832187  0.664369  0.873283  1
  Rh  Rh14  1  0.832173  0.167830  0.873302  1
  Rh  Rh15  1  0.335648  0.167840  0.873296  1
  Rh  Rh16  1  0.665133  0.832571  0.374484  1
  Rh  Rh17  1  0.167403  0.832566  0.374479  1
  Rh  Rh18  1  0.167423  0.334843  0.374474  1
  Rh  Rh19  1  0.000022  0.999969  0.250570  1
  Rh  Rh20  1  0.999978  0.000031  0.749430  1
  Rh  Rh21  1  0.333317  0.666704  0.249900  1
  Rh  Rh22  1  0.666683  0.333296  0.750100  1
  Rh  Rh23  1  0.000000  0.000000  0.500000  1
