# generated using pymatgen
data_Dy3Ag3Rh
_symmetry_space_group_name_H-M   'P 1'
_cell_length_a   8.09127651
_cell_length_b   8.09127594
_cell_length_c   8.09127487
_cell_angle_alpha   114.09891928
_cell_angle_beta   114.09891676
_cell_angle_gamma   114.09892164
_symmetry_Int_Tables_number   1
_chemical_formula_structural   Dy3Ag3Rh
_chemical_formula_sum   'Dy6 Ag6 Rh2'
_cell_volume   319.46153956
_cell_formula_units_Z   2
loop_
 _symmetry_equiv_pos_site_id
 _symmetry_equiv_pos_as_xyz
  1  'x, y, z'
loop_
 _atom_site_type_symbol
 _atom_site_label
 _atom_site_symmetry_multiplicity
 _atom_site_fract_x
 _atom_site_fract_y
 _atom_site_fract_z
 _atom_site_occupancy
  Dy  Dy0  1  0.390983  0.047261  0.281134  1
  Dy  Dy1  1  0.047261  0.281134  0.390983  1
  Dy  Dy2  1  0.281134  0.390983  0.047261  1
  Dy  Dy3  1  0.609017  0.952739  0.718866  1
  Dy  Dy4  1  0.952739  0.718866  0.609017  1
  Dy  Dy5  1  0.718866  0.609017  0.952739  1
  Ag  Ag6  1  0.223856  0.054286  0.562169  1
  Ag  Ag7  1  0.054286  0.562169  0.223856  1
  Ag  Ag8  1  0.562169  0.223856  0.054286  1
  Ag  Ag9  1  0.776144  0.945714  0.437831  1
  Ag  Ag10  1  0.945714  0.437831  0.776144  1
  Ag  Ag11  1  0.437831  0.776144  0.945714  1
  Rh  Rh12  1  0.000000  0.000000  0.000000  1
  Rh  Rh13  1  0.500000  0.500000  0.500000  1
