# generated using pymatgen
data_YTm7(InRu)2
_symmetry_space_group_name_H-M   'P 1'
_cell_length_a   9.60043111
_cell_length_b   9.56834478
_cell_length_c   9.59741661
_cell_angle_alpha   59.25586016
_cell_angle_beta   59.29065211
_cell_angle_gamma   59.23228051
_symmetry_Int_Tables_number   1
_chemical_formula_structural   YTm7(InRu)2
_chemical_formula_sum   'Y2 Tm14 In4 Ru4'
_cell_volume   612.88736551
_cell_formula_units_Z   2
loop_
 _symmetry_equiv_pos_site_id
 _symmetry_equiv_pos_as_xyz
  1  'x, y, z'
loop_
 _atom_site_type_symbol
 _atom_site_label
 _atom_site_symmetry_multiplicity
 _atom_site_fract_x
 _atom_site_fract_y
 _atom_site_fract_z
 _atom_site_occupancy
  Y  Y0  1  0.060035  0.061248  0.440742  1
  Y  Y1  1  0.441112  0.062221  0.439330  1
  Tm  Tm2  1  0.059890  0.442061  0.059399  1
  Tm  Tm3  1  0.042958  0.651902  0.653033  1
  Tm  Tm4  1  0.442051  0.444246  0.058086  1
  Tm  Tm5  1  0.651804  0.042147  0.651815  1
  Tm  Tm6  1  0.190873  0.812303  0.190829  1
  Tm  Tm7  1  0.190468  0.190771  0.813331  1
  Tm  Tm8  1  0.810006  0.809243  0.190461  1
  Tm  Tm9  1  0.442999  0.058878  0.057347  1
  Tm  Tm10  1  0.813158  0.190021  0.190602  1
  Tm  Tm11  1  0.057590  0.446946  0.441961  1
  Tm  Tm12  1  0.809342  0.190765  0.810153  1
  Tm  Tm13  1  0.190820  0.809558  0.810294  1
  Tm  Tm14  1  0.652225  0.650499  0.042898  1
  Tm  Tm15  1  0.649732  0.649827  0.650428  1
  In  In16  1  0.416987  0.417537  0.416846  1
  In  In17  1  0.747732  0.418540  0.417169  1
  In  In18  1  0.418292  0.746549  0.417490  1
  In  In19  1  0.417212  0.417404  0.749255  1
  Ru  Ru20  1  0.858053  0.852398  0.421442  1
  Ru  Ru21  1  0.859359  0.858833  0.861889  1
  Ru  Ru22  1  0.420778  0.854675  0.859067  1
  Ru  Ru23  1  0.856525  0.421428  0.856130  1
