# generated using pymatgen
data_Ca20Pd3Ru
_symmetry_space_group_name_H-M   'P 1'
_cell_length_a   6.87435034
_cell_length_b   7.58226541
_cell_length_c   16.22610200
_cell_angle_alpha   90.00000000
_cell_angle_beta   90.00000000
_cell_angle_gamma   90.18934952
_symmetry_Int_Tables_number   1
_chemical_formula_structural   Ca20Pd3Ru
_chemical_formula_sum   'Ca20 Pd3 Ru1'
_cell_volume   845.75090948
_cell_formula_units_Z   1
loop_
 _symmetry_equiv_pos_site_id
 _symmetry_equiv_pos_as_xyz
  1  'x, y, z'
loop_
 _atom_site_type_symbol
 _atom_site_label
 _atom_site_symmetry_multiplicity
 _atom_site_fract_x
 _atom_site_fract_y
 _atom_site_fract_z
 _atom_site_occupancy
  Ca  Ca0  1  0.354360  0.311363  0.065975  1
  Ca  Ca1  1  0.651275  0.688106  0.939830  1
  Ca  Ca2  1  0.849813  0.186979  0.939666  1
  Ca  Ca3  1  0.651275  0.688106  0.560170  1
  Ca  Ca4  1  0.148472  0.812009  0.061114  1
  Ca  Ca5  1  0.354360  0.311363  0.434025  1
  Ca  Ca6  1  0.148472  0.812009  0.438886  1
  Ca  Ca7  1  0.849813  0.186979  0.560334  1
  Ca  Ca8  1  0.159365  0.100443  0.250000  1
  Ca  Ca9  1  0.847237  0.901882  0.750000  1
  Ca  Ca10  1  0.653422  0.402751  0.750000  1
  Ca  Ca11  1  0.353588  0.590884  0.250000  1
  Ca  Ca12  1  0.327703  0.038688  0.641009  1
  Ca  Ca13  1  0.669588  0.969501  0.355076  1
  Ca  Ca14  1  0.821360  0.456739  0.355177  1
  Ca  Ca15  1  0.669588  0.969501  0.144924  1
  Ca  Ca16  1  0.171987  0.538606  0.640959  1
  Ca  Ca17  1  0.327703  0.038688  0.858991  1
  Ca  Ca18  1  0.171987  0.538606  0.859041  1
  Ca  Ca19  1  0.821360  0.456739  0.144823  1
  Pd  Pd20  1  0.456034  0.740677  0.750000  1
  Pd  Pd21  1  0.043584  0.240841  0.750000  1
  Pd  Pd22  1  0.960141  0.759036  0.250000  1
  Ru  Ru23  1  0.537513  0.259505  0.250000  1
