# generated using pymatgen
data_Sr4TlIn(SnPd2)2
_symmetry_space_group_name_H-M   'P 1'
_cell_length_a   4.62419700
_cell_length_b   7.75647841
_cell_length_c   8.58639302
_cell_angle_alpha   90.06385602
_cell_angle_beta   90.00000000
_cell_angle_gamma   90.00000000
_symmetry_Int_Tables_number   1
_chemical_formula_structural   Sr4TlIn(SnPd2)2
_chemical_formula_sum   'Sr4 Tl1 In1 Sn2 Pd4'
_cell_volume   307.97212477
_cell_formula_units_Z   1
loop_
 _symmetry_equiv_pos_site_id
 _symmetry_equiv_pos_as_xyz
  1  'x, y, z'
loop_
 _atom_site_type_symbol
 _atom_site_label
 _atom_site_symmetry_multiplicity
 _atom_site_fract_x
 _atom_site_fract_y
 _atom_site_fract_z
 _atom_site_occupancy
  Sr  Sr0  1  0.750000  0.973434  0.681245  1
  Sr  Sr1  1  0.250000  0.025377  0.317960  1
  Sr  Sr2  1  0.750000  0.474734  0.816932  1
  Sr  Sr3  1  0.250000  0.528655  0.181662  1
  Tl  Tl4  1  0.750000  0.344861  0.429248  1
  In  In5  1  0.250000  0.149250  0.932100  1
  Sn  Sn6  1  0.250000  0.654805  0.567354  1
  Sn  Sn7  1  0.750000  0.846450  0.066726  1
  Pd  Pd8  1  0.250000  0.780595  0.883420  1
  Pd  Pd9  1  0.250000  0.289259  0.628293  1
  Pd  Pd10  1  0.750000  0.726008  0.382998  1
  Pd  Pd11  1  0.750000  0.206573  0.112061  1
