# generated using pymatgen
data_NaPr5NdPtBr12
_symmetry_space_group_name_H-M   'P 1'
_cell_length_a   9.72198770
_cell_length_b   9.68213482
_cell_length_c   9.56429124
_cell_angle_alpha   107.32747605
_cell_angle_beta   107.43999283
_cell_angle_gamma   107.34816057
_symmetry_Int_Tables_number   1
_chemical_formula_structural   NaPr5NdPtBr12
_chemical_formula_sum   'Na1 Pr5 Nd1 Pt1 Br12'
_cell_volume   742.02629788
_cell_formula_units_Z   1
loop_
 _symmetry_equiv_pos_site_id
 _symmetry_equiv_pos_as_xyz
  1  'x, y, z'
loop_
 _atom_site_type_symbol
 _atom_site_label
 _atom_site_symmetry_multiplicity
 _atom_site_fract_x
 _atom_site_fract_y
 _atom_site_fract_z
 _atom_site_occupancy
  Na  Na0  1  0.499942  0.500048  0.499841  1
  Pr  Pr1  1  0.327395  0.031068  0.117719  1
  Pr  Pr2  1  0.030252  0.112689  0.317532  1
  Pr  Pr3  1  0.970038  0.888241  0.682951  1
  Pr  Pr4  1  0.672550  0.968614  0.882210  1
  Pr  Pr5  1  0.881981  0.672032  0.968925  1
  Nd  Nd6  1  0.117575  0.326308  0.031086  1
  Pt  Pt7  1  0.000184  0.000229  0.000313  1
  Br  Br8  1  0.214060  0.683534  0.072071  1
  Br  Br9  1  0.452982  0.371060  0.156174  1
  Br  Br10  1  0.686482  0.073810  0.217043  1
  Br  Br11  1  0.926982  0.785241  0.317005  1
  Br  Br12  1  0.157663  0.454665  0.369827  1
  Br  Br13  1  0.371664  0.159289  0.457639  1
  Br  Br14  1  0.628385  0.840832  0.542403  1
  Br  Br15  1  0.842208  0.545572  0.627890  1
  Br  Br16  1  0.073698  0.216644  0.685467  1
  Br  Br17  1  0.313525  0.926261  0.783029  1
  Br  Br18  1  0.544651  0.628873  0.842570  1
  Br  Br19  1  0.787788  0.314991  0.928308  1
