# generated using pymatgen
data_CaZnPd3O8
_symmetry_space_group_name_H-M   'P 1'
_cell_length_a   6.18911364
_cell_length_b   10.72066527
_cell_length_c   6.59515339
_cell_angle_alpha   105.71554235
_cell_angle_beta   62.01274183
_cell_angle_gamma   89.99837178
_symmetry_Int_Tables_number   1
_chemical_formula_structural   CaZnPd3O8
_chemical_formula_sum   'Ca2 Zn2 Pd6 O16'
_cell_volume   367.79241297
_cell_formula_units_Z   2
loop_
 _symmetry_equiv_pos_site_id
 _symmetry_equiv_pos_as_xyz
  1  'x, y, z'
loop_
 _atom_site_type_symbol
 _atom_site_label
 _atom_site_symmetry_multiplicity
 _atom_site_fract_x
 _atom_site_fract_y
 _atom_site_fract_z
 _atom_site_occupancy
  Ca  Ca0  1  0.750017  0.749994  0.499968  1
  Ca  Ca1  1  0.250015  0.249996  0.499970  1
  Zn  Zn2  1  0.500008  0.499996  0.999983  1
  Zn  Zn3  1  0.000009  0.999997  0.999984  1
  Pd  Pd4  1  0.750000  0.749999  0.000008  1
  Pd  Pd5  1  0.749992  0.250000  0.000005  1
  Pd  Pd6  1  0.999997  0.500004  0.000007  1
  Pd  Pd7  1  0.250001  0.250001  0.000005  1
  Pd  Pd8  1  0.249993  0.749999  0.000005  1
  Pd  Pd9  1  0.499997  0.000004  0.000007  1
  O  O10  1  0.089821  0.636720  0.820351  1
  O  O11  1  0.589822  0.136721  0.820352  1
  O  O12  1  0.410119  0.863300  0.179772  1
  O  O13  1  0.910117  0.363300  0.179776  1
  O  O14  1  0.358085  0.880646  0.808440  1
  O  O15  1  0.858081  0.380646  0.808444  1
  O  O16  1  0.904216  0.857056  0.191550  1
  O  O17  1  0.404213  0.357058  0.191554  1
  O  O18  1  0.141941  0.619347  0.191528  1
  O  O19  1  0.641938  0.119346  0.191529  1
  O  O20  1  0.666509  0.619348  0.191528  1
  O  O21  1  0.166512  0.119348  0.191527  1
  O  O22  1  0.833497  0.880644  0.808442  1
  O  O23  1  0.333497  0.380644  0.808443  1
  O  O24  1  0.595804  0.642942  0.808415  1
  O  O25  1  0.095801  0.142943  0.808419  1
