# generated using pymatgen
data_Ac8HoTmIn6
_symmetry_space_group_name_H-M   'P 1'
_cell_length_a   6.59765563
_cell_length_b   9.84536827
_cell_length_c   9.84536875
_cell_angle_alpha   83.57727240
_cell_angle_beta   70.46133966
_cell_angle_gamma   70.46133971
_symmetry_Int_Tables_number   1
_chemical_formula_structural   Ac8HoTmIn6
_chemical_formula_sum   'Ac8 Ho1 Tm1 In6'
_cell_volume   567.98770504
_cell_formula_units_Z   1
loop_
 _symmetry_equiv_pos_site_id
 _symmetry_equiv_pos_as_xyz
  1  'x, y, z'
loop_
 _atom_site_type_symbol
 _atom_site_label
 _atom_site_symmetry_multiplicity
 _atom_site_fract_x
 _atom_site_fract_y
 _atom_site_fract_z
 _atom_site_occupancy
  Ac  Ac0  1  0.719943  0.865535  0.692169  1
  Ac  Ac1  1  0.279624  0.134401  0.307801  1
  Ac  Ac2  1  0.780057  0.307831  0.134465  1
  Ac  Ac3  1  0.220376  0.692199  0.865599  1
  Ac  Ac4  1  0.586002  0.693463  0.134333  1
  Ac  Ac5  1  0.414665  0.306523  0.865619  1
  Ac  Ac6  1  0.085335  0.134381  0.693477  1
  Ac  Ac7  1  0.913998  0.865667  0.306537  1
  Ho  Ho8  1  0.250000  0.499259  0.500741  1
  Tm  Tm9  1  0.750000  0.500678  0.499322  1
  In  In10  1  0.152691  0.500175  0.194455  1
  In  In11  1  0.846755  0.499834  0.805514  1
  In  In12  1  0.347309  0.805545  0.499825  1
  In  In13  1  0.653245  0.194486  0.500166  1
  In  In14  1  0.250000  0.999717  0.000283  1
  In  In15  1  0.750000  0.000303  0.999697  1
