# generated using pymatgen
data_PrYU(InPt)3
_symmetry_space_group_name_H-M   'P 1'
_cell_length_a   7.62834945
_cell_length_b   7.68264620
_cell_length_c   4.01913100
_cell_angle_alpha   90.00000000
_cell_angle_beta   90.00000000
_cell_angle_gamma   119.98989477
_symmetry_Int_Tables_number   1
_chemical_formula_structural   PrYU(InPt)3
_chemical_formula_sum   'Pr1 Y1 U1 In3 Pt3'
_cell_volume   204.00857442
_cell_formula_units_Z   1
loop_
 _symmetry_equiv_pos_site_id
 _symmetry_equiv_pos_as_xyz
  1  'x, y, z'
loop_
 _atom_site_type_symbol
 _atom_site_label
 _atom_site_symmetry_multiplicity
 _atom_site_fract_x
 _atom_site_fract_y
 _atom_site_fract_z
 _atom_site_occupancy
  Pr  Pr0  1  0.407582  0.996801  0.500000  1
  Y  Y1  1  0.593918  0.591329  0.500000  1
  U  U2  1  0.999767  0.411998  0.500000  1
  In  In3  1  0.737014  0.988860  0.000000  1
  In  In4  1  0.265506  0.256996  0.000000  1
  In  In5  1  0.996485  0.753003  0.000000  1
  Pt  Pt6  1  0.997716  0.016232  0.500000  1
  Pt  Pt7  1  0.692381  0.341021  0.000000  1
  Pt  Pt8  1  0.309632  0.643761  0.000000  1
