# generated using pymatgen
data_Ca2LaCdHg2Pd3
_symmetry_space_group_name_H-M   'P 1'
_cell_length_a   7.71507463
_cell_length_b   7.77469608
_cell_length_c   4.08049800
_cell_angle_alpha   90.00000000
_cell_angle_beta   90.00000000
_cell_angle_gamma   120.43881550
_symmetry_Int_Tables_number   1
_chemical_formula_structural   Ca2LaCdHg2Pd3
_chemical_formula_sum   'Ca2 La1 Cd1 Hg2 Pd3'
_cell_volume   211.02308047
_cell_formula_units_Z   1
loop_
 _symmetry_equiv_pos_site_id
 _symmetry_equiv_pos_as_xyz
  1  'x, y, z'
loop_
 _atom_site_type_symbol
 _atom_site_label
 _atom_site_symmetry_multiplicity
 _atom_site_fract_x
 _atom_site_fract_y
 _atom_site_fract_z
 _atom_site_occupancy
  Ca  Ca0  1  0.394552  0.395259  0.500000  1
  Ca  Ca1  1  0.599636  0.003302  0.500000  1
  La  La2  1  0.003034  0.598488  0.500000  1
  Cd  Cd3  1  0.730347  0.743302  0.000000  1
  Hg  Hg4  1  0.273803  0.011473  0.000000  1
  Hg  Hg5  1  0.997335  0.246782  0.000000  1
  Pd  Pd6  1  0.681655  0.351687  0.000000  1
  Pd  Pd7  1  0.325166  0.664008  0.000000  1
  Pd  Pd8  1  0.994472  0.985700  0.500000  1
