# generated using pymatgen
data_Pr13Nd3MgHg3Ru4
_symmetry_space_group_name_H-M   'P 1'
_cell_length_a   9.97451516
_cell_length_b   9.97876009
_cell_length_c   9.97643554
_cell_angle_alpha   60.05163403
_cell_angle_beta   60.06159837
_cell_angle_gamma   60.09753237
_symmetry_Int_Tables_number   1
_chemical_formula_structural   Pr13Nd3MgHg3Ru4
_chemical_formula_sum   'Pr13 Nd3 Mg1 Hg3 Ru4'
_cell_volume   703.26586149
_cell_formula_units_Z   1
loop_
 _symmetry_equiv_pos_site_id
 _symmetry_equiv_pos_as_xyz
  1  'x, y, z'
loop_
 _atom_site_type_symbol
 _atom_site_label
 _atom_site_symmetry_multiplicity
 _atom_site_fract_x
 _atom_site_fract_y
 _atom_site_fract_z
 _atom_site_occupancy
  Pr  Pr0  1  0.557767  0.557163  0.942055  1
  Pr  Pr1  1  0.187381  0.813082  0.187657  1
  Pr  Pr2  1  0.810253  0.809597  0.188203  1
  Pr  Pr3  1  0.187610  0.188361  0.812633  1
  Pr  Pr4  1  0.404521  0.786190  0.404946  1
  Pr  Pr5  1  0.809958  0.188849  0.809415  1
  Pr  Pr6  1  0.938072  0.937799  0.559251  1
  Pr  Pr7  1  0.813048  0.187694  0.187514  1
  Pr  Pr8  1  0.938306  0.558965  0.937955  1
  Pr  Pr9  1  0.786613  0.404500  0.404897  1
  Pr  Pr10  1  0.558969  0.938509  0.938285  1
  Pr  Pr11  1  0.188416  0.809830  0.809933  1
  Pr  Pr12  1  0.557947  0.942070  0.557179  1
  Nd  Nd13  1  0.402338  0.402794  0.403012  1
  Nd  Nd14  1  0.942142  0.557590  0.557535  1
  Nd  Nd15  1  0.405073  0.405124  0.785372  1
  Mg  Mg16  1  0.181626  0.181511  0.180811  1
  Hg  Hg17  1  0.165373  0.500624  0.165298  1
  Hg  Hg18  1  0.165081  0.165758  0.500605  1
  Hg  Hg19  1  0.500621  0.165529  0.164786  1
  Ru  Ru20  1  0.164072  0.610665  0.612667  1
  Ru  Ru21  1  0.611815  0.612091  0.163965  1
  Ru  Ru22  1  0.612042  0.611308  0.612981  1
  Ru  Ru23  1  0.610955  0.164394  0.613044  1
