# generated using pymatgen
data_La16Cd4CoPd3
_symmetry_space_group_name_H-M   'P 1'
_cell_length_a   10.17982066
_cell_length_b   10.18012143
_cell_length_c   10.17688519
_cell_angle_alpha   59.93423747
_cell_angle_beta   59.91741843
_cell_angle_gamma   59.89090043
_symmetry_Int_Tables_number   1
_chemical_formula_structural   La16Cd4CoPd3
_chemical_formula_sum   'La16 Cd4 Co1 Pd3'
_cell_volume   744.29753468
_cell_formula_units_Z   1
loop_
 _symmetry_equiv_pos_site_id
 _symmetry_equiv_pos_as_xyz
  1  'x, y, z'
loop_
 _atom_site_type_symbol
 _atom_site_label
 _atom_site_symmetry_multiplicity
 _atom_site_fract_x
 _atom_site_fract_y
 _atom_site_fract_z
 _atom_site_occupancy
  La  La0  1  0.936941  0.937023  0.561497  1
  La  La1  1  0.563867  0.938591  0.563765  1
  La  La2  1  0.561514  0.937021  0.936981  1
  La  La3  1  0.693969  0.693935  0.306412  1
  La  La4  1  0.157088  0.157180  0.545212  1
  La  La5  1  0.306365  0.694066  0.694001  1
  La  La6  1  0.149230  0.149302  0.149315  1
  La  La7  1  0.545099  0.157158  0.157220  1
  La  La8  1  0.310310  0.677087  0.310191  1
  La  La9  1  0.310183  0.310225  0.677090  1
  La  La10  1  0.694100  0.306341  0.693968  1
  La  La11  1  0.938680  0.563878  0.563722  1
  La  La12  1  0.563816  0.563739  0.938812  1
  La  La13  1  0.157183  0.545168  0.157163  1
  La  La14  1  0.677053  0.310299  0.310230  1
  La  La15  1  0.937062  0.561484  0.936931  1
  Cd  Cd16  1  0.238596  0.920047  0.920021  1
  Cd  Cd17  1  0.921001  0.921010  0.920966  1
  Cd  Cd18  1  0.920020  0.920012  0.238610  1
  Cd  Cd19  1  0.920055  0.238585  0.920022  1
  Co  Co20  1  0.357358  0.357299  0.357414  1
  Pd  Pd21  1  0.927026  0.356775  0.356710  1
  Pd  Pd22  1  0.356752  0.356736  0.927005  1
  Pd  Pd23  1  0.356731  0.927039  0.356739  1
