# generated using pymatgen
data_Yb3Ce(Ga2Ag)4
_symmetry_space_group_name_H-M   'P 1'
_cell_length_a   4.37170600
_cell_length_b   6.97671101
_cell_length_c   10.39477301
_cell_angle_alpha   90.00432586
_cell_angle_beta   90.00000000
_cell_angle_gamma   90.00000000
_symmetry_Int_Tables_number   1
_chemical_formula_structural   Yb3Ce(Ga2Ag)4
_chemical_formula_sum   'Yb3 Ce1 Ga8 Ag4'
_cell_volume   317.04192050
_cell_formula_units_Z   1
loop_
 _symmetry_equiv_pos_site_id
 _symmetry_equiv_pos_as_xyz
  1  'x, y, z'
loop_
 _atom_site_type_symbol
 _atom_site_label
 _atom_site_symmetry_multiplicity
 _atom_site_fract_x
 _atom_site_fract_y
 _atom_site_fract_z
 _atom_site_occupancy
  Yb  Yb0  1  0.750000  0.223535  0.172287  1
  Yb  Yb1  1  0.750000  0.724312  0.327790  1
  Yb  Yb2  1  0.250000  0.275902  0.668470  1
  Ce  Ce3  1  0.250000  0.784475  0.830069  1
  Ga  Ga4  1  0.250000  0.696575  0.535040  1
  Ga  Ga5  1  0.750000  0.302269  0.464751  1
  Ga  Ga6  1  0.750000  0.795927  0.036539  1
  Ga  Ga7  1  0.250000  0.204918  0.962959  1
  Ga  Ga8  1  0.250000  0.923972  0.149483  1
  Ga  Ga9  1  0.750000  0.077937  0.848410  1
  Ga  Ga10  1  0.750000  0.573899  0.653364  1
  Ga  Ga11  1  0.250000  0.425005  0.348598  1
  Ag  Ag12  1  0.250000  0.535999  0.102373  1
  Ag  Ag13  1  0.750000  0.456225  0.902627  1
  Ag  Ag14  1  0.750000  0.960576  0.597355  1
  Ag  Ag15  1  0.250000  0.038474  0.399887  1
