# generated using pymatgen
data_Cs6NbSbS8
_symmetry_space_group_name_H-M   'P 1'
_cell_length_a   10.11631352
_cell_length_b   10.36502043
_cell_length_c   11.82603400
_cell_angle_alpha   90.00000000
_cell_angle_beta   90.00000000
_cell_angle_gamma   90.10155749
_symmetry_Int_Tables_number   1
_chemical_formula_structural   Cs6NbSbS8
_chemical_formula_sum   'Cs12 Nb2 Sb2 S16'
_cell_volume   1240.02626441
_cell_formula_units_Z   2
loop_
 _symmetry_equiv_pos_site_id
 _symmetry_equiv_pos_as_xyz
  1  'x, y, z'
loop_
 _atom_site_type_symbol
 _atom_site_label
 _atom_site_symmetry_multiplicity
 _atom_site_fract_x
 _atom_site_fract_y
 _atom_site_fract_z
 _atom_site_occupancy
  Cs  Cs0  1  0.637946  0.929114  0.250000  1
  Cs  Cs1  1  0.146693  0.576892  0.250000  1
  Cs  Cs2  1  0.853307  0.423108  0.750000  1
  Cs  Cs3  1  0.362054  0.070886  0.750000  1
  Cs  Cs4  1  0.054604  0.796024  0.958361  1
  Cs  Cs5  1  0.557707  0.708053  0.543402  1
  Cs  Cs6  1  0.442293  0.291947  0.043402  1
  Cs  Cs7  1  0.945396  0.203976  0.458361  1
  Cs  Cs8  1  0.945396  0.203976  0.041639  1
  Cs  Cs9  1  0.442293  0.291947  0.456598  1
  Cs  Cs10  1  0.557707  0.708053  0.956598  1
  Cs  Cs11  1  0.054604  0.796024  0.541639  1
  Nb  Nb12  1  0.779841  0.981945  0.750000  1
  Nb  Nb13  1  0.220159  0.018055  0.250000  1
  Sb  Sb14  1  0.727754  0.482582  0.250000  1
  Sb  Sb15  1  0.272246  0.517418  0.750000  1
  S  S16  1  0.333410  0.958972  0.090042  1
  S  S17  1  0.845254  0.537224  0.415881  1
  S  S18  1  0.154746  0.462776  0.915881  1
  S  S19  1  0.666590  0.041028  0.590042  1
  S  S20  1  0.013558  0.924527  0.250000  1
  S  S21  1  0.518239  0.584908  0.250000  1
  S  S22  1  0.481761  0.415092  0.750000  1
  S  S23  1  0.986442  0.075473  0.750000  1
  S  S24  1  0.666590  0.041028  0.909958  1
  S  S25  1  0.333410  0.958972  0.409958  1
  S  S26  1  0.845254  0.537224  0.084119  1
  S  S27  1  0.154746  0.462776  0.584119  1
  S  S28  1  0.802262  0.760820  0.750000  1
  S  S29  1  0.305211  0.744185  0.750000  1
  S  S30  1  0.694789  0.255815  0.250000  1
  S  S31  1  0.197738  0.239180  0.250000  1
