# generated using pymatgen
data_Ca9Yb(Sb3Br)2
_symmetry_space_group_name_H-M   'P 1'
_cell_length_a   9.20080402
_cell_length_b   9.19024916
_cell_length_c   7.14365000
_cell_angle_alpha   90.00000000
_cell_angle_beta   90.00000000
_cell_angle_gamma   119.96206033
_symmetry_Int_Tables_number   1
_chemical_formula_structural   Ca9Yb(Sb3Br)2
_chemical_formula_sum   'Ca9 Yb1 Sb6 Br2'
_cell_volume   523.32293958
_cell_formula_units_Z   1
loop_
 _symmetry_equiv_pos_site_id
 _symmetry_equiv_pos_as_xyz
  1  'x, y, z'
loop_
 _atom_site_type_symbol
 _atom_site_label
 _atom_site_symmetry_multiplicity
 _atom_site_fract_x
 _atom_site_fract_y
 _atom_site_fract_z
 _atom_site_occupancy
  Ca  Ca0  1  0.263628  0.000029  0.250000  1
  Ca  Ca1  1  0.000000  0.736413  0.750000  1
  Ca  Ca2  1  0.736372  0.736401  0.250000  1
  Ca  Ca3  1  0.263609  0.263683  0.750000  1
  Ca  Ca4  1  0.736391  0.000074  0.750000  1
  Ca  Ca5  1  0.666780  0.333352  0.499894  1
  Ca  Ca6  1  0.333220  0.666573  0.000106  1
  Ca  Ca7  1  0.333220  0.666573  0.499894  1
  Ca  Ca8  1  0.666780  0.333352  0.000106  1
  Yb  Yb9  1  0.000000  0.262418  0.250000  1
  Sb  Sb10  1  0.608312  0.608319  0.750000  1
  Sb  Sb11  1  0.000000  0.607984  0.250000  1
  Sb  Sb12  1  0.608486  0.000126  0.250000  1
  Sb  Sb13  1  0.391688  0.000007  0.750000  1
  Sb  Sb14  1  0.000000  0.391539  0.750000  1
  Sb  Sb15  1  0.391514  0.391640  0.250000  1
  Br  Br16  1  0.000000  0.000759  0.499375  1
  Br  Br17  1  0.000000  0.000759  0.000625  1
