# generated using pymatgen
data_Sc6AgSn6Ir5
_symmetry_space_group_name_H-M   'P 1'
_cell_length_a   7.53842200
_cell_length_b   7.53842204
_cell_length_c   7.19075100
_cell_angle_alpha   90.00000000
_cell_angle_beta   90.00000000
_cell_angle_gamma   119.99999983
_symmetry_Int_Tables_number   1
_chemical_formula_structural   Sc6AgSn6Ir5
_chemical_formula_sum   'Sc6 Ag1 Sn6 Ir5'
_cell_volume   353.88795083
_cell_formula_units_Z   1
loop_
 _symmetry_equiv_pos_site_id
 _symmetry_equiv_pos_as_xyz
  1  'x, y, z'
loop_
 _atom_site_type_symbol
 _atom_site_label
 _atom_site_symmetry_multiplicity
 _atom_site_fract_x
 _atom_site_fract_y
 _atom_site_fract_z
 _atom_site_occupancy
  Sc  Sc0  1  0.390264  0.992328  0.242452  1
  Sc  Sc1  1  0.602063  0.609736  0.242452  1
  Sc  Sc2  1  0.007672  0.397937  0.242452  1
  Sc  Sc3  1  0.383548  0.977550  0.758278  1
  Sc  Sc4  1  0.594003  0.616452  0.758278  1
  Sc  Sc5  1  0.022450  0.405997  0.758278  1
  Ag  Ag6  1  0.666667  0.333333  0.518193  1
  Sn  Sn7  1  0.283252  0.276881  0.999477  1
  Sn  Sn8  1  0.993629  0.716748  0.999477  1
  Sn  Sn9  1  0.003360  0.738603  0.498571  1
  Sn  Sn10  1  0.735242  0.996640  0.498571  1
  Sn  Sn11  1  0.261397  0.264758  0.498571  1
  Sn  Sn12  1  0.723119  0.006371  0.999477  1
  Ir  Ir13  1  0.000000  0.000000  0.765756  1
  Ir  Ir14  1  0.000000  0.000000  0.232490  1
  Ir  Ir15  1  0.666667  0.333333  0.987956  1
  Ir  Ir16  1  0.333333  0.666667  0.486749  1
  Ir  Ir17  1  0.333333  0.666667  0.012522  1
