# generated using pymatgen
data_InPPd3Pt2
_symmetry_space_group_name_H-M   'P 1'
_cell_length_a   3.99260600
_cell_length_b   3.99260600
_cell_length_c   7.05667400
_cell_angle_alpha   90.00000000
_cell_angle_beta   90.00000000
_cell_angle_gamma   90.00000000
_symmetry_Int_Tables_number   1
_chemical_formula_structural   InPPd3Pt2
_chemical_formula_sum   'In1 P1 Pd3 Pt2'
_cell_volume   112.48975342
_cell_formula_units_Z   1
loop_
 _symmetry_equiv_pos_site_id
 _symmetry_equiv_pos_as_xyz
  1  'x, y, z'
loop_
 _atom_site_type_symbol
 _atom_site_label
 _atom_site_symmetry_multiplicity
 _atom_site_fract_x
 _atom_site_fract_y
 _atom_site_fract_z
 _atom_site_occupancy
  In  In0  1  0.500000  0.500000  0.002134  1
  P  P1  1  0.000000  0.000000  0.502481  1
  Pd  Pd2  1  0.000000  0.000000  0.000115  1
  Pd  Pd3  1  0.500000  0.000000  0.297832  1
  Pd  Pd4  1  0.000000  0.500000  0.297832  1
  Pt  Pt5  1  0.500000  0.000000  0.699803  1
  Pt  Pt6  1  0.000000  0.500000  0.699803  1
