# generated using pymatgen
data_Ho3TmAl18ZnIr5
_symmetry_space_group_name_H-M   'P 1'
_cell_length_a   7.58510841
_cell_length_b   7.58585455
_cell_length_c   9.42562030
_cell_angle_alpha   89.97289655
_cell_angle_beta   89.97432085
_cell_angle_gamma   119.72775854
_symmetry_Int_Tables_number   1
_chemical_formula_structural   Ho3TmAl18ZnIr5
_chemical_formula_sum   'Ho3 Tm1 Al18 Zn1 Ir5'
_cell_volume   470.96817578
_cell_formula_units_Z   1
loop_
 _symmetry_equiv_pos_site_id
 _symmetry_equiv_pos_as_xyz
  1  'x, y, z'
loop_
 _atom_site_type_symbol
 _atom_site_label
 _atom_site_symmetry_multiplicity
 _atom_site_fract_x
 _atom_site_fract_y
 _atom_site_fract_z
 _atom_site_occupancy
  Ho  Ho0  1  0.992116  0.667333  0.250198  1
  Ho  Ho1  1  0.001466  0.328714  0.750049  1
  Ho  Ho2  1  0.671165  0.998565  0.249938  1
  Tm  Tm3  1  0.332376  0.007828  0.749475  1
  Al  Al4  1  0.127224  0.124940  0.251370  1
  Al  Al5  1  0.875253  0.872878  0.748685  1
  Al  Al6  1  0.011571  0.335593  0.078479  1
  Al  Al7  1  0.007821  0.674655  0.921570  1
  Al  Al8  1  0.001982  0.665346  0.572887  1
  Al  Al9  1  0.334846  0.998254  0.427828  1
  Al  Al10  1  0.999839  0.334494  0.426096  1
  Al  Al11  1  0.665135  0.000110  0.574379  1
  Al  Al12  1  0.664062  0.988692  0.921065  1
  Al  Al13  1  0.325850  0.992756  0.077590  1
  Al  Al14  1  0.331333  0.331262  0.550229  1
  Al  Al15  1  0.668488  0.668695  0.450325  1
  Al  Al16  1  0.665666  0.672050  0.060333  1
  Al  Al17  1  0.328134  0.334009  0.939090  1
  Al  Al18  1  0.340975  0.551418  0.251707  1
  Al  Al19  1  0.659999  0.456362  0.742907  1
  Al  Al20  1  0.543056  0.339463  0.257270  1
  Al  Al21  1  0.448538  0.659286  0.748331  1
  Zn  Zn22  1  0.674008  0.326062  0.000006  1
  Ir  Ir23  1  0.328481  0.671621  0.999834  1
  Ir  Ir24  1  0.328451  0.671639  0.500158  1
  Ir  Ir25  1  0.672224  0.327429  0.500175  1
  Ir  Ir26  1  0.999455  0.000770  0.999811  1
  Ir  Ir27  1  0.000483  0.999777  0.500213  1
