# generated using pymatgen
data_Er2Al3Zn2Cu5
_symmetry_space_group_name_H-M   'P 1'
_cell_length_a   4.14131600
_cell_length_b   5.20641882
_cell_length_c   8.86634064
_cell_angle_alpha   90.51747762
_cell_angle_beta   90.00000000
_cell_angle_gamma   90.00000000
_symmetry_Int_Tables_number   1
_chemical_formula_structural   Er2Al3Zn2Cu5
_chemical_formula_sum   'Er2 Al3 Zn2 Cu5'
_cell_volume   191.16314671
_cell_formula_units_Z   1
loop_
 _symmetry_equiv_pos_site_id
 _symmetry_equiv_pos_as_xyz
  1  'x, y, z'
loop_
 _atom_site_type_symbol
 _atom_site_label
 _atom_site_symmetry_multiplicity
 _atom_site_fract_x
 _atom_site_fract_y
 _atom_site_fract_z
 _atom_site_occupancy
  Er  Er0  1  0.000000  0.000779  0.001578  1
  Er  Er1  1  0.000000  0.499394  0.498953  1
  Al  Al2  1  0.500000  0.515752  0.001179  1
  Al  Al3  1  0.500000  0.984414  0.498567  1
  Al  Al4  1  0.500000  0.250246  0.250147  1
  Zn  Zn5  1  0.500000  0.749597  0.749392  1
  Zn  Zn6  1  0.500000  0.249746  0.749776  1
  Cu  Cu7  1  0.000000  0.996994  0.333323  1
  Cu  Cu8  1  0.000000  0.500010  0.836335  1
  Cu  Cu9  1  0.000000  0.502736  0.165369  1
  Cu  Cu10  1  0.000000  0.000676  0.665287  1
  Cu  Cu11  1  0.500000  0.749458  0.250094  1
