# generated using pymatgen
data_NdDy15(TmSn4)4
_symmetry_space_group_name_H-M   'P 1'
_cell_length_a   8.02297729
_cell_length_b   8.17097938
_cell_length_c   15.46298829
_cell_angle_alpha   89.98969043
_cell_angle_beta   89.77780387
_cell_angle_gamma   90.10377649
_symmetry_Int_Tables_number   1
_chemical_formula_structural   NdDy15(TmSn4)4
_chemical_formula_sum   'Nd1 Dy15 Tm4 Sn16'
_cell_volume   1013.67589488
_cell_formula_units_Z   1
loop_
 _symmetry_equiv_pos_site_id
 _symmetry_equiv_pos_as_xyz
  1  'x, y, z'
loop_
 _atom_site_type_symbol
 _atom_site_label
 _atom_site_symmetry_multiplicity
 _atom_site_fract_x
 _atom_site_fract_y
 _atom_site_fract_z
 _atom_site_occupancy
  Nd  Nd0  1  0.516948  0.319926  0.403923  1
  Dy  Dy1  1  0.019433  0.178809  0.402748  1
  Dy  Dy2  1  0.367054  0.837388  0.121434  1
  Dy  Dy3  1  0.134421  0.337156  0.622753  1
  Dy  Dy4  1  0.480102  0.679653  0.902621  1
  Dy  Dy5  1  0.867485  0.662593  0.121820  1
  Dy  Dy6  1  0.132713  0.337660  0.877875  1
  Dy  Dy7  1  0.481309  0.680697  0.597408  1
  Dy  Dy8  1  0.634530  0.162189  0.622579  1
  Dy  Dy9  1  0.865914  0.662870  0.377269  1
  Dy  Dy10  1  0.020008  0.179253  0.096603  1
  Dy  Dy11  1  0.980009  0.820424  0.902514  1
  Dy  Dy12  1  0.632873  0.162316  0.877938  1
  Dy  Dy13  1  0.520462  0.320161  0.097758  1
  Dy  Dy14  1  0.366232  0.837585  0.377707  1
  Dy  Dy15  1  0.980825  0.820058  0.597419  1
  Tm  Tm16  1  0.197546  0.503479  0.249214  1
  Tm  Tm17  1  0.698008  0.996681  0.249353  1
  Tm  Tm18  1  0.302252  0.003066  0.750262  1
  Tm  Tm19  1  0.802435  0.497010  0.750324  1
  Sn  Sn20  1  0.796646  0.465440  0.543802  1
  Sn  Sn21  1  0.707807  0.961037  0.458311  1
  Sn  Sn22  1  0.671466  0.851178  0.749981  1
  Sn  Sn23  1  0.201925  0.540190  0.458835  1
  Sn  Sn24  1  0.292283  0.036308  0.957419  1
  Sn  Sn25  1  0.830273  0.351211  0.249424  1
  Sn  Sn26  1  0.792300  0.463983  0.957541  1
  Sn  Sn27  1  0.563503  0.620194  0.249479  1
  Sn  Sn28  1  0.208006  0.535448  0.042384  1
  Sn  Sn29  1  0.436840  0.381364  0.750140  1
  Sn  Sn30  1  0.171646  0.648664  0.749893  1
  Sn  Sn31  1  0.936741  0.118100  0.750159  1
  Sn  Sn32  1  0.293031  0.036092  0.542611  1
  Sn  Sn33  1  0.707645  0.963637  0.042218  1
  Sn  Sn34  1  0.326014  0.146885  0.248392  1
  Sn  Sn35  1  0.063312  0.881293  0.249889  1
