# generated using pymatgen
data_Dy4Al18Rh5Au
_symmetry_space_group_name_H-M   'P 1'
_cell_length_a   7.59439065
_cell_length_b   7.59439050
_cell_length_c   9.47828023
_cell_angle_alpha   89.98733771
_cell_angle_beta   89.98733305
_cell_angle_gamma   119.61345563
_symmetry_Int_Tables_number   1
_chemical_formula_structural   Dy4Al18Rh5Au
_chemical_formula_sum   'Dy4 Al18 Rh5 Au1'
_cell_volume   475.25255337
_cell_formula_units_Z   1
loop_
 _symmetry_equiv_pos_site_id
 _symmetry_equiv_pos_as_xyz
  1  'x, y, z'
loop_
 _atom_site_type_symbol
 _atom_site_label
 _atom_site_symmetry_multiplicity
 _atom_site_fract_x
 _atom_site_fract_y
 _atom_site_fract_z
 _atom_site_occupancy
  Dy  Dy0  1  0.992482  0.667224  0.750480  1
  Dy  Dy1  1  0.002076  0.328779  0.249929  1
  Dy  Dy2  1  0.671221  0.997924  0.750071  1
  Dy  Dy3  1  0.332776  0.007518  0.249520  1
  Al  Al4  1  0.126350  0.124278  0.751277  1
  Al  Al5  1  0.875722  0.873650  0.248723  1
  Al  Al6  1  0.011055  0.335120  0.578515  1
  Al  Al7  1  0.008258  0.674645  0.421957  1
  Al  Al8  1  0.002127  0.665834  0.073818  1
  Al  Al9  1  0.334166  0.997873  0.926182  1
  Al  Al10  1  0.000799  0.334420  0.925177  1
  Al  Al11  1  0.665580  0.999201  0.074823  1
  Al  Al12  1  0.664880  0.988945  0.421485  1
  Al  Al13  1  0.325355  0.991742  0.578043  1
  Al  Al14  1  0.331460  0.331984  0.050566  1
  Al  Al15  1  0.668016  0.668540  0.949434  1
  Al  Al16  1  0.665824  0.672988  0.557727  1
  Al  Al17  1  0.327012  0.334176  0.442273  1
  Al  Al18  1  0.340657  0.551502  0.751471  1
  Al  Al19  1  0.660581  0.458252  0.241592  1
  Al  Al20  1  0.541748  0.339419  0.758408  1
  Al  Al21  1  0.448498  0.659343  0.248529  1
  Rh  Rh22  1  0.328589  0.671411  0.500000  1
  Rh  Rh23  1  0.328365  0.671635  0.000000  1
  Rh  Rh24  1  0.672741  0.327259  0.000000  1
  Rh  Rh25  1  0.999859  0.000141  0.500000  1
  Rh  Rh26  1  0.000301  0.999699  0.000000  1
  Au  Au27  1  0.673502  0.326498  0.500000  1
