# generated using pymatgen
data_ErPa3(InRh2)2
_symmetry_space_group_name_H-M   'P 1'
_cell_length_a   7.70849814
_cell_length_b   7.70849802
_cell_length_c   3.61312000
_cell_angle_alpha   90.00000000
_cell_angle_beta   90.00000000
_cell_angle_gamma   92.12858801
_symmetry_Int_Tables_number   1
_chemical_formula_structural   ErPa3(InRh2)2
_chemical_formula_sum   'Er1 Pa3 In2 Rh4'
_cell_volume   214.54685384
_cell_formula_units_Z   1
loop_
 _symmetry_equiv_pos_site_id
 _symmetry_equiv_pos_as_xyz
  1  'x, y, z'
loop_
 _atom_site_type_symbol
 _atom_site_label
 _atom_site_symmetry_multiplicity
 _atom_site_fract_x
 _atom_site_fract_y
 _atom_site_fract_z
 _atom_site_occupancy
  Er  Er0  1  0.170567  0.329433  0.500000  1
  Pa  Pa1  1  0.668425  0.172336  0.500000  1
  Pa  Pa2  1  0.327664  0.831575  0.500000  1
  Pa  Pa3  1  0.831754  0.668246  0.500000  1
  In  In4  1  0.489659  0.498868  0.000000  1
  In  In5  1  0.001132  0.010341  0.000000  1
  Rh  Rh6  1  0.385859  0.114141  0.000000  1
  Rh  Rh7  1  0.128932  0.647988  0.000000  1
  Rh  Rh8  1  0.852012  0.371068  0.000000  1
  Rh  Rh9  1  0.643995  0.856005  0.000000  1
