# generated using pymatgen
data_Tb3Yb7PrIn9Pd4
_symmetry_space_group_name_H-M   'P 1'
_cell_length_a   13.31225897
_cell_length_b   13.31226112
_cell_length_c   3.75226300
_cell_angle_alpha   90.00000000
_cell_angle_beta   90.00000000
_cell_angle_gamma   112.24849698
_symmetry_Int_Tables_number   1
_chemical_formula_structural   Tb3Yb7PrIn9Pd4
_chemical_formula_sum   'Tb3 Yb7 Pr1 In9 Pd4'
_cell_volume   615.45590985
_cell_formula_units_Z   1
loop_
 _symmetry_equiv_pos_site_id
 _symmetry_equiv_pos_as_xyz
  1  'x, y, z'
loop_
 _atom_site_type_symbol
 _atom_site_label
 _atom_site_symmetry_multiplicity
 _atom_site_fract_x
 _atom_site_fract_y
 _atom_site_fract_z
 _atom_site_occupancy
  Tb  Tb0  1  0.623636  0.376361  0.000000  1
  Tb  Tb1  1  0.312990  0.313455  0.000000  1
  Tb  Tb2  1  0.686544  0.687011  0.000000  1
  Yb  Yb3  1  0.414555  0.071815  0.000000  1
  Yb  Yb4  1  0.584966  0.927207  0.000000  1
  Yb  Yb5  1  0.072792  0.415034  0.000000  1
  Yb  Yb6  1  0.928185  0.585447  0.000000  1
  Yb  Yb7  1  0.160036  0.839964  0.000000  1
  Yb  Yb8  1  0.839452  0.160546  0.000000  1
  Yb  Yb9  1  0.374740  0.625261  0.000000  1
  Pr  Pr10  1  0.000886  0.999113  0.000000  1
  In  In11  1  0.368988  0.837994  0.500000  1
  In  In12  1  0.630270  0.162025  0.500000  1
  In  In13  1  0.837976  0.369730  0.500000  1
  In  In14  1  0.162004  0.631011  0.500000  1
  In  In15  1  0.222101  0.080013  0.500000  1
  In  In16  1  0.778837  0.919850  0.500000  1
  In  In17  1  0.080149  0.221161  0.500000  1
  In  In18  1  0.919986  0.777897  0.500000  1
  In  In19  1  0.499900  0.500100  0.500000  1
  Pd  Pd20  1  0.448284  0.247005  0.500000  1
  Pd  Pd21  1  0.554145  0.754422  0.500000  1
  Pd  Pd22  1  0.245583  0.445857  0.500000  1
  Pd  Pd23  1  0.752998  0.551719  0.500000  1
