# generated using pymatgen
data_Tb3Ho(Co2O5)4
_symmetry_space_group_name_H-M   'P 1'
_cell_length_a   5.68115410
_cell_length_b   7.24864339
_cell_length_c   8.40368717
_cell_angle_alpha   89.85003089
_cell_angle_beta   90.07844318
_cell_angle_gamma   89.59521609
_symmetry_Int_Tables_number   1
_chemical_formula_structural   Tb3Ho(Co2O5)4
_chemical_formula_sum   'Tb3 Ho1 Co8 O20'
_cell_volume   346.05922990
_cell_formula_units_Z   1
loop_
 _symmetry_equiv_pos_site_id
 _symmetry_equiv_pos_as_xyz
  1  'x, y, z'
loop_
 _atom_site_type_symbol
 _atom_site_label
 _atom_site_symmetry_multiplicity
 _atom_site_fract_x
 _atom_site_fract_y
 _atom_site_fract_z
 _atom_site_occupancy
  Tb  Tb0  1  0.998415  0.637964  0.327365  1
  Tb  Tb1  1  0.001278  0.361851  0.672442  1
  Tb  Tb2  1  0.998464  0.138217  0.172350  1
  Ho  Ho3  1  0.001016  0.860687  0.827629  1
  Co  Co4  1  0.500039  0.911626  0.150109  1
  Co  Co5  1  0.499925  0.090407  0.849335  1
  Co  Co6  1  0.501317  0.408840  0.349037  1
  Co  Co7  1  0.499487  0.591367  0.651307  1
  Co  Co8  1  0.255868  0.498729  0.000283  1
  Co  Co9  1  0.743716  0.001534  0.501864  1
  Co  Co10  1  0.743331  0.502402  0.998599  1
  Co  Co11  1  0.255426  0.998058  0.500056  1
  O  O12  1  0.275842  0.499730  0.500070  1
  O  O13  1  0.725948  0.997995  0.998203  1
  O  O14  1  0.724329  0.500157  0.500395  1
  O  O15  1  0.275467  0.998860  0.999744  1
  O  O16  1  0.003326  0.663487  0.053203  1
  O  O17  1  0.996147  0.339962  0.946774  1
  O  O18  1  0.003303  0.161708  0.446554  1
  O  O19  1  0.995948  0.838053  0.554616  1
  O  O20  1  0.505544  0.649179  0.065435  1
  O  O21  1  0.496351  0.347614  0.931123  1
  O  O22  1  0.503498  0.151580  0.434178  1
  O  O23  1  0.496381  0.847841  0.567571  1
  O  O24  1  0.246568  0.897233  0.293726  1
  O  O25  1  0.242463  0.101178  0.708301  1
  O  O26  1  0.756587  0.395717  0.208042  1
  O  O27  1  0.755466  0.605546  0.792858  1
  O  O28  1  0.755497  0.102162  0.707240  1
  O  O29  1  0.753873  0.898113  0.292275  1
  O  O30  1  0.243216  0.605657  0.792817  1
  O  O31  1  0.245965  0.396547  0.206496  1
