# generated using pymatgen
data_CaTb6FeI12
_symmetry_space_group_name_H-M   'P 1'
_cell_length_a   9.79723753
_cell_length_b   9.79723713
_cell_length_c   9.79723690
_cell_angle_alpha   107.06898972
_cell_angle_beta   107.06899209
_cell_angle_gamma   107.06898192
_symmetry_Int_Tables_number   1
_chemical_formula_structural   CaTb6FeI12
_chemical_formula_sum   'Ca1 Tb6 Fe1 I12'
_cell_volume   781.69241598
_cell_formula_units_Z   1
loop_
 _symmetry_equiv_pos_site_id
 _symmetry_equiv_pos_as_xyz
  1  'x, y, z'
loop_
 _atom_site_type_symbol
 _atom_site_label
 _atom_site_symmetry_multiplicity
 _atom_site_fract_x
 _atom_site_fract_y
 _atom_site_fract_z
 _atom_site_occupancy
  Ca  Ca0  1  0.500000  0.500000  0.500000  1
  Tb  Tb1  1  0.093845  0.291428  0.023905  1
  Tb  Tb2  1  0.023905  0.093845  0.291428  1
  Tb  Tb3  1  0.291428  0.023905  0.093845  1
  Tb  Tb4  1  0.906155  0.708572  0.976095  1
  Tb  Tb5  1  0.976095  0.906155  0.708572  1
  Tb  Tb6  1  0.708572  0.976095  0.906155  1
  Fe  Fe7  1  0.000000  0.000000  0.000000  1
  I  I8  1  0.456427  0.378334  0.148775  1
  I  I9  1  0.148775  0.456427  0.378334  1
  I  I10  1  0.378334  0.148775  0.456427  1
  I  I11  1  0.543573  0.621666  0.851225  1
  I  I12  1  0.851225  0.543573  0.621666  1
  I  I13  1  0.621666  0.851225  0.543573  1
  I  I14  1  0.775303  0.317245  0.927412  1
  I  I15  1  0.927412  0.775303  0.317245  1
  I  I16  1  0.317245  0.927412  0.775303  1
  I  I17  1  0.224697  0.682755  0.072588  1
  I  I18  1  0.072588  0.224697  0.682755  1
  I  I19  1  0.682755  0.072588  0.224697  1
