# generated using pymatgen
data_TiB4Ru4W3
_symmetry_space_group_name_H-M   'P 1'
_cell_length_a   3.02961200
_cell_length_b   8.91640567
_cell_length_c   15.69932893
_cell_angle_alpha   89.57393462
_cell_angle_beta   90.00000000
_cell_angle_gamma   90.00000000
_symmetry_Int_Tables_number   1
_chemical_formula_structural   TiB4Ru4W3
_chemical_formula_sum   'Ti3 B12 Ru12 W9'
_cell_volume   424.07816538
_cell_formula_units_Z   3
loop_
 _symmetry_equiv_pos_site_id
 _symmetry_equiv_pos_as_xyz
  1  'x, y, z'
loop_
 _atom_site_type_symbol
 _atom_site_label
 _atom_site_symmetry_multiplicity
 _atom_site_fract_x
 _atom_site_fract_y
 _atom_site_fract_z
 _atom_site_occupancy
  Ti  Ti0  1  0.000000  0.307983  0.797466  1
  Ti  Ti1  1  0.000000  0.196599  0.300461  1
  Ti  Ti2  1  0.000000  0.808157  0.701899  1
  B  B3  1  0.500000  0.606933  0.495902  1
  B  B4  1  0.500000  0.395733  0.503717  1
  B  B5  1  0.500000  0.101562  0.004531  1
  B  B6  1  0.500000  0.891793  0.997070  1
  B  B7  1  0.000000  0.602783  0.829743  1
  B  B8  1  0.000000  0.394353  0.168819  1
  B  B9  1  0.000000  0.103580  0.670284  1
  B  B10  1  0.000000  0.900398  0.333286  1
  B  B11  1  0.500000  0.713711  0.597853  1
  B  B12  1  0.500000  0.288252  0.404125  1
  B  B13  1  0.500000  0.210651  0.901701  1
  B  B14  1  0.500000  0.779917  0.095928  1
  Ru  Ru15  1  0.500000  0.723386  0.348932  1
  Ru  Ru16  1  0.500000  0.278020  0.648463  1
  Ru  Ru17  1  0.500000  0.220135  0.148788  1
  Ru  Ru18  1  0.500000  0.776971  0.850967  1
  Ru  Ru19  1  0.500000  0.513073  0.088465  1
  Ru  Ru20  1  0.500000  0.477976  0.907165  1
  Ru  Ru21  1  0.500000  0.020782  0.411225  1
  Ru  Ru22  1  0.500000  0.980966  0.593122  1
  Ru  Ru23  1  0.500000  0.556571  0.732055  1
  Ru  Ru24  1  0.500000  0.452170  0.264771  1
  Ru  Ru25  1  0.500000  0.056962  0.768546  1
  Ru  Ru26  1  0.500000  0.953181  0.236365  1
  W  W27  1  0.000000  0.794170  0.494249  1
  W  W28  1  0.000000  0.208556  0.507481  1
  W  W29  1  0.000000  0.287808  0.005501  1
  W  W30  1  0.000000  0.704573  0.991652  1
  W  W31  1  0.000000  0.514873  0.590623  1
  W  W32  1  0.000000  0.486863  0.408902  1
  W  W33  1  0.000000  0.011002  0.910037  1
  W  W34  1  0.000000  0.980170  0.093261  1
  W  W35  1  0.000000  0.699387  0.196649  1
