# generated using pymatgen
data_Dy5Si10P2Ir14Rh5
_symmetry_space_group_name_H-M   'P 1'
_cell_length_a   12.83928845
_cell_length_b   12.81113486
_cell_length_c   3.96048100
_cell_angle_alpha   90.00000000
_cell_angle_beta   90.00000000
_cell_angle_gamma   119.90774272
_symmetry_Int_Tables_number   1
_chemical_formula_structural   Dy5Si10P2Ir14Rh5
_chemical_formula_sum   'Dy5 Si10 P2 Ir14 Rh5'
_cell_volume   564.69002292
_cell_formula_units_Z   1
loop_
 _symmetry_equiv_pos_site_id
 _symmetry_equiv_pos_as_xyz
  1  'x, y, z'
loop_
 _atom_site_type_symbol
 _atom_site_label
 _atom_site_symmetry_multiplicity
 _atom_site_fract_x
 _atom_site_fract_y
 _atom_site_fract_z
 _atom_site_occupancy
  Dy  Dy0  1  0.333444  0.666592  0.500000  1
  Dy  Dy1  1  0.666630  0.333252  0.500000  1
  Dy  Dy2  1  0.000078  0.813514  0.000000  1
  Dy  Dy3  1  0.185106  0.186284  0.000000  1
  Dy  Dy4  1  0.815350  0.001128  0.000000  1
  Si  Si5  1  0.000151  0.630458  0.500000  1
  Si  Si6  1  0.369303  0.369601  0.500000  1
  Si  Si7  1  0.630060  0.000201  0.500000  1
  Si  Si8  1  0.519895  0.686706  0.000000  1
  Si  Si9  1  0.313866  0.832884  0.000000  1
  Si  Si10  1  0.168096  0.480994  0.000000  1
  Si  Si11  1  0.480256  0.166951  0.000000  1
  Si  Si12  1  0.686332  0.518902  0.000000  1
  Si  Si13  1  0.831740  0.312339  0.000000  1
  Si  Si14  1  0.000068  0.179337  0.500000  1
  P  P15  1  0.819121  0.819161  0.500000  1
  P  P16  1  0.181107  0.000740  0.500000  1
  Ir  Ir17  1  0.514249  0.872918  0.000000  1
  Ir  Ir18  1  0.126813  0.641137  0.000000  1
  Ir  Ir19  1  0.360982  0.487219  0.000000  1
  Ir  Ir20  1  0.486837  0.359414  0.000000  1
  Ir  Ir21  1  0.872973  0.513250  0.000000  1
  Ir  Ir22  1  0.638736  0.126124  0.000000  1
  Ir  Ir23  1  0.000105  0.281044  0.000000  1
  Ir  Ir24  1  0.721633  0.722102  0.000000  1
  Ir  Ir25  1  0.277741  0.999530  0.000000  1
  Ir  Ir26  1  0.182177  0.375792  0.500000  1
  Ir  Ir27  1  0.372804  0.180194  0.500000  1
  Ir  Ir28  1  0.807302  0.627255  0.500000  1
  Ir  Ir29  1  0.817742  0.193088  0.500000  1
  Ir  Ir30  1  0.999854  0.995587  0.500000  1
  Rh  Rh31  1  0.999560  0.446324  0.500000  1
  Rh  Rh32  1  0.554480  0.553455  0.500000  1
  Rh  Rh33  1  0.445315  0.999095  0.500000  1
  Rh  Rh34  1  0.627212  0.807533  0.500000  1
  Rh  Rh35  1  0.192882  0.819897  0.500000  1
