# generated using pymatgen
data_Dy16Co3Hg4Os
_symmetry_space_group_name_H-M   'P 1'
_cell_length_a   9.46226028
_cell_length_b   9.46226039
_cell_length_c   9.53446344
_cell_angle_alpha   60.25018907
_cell_angle_beta   60.25019218
_cell_angle_gamma   60.00000061
_symmetry_Int_Tables_number   1
_chemical_formula_structural   Dy16Co3Hg4Os
_chemical_formula_sum   'Dy16 Co3 Hg4 Os1'
_cell_volume   605.90296624
_cell_formula_units_Z   1
loop_
 _symmetry_equiv_pos_site_id
 _symmetry_equiv_pos_as_xyz
  1  'x, y, z'
loop_
 _atom_site_type_symbol
 _atom_site_label
 _atom_site_symmetry_multiplicity
 _atom_site_fract_x
 _atom_site_fract_y
 _atom_site_fract_z
 _atom_site_occupancy
  Dy  Dy0  1  0.149217  0.544126  0.157439  1
  Dy  Dy1  1  0.692406  0.311667  0.684260  1
  Dy  Dy2  1  0.688445  0.312582  0.310528  1
  Dy  Dy3  1  0.937088  0.562898  0.562925  1
  Dy  Dy4  1  0.544126  0.149217  0.157439  1
  Dy  Dy5  1  0.152766  0.152766  0.541699  1
  Dy  Dy6  1  0.937088  0.937088  0.562925  1
  Dy  Dy7  1  0.312582  0.688445  0.310528  1
  Dy  Dy8  1  0.560597  0.942640  0.936167  1
  Dy  Dy9  1  0.562898  0.937088  0.562925  1
  Dy  Dy10  1  0.688445  0.688445  0.310528  1
  Dy  Dy11  1  0.560597  0.560597  0.936167  1
  Dy  Dy12  1  0.942640  0.560597  0.936167  1
  Dy  Dy13  1  0.311667  0.692406  0.684260  1
  Dy  Dy14  1  0.149217  0.149217  0.157439  1
  Dy  Dy15  1  0.311667  0.311667  0.684260  1
  Co  Co16  1  0.358745  0.921799  0.360711  1
  Co  Co17  1  0.921799  0.358745  0.360711  1
  Co  Co18  1  0.358745  0.358745  0.360711  1
  Hg  Hg19  1  0.916911  0.250342  0.915838  1
  Hg  Hg20  1  0.916911  0.916911  0.915838  1
  Hg  Hg21  1  0.916444  0.916444  0.250669  1
  Hg  Hg22  1  0.250342  0.916911  0.915838  1
  Os  Os23  1  0.358657  0.358657  0.924031  1
