# generated using pymatgen
data_Sc8Ti7Nb5Si15As
_symmetry_space_group_name_H-M   'P 1'
_cell_length_a   6.72084156
_cell_length_b   6.85663826
_cell_length_c   13.07350886
_cell_angle_alpha   90.00224813
_cell_angle_beta   90.19855628
_cell_angle_gamma   90.06423052
_symmetry_Int_Tables_number   1
_chemical_formula_structural   Sc8Ti7Nb5Si15As
_chemical_formula_sum   'Sc8 Ti7 Nb5 Si15 As1'
_cell_volume   602.45439858
_cell_formula_units_Z   1
loop_
 _symmetry_equiv_pos_site_id
 _symmetry_equiv_pos_as_xyz
  1  'x, y, z'
loop_
 _atom_site_type_symbol
 _atom_site_label
 _atom_site_symmetry_multiplicity
 _atom_site_fract_x
 _atom_site_fract_y
 _atom_site_fract_z
 _atom_site_occupancy
  Sc  Sc0  1  0.499224  0.673546  0.596449  1
  Sc  Sc1  1  0.001622  0.825187  0.903375  1
  Sc  Sc2  1  0.498153  0.324921  0.096484  1
  Sc  Sc3  1  0.002855  0.177142  0.402780  1
  Sc  Sc4  1  0.497651  0.325702  0.403228  1
  Sc  Sc5  1  0.997766  0.174711  0.096771  1
  Sc  Sc6  1  0.502318  0.674394  0.903753  1
  Sc  Sc7  1  0.001613  0.822836  0.597646  1
  Ti  Ti8  1  0.660626  0.176508  0.626373  1
  Ti  Ti9  1  0.165035  0.325154  0.875162  1
  Ti  Ti10  1  0.337448  0.824540  0.126053  1
  Ti  Ti11  1  0.837768  0.673422  0.373218  1
  Ti  Ti12  1  0.339861  0.826053  0.374081  1
  Ti  Ti13  1  0.836516  0.675667  0.125578  1
  Ti  Ti14  1  0.662435  0.174991  0.874096  1
  Nb  Nb15  1  0.161889  0.325184  0.625440  1
  Nb  Nb16  1  0.835435  0.493259  0.749845  1
  Nb  Nb17  1  0.335648  0.006525  0.749758  1
  Nb  Nb18  1  0.164733  0.506361  0.249101  1
  Nb  Nb19  1  0.664550  0.992602  0.248949  1
  Si  Si20  1  0.164759  0.534532  0.039193  1
  Si  Si21  1  0.335011  0.034450  0.960884  1
  Si  Si22  1  0.832133  0.467077  0.538405  1
  Si  Si23  1  0.322886  0.031720  0.539598  1
  Si  Si24  1  0.834948  0.465380  0.960617  1
  Si  Si25  1  0.665089  0.965040  0.039320  1
  Si  Si26  1  0.166304  0.537617  0.459225  1
  Si  Si27  1  0.460218  0.383896  0.751525  1
  Si  Si28  1  0.956897  0.115998  0.751476  1
  Si  Si29  1  0.540658  0.615962  0.249880  1
  Si  Si30  1  0.042212  0.882381  0.249548  1
  Si  Si31  1  0.704164  0.866156  0.750210  1
  Si  Si32  1  0.205268  0.634680  0.751369  1
  Si  Si33  1  0.295561  0.133979  0.249853  1
  Si  Si34  1  0.795322  0.366507  0.249683  1
  As  As35  1  0.675425  0.965921  0.461078  1
