# generated using pymatgen
data_HoPa3FeO10
_symmetry_space_group_name_H-M   'P 1'
_cell_length_a   6.54727155
_cell_length_b   6.54727089
_cell_length_c   6.59335500
_cell_angle_alpha   99.73761286
_cell_angle_beta   99.43347398
_cell_angle_gamma   131.65295947
_symmetry_Int_Tables_number   1
_chemical_formula_structural   HoPa3FeO10
_chemical_formula_sum   'Ho1 Pa3 Fe1 O10'
_cell_volume   192.93160039
_cell_formula_units_Z   1
loop_
 _symmetry_equiv_pos_site_id
 _symmetry_equiv_pos_as_xyz
  1  'x, y, z'
loop_
 _atom_site_type_symbol
 _atom_site_label
 _atom_site_symmetry_multiplicity
 _atom_site_fract_x
 _atom_site_fract_y
 _atom_site_fract_z
 _atom_site_occupancy
  Ho  Ho0  1  0.002184  0.995838  0.998022  1
  Pa  Pa1  1  0.794237  0.401938  0.196175  1
  Pa  Pa2  1  0.197541  0.599586  0.797128  1
  Pa  Pa3  1  0.607364  0.800472  0.407837  1
  Fe  Fe4  1  0.398783  0.203175  0.601958  1
  O  O5  1  0.755728  0.249878  0.495013  1
  O  O6  1  0.154304  0.458715  0.104178  1
  O  O7  1  0.545052  0.656472  0.699439  1
  O  O8  1  0.940441  0.840112  0.299600  1
  O  O9  1  0.356149  0.046049  0.901211  1
  O  O10  1  0.855162  0.545062  0.901211  1
  O  O11  1  0.245136  0.739284  0.495013  1
  O  O12  1  0.645464  0.949875  0.104178  1
  O  O13  1  0.042967  0.154388  0.699439  1
  O  O14  1  0.459487  0.359157  0.299600  1
