# generated using pymatgen
data_TbNp3Ga12Pt
_symmetry_space_group_name_H-M   'P 1'
_cell_length_a   7.50615017
_cell_length_b   7.55341540
_cell_length_c   7.50614962
_cell_angle_alpha   109.59882974
_cell_angle_beta   109.34330888
_cell_angle_gamma   109.59882953
_symmetry_Int_Tables_number   1
_chemical_formula_structural   TbNp3Ga12Pt
_chemical_formula_sum   'Tb1 Np3 Ga12 Pt1'
_cell_volume   327.09173754
_cell_formula_units_Z   1
loop_
 _symmetry_equiv_pos_site_id
 _symmetry_equiv_pos_as_xyz
  1  'x, y, z'
loop_
 _atom_site_type_symbol
 _atom_site_label
 _atom_site_symmetry_multiplicity
 _atom_site_fract_x
 _atom_site_fract_y
 _atom_site_fract_z
 _atom_site_occupancy
  Tb  Tb0  1  0.000000  0.500000  0.000000  1
  Np  Np1  1  0.500000  0.000000  0.000000  1
  Np  Np2  1  0.000000  0.000000  0.500000  1
  Np  Np3  1  0.500000  0.500000  0.500000  1
  Ga  Ga4  1  0.295851  0.001045  0.295851  1
  Ga  Ga5  1  0.000000  0.705195  0.704149  1
  Ga  Ga6  1  0.250343  0.750343  0.500686  1
  Ga  Ga7  1  0.749657  0.500000  0.250343  1
  Ga  Ga8  1  0.499314  0.249657  0.749657  1
  Ga  Ga9  1  0.749657  0.249657  0.499314  1
  Ga  Ga10  1  0.704149  0.705195  0.000000  1
  Ga  Ga11  1  0.704149  0.998955  0.704149  1
  Ga  Ga12  1  0.250343  0.500000  0.749657  1
  Ga  Ga13  1  0.500686  0.750343  0.250343  1
  Ga  Ga14  1  0.295851  0.294805  0.000000  1
  Ga  Ga15  1  0.000000  0.294805  0.295851  1
  Pt  Pt16  1  0.000000  0.000000  0.000000  1
