# generated using pymatgen
data_Rb3Gd(Si2O5)3
_symmetry_space_group_name_H-M   'P 1'
_cell_length_a   7.38990200
_cell_length_b   14.81145300
_cell_length_c   16.03808200
_cell_angle_alpha   90.00000000
_cell_angle_beta   90.00000000
_cell_angle_gamma   90.00000000
_symmetry_Int_Tables_number   1
_chemical_formula_structural   Rb3Gd(Si2O5)3
_chemical_formula_sum   'Rb12 Gd4 Si24 O60'
_cell_volume   1755.45125076
_cell_formula_units_Z   4
loop_
 _symmetry_equiv_pos_site_id
 _symmetry_equiv_pos_as_xyz
  1  'x, y, z'
loop_
 _atom_site_type_symbol
 _atom_site_label
 _atom_site_symmetry_multiplicity
 _atom_site_fract_x
 _atom_site_fract_y
 _atom_site_fract_z
 _atom_site_occupancy
  Rb  Rb0  1  0.500000  0.545968  0.377183  1
  Rb  Rb1  1  0.500000  0.596059  0.928424  1
  Rb  Rb2  1  0.500000  0.403942  0.071576  1
  Rb  Rb3  1  0.500000  0.096059  0.571576  1
  Rb  Rb4  1  0.000000  0.615022  0.712633  1
  Rb  Rb5  1  0.000000  0.384979  0.287367  1
  Rb  Rb6  1  0.000000  0.115021  0.787367  1
  Rb  Rb7  1  0.000000  0.884979  0.212633  1
  Rb  Rb8  1  0.500000  0.903941  0.428423  1
  Rb  Rb9  1  0.500000  0.045971  0.122818  1
  Rb  Rb10  1  0.500000  0.454027  0.622819  1
  Rb  Rb11  1  0.500000  0.954027  0.877181  1
  Gd  Gd12  1  0.000000  0.500000  0.000000  1
  Gd  Gd13  1  0.000000  0.000000  0.500000  1
  Gd  Gd14  1  0.000000  0.500000  0.500000  1
  Gd  Gd15  1  0.000000  0.000000  0.000000  1
  Si  Si16  1  0.715240  0.197874  0.960316  1
  Si  Si17  1  0.715240  0.802126  0.039684  1
  Si  Si18  1  0.284760  0.697874  0.539684  1
  Si  Si19  1  0.284760  0.302126  0.460316  1
  Si  Si20  1  0.284760  0.802126  0.039684  1
  Si  Si21  1  0.284760  0.197874  0.960316  1
  Si  Si22  1  0.715240  0.302126  0.460316  1
  Si  Si23  1  0.715240  0.697874  0.539684  1
  Si  Si24  1  0.000000  0.781843  0.412397  1
  Si  Si25  1  0.000000  0.218157  0.587603  1
  Si  Si26  1  0.000000  0.281844  0.087603  1
  Si  Si27  1  0.000000  0.718157  0.912397  1
  Si  Si28  1  0.713057  0.366189  0.853086  1
  Si  Si29  1  0.713056  0.633811  0.146914  1
  Si  Si30  1  0.286945  0.866190  0.646914  1
  Si  Si31  1  0.000000  0.873452  0.791966  1
  Si  Si32  1  0.286944  0.133811  0.353086  1
  Si  Si33  1  0.000000  0.126549  0.208034  1
  Si  Si34  1  0.286943  0.366189  0.853086  1
  Si  Si35  1  0.713056  0.133811  0.353086  1
  Si  Si36  1  0.286944  0.633811  0.146914  1
  Si  Si37  1  0.000000  0.626549  0.291966  1
  Si  Si38  1  0.000000  0.373451  0.708034  1
  Si  Si39  1  0.713055  0.866190  0.646914  1
  O  O40  1  0.752782  0.257647  0.874512  1
  O  O41  1  0.500000  0.790416  0.013351  1
  O  O42  1  0.500000  0.209583  0.986650  1
  O  O43  1  0.500000  0.290418  0.486649  1
  O  O44  1  0.500000  0.709582  0.513352  1
  O  O45  1  0.771511  0.094310  0.947414  1
  O  O46  1  0.771509  0.905691  0.052586  1
  O  O47  1  0.228489  0.594310  0.552586  1
  O  O48  1  0.228490  0.405690  0.447414  1
  O  O49  1  0.228491  0.905691  0.052586  1
  O  O50  1  0.228489  0.094310  0.947414  1
  O  O51  1  0.771510  0.405690  0.447414  1
  O  O52  1  0.771511  0.594310  0.552586  1
  O  O53  1  0.752779  0.742353  0.125489  1
  O  O54  1  0.247220  0.757648  0.625488  1
  O  O55  1  0.247221  0.242352  0.374512  1
  O  O56  1  0.247221  0.742353  0.125489  1
  O  O57  1  0.500000  0.623970  0.176208  1
  O  O58  1  0.752779  0.242352  0.374512  1
  O  O59  1  0.752780  0.757648  0.625488  1
  O  O60  1  0.760747  0.431308  0.929369  1
  O  O61  1  0.760746  0.568692  0.070630  1
  O  O62  1  0.239256  0.931309  0.570631  1
  O  O63  1  0.239256  0.068691  0.429369  1
  O  O64  1  0.239254  0.568692  0.070630  1
  O  O65  1  0.247218  0.257647  0.874512  1
  O  O66  1  0.760744  0.068691  0.429369  1
  O  O67  1  0.760744  0.931309  0.570631  1
  O  O68  1  0.816679  0.754037  0.960232  1
  O  O69  1  0.816678  0.245964  0.039769  1
  O  O70  1  0.183321  0.254036  0.539768  1
  O  O71  1  0.183322  0.745964  0.460231  1
  O  O72  1  0.183322  0.245964  0.039769  1
  O  O73  1  0.183321  0.754037  0.960232  1
  O  O74  1  0.816678  0.745964  0.460231  1
  O  O75  1  0.816679  0.254036  0.539768  1
  O  O76  1  0.000000  0.611438  0.899690  1
  O  O77  1  0.000000  0.388563  0.100310  1
  O  O78  1  0.000000  0.111437  0.600309  1
  O  O79  1  0.000000  0.888562  0.399691  1
  O  O80  1  0.000000  0.766010  0.818912  1
  O  O81  1  0.000000  0.233991  0.181088  1
  O  O82  1  0.000000  0.266009  0.681088  1
  O  O83  1  0.000000  0.733990  0.318912  1
  O  O84  1  0.000000  0.939984  0.870175  1
  O  O85  1  0.000000  0.060016  0.129825  1
  O  O86  1  0.000000  0.439984  0.629825  1
  O  O87  1  0.000000  0.560016  0.370175  1
  O  O88  1  0.819430  0.891136  0.734199  1
  O  O89  1  0.819431  0.108865  0.265801  1
  O  O90  1  0.180570  0.391135  0.765801  1
  O  O91  1  0.180569  0.608865  0.234199  1
  O  O92  1  0.180569  0.108865  0.265801  1
  O  O93  1  0.180570  0.891136  0.734199  1
  O  O94  1  0.819431  0.608865  0.234199  1
  O  O95  1  0.819430  0.391135  0.765801  1
  O  O96  1  0.500000  0.876031  0.676209  1
  O  O97  1  0.500000  0.123970  0.323791  1
  O  O98  1  0.500000  0.376028  0.823793  1
  O  O99  1  0.239253  0.431308  0.929369  1
