# generated using pymatgen
data_Dy8Re11Si16Os
_symmetry_space_group_name_H-M   'P 1'
_cell_length_a   6.76027011
_cell_length_b   6.76027046
_cell_length_c   12.79704571
_cell_angle_alpha   90.09138054
_cell_angle_beta   89.90861865
_cell_angle_gamma   90.41398451
_symmetry_Int_Tables_number   1
_chemical_formula_structural   Dy8Re11Si16Os
_chemical_formula_sum   'Dy8 Re11 Si16 Os1'
_cell_volume   584.82429685
_cell_formula_units_Z   1
loop_
 _symmetry_equiv_pos_site_id
 _symmetry_equiv_pos_as_xyz
  1  'x, y, z'
loop_
 _atom_site_type_symbol
 _atom_site_label
 _atom_site_symmetry_multiplicity
 _atom_site_fract_x
 _atom_site_fract_y
 _atom_site_fract_z
 _atom_site_occupancy
  Dy  Dy0  1  0.005935  0.662434  0.030111  1
  Dy  Dy1  1  0.994015  0.336806  0.530580  1
  Dy  Dy2  1  0.336806  0.994015  0.469420  1
  Dy  Dy3  1  0.166518  0.488678  0.781500  1
  Dy  Dy4  1  0.833548  0.510381  0.281193  1
  Dy  Dy5  1  0.488678  0.166518  0.218500  1
  Dy  Dy6  1  0.510381  0.833548  0.718807  1
  Dy  Dy7  1  0.662434  0.005935  0.969889  1
  Re  Re8  1  0.160749  0.839574  0.249846  1
  Re  Re9  1  0.334412  0.334412  0.000000  1
  Re  Re10  1  0.026582  0.807045  0.631594  1
  Re  Re11  1  0.975504  0.192623  0.132183  1
  Re  Re12  1  0.807045  0.026582  0.368406  1
  Re  Re13  1  0.313990  0.488031  0.379271  1
  Re  Re14  1  0.686537  0.512118  0.879051  1
  Re  Re15  1  0.488031  0.313990  0.620729  1
  Re  Re16  1  0.512118  0.686537  0.120949  1
  Re  Re17  1  0.192623  0.975504  0.867817  1
  Re  Re18  1  0.839574  0.160749  0.750154  1
  Si  Si19  1  0.016176  0.733133  0.439070  1
  Si  Si20  1  0.609692  0.308373  0.435926  1
  Si  Si21  1  0.388552  0.692325  0.935469  1
  Si  Si22  1  0.198840  0.111618  0.683402  1
  Si  Si23  1  0.308373  0.609692  0.564074  1
  Si  Si24  1  0.692325  0.388552  0.064531  1
  Si  Si25  1  0.801419  0.888356  0.183569  1
  Si  Si26  1  0.111618  0.198840  0.316598  1
  Si  Si27  1  0.983075  0.267990  0.939012  1
  Si  Si28  1  0.733133  0.016176  0.560930  1
  Si  Si29  1  0.219576  0.482264  0.188413  1
  Si  Si30  1  0.780095  0.516116  0.689596  1
  Si  Si31  1  0.482264  0.219576  0.811587  1
  Si  Si32  1  0.516116  0.780095  0.310404  1
  Si  Si33  1  0.267990  0.983075  0.060988  1
  Si  Si34  1  0.888356  0.801419  0.816431  1
  Os  Os35  1  0.666922  0.666922  0.500000  1
