# generated using pymatgen
data_Cs3Er10C4Cl21
_symmetry_space_group_name_H-M   'P 1'
_cell_length_a   13.02851670
_cell_length_b   13.02851766
_cell_length_c   14.89833100
_cell_angle_alpha   82.81813037
_cell_angle_beta   82.81812983
_cell_angle_gamma   56.49180526
_symmetry_Int_Tables_number   1
_chemical_formula_structural   Cs3Er10C4Cl21
_chemical_formula_sum   'Cs6 Er20 C8 Cl42'
_cell_volume   2087.25210458
_cell_formula_units_Z   2
loop_
 _symmetry_equiv_pos_site_id
 _symmetry_equiv_pos_as_xyz
  1  'x, y, z'
loop_
 _atom_site_type_symbol
 _atom_site_label
 _atom_site_symmetry_multiplicity
 _atom_site_fract_x
 _atom_site_fract_y
 _atom_site_fract_z
 _atom_site_occupancy
  Cs  Cs0  1  0.972260  0.027740  0.250000  1
  Cs  Cs1  1  0.027740  0.972260  0.750000  1
  Cs  Cs2  1  0.350144  0.860455  0.452383  1
  Cs  Cs3  1  0.139545  0.649856  0.047617  1
  Cs  Cs4  1  0.649856  0.139545  0.547617  1
  Cs  Cs5  1  0.860455  0.350144  0.952383  1
  Er  Er6  1  0.755612  0.503211  0.371576  1
  Er  Er7  1  0.233334  0.959487  0.983378  1
  Er  Er8  1  0.648649  0.917648  0.201267  1
  Er  Er9  1  0.750765  0.495057  0.619499  1
  Er  Er10  1  0.626167  0.900774  0.959456  1
  Er  Er11  1  0.900774  0.626167  0.459456  1
  Er  Er12  1  0.503211  0.755612  0.871576  1
  Er  Er13  1  0.249235  0.504943  0.380501  1
  Er  Er14  1  0.082352  0.351351  0.298733  1
  Er  Er15  1  0.766666  0.040513  0.016622  1
  Er  Er16  1  0.495057  0.750765  0.119499  1
  Er  Er17  1  0.373833  0.099226  0.040544  1
  Er  Er18  1  0.504943  0.249235  0.880501  1
  Er  Er19  1  0.244388  0.496789  0.628424  1
  Er  Er20  1  0.351351  0.082352  0.798733  1
  Er  Er21  1  0.040513  0.766666  0.516622  1
  Er  Er22  1  0.959487  0.233334  0.483378  1
  Er  Er23  1  0.917648  0.648649  0.701267  1
  Er  Er24  1  0.099226  0.373833  0.540544  1
  Er  Er25  1  0.496789  0.244388  0.128424  1
  C  C26  1  0.548065  0.120850  0.000787  1
  C  C27  1  0.032917  0.591267  0.577677  1
  C  C28  1  0.408733  0.967083  0.922323  1
  C  C29  1  0.967083  0.408733  0.422323  1
  C  C30  1  0.591267  0.032917  0.077677  1
  C  C31  1  0.120850  0.548065  0.500787  1
  C  C32  1  0.451935  0.879150  0.999213  1
  C  C33  1  0.879150  0.451935  0.499213  1
  Cl  Cl34  1  0.720004  0.723515  0.102454  1
  Cl  Cl35  1  0.776196  0.287984  0.385877  1
  Cl  Cl36  1  0.262328  0.811538  0.135170  1
  Cl  Cl37  1  0.943648  0.425549  0.723395  1
  Cl  Cl38  1  0.811538  0.262328  0.635170  1
  Cl  Cl39  1  0.287984  0.776196  0.885877  1
  Cl  Cl40  1  0.870744  0.875740  0.162140  1
  Cl  Cl41  1  0.574451  0.056352  0.776605  1
  Cl  Cl42  1  0.712016  0.223804  0.114123  1
  Cl  Cl43  1  0.431123  0.888686  0.708374  1
  Cl  Cl44  1  0.266020  0.293836  0.146782  1
  Cl  Cl45  1  0.279996  0.276485  0.897546  1
  Cl  Cl46  1  0.576874  0.573930  0.510869  1
  Cl  Cl47  1  0.140294  0.149792  0.079768  1
  Cl  Cl48  1  0.610030  0.551957  0.777822  1
  Cl  Cl49  1  0.573930  0.576874  0.010869  1
  Cl  Cl50  1  0.188462  0.737672  0.364830  1
  Cl  Cl51  1  0.733980  0.706164  0.853218  1
  Cl  Cl52  1  0.223804  0.712016  0.614123  1
  Cl  Cl53  1  0.111314  0.568877  0.791626  1
  Cl  Cl54  1  0.129256  0.124260  0.837860  1
  Cl  Cl55  1  0.293836  0.266020  0.646782  1
  Cl  Cl56  1  0.425549  0.943648  0.223395  1
  Cl  Cl57  1  0.888686  0.431123  0.208374  1
  Cl  Cl58  1  0.448043  0.389970  0.722178  1
  Cl  Cl59  1  0.706164  0.733980  0.353218  1
  Cl  Cl60  1  0.875740  0.870744  0.662140  1
  Cl  Cl61  1  0.000000  0.000000  0.000000  1
  Cl  Cl62  1  0.859706  0.850208  0.920232  1
  Cl  Cl63  1  0.423126  0.426070  0.489131  1
  Cl  Cl64  1  0.426070  0.423126  0.989131  1
  Cl  Cl65  1  0.056352  0.574451  0.276605  1
  Cl  Cl66  1  0.551957  0.610030  0.277822  1
  Cl  Cl67  1  0.568877  0.111314  0.291626  1
  Cl  Cl68  1  0.850208  0.859706  0.420232  1
  Cl  Cl69  1  0.723515  0.720004  0.602454  1
  Cl  Cl70  1  0.124260  0.129256  0.337860  1
  Cl  Cl71  1  0.737672  0.188462  0.864830  1
  Cl  Cl72  1  0.276485  0.279996  0.397546  1
  Cl  Cl73  1  0.389970  0.448043  0.222178  1
  Cl  Cl74  1  0.149792  0.140294  0.579768  1
  Cl  Cl75  1  0.000000  0.000000  0.500000  1
