# generated using pymatgen
data_Tb5Yb4HoIr4
_symmetry_space_group_name_H-M   'P 1'
_cell_length_a   6.54182785
_cell_length_b   7.28892354
_cell_length_c   8.51805826
_cell_angle_alpha   96.98398357
_cell_angle_beta   112.58151948
_cell_angle_gamma   90.00000549
_symmetry_Int_Tables_number   1
_chemical_formula_structural   Tb5Yb4HoIr4
_chemical_formula_sum   'Tb5 Yb4 Ho1 Ir4'
_cell_volume   371.76051465
_cell_formula_units_Z   1
loop_
 _symmetry_equiv_pos_site_id
 _symmetry_equiv_pos_as_xyz
  1  'x, y, z'
loop_
 _atom_site_type_symbol
 _atom_site_label
 _atom_site_symmetry_multiplicity
 _atom_site_fract_x
 _atom_site_fract_y
 _atom_site_fract_z
 _atom_site_occupancy
  Tb  Tb0  1  0.651116  0.817636  0.439990  1
  Tb  Tb1  1  0.211125  0.682364  0.560010  1
  Tb  Tb2  1  0.349033  0.182486  0.560186  1
  Tb  Tb3  1  0.788848  0.317514  0.439814  1
  Tb  Tb4  1  0.430879  0.750000  0.000000  1
  Yb  Yb5  1  0.973709  0.921001  0.182729  1
  Yb  Yb6  1  0.790980  0.578999  0.817271  1
  Yb  Yb7  1  0.026228  0.079244  0.817303  1
  Yb  Yb8  1  0.208926  0.420756  0.182697  1
  Ho  Ho9  1  0.568726  0.250000  0.000000  1
  Ir  Ir10  1  0.815504  0.571776  0.225740  1
  Ir  Ir11  1  0.589764  0.928224  0.774260  1
  Ir  Ir12  1  0.184667  0.427401  0.774173  1
  Ir  Ir13  1  0.410494  0.072599  0.225827  1
