# generated using pymatgen
data_Nd4Pd3Au
_symmetry_space_group_name_H-M   'P 1'
_cell_length_a   4.74711400
_cell_length_b   5.76816792
_cell_length_c   7.36460443
_cell_angle_alpha   90.34991496
_cell_angle_beta   90.00000000
_cell_angle_gamma   90.00000000
_symmetry_Int_Tables_number   1
_chemical_formula_structural   Nd4Pd3Au
_chemical_formula_sum   'Nd4 Pd3 Au1'
_cell_volume   201.65494749
_cell_formula_units_Z   1
loop_
 _symmetry_equiv_pos_site_id
 _symmetry_equiv_pos_as_xyz
  1  'x, y, z'
loop_
 _atom_site_type_symbol
 _atom_site_label
 _atom_site_symmetry_multiplicity
 _atom_site_fract_x
 _atom_site_fract_y
 _atom_site_fract_z
 _atom_site_occupancy
  Nd  Nd0  1  0.250000  0.358576  0.686173  1
  Nd  Nd1  1  0.250000  0.142870  0.182318  1
  Nd  Nd2  1  0.750000  0.636707  0.312476  1
  Nd  Nd3  1  0.750000  0.858401  0.820223  1
  Pd  Pd4  1  0.250000  0.650553  0.041126  1
  Pd  Pd5  1  0.750000  0.147970  0.459001  1
  Pd  Pd6  1  0.750000  0.350695  0.958202  1
  Au  Au7  1  0.250000  0.854227  0.540480  1
