# generated using pymatgen
data_FeBi4Pb3F28
_symmetry_space_group_name_H-M   'P 1'
_cell_length_a   5.76378544
_cell_length_b   9.40765554
_cell_length_c   12.58058500
_cell_angle_alpha   62.02545477
_cell_angle_beta   89.68080405
_cell_angle_gamma   90.07667122
_symmetry_Int_Tables_number   1
_chemical_formula_structural   FeBi4Pb3F28
_chemical_formula_sum   'Fe1 Bi4 Pb3 F28'
_cell_volume   602.44364129
_cell_formula_units_Z   1
loop_
 _symmetry_equiv_pos_site_id
 _symmetry_equiv_pos_as_xyz
  1  'x, y, z'
loop_
 _atom_site_type_symbol
 _atom_site_label
 _atom_site_symmetry_multiplicity
 _atom_site_fract_x
 _atom_site_fract_y
 _atom_site_fract_z
 _atom_site_occupancy
  Fe  Fe0  1  0.757067  0.276137  0.955940  1
  Bi  Bi1  1  0.753475  0.804816  0.767342  1
  Bi  Bi2  1  0.258134  0.188386  0.745783  1
  Bi  Bi3  1  0.243215  0.193439  0.221667  1
  Bi  Bi4  1  0.742667  0.831156  0.251976  1
  Pb  Pb5  1  0.258352  0.730037  0.537075  1
  Pb  Pb6  1  0.244225  0.728285  0.039538  1
  Pb  Pb7  1  0.744968  0.273263  0.457379  1
  F  F8  1  0.444332  0.698596  0.911223  1
  F  F9  1  0.960909  0.293604  0.586055  1
  F  F10  1  0.527775  0.282386  0.068353  1
  F  F11  1  0.046383  0.704247  0.412730  1
  F  F12  1  0.442628  0.272624  0.556670  1
  F  F13  1  0.929482  0.717453  0.957478  1
  F  F14  1  0.570662  0.729054  0.448215  1
  F  F15  1  0.018217  0.283496  0.052882  1
  F  F16  1  0.764173  0.507798  0.864277  1
  F  F17  1  0.282522  0.478843  0.644157  1
  F  F18  1  0.233746  0.477463  0.141155  1
  F  F19  1  0.716140  0.521869  0.356748  1
  F  F20  1  0.764984  0.039083  0.057673  1
  F  F21  1  0.261328  0.981623  0.439462  1
  F  F22  1  0.245070  0.981811  0.947185  1
  F  F23  1  0.750125  0.019568  0.560581  1
  F  F24  1  0.975606  0.728976  0.646354  1
  F  F25  1  0.516594  0.257278  0.852730  1
  F  F26  1  0.027900  0.270480  0.350597  1
  F  F27  1  0.541418  0.736174  0.133444  1
  F  F28  1  0.051582  0.747950  0.175329  1
  F  F29  1  0.539320  0.250830  0.324781  1
  F  F30  1  0.981132  0.256150  0.843078  1
  F  F31  1  0.457138  0.750327  0.672739  1
  F  F32  1  0.407479  0.969024  0.231279  1
  F  F33  1  0.922167  0.026322  0.272258  1
  F  F34  1  0.557716  0.012961  0.769278  1
  F  F35  1  0.061373  0.978493  0.746587  1
