# generated using pymatgen
data_Ce2Cd16Ru4Pb
_symmetry_space_group_name_H-M   'P 1'
_cell_length_a   8.70950361
_cell_length_b   8.70950322
_cell_length_c   8.70950413
_cell_angle_alpha   106.95257838
_cell_angle_beta   110.74503423
_cell_angle_gamma   110.74502750
_symmetry_Int_Tables_number   1
_chemical_formula_structural   Ce2Cd16Ru4Pb
_chemical_formula_sum   'Ce2 Cd16 Ru4 Pb1'
_cell_volume   507.84589814
_cell_formula_units_Z   1
loop_
 _symmetry_equiv_pos_site_id
 _symmetry_equiv_pos_as_xyz
  1  'x, y, z'
loop_
 _atom_site_type_symbol
 _atom_site_label
 _atom_site_symmetry_multiplicity
 _atom_site_fract_x
 _atom_site_fract_y
 _atom_site_fract_z
 _atom_site_occupancy
  Ce  Ce0  1  0.000000  0.343303  0.343303  1
  Ce  Ce1  1  0.000000  0.656697  0.656697  1
  Cd  Cd2  1  0.330960  0.500000  0.830960  1
  Cd  Cd3  1  0.669040  0.500000  0.169040  1
  Cd  Cd4  1  0.669040  0.169040  0.500000  1
  Cd  Cd5  1  0.330960  0.830960  0.500000  1
  Cd  Cd6  1  0.441799  0.151187  0.151187  1
  Cd  Cd7  1  0.558201  0.709386  0.709386  1
  Cd  Cd8  1  0.000000  0.848813  0.290614  1
  Cd  Cd9  1  0.000000  0.290614  0.848813  1
  Cd  Cd10  1  0.348905  0.239157  0.489360  1
  Cd  Cd11  1  0.651095  0.140455  0.890253  1
  Cd  Cd12  1  0.250202  0.760843  0.109747  1
  Cd  Cd13  1  0.749798  0.859545  0.510640  1
  Cd  Cd14  1  0.749798  0.510640  0.859545  1
  Cd  Cd15  1  0.250202  0.109747  0.760843  1
  Cd  Cd16  1  0.348905  0.489360  0.239157  1
  Cd  Cd17  1  0.651095  0.890253  0.140455  1
  Ru  Ru18  1  0.668768  0.501152  0.501152  1
  Ru  Ru19  1  0.331232  0.832384  0.832384  1
  Ru  Ru20  1  0.000000  0.498848  0.167616  1
  Ru  Ru21  1  0.000000  0.167616  0.498848  1
  Pb  Pb22  1  0.000000  0.000000  0.000000  1
