# generated using pymatgen
data_Dy3PaZn2Rh3
_symmetry_space_group_name_H-M   'P 1'
_cell_length_a   7.57320154
_cell_length_b   7.44098020
_cell_length_c   3.81695900
_cell_angle_alpha   90.00000000
_cell_angle_beta   90.00000000
_cell_angle_gamma   119.42410723
_symmetry_Int_Tables_number   1
_chemical_formula_structural   Dy3PaZn2Rh3
_chemical_formula_sum   'Dy3 Pa1 Zn2 Rh3'
_cell_volume   187.34792885
_cell_formula_units_Z   1
loop_
 _symmetry_equiv_pos_site_id
 _symmetry_equiv_pos_as_xyz
  1  'x, y, z'
loop_
 _atom_site_type_symbol
 _atom_site_label
 _atom_site_symmetry_multiplicity
 _atom_site_fract_x
 _atom_site_fract_y
 _atom_site_fract_z
 _atom_site_occupancy
  Dy  Dy0  1  0.000000  0.637850  0.500000  1
  Dy  Dy1  1  0.549978  0.962138  0.500000  1
  Dy  Dy2  1  0.450022  0.412160  0.500000  1
  Pa  Pa3  1  0.000000  0.259650  0.000000  1
  Zn  Zn4  1  0.263691  0.012922  0.000000  1
  Zn  Zn5  1  0.736309  0.749231  0.000000  1
  Rh  Rh6  1  0.000000  0.012396  0.500000  1
  Rh  Rh7  1  0.693610  0.323631  0.000000  1
  Rh  Rh8  1  0.306390  0.630021  0.000000  1
