# generated using pymatgen
data_Y6Al13V3Os7
_symmetry_space_group_name_H-M   'P 1'
_cell_length_a   8.97057407
_cell_length_b   8.97057549
_cell_length_c   8.97057588
_cell_angle_alpha   59.51557978
_cell_angle_beta   59.51557346
_cell_angle_gamma   59.51558074
_symmetry_Int_Tables_number   1
_chemical_formula_structural   Y6Al13V3Os7
_chemical_formula_sum   'Y6 Al13 V3 Os7'
_cell_volume   504.81834339
_cell_formula_units_Z   1
loop_
 _symmetry_equiv_pos_site_id
 _symmetry_equiv_pos_as_xyz
  1  'x, y, z'
loop_
 _atom_site_type_symbol
 _atom_site_label
 _atom_site_symmetry_multiplicity
 _atom_site_fract_x
 _atom_site_fract_y
 _atom_site_fract_z
 _atom_site_occupancy
  Y  Y0  1  0.710446  0.710446  0.285456  1
  Y  Y1  1  0.289666  0.712669  0.289666  1
  Y  Y2  1  0.712669  0.289666  0.289666  1
  Y  Y3  1  0.289666  0.289666  0.712669  1
  Y  Y4  1  0.710446  0.285456  0.710446  1
  Y  Y5  1  0.285456  0.710446  0.710446  1
  Al  Al6  1  0.880963  0.880963  0.880963  1
  Al  Al7  1  0.120912  0.120912  0.642743  1
  Al  Al8  1  0.120912  0.642743  0.120912  1
  Al  Al9  1  0.642743  0.120912  0.120912  1
  Al  Al10  1  0.120755  0.120755  0.120755  1
  Al  Al11  1  0.668871  0.668871  0.991487  1
  Al  Al12  1  0.668871  0.991487  0.668871  1
  Al  Al13  1  0.991487  0.668871  0.668871  1
  Al  Al14  1  0.668311  0.668311  0.668311  1
  Al  Al15  1  0.331428  0.331428  0.007927  1
  Al  Al16  1  0.331428  0.007927  0.331428  1
  Al  Al17  1  0.007927  0.331428  0.331428  1
  Al  Al18  1  0.332173  0.332173  0.332173  1
  V  V19  1  0.877097  0.877097  0.361546  1
  V  V20  1  0.877097  0.361546  0.877097  1
  V  V21  1  0.361546  0.877097  0.877097  1
  Os  Os22  1  0.004483  0.004483  0.004483  1
  Os  Os23  1  0.997735  0.997735  0.497799  1
  Os  Os24  1  0.502838  0.995705  0.502838  1
  Os  Os25  1  0.995705  0.502838  0.502838  1
  Os  Os26  1  0.502838  0.502838  0.995705  1
  Os  Os27  1  0.997735  0.497799  0.997735  1
  Os  Os28  1  0.497799  0.997735  0.997735  1
