# generated using pymatgen
data_Ti6PdRh9
_symmetry_space_group_name_H-M   'P 1'
_cell_length_a   4.15654600
_cell_length_b   5.42235220
_cell_length_c   10.55405876
_cell_angle_alpha   91.03104779
_cell_angle_beta   90.00000000
_cell_angle_gamma   90.00000000
_symmetry_Int_Tables_number   1
_chemical_formula_structural   Ti6PdRh9
_chemical_formula_sum   'Ti6 Pd1 Rh9'
_cell_volume   237.83156868
_cell_formula_units_Z   1
loop_
 _symmetry_equiv_pos_site_id
 _symmetry_equiv_pos_as_xyz
  1  'x, y, z'
loop_
 _atom_site_type_symbol
 _atom_site_label
 _atom_site_symmetry_multiplicity
 _atom_site_fract_x
 _atom_site_fract_y
 _atom_site_fract_z
 _atom_site_occupancy
  Ti  Ti0  1  0.000000  0.003384  0.995648  1
  Ti  Ti1  1  0.000000  0.496370  0.499386  1
  Ti  Ti2  1  0.500000  0.351982  0.141773  1
  Ti  Ti3  1  0.500000  0.660983  0.855928  1
  Ti  Ti4  1  0.500000  0.832709  0.359612  1
  Ti  Ti5  1  0.500000  0.160371  0.643669  1
  Pd  Pd6  1  0.000000  0.098504  0.240729  1
  Rh  Rh7  1  0.000000  0.997463  0.502926  1
  Rh  Rh8  1  0.000000  0.500431  0.999360  1
  Rh  Rh9  1  0.000000  0.893732  0.765393  1
  Rh  Rh10  1  0.000000  0.601760  0.261765  1
  Rh  Rh11  1  0.000000  0.393947  0.734441  1
  Rh  Rh12  1  0.500000  0.312391  0.391867  1
  Rh  Rh13  1  0.500000  0.685585  0.607518  1
  Rh  Rh14  1  0.500000  0.821578  0.106491  1
  Rh  Rh15  1  0.500000  0.188811  0.893493  1
