# generated using pymatgen
data_Er3Tm9Co4BiIr
_symmetry_space_group_name_H-M   'P 1'
_cell_length_a   8.21459348
_cell_length_b   8.21459314
_cell_length_c   8.21357401
_cell_angle_alpha   110.80361834
_cell_angle_beta   111.31576670
_cell_angle_gamma   106.34469559
_symmetry_Int_Tables_number   1
_chemical_formula_structural   Er3Tm9Co4BiIr
_chemical_formula_sum   'Er3 Tm9 Co4 Bi1 Ir1'
_cell_volume   425.67568869
_cell_formula_units_Z   1
loop_
 _symmetry_equiv_pos_site_id
 _symmetry_equiv_pos_as_xyz
  1  'x, y, z'
loop_
 _atom_site_type_symbol
 _atom_site_label
 _atom_site_symmetry_multiplicity
 _atom_site_fract_x
 _atom_site_fract_y
 _atom_site_fract_z
 _atom_site_occupancy
  Er  Er0  1  0.284064  0.182622  0.466684  1
  Er  Er1  1  0.715968  0.817431  0.533400  1
  Er  Er2  1  0.283991  0.817350  0.101340  1
  Tm  Tm3  1  0.716083  0.182386  0.898470  1
  Tm  Tm4  1  0.620805  0.311501  0.309192  1
  Tm  Tm5  1  0.379289  0.688636  0.690775  1
  Tm  Tm6  1  0.002140  0.311486  0.690775  1
  Tm  Tm7  1  0.997690  0.688387  0.309192  1
  Tm  Tm8  1  0.213062  0.411360  0.198061  1
  Tm  Tm9  1  0.786761  0.588528  0.801876  1
  Tm  Tm10  1  0.213349  0.015115  0.801876  1
  Tm  Tm11  1  0.786699  0.984999  0.198061  1
  Co  Co12  1  0.999967  0.376609  0.376576  1
  Co  Co13  1  0.999982  0.623370  0.623353  1
  Co  Co14  1  0.388804  0.888762  0.500202  1
  Co  Co15  1  0.611440  0.111398  0.500202  1
  Bi  Bi16  1  0.500000  0.500006  0.000006  1
  Ir  Ir17  1  0.999904  0.000054  0.999959  1
