# generated using pymatgen
data_Mg2(ScAu)3
_symmetry_space_group_name_H-M   'P 1'
_cell_length_a   8.21561800
_cell_length_b   8.21561809
_cell_length_c   5.53617800
_cell_angle_alpha   90.00000000
_cell_angle_beta   90.00000000
_cell_angle_gamma   119.99999964
_symmetry_Int_Tables_number   1
_chemical_formula_structural   Mg2(ScAu)3
_chemical_formula_sum   'Mg4 Sc6 Au6'
_cell_volume   323.60942273
_cell_formula_units_Z   2
loop_
 _symmetry_equiv_pos_site_id
 _symmetry_equiv_pos_as_xyz
  1  'x, y, z'
loop_
 _atom_site_type_symbol
 _atom_site_label
 _atom_site_symmetry_multiplicity
 _atom_site_fract_x
 _atom_site_fract_y
 _atom_site_fract_z
 _atom_site_occupancy
  Mg  Mg0  1  0.666667  0.333333  0.000000  1
  Mg  Mg1  1  0.333333  0.666667  0.000000  1
  Mg  Mg2  1  0.666667  0.333333  0.500001  1
  Mg  Mg3  1  0.333333  0.666667  0.500001  1
  Sc  Sc4  1  0.754799  0.000000  0.249999  1
  Sc  Sc5  1  0.245201  0.245201  0.249999  1
  Sc  Sc6  1  0.000000  0.754798  0.249999  1
  Sc  Sc7  1  0.245202  0.000000  0.750000  1
  Sc  Sc8  1  0.000000  0.245201  0.750000  1
  Sc  Sc9  1  0.754799  0.754798  0.750000  1
  Au  Au10  1  0.394269  0.000000  0.249999  1
  Au  Au11  1  0.000000  0.394269  0.249999  1
  Au  Au12  1  0.605732  0.605731  0.249999  1
  Au  Au13  1  0.605731  0.000000  0.750000  1
  Au  Au14  1  0.394269  0.394269  0.750000  1
  Au  Au15  1  0.000000  0.605731  0.750000  1
