# generated using pymatgen
data_Sc2Ni4P3
_symmetry_space_group_name_H-M   'P 1'
_cell_length_a   12.13966400
_cell_length_b   12.13966414
_cell_length_c   3.70177300
_cell_angle_alpha   90.00000000
_cell_angle_beta   90.00000000
_cell_angle_gamma   120.00000507
_symmetry_Int_Tables_number   1
_chemical_formula_structural   Sc2Ni4P3
_chemical_formula_sum   'Sc8 Ni16 P12'
_cell_volume   472.44769124
_cell_formula_units_Z   4
loop_
 _symmetry_equiv_pos_site_id
 _symmetry_equiv_pos_as_xyz
  1  'x, y, z'
loop_
 _atom_site_type_symbol
 _atom_site_label
 _atom_site_symmetry_multiplicity
 _atom_site_fract_x
 _atom_site_fract_y
 _atom_site_fract_z
 _atom_site_occupancy
  Sc  Sc0  1  0.181748  0.181748  0.500000  1
  Sc  Sc1  1  0.818252  0.000000  0.500000  1
  Sc  Sc2  1  0.000000  0.818252  0.500000  1
  Sc  Sc3  1  0.333333  0.666667  0.000000  1
  Sc  Sc4  1  0.666667  0.333333  0.000000  1
  Sc  Sc5  1  0.559874  0.559874  0.000000  1
  Sc  Sc6  1  0.440126  0.000000  0.000000  1
  Sc  Sc7  1  0.000000  0.440126  0.000000  1
  Ni  Ni8  1  0.724922  0.724922  0.500000  1
  Ni  Ni9  1  0.275078  0.000000  0.500000  1
  Ni  Ni10  1  0.000000  0.275078  0.500000  1
  Ni  Ni11  1  0.183476  0.375486  0.000000  1
  Ni  Ni12  1  0.624514  0.807990  0.000000  1
  Ni  Ni13  1  0.192010  0.816524  0.000000  1
  Ni  Ni14  1  0.807990  0.624514  0.000000  1
  Ni  Ni15  1  0.816524  0.192010  0.000000  1
  Ni  Ni16  1  0.375486  0.183476  0.000000  1
  Ni  Ni17  1  0.359004  0.483403  0.500000  1
  Ni  Ni18  1  0.516597  0.875602  0.500000  1
  Ni  Ni19  1  0.124398  0.640996  0.500000  1
  Ni  Ni20  1  0.875602  0.516597  0.500000  1
  Ni  Ni21  1  0.640996  0.124398  0.500000  1
  Ni  Ni22  1  0.483403  0.359004  0.500000  1
  Ni  Ni23  1  0.000000  0.000000  0.000000  1
  P  P24  1  0.824397  0.824397  0.000000  1
  P  P25  1  0.175603  0.000000  0.000000  1
  P  P26  1  0.000000  0.175603  0.000000  1
  P  P27  1  0.172724  0.480950  0.500000  1
  P  P28  1  0.519050  0.691775  0.500000  1
  P  P29  1  0.308225  0.827276  0.500000  1
  P  P30  1  0.691775  0.519050  0.500000  1
  P  P31  1  0.827276  0.308225  0.500000  1
  P  P32  1  0.480950  0.172724  0.500000  1
  P  P33  1  0.349833  0.349833  0.000000  1
  P  P34  1  0.650167  0.000000  0.000000  1
  P  P35  1  0.000000  0.650167  0.000000  1
