# generated using pymatgen
data_Ac10Si3Se7
_symmetry_space_group_name_H-M   'P 1'
_cell_length_a   11.99761741
_cell_length_b   11.99761565
_cell_length_c   7.84517264
_cell_angle_alpha   83.70086746
_cell_angle_beta   83.70087060
_cell_angle_gamma   142.07561312
_symmetry_Int_Tables_number   1
_chemical_formula_structural   Ac10Si3Se7
_chemical_formula_sum   'Ac10 Si3 Se7'
_cell_volume   653.30192812
_cell_formula_units_Z   1
loop_
 _symmetry_equiv_pos_site_id
 _symmetry_equiv_pos_as_xyz
  1  'x, y, z'
loop_
 _atom_site_type_symbol
 _atom_site_label
 _atom_site_symmetry_multiplicity
 _atom_site_fract_x
 _atom_site_fract_y
 _atom_site_fract_z
 _atom_site_occupancy
  Ac  Ac0  1  0.255204  0.255204  0.759357  1
  Ac  Ac1  1  0.850581  0.650571  0.750591  1
  Ac  Ac2  1  0.744796  0.744796  0.240643  1
  Ac  Ac3  1  0.453026  0.047660  0.737994  1
  Ac  Ac4  1  0.349429  0.149419  0.249409  1
  Ac  Ac5  1  0.047660  0.453026  0.737994  1
  Ac  Ac6  1  0.952340  0.546974  0.262006  1
  Ac  Ac7  1  0.650571  0.850581  0.750591  1
  Ac  Ac8  1  0.546974  0.952340  0.262006  1
  Ac  Ac9  1  0.149419  0.349429  0.249409  1
  Si  Si10  1  0.500000  0.500000  0.000000  1
  Si  Si11  1  0.197889  0.802111  0.500000  1
  Si  Si12  1  0.802111  0.197889  0.500000  1
  Se  Se13  1  0.899525  0.100475  0.000000  1
  Se  Se14  1  0.400914  0.599086  0.500000  1
  Se  Se15  1  0.000000  0.000000  0.500000  1
  Se  Se16  1  0.599086  0.400914  0.500000  1
  Se  Se17  1  0.100475  0.899525  0.000000  1
  Se  Se18  1  0.699769  0.300231  0.000000  1
  Se  Se19  1  0.300231  0.699769  0.000000  1
