# generated using pymatgen
data_ZnNi11Sn10
_symmetry_space_group_name_H-M   'P 1'
_cell_length_a   6.56055798
_cell_length_b   6.55088168
_cell_length_c   9.63299983
_cell_angle_alpha   80.96722672
_cell_angle_beta   80.86416009
_cell_angle_gamma   65.22502800
_symmetry_Int_Tables_number   1
_chemical_formula_structural   ZnNi11Sn10
_chemical_formula_sum   'Zn1 Ni11 Sn10'
_cell_volume   369.23427696
_cell_formula_units_Z   1
loop_
 _symmetry_equiv_pos_site_id
 _symmetry_equiv_pos_as_xyz
  1  'x, y, z'
loop_
 _atom_site_type_symbol
 _atom_site_label
 _atom_site_symmetry_multiplicity
 _atom_site_fract_x
 _atom_site_fract_y
 _atom_site_fract_z
 _atom_site_occupancy
  Zn  Zn0  1  0.000000  0.000000  0.000000  1
  Ni  Ni1  1  0.381945  0.420565  0.696597  1
  Ni  Ni2  1  0.587487  0.612123  0.798596  1
  Ni  Ni3  1  0.618055  0.579435  0.303403  1
  Ni  Ni4  1  0.412513  0.387877  0.201404  1
  Ni  Ni5  1  0.194122  0.185718  0.100711  1
  Ni  Ni6  1  0.807762  0.800685  0.398393  1
  Ni  Ni7  1  0.805878  0.814282  0.899289  1
  Ni  Ni8  1  0.192238  0.199315  0.601607  1
  Ni  Ni9  1  0.000000  0.000000  0.500000  1
  Ni  Ni10  1  0.159555  0.844919  0.755253  1
  Ni  Ni11  1  0.840445  0.155081  0.244747  1
  Sn  Sn12  1  0.754002  0.471429  0.039324  1
  Sn  Sn13  1  0.551293  0.230792  0.463705  1
  Sn  Sn14  1  0.245998  0.528571  0.960676  1
  Sn  Sn15  1  0.448707  0.769208  0.536295  1
  Sn  Sn16  1  0.386506  0.045683  0.844750  1
  Sn  Sn17  1  0.954247  0.634811  0.647695  1
  Sn  Sn18  1  0.613494  0.954317  0.155250  1
  Sn  Sn19  1  0.045753  0.365189  0.352305  1
  Sn  Sn20  1  0.801085  0.204386  0.734727  1
  Sn  Sn21  1  0.198915  0.795614  0.265273  1
