# generated using pymatgen
data_Er4TmMg3Ir4
_symmetry_space_group_name_H-M   'P 1'
_cell_length_a   4.15838200
_cell_length_b   7.08317825
_cell_length_c   8.61395568
_cell_angle_alpha   89.20985047
_cell_angle_beta   90.00000000
_cell_angle_gamma   90.00000000
_symmetry_Int_Tables_number   1
_chemical_formula_structural   Er4TmMg3Ir4
_chemical_formula_sum   'Er4 Tm1 Mg3 Ir4'
_cell_volume   253.69615620
_cell_formula_units_Z   1
loop_
 _symmetry_equiv_pos_site_id
 _symmetry_equiv_pos_as_xyz
  1  'x, y, z'
loop_
 _atom_site_type_symbol
 _atom_site_label
 _atom_site_symmetry_multiplicity
 _atom_site_fract_x
 _atom_site_fract_y
 _atom_site_fract_z
 _atom_site_occupancy
  Er  Er0  1  0.250000  0.956995  0.335752  1
  Er  Er1  1  0.250000  0.475672  0.180375  1
  Er  Er2  1  0.750000  0.030677  0.668717  1
  Er  Er3  1  0.750000  0.545421  0.822380  1
  Tm  Tm4  1  0.750000  0.134896  0.059500  1
  Mg  Mg5  1  0.250000  0.364643  0.558550  1
  Mg  Mg6  1  0.250000  0.851958  0.933925  1
  Mg  Mg7  1  0.750000  0.636758  0.441580  1
  Ir  Ir8  1  0.250000  0.255729  0.872943  1
  Ir  Ir9  1  0.250000  0.747968  0.626809  1
  Ir  Ir10  1  0.750000  0.748960  0.127846  1
  Ir  Ir11  1  0.750000  0.250326  0.371622  1
