# generated using pymatgen
data_YLu3Al17GaRh6
_symmetry_space_group_name_H-M   'P 1'
_cell_length_a   7.51361607
_cell_length_b   7.51840952
_cell_length_c   9.43597700
_cell_angle_alpha   90.00000000
_cell_angle_beta   90.00000000
_cell_angle_gamma   119.27361734
_symmetry_Int_Tables_number   1
_chemical_formula_structural   YLu3Al17GaRh6
_chemical_formula_sum   'Y1 Lu3 Al17 Ga1 Rh6'
_cell_volume   464.97006818
_cell_formula_units_Z   1
loop_
 _symmetry_equiv_pos_site_id
 _symmetry_equiv_pos_as_xyz
  1  'x, y, z'
loop_
 _atom_site_type_symbol
 _atom_site_label
 _atom_site_symmetry_multiplicity
 _atom_site_fract_x
 _atom_site_fract_y
 _atom_site_fract_z
 _atom_site_occupancy
  Y  Y0  1  0.993940  0.674045  0.250000  1
  Lu  Lu1  1  0.004718  0.327265  0.750000  1
  Lu  Lu2  1  0.674309  0.994300  0.250000  1
  Lu  Lu3  1  0.327581  0.004889  0.750000  1
  Al  Al4  1  0.871674  0.872063  0.750000  1
  Al  Al5  1  0.001069  0.335186  0.073941  1
  Al  Al6  1  0.999447  0.663961  0.923223  1
  Al  Al7  1  0.999447  0.663961  0.576777  1
  Al  Al8  1  0.337320  0.001869  0.425899  1
  Al  Al9  1  0.001069  0.335186  0.426059  1
  Al  Al10  1  0.664006  0.999607  0.575529  1
  Al  Al11  1  0.664006  0.999607  0.924471  1
  Al  Al12  1  0.337320  0.001869  0.074101  1
  Al  Al13  1  0.332419  0.332422  0.554999  1
  Al  Al14  1  0.665573  0.666543  0.450367  1
  Al  Al15  1  0.665573  0.666543  0.049633  1
  Al  Al16  1  0.332419  0.332422  0.945001  1
  Al  Al17  1  0.339661  0.551587  0.250000  1
  Al  Al18  1  0.660836  0.448695  0.750000  1
  Al  Al19  1  0.550311  0.337151  0.250000  1
  Al  Al20  1  0.449027  0.661285  0.750000  1
  Ga  Ga21  1  0.130885  0.131851  0.250000  1
  Rh  Rh22  1  0.671581  0.327148  0.999699  1
  Rh  Rh23  1  0.327482  0.671679  0.999671  1
  Rh  Rh24  1  0.327482  0.671679  0.500329  1
  Rh  Rh25  1  0.671581  0.327148  0.500301  1
  Rh  Rh26  1  0.999632  0.000018  0.997038  1
  Rh  Rh27  1  0.999632  0.000018  0.502962  1
