# generated using pymatgen
data_DyEr2GaNi8
_symmetry_space_group_name_H-M   'P 1'
_cell_length_a   8.55135630
_cell_length_b   8.55135673
_cell_length_c   8.55135700
_cell_angle_alpha   34.43109343
_cell_angle_beta   34.43108924
_cell_angle_gamma   34.43109672
_symmetry_Int_Tables_number   1
_chemical_formula_structural   DyEr2GaNi8
_chemical_formula_sum   'Dy1 Er2 Ga1 Ni8'
_cell_volume   178.32557089
_cell_formula_units_Z   1
loop_
 _symmetry_equiv_pos_site_id
 _symmetry_equiv_pos_as_xyz
  1  'x, y, z'
loop_
 _atom_site_type_symbol
 _atom_site_label
 _atom_site_symmetry_multiplicity
 _atom_site_fract_x
 _atom_site_fract_y
 _atom_site_fract_z
 _atom_site_occupancy
  Dy  Dy0  1  0.999755  0.999755  0.999755  1
  Er  Er1  1  0.861040  0.861040  0.861040  1
  Er  Er2  1  0.140031  0.140031  0.140031  1
  Ga  Ga3  1  0.666307  0.666307  0.666307  1
  Ni  Ni4  1  0.499539  0.499539  0.499539  1
  Ni  Ni5  1  0.333527  0.333527  0.333527  1
  Ni  Ni6  1  0.414939  0.921092  0.414939  1
  Ni  Ni7  1  0.414939  0.414939  0.921092  1
  Ni  Ni8  1  0.921092  0.414939  0.414939  1
  Ni  Ni9  1  0.582378  0.084076  0.582378  1
  Ni  Ni10  1  0.582378  0.582378  0.084076  1
  Ni  Ni11  1  0.084076  0.582378  0.582378  1
