# generated using pymatgen
data_KRb3(Lu3Se5)4
_symmetry_space_group_name_H-M   'P 1'
_cell_length_a   4.06047400
_cell_length_b   12.12923927
_cell_length_c   21.70966817
_cell_angle_alpha   89.92426307
_cell_angle_beta   90.00000000
_cell_angle_gamma   90.00000000
_symmetry_Int_Tables_number   1
_chemical_formula_structural   KRb3(Lu3Se5)4
_chemical_formula_sum   'K1 Rb3 Lu12 Se20'
_cell_volume   1069.21022532
_cell_formula_units_Z   1
loop_
 _symmetry_equiv_pos_site_id
 _symmetry_equiv_pos_as_xyz
  1  'x, y, z'
loop_
 _atom_site_type_symbol
 _atom_site_label
 _atom_site_symmetry_multiplicity
 _atom_site_fract_x
 _atom_site_fract_y
 _atom_site_fract_z
 _atom_site_occupancy
  K  K0  1  0.250000  0.648536  0.593442  1
  Rb  Rb1  1  0.250000  0.849895  0.094258  1
  Rb  Rb2  1  0.750000  0.149923  0.905972  1
  Rb  Rb3  1  0.750000  0.349881  0.405642  1
  Lu  Lu4  1  0.750000  0.799748  0.826687  1
  Lu  Lu5  1  0.250000  0.200314  0.173317  1
  Lu  Lu6  1  0.250000  0.299835  0.673692  1
  Lu  Lu7  1  0.750000  0.700538  0.326444  1
  Lu  Lu8  1  0.250000  0.955845  0.698360  1
  Lu  Lu9  1  0.750000  0.043331  0.301436  1
  Lu  Lu10  1  0.750000  0.456932  0.801834  1
  Lu  Lu11  1  0.250000  0.542976  0.198236  1
  Lu  Lu12  1  0.750000  0.390538  0.053837  1
  Lu  Lu13  1  0.250000  0.609603  0.946383  1
  Lu  Lu14  1  0.250000  0.891150  0.446322  1
  Lu  Lu15  1  0.750000  0.109564  0.553776  1
  Se  Se16  1  0.250000  0.947464  0.569406  1
  Se  Se17  1  0.750000  0.053119  0.430425  1
  Se  Se18  1  0.750000  0.447949  0.930799  1
  Se  Se19  1  0.250000  0.552072  0.069441  1
  Se  Se20  1  0.750000  0.767485  0.954439  1
  Se  Se21  1  0.250000  0.232666  0.045778  1
  Se  Se22  1  0.250000  0.267729  0.546065  1
  Se  Se23  1  0.750000  0.732838  0.454589  1
  Se  Se24  1  0.250000  0.954223  0.827101  1
  Se  Se25  1  0.750000  0.045894  0.172998  1
  Se  Se26  1  0.750000  0.455410  0.672851  1
  Se  Se27  1  0.250000  0.546055  0.326723  1
  Se  Se28  1  0.750000  0.127213  0.684672  1
  Se  Se29  1  0.250000  0.872739  0.315247  1
  Se  Se30  1  0.250000  0.627477  0.815689  1
  Se  Se31  1  0.750000  0.372485  0.184602  1
  Se  Se32  1  0.750000  0.695497  0.197949  1
  Se  Se33  1  0.250000  0.304185  0.802202  1
  Se  Se34  1  0.250000  0.195731  0.301569  1
  Se  Se35  1  0.750000  0.803162  0.697814  1
