# generated using pymatgen
data_Er5InSnBi
_symmetry_space_group_name_H-M   'P 1'
_cell_length_a   8.96239201
_cell_length_b   8.95457190
_cell_length_c   6.52863100
_cell_angle_alpha   90.00000000
_cell_angle_beta   90.00000000
_cell_angle_gamma   119.97114706
_symmetry_Int_Tables_number   1
_chemical_formula_structural   Er5InSnBi
_chemical_formula_sum   'Er10 In2 Sn2 Bi2'
_cell_volume   453.88696706
_cell_formula_units_Z   2
loop_
 _symmetry_equiv_pos_site_id
 _symmetry_equiv_pos_as_xyz
  1  'x, y, z'
loop_
 _atom_site_type_symbol
 _atom_site_label
 _atom_site_symmetry_multiplicity
 _atom_site_fract_x
 _atom_site_fract_y
 _atom_site_fract_z
 _atom_site_occupancy
  Er  Er0  1  0.994178  0.758485  0.750000  1
  Er  Er1  1  0.994178  0.235693  0.250000  1
  Er  Er2  1  0.767088  0.764579  0.250000  1
  Er  Er3  1  0.767088  0.002509  0.750000  1
  Er  Er4  1  0.234023  0.242454  0.750000  1
  Er  Er5  1  0.234023  0.991568  0.250000  1
  Er  Er6  1  0.329942  0.664971  0.500000  1
  Er  Er7  1  0.676380  0.338189  0.000000  1
  Er  Er8  1  0.676380  0.338189  0.500000  1
  Er  Er9  1  0.329942  0.664971  0.000000  1
  In  In10  1  0.001207  0.603057  0.250000  1
  In  In11  1  0.001207  0.398150  0.750000  1
  Sn  Sn12  1  0.604123  0.606079  0.750000  1
  Sn  Sn13  1  0.604123  0.998044  0.250000  1
  Bi  Bi14  1  0.393059  0.002952  0.750000  1
  Bi  Bi15  1  0.393059  0.390107  0.250000  1
