# generated using pymatgen
data_Sc8Ti9Re2Si16Ir
_symmetry_space_group_name_H-M   'P 1'
_cell_length_a   6.79160723
_cell_length_b   6.79405405
_cell_length_c   12.44796297
_cell_angle_alpha   89.84281899
_cell_angle_beta   90.20933183
_cell_angle_gamma   89.77767831
_symmetry_Int_Tables_number   1
_chemical_formula_structural   Sc8Ti9Re2Si16Ir
_chemical_formula_sum   'Sc8 Ti9 Re2 Si16 Ir1'
_cell_volume   574.37037028
_cell_formula_units_Z   1
loop_
 _symmetry_equiv_pos_site_id
 _symmetry_equiv_pos_as_xyz
  1  'x, y, z'
loop_
 _atom_site_type_symbol
 _atom_site_label
 _atom_site_symmetry_multiplicity
 _atom_site_fract_x
 _atom_site_fract_y
 _atom_site_fract_z
 _atom_site_occupancy
  Sc  Sc0  1  0.998780  0.659450  0.029649  1
  Sc  Sc1  1  0.001752  0.339463  0.530042  1
  Sc  Sc2  1  0.339497  0.001443  0.471052  1
  Sc  Sc3  1  0.160687  0.499469  0.780787  1
  Sc  Sc4  1  0.841172  0.497760  0.281782  1
  Sc  Sc5  1  0.501034  0.160056  0.217992  1
  Sc  Sc6  1  0.498417  0.839849  0.719488  1
  Sc  Sc7  1  0.658381  0.000833  0.968829  1
  Ti  Ti8  1  0.172448  0.826650  0.250904  1
  Ti  Ti9  1  0.000437  0.851487  0.628729  1
  Ti  Ti10  1  0.001530  0.149305  0.125299  1
  Ti  Ti11  1  0.853189  0.002785  0.374300  1
  Ti  Ti12  1  0.346229  0.505930  0.375352  1
  Ti  Ti13  1  0.648545  0.496166  0.873629  1
  Ti  Ti14  1  0.503495  0.346285  0.625138  1
  Ti  Ti15  1  0.493180  0.649293  0.125696  1
  Ti  Ti16  1  0.150886  0.005303  0.872193  1
  Re  Re17  1  0.328508  0.326214  0.998012  1
  Re  Re18  1  0.827341  0.172443  0.749067  1
  Si  Si19  1  0.044468  0.706829  0.436014  1
  Si  Si20  1  0.632901  0.295848  0.429622  1
  Si  Si21  1  0.363665  0.703848  0.929466  1
  Si  Si22  1  0.204132  0.137519  0.678413  1
  Si  Si23  1  0.293571  0.633490  0.571834  1
  Si  Si24  1  0.702387  0.364560  0.069609  1
  Si  Si25  1  0.795028  0.860262  0.180908  1
  Si  Si26  1  0.140572  0.204921  0.319222  1
  Si  Si27  1  0.954256  0.296351  0.933695  1
  Si  Si28  1  0.706417  0.044805  0.564720  1
  Si  Si29  1  0.200673  0.452718  0.181866  1
  Si  Si30  1  0.797747  0.546028  0.682722  1
  Si  Si31  1  0.455812  0.201511  0.815923  1
  Si  Si32  1  0.549195  0.798170  0.319051  1
  Si  Si33  1  0.295543  0.955832  0.065653  1
  Si  Si34  1  0.862912  0.797037  0.821488  1
  Ir  Ir35  1  0.675215  0.670085  0.501851  1
