# generated using pymatgen
data_TmNi3As2
_symmetry_space_group_name_H-M   'P 1'
_cell_length_a   3.86393500
_cell_length_b   10.84485700
_cell_length_c   12.69639200
_cell_angle_alpha   90.00000000
_cell_angle_beta   90.00000000
_cell_angle_gamma   90.00000000
_symmetry_Int_Tables_number   1
_chemical_formula_structural   TmNi3As2
_chemical_formula_sum   'Tm6 Ni18 As12'
_cell_volume   532.02735717
_cell_formula_units_Z   6
loop_
 _symmetry_equiv_pos_site_id
 _symmetry_equiv_pos_as_xyz
  1  'x, y, z'
loop_
 _atom_site_type_symbol
 _atom_site_label
 _atom_site_symmetry_multiplicity
 _atom_site_fract_x
 _atom_site_fract_y
 _atom_site_fract_z
 _atom_site_occupancy
  Tm  Tm0  1  0.000000  0.500000  0.524253  1
  Tm  Tm1  1  0.500000  0.000000  0.475747  1
  Tm  Tm2  1  0.500000  0.817614  0.207014  1
  Tm  Tm3  1  0.500000  0.182386  0.207014  1
  Tm  Tm4  1  0.000000  0.682386  0.792986  1
  Tm  Tm5  1  0.000000  0.317614  0.792986  1
  Ni  Ni6  1  0.500000  0.500000  0.157831  1
  Ni  Ni7  1  0.000000  0.000000  0.842169  1
  Ni  Ni8  1  0.500000  0.500000  0.698757  1
  Ni  Ni9  1  0.000000  0.000000  0.301243  1
  Ni  Ni10  1  0.000000  0.500000  0.983015  1
  Ni  Ni11  1  0.500000  0.000000  0.016985  1
  Ni  Ni12  1  0.500000  0.333167  0.997269  1
  Ni  Ni13  1  0.500000  0.666833  0.997269  1
  Ni  Ni14  1  0.000000  0.166833  0.002731  1
  Ni  Ni15  1  0.000000  0.833167  0.002731  1
  Ni  Ni16  1  0.500000  0.303737  0.427212  1
  Ni  Ni17  1  0.500000  0.696263  0.427212  1
  Ni  Ni18  1  0.000000  0.196263  0.572788  1
  Ni  Ni19  1  0.000000  0.803737  0.572788  1
  Ni  Ni20  1  0.500000  0.878703  0.707158  1
  Ni  Ni21  1  0.500000  0.121297  0.707158  1
  Ni  Ni22  1  0.000000  0.621297  0.292842  1
  Ni  Ni23  1  0.000000  0.378703  0.292842  1
  As  As24  1  0.500000  0.500000  0.875876  1
  As  As25  1  0.000000  0.000000  0.124124  1
  As  As26  1  0.500000  0.500000  0.346933  1
  As  As27  1  0.000000  0.000000  0.653067  1
  As  As28  1  0.500000  0.315384  0.613826  1
  As  As29  1  0.500000  0.684616  0.613826  1
  As  As30  1  0.000000  0.184616  0.386174  1
  As  As31  1  0.000000  0.815384  0.386174  1
  As  As32  1  0.500000  0.846246  0.889469  1
  As  As33  1  0.500000  0.153754  0.889469  1
  As  As34  1  0.000000  0.653754  0.110531  1
  As  As35  1  0.000000  0.346246  0.110531  1
