# generated using pymatgen
data_Tb3As2S
_symmetry_space_group_name_H-M   'P 1'
_cell_length_a   7.05943750
_cell_length_b   7.05943729
_cell_length_c   7.05943709
_cell_angle_alpha   146.40744675
_cell_angle_beta   131.88136745
_cell_angle_gamma   59.96137869
_symmetry_Int_Tables_number   1
_chemical_formula_structural   Tb3As2S
_chemical_formula_sum   'Tb3 As2 S1'
_cell_volume   143.60158118
_cell_formula_units_Z   1
loop_
 _symmetry_equiv_pos_site_id
 _symmetry_equiv_pos_as_xyz
  1  'x, y, z'
loop_
 _atom_site_type_symbol
 _atom_site_label
 _atom_site_symmetry_multiplicity
 _atom_site_fract_x
 _atom_site_fract_y
 _atom_site_fract_z
 _atom_site_occupancy
  Tb  Tb0  1  0.500000  0.000000  0.500000  1
  Tb  Tb1  1  0.166646  0.666646  0.500000  1
  Tb  Tb2  1  0.833354  0.333354  0.500000  1
  As  As3  1  0.666604  0.666604  0.000000  1
  As  As4  1  0.333396  0.333396  0.000000  1
  S  S5  1  0.000000  0.000000  0.000000  1
