# generated using pymatgen
data_Yb12CuRu3
_symmetry_space_group_name_H-M   'P 1'
_cell_length_a   6.25818392
_cell_length_b   7.60869478
_cell_length_c   9.29665900
_cell_angle_alpha   90.00000000
_cell_angle_beta   90.00000000
_cell_angle_gamma   89.51687378
_symmetry_Int_Tables_number   1
_chemical_formula_structural   Yb12CuRu3
_chemical_formula_sum   'Yb12 Cu1 Ru3'
_cell_volume   442.65966152
_cell_formula_units_Z   1
loop_
 _symmetry_equiv_pos_site_id
 _symmetry_equiv_pos_as_xyz
  1  'x, y, z'
loop_
 _atom_site_type_symbol
 _atom_site_label
 _atom_site_symmetry_multiplicity
 _atom_site_fract_x
 _atom_site_fract_y
 _atom_site_fract_z
 _atom_site_occupancy
  Yb  Yb0  1  0.339553  0.667667  0.073262  1
  Yb  Yb1  1  0.157414  0.167653  0.430646  1
  Yb  Yb2  1  0.655610  0.324027  0.559928  1
  Yb  Yb3  1  0.850473  0.840156  0.940006  1
  Yb  Yb4  1  0.655610  0.324027  0.940072  1
  Yb  Yb5  1  0.850473  0.840156  0.559994  1
  Yb  Yb6  1  0.339553  0.667667  0.426738  1
  Yb  Yb7  1  0.157414  0.167653  0.069354  1
  Yb  Yb8  1  0.868485  0.537807  0.250000  1
  Yb  Yb9  1  0.628087  0.036482  0.250000  1
  Yb  Yb10  1  0.129157  0.452921  0.750000  1
  Yb  Yb11  1  0.363180  0.969573  0.750000  1
  Cu  Cu12  1  0.552921  0.623733  0.750000  1
  Ru  Ru13  1  0.046721  0.874878  0.250000  1
  Ru  Ru14  1  0.457204  0.379098  0.250000  1
  Ru  Ru15  1  0.948145  0.126502  0.750000  1
