# generated using pymatgen
data_LaCeGe4(PtAu)2
_symmetry_space_group_name_H-M   'P 1'
_cell_length_a   4.42755300
_cell_length_b   4.42755300
_cell_length_c   10.32131600
_cell_angle_alpha   90.00000000
_cell_angle_beta   90.00000000
_cell_angle_gamma   90.00000000
_symmetry_Int_Tables_number   1
_chemical_formula_structural   LaCeGe4(PtAu)2
_chemical_formula_sum   'La1 Ce1 Ge4 Pt2 Au2'
_cell_volume   202.33108570
_cell_formula_units_Z   1
loop_
 _symmetry_equiv_pos_site_id
 _symmetry_equiv_pos_as_xyz
  1  'x, y, z'
loop_
 _atom_site_type_symbol
 _atom_site_label
 _atom_site_symmetry_multiplicity
 _atom_site_fract_x
 _atom_site_fract_y
 _atom_site_fract_z
 _atom_site_occupancy
  La  La0  1  0.500000  0.000000  0.744823  1
  Ce  Ce1  1  0.000000  0.500000  0.256525  1
  Ge  Ge2  1  0.500000  0.500000  0.498083  1
  Ge  Ge3  1  0.000000  0.000000  0.498083  1
  Ge  Ge4  1  0.000000  0.500000  0.856250  1
  Ge  Ge5  1  0.500000  0.000000  0.143913  1
  Pt  Pt6  1  0.000000  0.500000  0.617501  1
  Pt  Pt7  1  0.500000  0.000000  0.380206  1
  Au  Au8  1  0.500000  0.500000  0.002308  1
  Au  Au9  1  0.000000  0.000000  0.002308  1
