# generated using pymatgen
data_Hf12Al4MoIr7
_symmetry_space_group_name_H-M   'P 1'
_cell_length_a   8.52936722
_cell_length_b   8.51853382
_cell_length_c   8.51853300
_cell_angle_alpha   59.99999930
_cell_angle_beta   60.04200595
_cell_angle_gamma   60.04201012
_symmetry_Int_Tables_number   1
_chemical_formula_structural   Hf12Al4MoIr7
_chemical_formula_sum   'Hf12 Al4 Mo1 Ir7'
_cell_volume   437.93226039
_cell_formula_units_Z   1
loop_
 _symmetry_equiv_pos_site_id
 _symmetry_equiv_pos_as_xyz
  1  'x, y, z'
loop_
 _atom_site_type_symbol
 _atom_site_label
 _atom_site_symmetry_multiplicity
 _atom_site_fract_x
 _atom_site_fract_y
 _atom_site_fract_z
 _atom_site_occupancy
  Hf  Hf0  1  0.808027  0.804637  0.193668  1
  Hf  Hf1  1  0.194650  0.195440  0.804955  1
  Hf  Hf2  1  0.808027  0.193668  0.804637  1
  Hf  Hf3  1  0.194650  0.804955  0.195440  1
  Hf  Hf4  1  0.194650  0.804955  0.804955  1
  Hf  Hf5  1  0.808027  0.193668  0.193668  1
  Hf  Hf6  1  0.444021  0.444021  0.055979  1
  Hf  Hf7  1  0.050704  0.060902  0.444197  1
  Hf  Hf8  1  0.444021  0.055979  0.444021  1
  Hf  Hf9  1  0.050704  0.444197  0.060902  1
  Hf  Hf10  1  0.050704  0.444197  0.444197  1
  Hf  Hf11  1  0.444021  0.055979  0.055979  1
  Al  Al12  1  0.127779  0.624074  0.624074  1
  Al  Al13  1  0.626512  0.118612  0.627438  1
  Al  Al14  1  0.626512  0.627438  0.118612  1
  Al  Al15  1  0.626512  0.627438  0.627438  1
  Mo  Mo16  1  0.749834  0.416722  0.416722  1
  Ir  Ir17  1  0.413799  0.766888  0.409656  1
  Ir  Ir18  1  0.413799  0.409656  0.766888  1
  Ir  Ir19  1  0.413799  0.409656  0.409656  1
  Ir  Ir20  1  0.482729  0.839091  0.839091  1
  Ir  Ir21  1  0.842174  0.483580  0.837124  1
  Ir  Ir22  1  0.842174  0.837124  0.483580  1
  Ir  Ir23  1  0.842174  0.837124  0.837124  1
