# generated using pymatgen
data_Ho4Sc8In2ReNi2
_symmetry_space_group_name_H-M   'P 1'
_cell_length_a   8.00338515
_cell_length_b   8.00338507
_cell_length_c   8.00338521
_cell_angle_alpha   109.22457539
_cell_angle_beta   109.22457580
_cell_angle_gamma   109.96564656
_symmetry_Int_Tables_number   1
_chemical_formula_structural   Ho4Sc8In2ReNi2
_chemical_formula_sum   'Ho4 Sc8 In2 Re1 Ni2'
_cell_volume   394.61625527
_cell_formula_units_Z   1
loop_
 _symmetry_equiv_pos_site_id
 _symmetry_equiv_pos_as_xyz
  1  'x, y, z'
loop_
 _atom_site_type_symbol
 _atom_site_label
 _atom_site_symmetry_multiplicity
 _atom_site_fract_x
 _atom_site_fract_y
 _atom_site_fract_z
 _atom_site_occupancy
  Ho  Ho0  1  0.305152  0.305152  0.610305  1
  Ho  Ho1  1  0.694848  0.694848  0.389695  1
  Ho  Ho2  1  0.305152  0.694848  0.000000  1
  Ho  Ho3  1  0.694848  0.305152  0.000000  1
  Sc  Sc4  1  0.426920  0.187827  0.239093  1
  Sc  Sc5  1  0.573080  0.812173  0.760907  1
  Sc  Sc6  1  0.948735  0.187827  0.760907  1
  Sc  Sc7  1  0.187827  0.948735  0.760907  1
  Sc  Sc8  1  0.051265  0.812173  0.239093  1
  Sc  Sc9  1  0.812173  0.051265  0.239093  1
  Sc  Sc10  1  0.187827  0.426920  0.239093  1
  Sc  Sc11  1  0.812173  0.573080  0.760907  1
  In  In12  1  0.500000  0.000000  0.500000  1
  In  In13  1  0.000000  0.500000  0.500000  1
  Re  Re14  1  0.000000  0.000000  0.000000  1
  Ni  Ni15  1  0.353722  0.353722  0.000000  1
  Ni  Ni16  1  0.646278  0.646278  0.000000  1
