# generated using pymatgen
data_LaTm2Th(Al3Rh)6
_symmetry_space_group_name_H-M   'P 1'
_cell_length_a   7.60278407
_cell_length_b   7.60764137
_cell_length_c   9.50779000
_cell_angle_alpha   90.00000000
_cell_angle_beta   90.00000000
_cell_angle_gamma   119.25307188
_symmetry_Int_Tables_number   1
_chemical_formula_structural   LaTm2Th(Al3Rh)6
_chemical_formula_sum   'La1 Tm2 Th1 Al18 Rh6'
_cell_volume   479.79163913
_cell_formula_units_Z   1
loop_
 _symmetry_equiv_pos_site_id
 _symmetry_equiv_pos_as_xyz
  1  'x, y, z'
loop_
 _atom_site_type_symbol
 _atom_site_label
 _atom_site_symmetry_multiplicity
 _atom_site_fract_x
 _atom_site_fract_y
 _atom_site_fract_z
 _atom_site_occupancy
  La  La0  1  0.671589  0.993604  0.250000  1
  Tm  Tm1  1  0.003664  0.326530  0.750000  1
  Tm  Tm2  1  0.326987  0.004442  0.750000  1
  Th  Th3  1  0.994525  0.671665  0.250000  1
  Al  Al4  1  0.135905  0.134499  0.250000  1
  Al  Al5  1  0.874408  0.874960  0.750000  1
  Al  Al6  1  0.004673  0.334374  0.068651  1
  Al  Al7  1  0.000667  0.663701  0.916266  1
  Al  Al8  1  0.000667  0.663701  0.583734  1
  Al  Al9  1  0.337184  0.005778  0.431398  1
  Al  Al10  1  0.004673  0.334374  0.431349  1
  Al  Al11  1  0.663667  0.000983  0.582461  1
  Al  Al12  1  0.663667  0.000983  0.917539  1
  Al  Al13  1  0.337184  0.005778  0.068602  1
  Al  Al14  1  0.331366  0.331416  0.558683  1
  Al  Al15  1  0.663533  0.664409  0.463755  1
  Al  Al16  1  0.663533  0.664409  0.036245  1
  Al  Al17  1  0.331366  0.331416  0.941317  1
  Al  Al18  1  0.338795  0.544511  0.250000  1
  Al  Al19  1  0.658488  0.446445  0.750000  1
  Al  Al20  1  0.545406  0.341494  0.250000  1
  Al  Al21  1  0.445710  0.659296  0.750000  1
  Rh  Rh22  1  0.672984  0.329433  0.998180  1
  Rh  Rh23  1  0.325952  0.671008  0.998248  1
  Rh  Rh24  1  0.325952  0.671008  0.501752  1
  Rh  Rh25  1  0.672984  0.329433  0.501820  1
  Rh  Rh26  1  0.002236  0.000178  0.997806  1
  Rh  Rh27  1  0.002236  0.000178  0.502194  1
