# generated using pymatgen
data_Tm5OsWC7
_symmetry_space_group_name_H-M   'P 1'
_cell_length_a   8.19864925
_cell_length_b   8.19864853
_cell_length_c   3.41761200
_cell_angle_alpha   90.00000000
_cell_angle_beta   90.00000000
_cell_angle_gamma   121.80960758
_symmetry_Int_Tables_number   1
_chemical_formula_structural   Tm5OsWC7
_chemical_formula_sum   'Tm5 Os1 W1 C7'
_cell_volume   195.22087989
_cell_formula_units_Z   1
loop_
 _symmetry_equiv_pos_site_id
 _symmetry_equiv_pos_as_xyz
  1  'x, y, z'
loop_
 _atom_site_type_symbol
 _atom_site_label
 _atom_site_symmetry_multiplicity
 _atom_site_fract_x
 _atom_site_fract_y
 _atom_site_fract_z
 _atom_site_occupancy
  Tm  Tm0  1  0.334824  0.075433  0.500000  1
  Tm  Tm1  1  0.661790  0.920379  0.500000  1
  Tm  Tm2  1  0.079621  0.338210  0.500000  1
  Tm  Tm3  1  0.924567  0.665176  0.500000  1
  Tm  Tm4  1  0.498078  0.501922  0.000000  1
  Os  Os5  1  0.288263  0.711737  0.000000  1
  W  W6  1  0.714484  0.285516  0.000000  1
  C  C7  1  0.171176  0.169647  0.000000  1
  C  C8  1  0.830353  0.828824  0.000000  1
  C  C9  1  0.000414  0.999586  0.000000  1
  C  C10  1  0.370961  0.629039  0.500000  1
  C  C11  1  0.622407  0.377593  0.500000  1
  C  C12  1  0.501685  0.998621  0.000000  1
  C  C13  1  0.001379  0.498315  0.000000  1
