# generated using pymatgen
data_MgNi11(BO5)4
_symmetry_space_group_name_H-M   'P 1'
_cell_length_a   3.01171700
_cell_length_b   9.12603002
_cell_length_c   12.35310000
_cell_angle_alpha   90.00427604
_cell_angle_beta   90.00000000
_cell_angle_gamma   90.00000000
_symmetry_Int_Tables_number   1
_chemical_formula_structural   MgNi11(BO5)4
_chemical_formula_sum   'Mg1 Ni11 B4 O20'
_cell_volume   339.52519655
_cell_formula_units_Z   1
loop_
 _symmetry_equiv_pos_site_id
 _symmetry_equiv_pos_as_xyz
  1  'x, y, z'
loop_
 _atom_site_type_symbol
 _atom_site_label
 _atom_site_symmetry_multiplicity
 _atom_site_fract_x
 _atom_site_fract_y
 _atom_site_fract_z
 _atom_site_occupancy
  Mg  Mg0  1  0.500000  0.000000  0.500000  1
  Ni  Ni1  1  0.500000  0.500000  0.000000  1
  Ni  Ni2  1  0.000000  0.240230  0.385581  1
  Ni  Ni3  1  0.000000  0.759770  0.614419  1
  Ni  Ni4  1  0.000000  0.259769  0.885905  1
  Ni  Ni5  1  0.000000  0.740231  0.114095  1
  Ni  Ni6  1  0.000000  0.000000  0.000000  1
  Ni  Ni7  1  0.000000  0.500000  0.500000  1
  Ni  Ni8  1  0.500000  0.999710  0.218915  1
  Ni  Ni9  1  0.500000  0.000290  0.781085  1
  Ni  Ni10  1  0.500000  0.500724  0.719505  1
  Ni  Ni11  1  0.500000  0.499276  0.280495  1
  B  B12  1  0.000000  0.275950  0.138632  1
  B  B13  1  0.000000  0.724050  0.861368  1
  B  B14  1  0.000000  0.224251  0.638563  1
  B  B15  1  0.000000  0.775749  0.361437  1
  O  O16  1  0.000000  0.351363  0.041511  1
  O  O17  1  0.000000  0.648637  0.958489  1
  O  O18  1  0.000000  0.146851  0.542924  1
  O  O19  1  0.000000  0.853149  0.457076  1
  O  O20  1  0.500000  0.109559  0.354231  1
  O  O21  1  0.500000  0.890441  0.645769  1
  O  O22  1  0.500000  0.391470  0.856557  1
  O  O23  1  0.500000  0.608530  0.143443  1
  O  O24  1  0.000000  0.351962  0.235773  1
  O  O25  1  0.000000  0.648038  0.764227  1
  O  O26  1  0.000000  0.148693  0.736646  1
  O  O27  1  0.000000  0.851307  0.263354  1
  O  O28  1  0.500000  0.384218  0.421030  1
  O  O29  1  0.500000  0.615782  0.578970  1
  O  O30  1  0.500000  0.115190  0.921195  1
  O  O31  1  0.500000  0.884810  0.078805  1
  O  O32  1  0.000000  0.123610  0.140104  1
  O  O33  1  0.000000  0.876390  0.859896  1
  O  O34  1  0.000000  0.376539  0.640509  1
  O  O35  1  0.000000  0.623461  0.359491  1
