# generated using pymatgen
data_Ho4Tc5Ru3
_symmetry_space_group_name_H-M   'P 1'
_cell_length_a   5.28528566
_cell_length_b   5.18105904
_cell_length_c   9.14772200
_cell_angle_alpha   90.00000000
_cell_angle_beta   90.00000000
_cell_angle_gamma   118.99575906
_symmetry_Int_Tables_number   1
_chemical_formula_structural   Ho4Tc5Ru3
_chemical_formula_sum   'Ho4 Tc5 Ru3'
_cell_volume   219.09730731
_cell_formula_units_Z   1
loop_
 _symmetry_equiv_pos_site_id
 _symmetry_equiv_pos_as_xyz
  1  'x, y, z'
loop_
 _atom_site_type_symbol
 _atom_site_label
 _atom_site_symmetry_multiplicity
 _atom_site_fract_x
 _atom_site_fract_y
 _atom_site_fract_z
 _atom_site_occupancy
  Ho  Ho0  1  0.669074  0.334516  0.563592  1
  Ho  Ho1  1  0.329479  0.664917  0.434786  1
  Ho  Ho2  1  0.329479  0.664917  0.065214  1
  Ho  Ho3  1  0.669074  0.334516  0.936408  1
  Tc  Tc4  1  0.171916  0.343584  0.750000  1
  Tc  Tc5  1  0.170929  0.829117  0.750000  1
  Tc  Tc6  1  0.656694  0.827649  0.750000  1
  Tc  Tc7  1  0.834513  0.660618  0.250000  1
  Tc  Tc8  1  0.835085  0.174516  0.250000  1
  Ru  Ru9  1  0.992065  0.995602  0.498586  1
  Ru  Ru10  1  0.992065  0.995602  0.001414  1
  Ru  Ru11  1  0.349626  0.174446  0.250000  1
