# generated using pymatgen
data_Ti4ZnCo8Si3
_symmetry_space_group_name_H-M   'P 1'
_cell_length_a   5.80276400
_cell_length_b   4.06339500
_cell_length_c   8.12834400
_cell_angle_alpha   90.00000000
_cell_angle_beta   90.00042587
_cell_angle_gamma   90.00000000
_symmetry_Int_Tables_number   1
_chemical_formula_structural   Ti4ZnCo8Si3
_chemical_formula_sum   'Ti4 Zn1 Co8 Si3'
_cell_volume   191.65759098
_cell_formula_units_Z   1
loop_
 _symmetry_equiv_pos_site_id
 _symmetry_equiv_pos_as_xyz
  1  'x, y, z'
loop_
 _atom_site_type_symbol
 _atom_site_label
 _atom_site_symmetry_multiplicity
 _atom_site_fract_x
 _atom_site_fract_y
 _atom_site_fract_z
 _atom_site_occupancy
  Ti  Ti0  1  0.750034  0.249999  0.121584  1
  Ti  Ti1  1  0.249956  0.749999  0.375007  1
  Ti  Ti2  1  0.750025  0.249999  0.628402  1
  Ti  Ti3  1  0.249994  0.749999  0.875014  1
  Zn  Zn4  1  0.750031  0.749999  0.875001  1
  Co  Co5  1  0.004395  0.749999  0.131644  1
  Co  Co6  1  0.495610  0.749999  0.131678  1
  Co  Co7  1  0.998550  0.249999  0.374990  1
  Co  Co8  1  0.501408  0.249999  0.374996  1
  Co  Co9  1  0.495592  0.749999  0.618335  1
  Co  Co10  1  0.004400  0.749999  0.618365  1
  Co  Co11  1  0.488733  0.249999  0.874985  1
  Co  Co12  1  0.011306  0.249999  0.874991  1
  Si  Si13  1  0.249996  0.249999  0.125409  1
  Si  Si14  1  0.749981  0.749999  0.375019  1
  Si  Si15  1  0.249986  0.249999  0.624581  1
