# generated using pymatgen
data_Er12InFe3CoCu
_symmetry_space_group_name_H-M   'P 1'
_cell_length_a   8.24414994
_cell_length_b   8.24414932
_cell_length_c   8.24414941
_cell_angle_alpha   110.85557431
_cell_angle_beta   110.71383192
_cell_angle_gamma   106.87506321
_symmetry_Int_Tables_number   1
_chemical_formula_structural   Er12InFe3CoCu
_chemical_formula_sum   'Er12 In1 Fe3 Co1 Cu1'
_cell_volume   430.67491509
_cell_formula_units_Z   1
loop_
 _symmetry_equiv_pos_site_id
 _symmetry_equiv_pos_as_xyz
  1  'x, y, z'
loop_
 _atom_site_type_symbol
 _atom_site_label
 _atom_site_symmetry_multiplicity
 _atom_site_fract_x
 _atom_site_fract_y
 _atom_site_fract_z
 _atom_site_occupancy
  Er  Er0  1  0.187323  0.289444  0.476766  1
  Er  Er1  1  0.812642  0.709364  0.522006  1
  Er  Er2  1  0.187323  0.710556  0.897879  1
  Er  Er3  1  0.812642  0.290636  0.103278  1
  Er  Er4  1  0.313131  0.615826  0.300152  1
  Er  Er5  1  0.684324  0.384174  0.697304  1
  Er  Er6  1  0.313131  0.012980  0.697304  1
  Er  Er7  1  0.684324  0.987020  0.300152  1
  Er  Er8  1  0.419400  0.217885  0.201514  1
  Er  Er9  1  0.580900  0.782579  0.798323  1
  Er  Er10  1  0.015744  0.217421  0.798323  1
  Er  Er11  1  0.983630  0.782115  0.201514  1
  In  In12  1  0.498542  0.500000  0.998542  1
  Fe  Fe13  1  0.108401  0.609178  0.499223  1
  Fe  Fe14  1  0.890045  0.390822  0.499223  1
  Fe  Fe15  1  0.385108  0.000000  0.385108  1
  Co  Co16  1  0.622649  0.000000  0.622649  1
  Cu  Cu17  1  0.000739  0.000000  0.000739  1
