# generated using pymatgen
data_Ta5TiAl16Ir7
_symmetry_space_group_name_H-M   'P 1'
_cell_length_a   8.57851286
_cell_length_b   8.58896233
_cell_length_c   8.58895932
_cell_angle_alpha   59.91985454
_cell_angle_beta   60.04017402
_cell_angle_gamma   60.04035361
_symmetry_Int_Tables_number   1
_chemical_formula_structural   Ta5TiAl16Ir7
_chemical_formula_sum   'Ta5 Ti1 Al16 Ir7'
_cell_volume   447.48473922
_cell_formula_units_Z   1
loop_
 _symmetry_equiv_pos_site_id
 _symmetry_equiv_pos_as_xyz
  1  'x, y, z'
loop_
 _atom_site_type_symbol
 _atom_site_label
 _atom_site_symmetry_multiplicity
 _atom_site_fract_x
 _atom_site_fract_y
 _atom_site_fract_z
 _atom_site_occupancy
  Ta  Ta0  1  0.678203  0.676187  0.321799  1
  Ta  Ta1  1  0.323811  0.676187  0.321799  1
  Ta  Ta2  1  0.674843  0.325158  0.325157  1
  Ta  Ta3  1  0.323813  0.321798  0.676187  1
  Ta  Ta4  1  0.678202  0.321798  0.676186  1
  Ti  Ti5  1  0.323242  0.676758  0.676758  1
  Al  Al6  1  0.880267  0.879746  0.359720  1
  Al  Al7  1  0.880267  0.359721  0.879746  1
  Al  Al8  1  0.357809  0.880409  0.880407  1
  Al  Al9  1  0.881375  0.880408  0.880408  1
  Al  Al10  1  0.119591  0.118622  0.642196  1
  Al  Al11  1  0.119592  0.642191  0.118625  1
  Al  Al12  1  0.640279  0.119734  0.119733  1
  Al  Al13  1  0.120254  0.119734  0.119733  1
  Al  Al14  1  0.663241  0.664661  0.008858  1
  Al  Al15  1  0.663240  0.008859  0.664661  1
  Al  Al16  1  0.015221  0.662468  0.662468  1
  Al  Al17  1  0.659843  0.662468  0.662468  1
  Al  Al18  1  0.337532  0.340157  0.984779  1
  Al  Al19  1  0.337531  0.984780  0.340157  1
  Al  Al20  1  0.991143  0.336759  0.336759  1
  Al  Al21  1  0.335339  0.336759  0.336759  1
  Ir  Ir22  1  0.998864  0.001136  0.001135  1
  Ir  Ir23  1  0.998373  0.001627  0.499698  1
  Ir  Ir24  1  0.500302  0.001627  0.499698  1
  Ir  Ir25  1  0.999574  0.500426  0.500425  1
  Ir  Ir26  1  0.500301  0.499699  0.001627  1
  Ir  Ir27  1  0.998373  0.499699  0.001627  1
  Ir  Ir28  1  0.499575  0.000425  0.000425  1
