# generated using pymatgen
data_LaNd3Mn4F28
_symmetry_space_group_name_H-M   'P 1'
_cell_length_a   5.60185103
_cell_length_b   9.05615434
_cell_length_c   12.09584175
_cell_angle_alpha   61.85496511
_cell_angle_beta   90.00871615
_cell_angle_gamma   90.01218686
_symmetry_Int_Tables_number   1
_chemical_formula_structural   LaNd3Mn4F28
_chemical_formula_sum   'La1 Nd3 Mn4 F28'
_cell_volume   541.07823550
_cell_formula_units_Z   1
loop_
 _symmetry_equiv_pos_site_id
 _symmetry_equiv_pos_as_xyz
  1  'x, y, z'
loop_
 _atom_site_type_symbol
 _atom_site_label
 _atom_site_symmetry_multiplicity
 _atom_site_fract_x
 _atom_site_fract_y
 _atom_site_fract_z
 _atom_site_occupancy
  La  La0  1  0.739896  0.809414  0.764769  1
  Nd  Nd1  1  0.760374  0.808768  0.264614  1
  Nd  Nd2  1  0.260617  0.191674  0.235511  1
  Nd  Nd3  1  0.239586  0.194104  0.735121  1
  Mn  Mn4  1  0.243577  0.725095  0.541423  1
  Mn  Mn5  1  0.743177  0.272806  0.957840  1
  Mn  Mn6  1  0.757374  0.276515  0.455613  1
  Mn  Mn7  1  0.257187  0.724680  0.045288  1
  F  F8  1  0.969284  0.714098  0.459870  1
  F  F9  1  0.470478  0.284641  0.040007  1
  F  F10  1  0.029643  0.286232  0.539142  1
  F  F11  1  0.530037  0.712580  0.964295  1
  F  F12  1  0.069563  0.706830  0.927415  1
  F  F13  1  0.566129  0.291929  0.573735  1
  F  F14  1  0.934156  0.290786  0.074706  1
  F  F15  1  0.433384  0.708139  0.423687  1
  F  F16  1  0.736027  0.502654  0.864258  1
  F  F17  1  0.236309  0.494229  0.635152  1
  F  F18  1  0.263134  0.493723  0.138302  1
  F  F19  1  0.764110  0.506772  0.362916  1
  F  F20  1  0.739246  0.043250  0.047292  1
  F  F21  1  0.239396  0.954899  0.452608  1
  F  F22  1  0.260898  0.954333  0.953950  1
  F  F23  1  0.760842  0.047071  0.544184  1
  F  F24  1  0.057900  0.738454  0.662778  1
  F  F25  1  0.553818  0.258615  0.836957  1
  F  F26  1  0.946947  0.261532  0.335445  1
  F  F27  1  0.444947  0.739966  0.165632  1
  F  F28  1  0.011221  0.268702  0.870292  1
  F  F29  1  0.511566  0.729439  0.627627  1
  F  F30  1  0.988153  0.730472  0.131187  1
  F  F31  1  0.489790  0.270671  0.368602  1
  F  F32  1  0.096517  0.968397  0.227775  1
  F  F33  1  0.596593  0.032443  0.272382  1
  F  F34  1  0.901397  0.036760  0.772738  1
  F  F35  1  0.396728  0.969327  0.726886  1
