# generated using pymatgen
data_Y3Tm17CdIn5Ru2
_symmetry_space_group_name_H-M   'P 1'
_cell_length_a   9.64065643
_cell_length_b   9.70328936
_cell_length_c   9.56035500
_cell_angle_alpha   90.00000000
_cell_angle_beta   90.00000000
_cell_angle_gamma   120.21514879
_symmetry_Int_Tables_number   1
_chemical_formula_structural   Y3Tm17CdIn5Ru2
_chemical_formula_sum   'Y3 Tm17 Cd1 In5 Ru2'
_cell_volume   772.83113185
_cell_formula_units_Z   1
loop_
 _symmetry_equiv_pos_site_id
 _symmetry_equiv_pos_as_xyz
  1  'x, y, z'
loop_
 _atom_site_type_symbol
 _atom_site_label
 _atom_site_symmetry_multiplicity
 _atom_site_fract_x
 _atom_site_fract_y
 _atom_site_fract_z
 _atom_site_occupancy
  Y  Y0  1  0.462833  0.541176  0.750000  1
  Y  Y1  1  0.462833  0.921656  0.750000  1
  Y  Y2  1  0.080226  0.540112  0.750000  1
  Tm  Tm3  1  0.996178  0.998089  0.501947  1
  Tm  Tm4  1  0.996178  0.998089  0.998053  1
  Tm  Tm5  1  0.210900  0.790134  0.439308  1
  Tm  Tm6  1  0.210900  0.420767  0.439308  1
  Tm  Tm7  1  0.578834  0.789418  0.437290  1
  Tm  Tm8  1  0.789407  0.212029  0.558728  1
  Tm  Tm9  1  0.789407  0.577377  0.558728  1
  Tm  Tm10  1  0.421089  0.210544  0.560411  1
  Tm  Tm11  1  0.789407  0.212029  0.941272  1
  Tm  Tm12  1  0.789407  0.577377  0.941272  1
  Tm  Tm13  1  0.421089  0.210544  0.939589  1
  Tm  Tm14  1  0.210900  0.790134  0.060692  1
  Tm  Tm15  1  0.210900  0.420767  0.060692  1
  Tm  Tm16  1  0.578834  0.789418  0.062710  1
  Tm  Tm17  1  0.541063  0.460145  0.250000  1
  Tm  Tm18  1  0.541063  0.080918  0.250000  1
  Tm  Tm19  1  0.923072  0.461536  0.250000  1
  Cd  Cd20  1  0.767955  0.883978  0.750000  1
  In  In21  1  0.884375  0.118234  0.250000  1
  In  In22  1  0.884375  0.766141  0.250000  1
  In  In23  1  0.231160  0.115581  0.250000  1
  In  In24  1  0.114848  0.882195  0.750000  1
  In  In25  1  0.114848  0.232652  0.750000  1
  Ru  Ru26  1  0.330360  0.665181  0.250000  1
  Ru  Ru27  1  0.667561  0.333780  0.750000  1
