# generated using pymatgen
data_YHo5Si5SnRh12
_symmetry_space_group_name_H-M   'P 1'
_cell_length_a   5.60563300
_cell_length_b   5.60563225
_cell_length_c   15.29458300
_cell_angle_alpha   90.00000000
_cell_angle_beta   90.00000000
_cell_angle_gamma   119.99999855
_symmetry_Int_Tables_number   1
_chemical_formula_structural   YHo5Si5SnRh12
_chemical_formula_sum   'Y1 Ho5 Si5 Sn1 Rh12'
_cell_volume   416.21482254
_cell_formula_units_Z   1
loop_
 _symmetry_equiv_pos_site_id
 _symmetry_equiv_pos_as_xyz
  1  'x, y, z'
loop_
 _atom_site_type_symbol
 _atom_site_label
 _atom_site_symmetry_multiplicity
 _atom_site_fract_x
 _atom_site_fract_y
 _atom_site_fract_z
 _atom_site_occupancy
  Y  Y0  1  0.333333  0.666667  0.247746  1
  Ho  Ho1  1  0.666667  0.333333  0.963772  1
  Ho  Ho2  1  0.666667  0.333333  0.539057  1
  Ho  Ho3  1  0.333333  0.666667  0.036201  1
  Ho  Ho4  1  0.666667  0.333333  0.752171  1
  Ho  Ho5  1  0.333333  0.666667  0.461027  1
  Si  Si6  1  0.666667  0.333333  0.243866  1
  Si  Si7  1  0.000000  0.000000  0.245603  1
  Si  Si8  1  0.000000  0.000000  0.754383  1
  Si  Si9  1  0.333333  0.666667  0.756102  1
  Si  Si10  1  0.000000  0.000000  0.000040  1
  Sn  Sn11  1  0.000000  0.000000  0.500036  1
  Rh  Rh12  1  0.166128  0.332257  0.872082  1
  Rh  Rh13  1  0.168869  0.337738  0.640288  1
  Rh  Rh14  1  0.667743  0.833872  0.872082  1
  Rh  Rh15  1  0.337838  0.168920  0.359915  1
  Rh  Rh16  1  0.831080  0.662162  0.359915  1
  Rh  Rh17  1  0.831080  0.168920  0.359915  1
  Rh  Rh18  1  0.833832  0.166168  0.127715  1
  Rh  Rh19  1  0.332335  0.166168  0.127715  1
  Rh  Rh20  1  0.662262  0.831131  0.640288  1
  Rh  Rh21  1  0.168869  0.831131  0.640288  1
  Rh  Rh22  1  0.833832  0.667665  0.127715  1
  Rh  Rh23  1  0.166128  0.833872  0.872082  1
