# generated using pymatgen
data_Ca2TbY(ReB4)4
_symmetry_space_group_name_H-M   'P 1'
_cell_length_a   3.60919600
_cell_length_b   5.99956400
_cell_length_c   11.60733254
_cell_angle_alpha   90.01871158
_cell_angle_beta   90.00000000
_cell_angle_gamma   90.00000000
_symmetry_Int_Tables_number   1
_chemical_formula_structural   Ca2TbY(ReB4)4
_chemical_formula_sum   'Ca2 Tb1 Y1 Re4 B16'
_cell_volume   251.34055032
_cell_formula_units_Z   1
loop_
 _symmetry_equiv_pos_site_id
 _symmetry_equiv_pos_as_xyz
  1  'x, y, z'
loop_
 _atom_site_type_symbol
 _atom_site_label
 _atom_site_symmetry_multiplicity
 _atom_site_fract_x
 _atom_site_fract_y
 _atom_site_fract_z
 _atom_site_occupancy
  Ca  Ca0  1  0.000000  0.373261  0.650166  1
  Ca  Ca1  1  0.000000  0.127027  0.150533  1
  Tb  Tb2  1  0.000000  0.872701  0.849482  1
  Y  Y3  1  0.000000  0.627181  0.349596  1
  Re  Re4  1  0.000000  0.631525  0.084597  1
  Re  Re5  1  0.000000  0.369263  0.915152  1
  Re  Re6  1  0.000000  0.130819  0.415104  1
  Re  Re7  1  0.000000  0.868481  0.584378  1
  B  B8  1  0.500000  0.784890  0.184702  1
  B  B9  1  0.500000  0.214910  0.815578  1
  B  B10  1  0.500000  0.285203  0.315618  1
  B  B11  1  0.500000  0.715309  0.684531  1
  B  B12  1  0.500000  0.863567  0.031957  1
  B  B13  1  0.500000  0.136506  0.968068  1
  B  B14  1  0.500000  0.363506  0.468101  1
  B  B15  1  0.500000  0.636228  0.531810  1
  B  B16  1  0.500000  0.887173  0.452967  1
  B  B17  1  0.500000  0.114475  0.547513  1
  B  B18  1  0.500000  0.385404  0.047665  1
  B  B19  1  0.500000  0.612556  0.953090  1
  B  B20  1  0.500000  0.976738  0.307880  1
  B  B21  1  0.500000  0.022900  0.691690  1
  B  B22  1  0.500000  0.477191  0.191931  1
  B  B23  1  0.500000  0.523182  0.807890  1
