# generated using pymatgen
data_Tb3YbReOs7
_symmetry_space_group_name_H-M   'P 1'
_cell_length_a   5.30303337
_cell_length_b   5.30303398
_cell_length_c   8.83388541
_cell_angle_alpha   90.03010282
_cell_angle_beta   89.96989843
_cell_angle_gamma   118.70062899
_symmetry_Int_Tables_number   1
_chemical_formula_structural   Tb3YbReOs7
_chemical_formula_sum   'Tb3 Yb1 Re1 Os7'
_cell_volume   217.90631126
_cell_formula_units_Z   1
loop_
 _symmetry_equiv_pos_site_id
 _symmetry_equiv_pos_as_xyz
  1  'x, y, z'
loop_
 _atom_site_type_symbol
 _atom_site_label
 _atom_site_symmetry_multiplicity
 _atom_site_fract_x
 _atom_site_fract_y
 _atom_site_fract_z
 _atom_site_occupancy
  Tb  Tb0  1  0.664835  0.335165  0.560902  1
  Tb  Tb1  1  0.665084  0.334916  0.934664  1
  Tb  Tb2  1  0.330279  0.669721  0.068164  1
  Yb  Yb3  1  0.330478  0.669522  0.438163  1
  Re  Re4  1  0.834888  0.165112  0.250537  1
  Os  Os5  1  0.992210  0.007790  0.499720  1
  Os  Os6  1  0.990884  0.009116  0.998832  1
  Os  Os7  1  0.828285  0.650191  0.250037  1
  Os  Os8  1  0.349809  0.171715  0.250037  1
  Os  Os9  1  0.179279  0.820721  0.750788  1
  Os  Os10  1  0.172061  0.338089  0.749078  1
  Os  Os11  1  0.661911  0.827939  0.749078  1
