# generated using pymatgen
data_Ho3Si5P(Pd4Pt)4
_symmetry_space_group_name_H-M   'P 1'
_cell_length_a   8.70712663
_cell_length_b   8.72654954
_cell_length_c   8.72654986
_cell_angle_alpha   59.81516032
_cell_angle_beta   59.82430882
_cell_angle_gamma   59.82430283
_symmetry_Int_Tables_number   1
_chemical_formula_structural   Ho3Si5P(Pd4Pt)4
_chemical_formula_sum   'Ho3 Si5 P1 Pd16 Pt4'
_cell_volume   466.95973983
_cell_formula_units_Z   1
loop_
 _symmetry_equiv_pos_site_id
 _symmetry_equiv_pos_as_xyz
  1  'x, y, z'
loop_
 _atom_site_type_symbol
 _atom_site_label
 _atom_site_symmetry_multiplicity
 _atom_site_fract_x
 _atom_site_fract_y
 _atom_site_fract_z
 _atom_site_occupancy
  Ho  Ho0  1  0.250858  0.250703  0.250703  1
  Ho  Ho1  1  0.747531  0.750623  0.750623  1
  Ho  Ho2  1  0.000776  0.999185  0.999185  1
  Si  Si3  1  0.270215  0.730524  0.730524  1
  Si  Si4  1  0.267847  0.732029  0.268482  1
  Si  Si5  1  0.731011  0.269056  0.733248  1
  Si  Si6  1  0.267847  0.268482  0.732029  1
  Si  Si7  1  0.731011  0.733248  0.269056  1
  P  P8  1  0.732484  0.266029  0.266029  1
  Pd  Pd9  1  0.619816  0.614657  0.149660  1
  Pd  Pd10  1  0.619816  0.149660  0.614657  1
  Pd  Pd11  1  0.850587  0.381312  0.381312  1
  Pd  Pd12  1  0.145945  0.618194  0.618194  1
  Pd  Pd13  1  0.345542  0.999530  0.999530  1
  Pd  Pd14  1  0.655177  0.999624  0.999624  1
  Pd  Pd15  1  0.000396  0.345082  0.654649  1
  Pd  Pd16  1  0.000396  0.654649  0.345082  1
  Pd  Pd17  1  0.998074  0.345146  0.001600  1
  Pd  Pd18  1  0.655396  0.001356  0.345428  1
  Pd  Pd19  1  0.999409  0.655576  0.000382  1
  Pd  Pd20  1  0.344509  0.000042  0.656439  1
  Pd  Pd21  1  0.998074  0.001600  0.345146  1
  Pd  Pd22  1  0.999409  0.000382  0.655576  1
  Pd  Pd23  1  0.655396  0.345428  0.001356  1
  Pd  Pd24  1  0.344509  0.656439  0.000042  1
  Pt  Pt25  1  0.385583  0.384011  0.384011  1
  Pt  Pt26  1  0.618562  0.615265  0.615265  1
  Pt  Pt27  1  0.381911  0.382543  0.849625  1
  Pt  Pt28  1  0.381911  0.849625  0.382543  1
