# generated using pymatgen
data_Th10GaSn6Bi
_symmetry_space_group_name_H-M   'P 1'
_cell_length_a   9.66454055
_cell_length_b   9.66454002
_cell_length_c   6.58130705
_cell_angle_alpha   89.99330450
_cell_angle_beta   89.99330288
_cell_angle_gamma   120.11083834
_symmetry_Int_Tables_number   1
_chemical_formula_structural   Th10GaSn6Bi
_chemical_formula_sum   'Th10 Ga1 Sn6 Bi1'
_cell_volume   531.76412483
_cell_formula_units_Z   1
loop_
 _symmetry_equiv_pos_site_id
 _symmetry_equiv_pos_as_xyz
  1  'x, y, z'
loop_
 _atom_site_type_symbol
 _atom_site_label
 _atom_site_symmetry_multiplicity
 _atom_site_fract_x
 _atom_site_fract_y
 _atom_site_fract_z
 _atom_site_occupancy
  Th  Th0  1  0.003250  0.727669  0.757736  1
  Th  Th1  1  0.271797  0.271797  0.757914  1
  Th  Th2  1  0.330180  0.667915  0.498661  1
  Th  Th3  1  0.667915  0.330180  0.498661  1
  Th  Th4  1  0.727316  0.727316  0.242211  1
  Th  Th5  1  0.727669  0.003250  0.757736  1
  Th  Th6  1  0.000182  0.273788  0.242477  1
  Th  Th7  1  0.273788  0.000182  0.242477  1
  Th  Th8  1  0.330781  0.667700  0.001370  1
  Th  Th9  1  0.667700  0.330781  0.001370  1
  Ga  Ga10  1  0.999687  0.999687  0.000363  1
  Sn  Sn11  1  0.000807  0.381032  0.747729  1
  Sn  Sn12  1  0.381032  0.000807  0.747729  1
  Sn  Sn13  1  0.619641  0.999566  0.252305  1
  Sn  Sn14  1  0.380914  0.380914  0.252374  1
  Sn  Sn15  1  0.999566  0.619641  0.252305  1
  Sn  Sn16  1  0.999545  0.999545  0.499966  1
  Bi  Bi17  1  0.618231  0.618231  0.746616  1
