# generated using pymatgen
data_Y12CdCo4Pt
_symmetry_space_group_name_H-M   'P 1'
_cell_length_a   8.35708048
_cell_length_b   8.35708001
_cell_length_c   8.35708095
_cell_angle_alpha   107.20278905
_cell_angle_beta   110.29931657
_cell_angle_gamma   110.93576147
_symmetry_Int_Tables_number   1
_chemical_formula_structural   Y12CdCo4Pt
_chemical_formula_sum   'Y12 Cd1 Co4 Pt1'
_cell_volume   448.76557204
_cell_formula_units_Z   1
loop_
 _symmetry_equiv_pos_site_id
 _symmetry_equiv_pos_as_xyz
  1  'x, y, z'
loop_
 _atom_site_type_symbol
 _atom_site_label
 _atom_site_symmetry_multiplicity
 _atom_site_fract_x
 _atom_site_fract_y
 _atom_site_fract_z
 _atom_site_occupancy
  Y  Y0  1  0.698030  0.283088  0.981118  1
  Y  Y1  1  0.301970  0.716912  0.018882  1
  Y  Y2  1  0.698030  0.716912  0.414942  1
  Y  Y3  1  0.301970  0.283088  0.585058  1
  Y  Y4  1  0.803855  0.119898  0.316043  1
  Y  Y5  1  0.803855  0.487813  0.683957  1
  Y  Y6  1  0.196145  0.880102  0.683957  1
  Y  Y7  1  0.196145  0.512187  0.316043  1
  Y  Y8  1  0.605043  0.789511  0.815532  1
  Y  Y9  1  0.973979  0.789511  0.184468  1
  Y  Y10  1  0.026021  0.210489  0.815532  1
  Y  Y11  1  0.394957  0.210489  0.184468  1
  Cd  Cd12  1  0.500000  0.000000  0.500000  1
  Co  Co13  1  0.880476  0.500000  0.380476  1
  Co  Co14  1  0.119524  0.500000  0.619524  1
  Co  Co15  1  0.000000  0.111440  0.111440  1
  Co  Co16  1  0.000000  0.888560  0.888560  1
  Pt  Pt17  1  0.500000  0.500000  0.000000  1
