# generated using pymatgen
data_Dy2Ho2Ga3Os5
_symmetry_space_group_name_H-M   'P 1'
_cell_length_a   5.34795400
_cell_length_b   5.34795448
_cell_length_c   8.86504900
_cell_angle_alpha   90.00000000
_cell_angle_beta   90.00000000
_cell_angle_gamma   120.00000940
_symmetry_Int_Tables_number   1
_chemical_formula_structural   Dy2Ho2Ga3Os5
_chemical_formula_sum   'Dy2 Ho2 Ga3 Os5'
_cell_volume   219.57712588
_cell_formula_units_Z   1
loop_
 _symmetry_equiv_pos_site_id
 _symmetry_equiv_pos_as_xyz
  1  'x, y, z'
loop_
 _atom_site_type_symbol
 _atom_site_label
 _atom_site_symmetry_multiplicity
 _atom_site_fract_x
 _atom_site_fract_y
 _atom_site_fract_z
 _atom_site_occupancy
  Dy  Dy0  1  0.333333  0.666667  0.442087  1
  Dy  Dy1  1  0.666667  0.333333  0.564129  1
  Ho  Ho2  1  0.666667  0.333333  0.935592  1
  Ho  Ho3  1  0.333333  0.666667  0.057654  1
  Ga  Ga4  1  0.834200  0.165800  0.249565  1
  Ga  Ga5  1  0.834200  0.668400  0.249565  1
  Ga  Ga6  1  0.331600  0.165800  0.249565  1
  Os  Os7  1  0.000000  0.000000  0.502448  1
  Os  Os8  1  0.000000  0.000000  0.997706  1
  Os  Os9  1  0.170759  0.829241  0.750562  1
  Os  Os10  1  0.170759  0.341516  0.750562  1
  Os  Os11  1  0.658484  0.829241  0.750562  1
