# generated using pymatgen
data_Tb3Y12Ho(CdPt)4
_symmetry_space_group_name_H-M   'P 1'
_cell_length_a   9.72786863
_cell_length_b   9.72456547
_cell_length_c   9.72456500
_cell_angle_alpha   60.00000502
_cell_angle_beta   60.01123680
_cell_angle_gamma   60.01124079
_symmetry_Int_Tables_number   1
_chemical_formula_structural   Tb3Y12Ho(CdPt)4
_chemical_formula_sum   'Tb3 Y12 Ho1 Cd4 Pt4'
_cell_volume   650.60419408
_cell_formula_units_Z   1
loop_
 _symmetry_equiv_pos_site_id
 _symmetry_equiv_pos_as_xyz
  1  'x, y, z'
loop_
 _atom_site_type_symbol
 _atom_site_label
 _atom_site_symmetry_multiplicity
 _atom_site_fract_x
 _atom_site_fract_y
 _atom_site_fract_z
 _atom_site_occupancy
  Tb  Tb0  1  0.352356  0.352384  0.352384  1
  Tb  Tb1  1  0.352356  0.352384  0.942878  1
  Tb  Tb2  1  0.352356  0.942878  0.352384  1
  Y  Y3  1  0.810436  0.189684  0.189684  1
  Y  Y4  1  0.189543  0.810492  0.810492  1
  Y  Y5  1  0.189543  0.810492  0.189472  1
  Y  Y6  1  0.810436  0.189684  0.810195  1
  Y  Y7  1  0.189543  0.189472  0.810492  1
  Y  Y8  1  0.810436  0.810195  0.189684  1
  Y  Y9  1  0.935329  0.564588  0.564588  1
  Y  Y10  1  0.564666  0.935305  0.935305  1
  Y  Y11  1  0.564666  0.935305  0.564724  1
  Y  Y12  1  0.935329  0.564588  0.935494  1
  Y  Y13  1  0.564666  0.564724  0.935305  1
  Y  Y14  1  0.935329  0.935494  0.564588  1
  Ho  Ho15  1  0.943752  0.352083  0.352083  1
  Cd  Cd16  1  0.582461  0.581935  0.581935  1
  Cd  Cd17  1  0.582461  0.581935  0.253670  1
  Cd  Cd18  1  0.582461  0.253670  0.581935  1
  Cd  Cd19  1  0.253612  0.582130  0.582130  1
  Pt  Pt20  1  0.142966  0.144185  0.144185  1
  Pt  Pt21  1  0.142966  0.144185  0.568664  1
  Pt  Pt22  1  0.142966  0.568664  0.144185  1
  Pt  Pt23  1  0.569366  0.143545  0.143545  1
