# generated using pymatgen
data_SrLaCo6(Ni2P3)2
_symmetry_space_group_name_H-M   'P 1'
_cell_length_a   6.10202120
_cell_length_b   6.10202191
_cell_length_c   11.46040500
_cell_angle_alpha   90.00000000
_cell_angle_beta   90.00000000
_cell_angle_gamma   145.63143254
_symmetry_Int_Tables_number   1
_chemical_formula_structural   SrLaCo6(Ni2P3)2
_chemical_formula_sum   'Sr1 La1 Co6 Ni4 P6'
_cell_volume   240.89198892
_cell_formula_units_Z   1
loop_
 _symmetry_equiv_pos_site_id
 _symmetry_equiv_pos_as_xyz
  1  'x, y, z'
loop_
 _atom_site_type_symbol
 _atom_site_label
 _atom_site_symmetry_multiplicity
 _atom_site_fract_x
 _atom_site_fract_y
 _atom_site_fract_z
 _atom_site_occupancy
  Sr  Sr0  1  0.339831  0.660169  0.250000  1
  La  La1  1  0.662408  0.337592  0.750000  1
  Co  Co2  1  0.695500  0.304500  0.437056  1
  Co  Co3  1  0.302077  0.697923  0.569994  1
  Co  Co4  1  0.302077  0.697923  0.930006  1
  Co  Co5  1  0.695500  0.304500  0.062944  1
  Co  Co6  1  0.949721  0.050279  0.641579  1
  Co  Co7  1  0.949721  0.050279  0.858421  1
  Ni  Ni8  1  0.052962  0.947038  0.143340  1
  Ni  Ni9  1  0.052962  0.947038  0.356660  1
  Ni  Ni10  1  0.497003  0.502997  0.497794  1
  Ni  Ni11  1  0.497003  0.502997  0.002206  1
  P  P12  1  0.617674  0.382326  0.250000  1
  P  P13  1  0.392460  0.607540  0.750000  1
  P  P14  1  0.119404  0.880596  0.538712  1
  P  P15  1  0.877146  0.122854  0.465835  1
  P  P16  1  0.877146  0.122854  0.034165  1
  P  P17  1  0.119404  0.880596  0.961288  1
