# generated using pymatgen
data_Rb7Sb(SO4)6
_symmetry_space_group_name_H-M   'P 1'
_cell_length_a   9.72102046
_cell_length_b   9.72102027
_cell_length_c   9.72102099
_cell_angle_alpha   109.66818741
_cell_angle_beta   109.66818416
_cell_angle_gamma   109.66819539
_symmetry_Int_Tables_number   1
_chemical_formula_structural   Rb7Sb(SO4)6
_chemical_formula_sum   'Rb7 Sb1 S6 O24'
_cell_volume   701.94919303
_cell_formula_units_Z   1
loop_
 _symmetry_equiv_pos_site_id
 _symmetry_equiv_pos_as_xyz
  1  'x, y, z'
loop_
 _atom_site_type_symbol
 _atom_site_label
 _atom_site_symmetry_multiplicity
 _atom_site_fract_x
 _atom_site_fract_y
 _atom_site_fract_z
 _atom_site_occupancy
  Rb  Rb0  1  0.500000  0.500000  0.500000  1
  Rb  Rb1  1  0.836202  0.335023  0.679390  1
  Rb  Rb2  1  0.335023  0.679390  0.836202  1
  Rb  Rb3  1  0.679390  0.836202  0.335023  1
  Rb  Rb4  1  0.163798  0.664977  0.320610  1
  Rb  Rb5  1  0.664977  0.320610  0.163798  1
  Rb  Rb6  1  0.320610  0.163798  0.664977  1
  Sb  Sb7  1  0.000000  0.000000  0.000000  1
  S  S8  1  0.971690  0.756334  0.634513  1
  S  S9  1  0.756334  0.634513  0.971690  1
  S  S10  1  0.634513  0.971690  0.756334  1
  S  S11  1  0.028310  0.243666  0.365487  1
  S  S12  1  0.243666  0.365487  0.028310  1
  S  S13  1  0.365487  0.028310  0.243666  1
  O  O14  1  0.408569  0.905438  0.161993  1
  O  O15  1  0.905438  0.161993  0.408569  1
  O  O16  1  0.161993  0.408569  0.905438  1
  O  O17  1  0.591431  0.094562  0.838007  1
  O  O18  1  0.094562  0.838007  0.591431  1
  O  O19  1  0.838007  0.591431  0.094562  1
  O  O20  1  0.287606  0.983523  0.338875  1
  O  O21  1  0.983523  0.338875  0.287606  1
  O  O22  1  0.338875  0.287606  0.983523  1
  O  O23  1  0.712394  0.016477  0.661125  1
  O  O24  1  0.016477  0.661125  0.712394  1
  O  O25  1  0.661125  0.712394  0.016477  1
  O  O26  1  0.766426  0.972921  0.909272  1
  O  O27  1  0.972921  0.909272  0.766426  1
  O  O28  1  0.653511  0.488222  0.796808  1
  O  O29  1  0.796808  0.653511  0.488222  1
  O  O30  1  0.488222  0.796808  0.653511  1
  O  O31  1  0.346489  0.511778  0.203192  1
  O  O32  1  0.203192  0.346489  0.511778  1
  O  O33  1  0.511778  0.203192  0.346489  1
  O  O34  1  0.090728  0.233574  0.027079  1
  O  O35  1  0.027079  0.090728  0.233574  1
  O  O36  1  0.233574  0.027079  0.090728  1
  O  O37  1  0.909272  0.766426  0.972921  1
