# generated using pymatgen
data_V11Si4Ir
_symmetry_space_group_name_H-M   'P 1'
_cell_length_a   4.67303500
_cell_length_b   4.67636000
_cell_length_c   9.54378400
_cell_angle_alpha   90.00000000
_cell_angle_beta   90.00000000
_cell_angle_gamma   90.00000000
_symmetry_Int_Tables_number   1
_chemical_formula_structural   V11Si4Ir
_chemical_formula_sum   'V11 Si4 Ir1'
_cell_volume   208.55834528
_cell_formula_units_Z   1
loop_
 _symmetry_equiv_pos_site_id
 _symmetry_equiv_pos_as_xyz
  1  'x, y, z'
loop_
 _atom_site_type_symbol
 _atom_site_label
 _atom_site_symmetry_multiplicity
 _atom_site_fract_x
 _atom_site_fract_y
 _atom_site_fract_z
 _atom_site_occupancy
  V  V0  1  0.000000  0.500000  0.625061  1
  V  V1  1  0.500000  0.253263  0.751793  1
  V  V2  1  0.500000  0.247328  0.250266  1
  V  V3  1  0.746955  0.000000  0.999591  1
  V  V4  1  0.753036  0.000000  0.498416  1
  V  V5  1  0.000000  0.500000  0.868076  1
  V  V6  1  0.000000  0.500000  0.381963  1
  V  V7  1  0.500000  0.746737  0.751793  1
  V  V8  1  0.500000  0.752672  0.250266  1
  V  V9  1  0.253045  0.000000  0.999591  1
  V  V10  1  0.246964  0.000000  0.498416  1
  Si  Si11  1  0.500000  0.500000  0.994200  1
  Si  Si12  1  0.500000  0.500000  0.500028  1
  Si  Si13  1  0.000000  0.000000  0.749906  1
  Si  Si14  1  0.000000  0.000000  0.255715  1
  Ir  Ir15  1  0.000000  0.500000  0.124920  1
