# generated using pymatgen
data_Dy3Lu5CdHgIr2
_symmetry_space_group_name_H-M   'P 1'
_cell_length_a   9.49036226
_cell_length_b   9.49169809
_cell_length_c   9.50105500
_cell_angle_alpha   59.96738814
_cell_angle_beta   59.96272571
_cell_angle_gamma   59.95510759
_symmetry_Int_Tables_number   1
_chemical_formula_structural   Dy3Lu5CdHgIr2
_chemical_formula_sum   'Dy6 Lu10 Cd2 Hg2 Ir4'
_cell_volume   604.65347352
_cell_formula_units_Z   2
loop_
 _symmetry_equiv_pos_site_id
 _symmetry_equiv_pos_as_xyz
  1  'x, y, z'
loop_
 _atom_site_type_symbol
 _atom_site_label
 _atom_site_symmetry_multiplicity
 _atom_site_fract_x
 _atom_site_fract_y
 _atom_site_fract_z
 _atom_site_occupancy
  Dy  Dy0  1  0.189736  0.808999  0.810614  1
  Dy  Dy1  1  0.808758  0.189806  0.190713  1
  Dy  Dy2  1  0.808758  0.189806  0.810723  1
  Dy  Dy3  1  0.189736  0.808999  0.190651  1
  Dy  Dy4  1  0.809628  0.809688  0.190342  1
  Dy  Dy5  1  0.189525  0.189486  0.810495  1
  Lu  Lu6  1  0.599388  0.599732  0.597055  1
  Lu  Lu7  1  0.599388  0.599732  0.203824  1
  Lu  Lu8  1  0.600812  0.201044  0.599072  1
  Lu  Lu9  1  0.201344  0.600596  0.599030  1
  Lu  Lu10  1  0.061148  0.436473  0.440382  1
  Lu  Lu11  1  0.436426  0.061141  0.061984  1
  Lu  Lu12  1  0.436426  0.061141  0.440450  1
  Lu  Lu13  1  0.061148  0.436473  0.061996  1
  Lu  Lu14  1  0.437787  0.437885  0.062164  1
  Lu  Lu15  1  0.060258  0.060688  0.439527  1
  Cd  Cd16  1  0.830139  0.508904  0.830479  1
  Cd  Cd17  1  0.509153  0.830076  0.830386  1
  Hg  Hg18  1  0.833674  0.833242  0.834948  1
  Hg  Hg19  1  0.833674  0.833242  0.498136  1
  Ir  Ir20  1  0.393092  0.392320  0.390658  1
  Ir  Ir21  1  0.393092  0.392320  0.823930  1
  Ir  Ir22  1  0.391571  0.825941  0.391244  1
  Ir  Ir23  1  0.825338  0.392267  0.391197  1
