# generated using pymatgen
data_LiSm2As7Rh11
_symmetry_space_group_name_H-M   'P 1'
_cell_length_a   3.95791200
_cell_length_b   9.98629265
_cell_length_c   10.03941460
_cell_angle_alpha   120.16341381
_cell_angle_beta   90.00000000
_cell_angle_gamma   90.00000000
_symmetry_Int_Tables_number   1
_chemical_formula_structural   LiSm2As7Rh11
_chemical_formula_sum   'Li1 Sm2 As7 Rh11'
_cell_volume   343.07727264
_cell_formula_units_Z   1
loop_
 _symmetry_equiv_pos_site_id
 _symmetry_equiv_pos_as_xyz
  1  'x, y, z'
loop_
 _atom_site_type_symbol
 _atom_site_label
 _atom_site_symmetry_multiplicity
 _atom_site_fract_x
 _atom_site_fract_y
 _atom_site_fract_z
 _atom_site_occupancy
  Li  Li0  1  0.500000  0.111018  0.895017  1
  Sm  Sm1  1  0.500000  0.335358  0.666250  1
  Sm  Sm2  1  0.000000  0.660022  0.325957  1
  As  As3  1  0.500000  0.714249  0.594566  1
  As  As4  1  0.500000  0.397079  0.105101  1
  As  As5  1  0.500000  0.885961  0.291836  1
  As  As6  1  0.000000  0.994125  0.001815  1
  As  As7  1  0.000000  0.120837  0.708732  1
  As  As8  1  0.000000  0.290896  0.407987  1
  As  As9  1  0.000000  0.594350  0.882209  1
  Rh  Rh10  1  0.000000  0.882319  0.725255  1
  Rh  Rh11  1  0.000000  0.273251  0.158032  1
  Rh  Rh12  1  0.000000  0.842738  0.121007  1
  Rh  Rh13  1  0.500000  0.949547  0.563837  1
  Rh  Rh14  1  0.500000  0.447631  0.382106  1
  Rh  Rh15  1  0.500000  0.618916  0.058854  1
  Rh  Rh16  1  0.000000  0.378634  0.935814  1
  Rh  Rh17  1  0.000000  0.065753  0.441751  1
  Rh  Rh18  1  0.000000  0.559757  0.622442  1
  Rh  Rh19  1  0.500000  0.111255  0.249155  1
  Rh  Rh20  1  0.500000  0.766302  0.862279  1
