# generated using pymatgen
data_Tb5Y14Er(Cd3Ru)2
_symmetry_space_group_name_H-M   'P 1'
_cell_length_a   9.65112424
_cell_length_b   9.65385390
_cell_length_c   9.88186204
_cell_angle_alpha   90.00009384
_cell_angle_beta   90.01110824
_cell_angle_gamma   120.01094373
_symmetry_Int_Tables_number   1
_chemical_formula_structural   Tb5Y14Er(Cd3Ru)2
_chemical_formula_sum   'Tb5 Y14 Er1 Cd6 Ru2'
_cell_volume   797.26028871
_cell_formula_units_Z   1
loop_
 _symmetry_equiv_pos_site_id
 _symmetry_equiv_pos_as_xyz
  1  'x, y, z'
loop_
 _atom_site_type_symbol
 _atom_site_label
 _atom_site_symmetry_multiplicity
 _atom_site_fract_x
 _atom_site_fract_y
 _atom_site_fract_z
 _atom_site_occupancy
  Tb  Tb0  1  0.209986  0.790529  0.440007  1
  Tb  Tb1  1  0.209985  0.419460  0.440007  1
  Tb  Tb2  1  0.580345  0.790173  0.439881  1
  Tb  Tb3  1  0.789505  0.209903  0.560314  1
  Tb  Tb4  1  0.789500  0.579596  0.560311  1
  Y  Y5  1  0.000514  0.000257  0.500079  1
  Y  Y6  1  0.000052  0.000022  0.000135  1
  Y  Y7  1  0.790078  0.209755  0.940045  1
  Y  Y8  1  0.790066  0.580326  0.940048  1
  Y  Y9  1  0.419905  0.209952  0.939628  1
  Y  Y10  1  0.209766  0.790289  0.059810  1
  Y  Y11  1  0.209767  0.419475  0.059814  1
  Y  Y12  1  0.580501  0.790249  0.059748  1
  Y  Y13  1  0.541124  0.458403  0.250551  1
  Y  Y14  1  0.541127  0.082725  0.250543  1
  Y  Y15  1  0.917462  0.458737  0.250275  1
  Y  Y16  1  0.458703  0.540799  0.749534  1
  Y  Y17  1  0.458713  0.917905  0.749540  1
  Y  Y18  1  0.082644  0.541322  0.749787  1
  Er  Er19  1  0.420245  0.210128  0.560124  1
  Cd  Cd20  1  0.885298  0.114725  0.249551  1
  Cd  Cd21  1  0.885306  0.770575  0.249551  1
  Cd  Cd22  1  0.229598  0.114797  0.249737  1
  Cd  Cd23  1  0.114856  0.885385  0.750410  1
  Cd  Cd24  1  0.114852  0.229467  0.750409  1
  Cd  Cd25  1  0.770525  0.885266  0.750484  1
  Ru  Ru26  1  0.333318  0.666654  0.251968  1
  Ru  Ru27  1  0.666253  0.333126  0.747708  1
