# generated using pymatgen
data_Tb2Ho2ErSn4
_symmetry_space_group_name_H-M   'P 1'
_cell_length_a   8.02207300
_cell_length_b   8.16570300
_cell_length_c   15.43869500
_cell_angle_alpha   90.00000000
_cell_angle_beta   90.00000000
_cell_angle_gamma   90.00000000
_symmetry_Int_Tables_number   1
_chemical_formula_structural   Tb2Ho2ErSn4
_chemical_formula_sum   'Tb8 Ho8 Er4 Sn16'
_cell_volume   1011.32507913
_cell_formula_units_Z   4
loop_
 _symmetry_equiv_pos_site_id
 _symmetry_equiv_pos_as_xyz
  1  'x, y, z'
loop_
 _atom_site_type_symbol
 _atom_site_label
 _atom_site_symmetry_multiplicity
 _atom_site_fract_x
 _atom_site_fract_y
 _atom_site_fract_z
 _atom_site_occupancy
  Tb  Tb0  1  0.520382  0.319894  0.902484  1
  Tb  Tb1  1  0.020382  0.180106  0.597516  1
  Tb  Tb2  1  0.479618  0.680106  0.402484  1
  Tb  Tb3  1  0.979618  0.819894  0.097516  1
  Tb  Tb4  1  0.479618  0.680106  0.097516  1
  Tb  Tb5  1  0.979618  0.819894  0.402484  1
  Tb  Tb6  1  0.520382  0.319894  0.597516  1
  Tb  Tb7  1  0.020382  0.180106  0.902484  1
  Ho  Ho8  1  0.367489  0.835781  0.878011  1
  Ho  Ho9  1  0.867489  0.664219  0.621989  1
  Ho  Ho10  1  0.632511  0.164219  0.378011  1
  Ho  Ho11  1  0.132511  0.335781  0.121989  1
  Ho  Ho12  1  0.632511  0.164219  0.121989  1
  Ho  Ho13  1  0.132511  0.335781  0.378011  1
  Ho  Ho14  1  0.367489  0.835781  0.621989  1
  Ho  Ho15  1  0.867489  0.664219  0.878011  1
  Er  Er16  1  0.198054  0.503107  0.750000  1
  Er  Er17  1  0.698054  0.996893  0.750000  1
  Er  Er18  1  0.801946  0.496893  0.250000  1
  Er  Er19  1  0.301946  0.003107  0.250000  1
  Sn  Sn20  1  0.293321  0.035559  0.041993  1
  Sn  Sn21  1  0.793321  0.464441  0.458007  1
  Sn  Sn22  1  0.706679  0.964441  0.541993  1
  Sn  Sn23  1  0.206679  0.535559  0.958007  1
  Sn  Sn24  1  0.706679  0.964441  0.958007  1
  Sn  Sn25  1  0.206679  0.535559  0.541993  1
  Sn  Sn26  1  0.293321  0.035559  0.458007  1
  Sn  Sn27  1  0.793321  0.464441  0.041993  1
  Sn  Sn28  1  0.564779  0.619949  0.750000  1
  Sn  Sn29  1  0.064779  0.880051  0.750000  1
  Sn  Sn30  1  0.435221  0.380051  0.250000  1
  Sn  Sn31  1  0.935221  0.119949  0.250000  1
  Sn  Sn32  1  0.328519  0.146270  0.750000  1
  Sn  Sn33  1  0.828519  0.353730  0.750000  1
  Sn  Sn34  1  0.671481  0.853730  0.250000  1
  Sn  Sn35  1  0.171481  0.646270  0.250000  1
