# generated using pymatgen
data_Dy8Ga12IrPd3
_symmetry_space_group_name_H-M   'P 1'
_cell_length_a   8.90807300
_cell_length_b   8.90807180
_cell_length_c   7.08991800
_cell_angle_alpha   90.00000000
_cell_angle_beta   90.00000000
_cell_angle_gamma   119.99999331
_symmetry_Int_Tables_number   1
_chemical_formula_structural   Dy8Ga12IrPd3
_chemical_formula_sum   'Dy8 Ga12 Ir1 Pd3'
_cell_volume   487.23597801
_cell_formula_units_Z   1
loop_
 _symmetry_equiv_pos_site_id
 _symmetry_equiv_pos_as_xyz
  1  'x, y, z'
loop_
 _atom_site_type_symbol
 _atom_site_label
 _atom_site_symmetry_multiplicity
 _atom_site_fract_x
 _atom_site_fract_y
 _atom_site_fract_z
 _atom_site_occupancy
  Dy  Dy0  1  0.515734  0.031468  0.249473  1
  Dy  Dy1  1  0.477971  0.955941  0.754622  1
  Dy  Dy2  1  0.968532  0.484266  0.249473  1
  Dy  Dy3  1  0.044059  0.522029  0.754622  1
  Dy  Dy4  1  0.515734  0.484266  0.249473  1
  Dy  Dy5  1  0.477971  0.522029  0.754622  1
  Dy  Dy6  1  0.000000  0.000000  0.248688  1
  Dy  Dy7  1  0.000000  0.000000  0.749859  1
  Ga  Ga8  1  0.168387  0.336774  0.044746  1
  Ga  Ga9  1  0.832195  0.664389  0.954297  1
  Ga  Ga10  1  0.663226  0.831613  0.044746  1
  Ga  Ga11  1  0.832109  0.664217  0.545745  1
  Ga  Ga12  1  0.335611  0.167805  0.954297  1
  Ga  Ga13  1  0.166346  0.332691  0.457784  1
  Ga  Ga14  1  0.168387  0.831613  0.044746  1
  Ga  Ga15  1  0.335783  0.167891  0.545745  1
  Ga  Ga16  1  0.832195  0.167805  0.954297  1
  Ga  Ga17  1  0.667309  0.833654  0.457784  1
  Ga  Ga18  1  0.832109  0.167891  0.545745  1
  Ga  Ga19  1  0.166346  0.833654  0.457784  1
  Ir  Ir20  1  0.333333  0.666667  0.019019  1
  Pd  Pd21  1  0.666667  0.333333  0.972140  1
  Pd  Pd22  1  0.666667  0.333333  0.529339  1
  Pd  Pd23  1  0.333333  0.666667  0.460955  1
