# generated using pymatgen
data_Ho2ScTi2(Co2Si5)2
_symmetry_space_group_name_H-M   'P 1'
_cell_length_a   11.98321600
_cell_length_b   11.98321600
_cell_length_c   3.92344700
_cell_angle_alpha   90.00000000
_cell_angle_beta   90.00000000
_cell_angle_gamma   90.00000000
_symmetry_Int_Tables_number   1
_chemical_formula_structural   Ho2ScTi2(Co2Si5)2
_chemical_formula_sum   'Ho4 Sc2 Ti4 Co8 Si20'
_cell_volume   563.39704602
_cell_formula_units_Z   2
loop_
 _symmetry_equiv_pos_site_id
 _symmetry_equiv_pos_as_xyz
  1  'x, y, z'
loop_
 _atom_site_type_symbol
 _atom_site_label
 _atom_site_symmetry_multiplicity
 _atom_site_fract_x
 _atom_site_fract_y
 _atom_site_fract_z
 _atom_site_occupancy
  Ho  Ho0  1  0.885195  0.385195  0.500000  1
  Ho  Ho1  1  0.385195  0.114805  0.500000  1
  Ho  Ho2  1  0.614805  0.885195  0.500000  1
  Ho  Ho3  1  0.114805  0.614805  0.500000  1
  Sc  Sc4  1  0.000000  0.000000  0.000000  1
  Sc  Sc5  1  0.500000  0.500000  0.000000  1
  Ti  Ti6  1  0.674857  0.174857  0.500000  1
  Ti  Ti7  1  0.174857  0.325143  0.500000  1
  Ti  Ti8  1  0.825143  0.674857  0.500000  1
  Ti  Ti9  1  0.325143  0.825143  0.500000  1
  Co  Co10  1  0.522781  0.255376  0.000000  1
  Co  Co11  1  0.255376  0.477219  0.000000  1
  Co  Co12  1  0.744624  0.522781  0.000000  1
  Co  Co13  1  0.477219  0.744624  0.000000  1
  Co  Co14  1  0.977219  0.755376  0.000000  1
  Co  Co15  1  0.022781  0.244624  0.000000  1
  Co  Co16  1  0.755376  0.022781  0.000000  1
  Co  Co17  1  0.244624  0.977219  0.000000  1
  Si  Si18  1  0.571342  0.071342  0.000000  1
  Si  Si19  1  0.071342  0.428658  0.000000  1
  Si  Si20  1  0.928658  0.571342  0.000000  1
  Si  Si21  1  0.428658  0.928658  0.000000  1
  Si  Si22  1  0.194426  0.160692  0.000000  1
  Si  Si23  1  0.160692  0.805574  0.000000  1
  Si  Si24  1  0.839308  0.194426  0.000000  1
  Si  Si25  1  0.805574  0.839308  0.000000  1
  Si  Si26  1  0.305574  0.660692  0.000000  1
  Si  Si27  1  0.694426  0.339308  0.000000  1
  Si  Si28  1  0.660692  0.694426  0.000000  1
  Si  Si29  1  0.339308  0.305574  0.000000  1
  Si  Si30  1  0.014483  0.162261  0.500000  1
  Si  Si31  1  0.162261  0.985517  0.500000  1
  Si  Si32  1  0.837739  0.014483  0.500000  1
  Si  Si33  1  0.985517  0.837739  0.500000  1
  Si  Si34  1  0.485517  0.662261  0.500000  1
  Si  Si35  1  0.514483  0.337739  0.500000  1
  Si  Si36  1  0.662261  0.514483  0.500000  1
  Si  Si37  1  0.337739  0.485517  0.500000  1
