# generated using pymatgen
data_Tc3S4
_symmetry_space_group_name_H-M   'P 1'
_cell_length_a   6.44243935
_cell_length_b   6.42872162
_cell_length_c   6.43101914
_cell_angle_alpha   93.14321433
_cell_angle_beta   92.93958075
_cell_angle_gamma   93.20269167
_symmetry_Int_Tables_number   1
_chemical_formula_structural   Tc3S4
_chemical_formula_sum   'Tc6 S8'
_cell_volume   265.14034831
_cell_formula_units_Z   2
loop_
 _symmetry_equiv_pos_site_id
 _symmetry_equiv_pos_as_xyz
  1  'x, y, z'
loop_
 _atom_site_type_symbol
 _atom_site_label
 _atom_site_symmetry_multiplicity
 _atom_site_fract_x
 _atom_site_fract_y
 _atom_site_fract_z
 _atom_site_occupancy
  Tc  Tc0  1  0.588891  0.449809  0.773505  1
  Tc  Tc1  1  0.449785  0.773828  0.589518  1
  Tc  Tc2  1  0.773296  0.589429  0.448835  1
  Tc  Tc3  1  0.411272  0.549983  0.226208  1
  Tc  Tc4  1  0.550149  0.225960  0.410689  1
  Tc  Tc5  1  0.226516  0.410726  0.551001  1
  S  S6  1  0.728680  0.374886  0.128771  1
  S  S7  1  0.373998  0.129221  0.728929  1
  S  S8  1  0.778794  0.779861  0.778579  1
  S  S9  1  0.221287  0.220264  0.221574  1
  S  S10  1  0.869868  0.271379  0.625259  1
  S  S11  1  0.270945  0.625413  0.871226  1
  S  S12  1  0.626262  0.870888  0.270756  1
  S  S13  1  0.130258  0.728350  0.375149  1
