# generated using pymatgen
data_Ca5Pr9(Nd3Sn8)2
_symmetry_space_group_name_H-M   'P 1'
_cell_length_a   8.10631294
_cell_length_b   8.54025536
_cell_length_c   16.14253750
_cell_angle_alpha   89.96899790
_cell_angle_beta   90.11578465
_cell_angle_gamma   90.01583885
_symmetry_Int_Tables_number   1
_chemical_formula_structural   Ca5Pr9(Nd3Sn8)2
_chemical_formula_sum   'Ca5 Pr9 Nd6 Sn16'
_cell_volume   1117.54510131
_cell_formula_units_Z   1
loop_
 _symmetry_equiv_pos_site_id
 _symmetry_equiv_pos_as_xyz
  1  'x, y, z'
loop_
 _atom_site_type_symbol
 _atom_site_label
 _atom_site_symmetry_multiplicity
 _atom_site_fract_x
 _atom_site_fract_y
 _atom_site_fract_z
 _atom_site_occupancy
  Ca  Ca0  1  0.330636  0.830395  0.623286  1
  Ca  Ca1  1  0.163062  0.497092  0.748893  1
  Ca  Ca2  1  0.662401  0.003720  0.748610  1
  Ca  Ca3  1  0.838214  0.504964  0.249888  1
  Ca  Ca4  1  0.337396  0.995263  0.250486  1
  Pr  Pr5  1  0.833949  0.672742  0.875784  1
  Pr  Pr6  1  0.490232  0.315180  0.904185  1
  Pr  Pr7  1  0.990987  0.184240  0.596434  1
  Pr  Pr8  1  0.508302  0.683148  0.403914  1
  Pr  Pr9  1  0.010181  0.818090  0.097075  1
  Pr  Pr10  1  0.510287  0.682837  0.096341  1
  Pr  Pr11  1  0.009614  0.816496  0.403720  1
  Pr  Pr12  1  0.489457  0.316535  0.596016  1
  Pr  Pr13  1  0.991865  0.182847  0.904103  1
  Nd  Nd14  1  0.334895  0.827456  0.875122  1
  Nd  Nd15  1  0.833391  0.671891  0.625059  1
  Nd  Nd16  1  0.666805  0.170812  0.375230  1
  Nd  Nd17  1  0.166407  0.328977  0.125315  1
  Nd  Nd18  1  0.665320  0.171528  0.125074  1
  Nd  Nd19  1  0.167209  0.328392  0.375418  1
  Sn  Sn20  1  0.323794  0.038290  0.036726  1
  Sn  Sn21  1  0.826206  0.462505  0.462776  1
  Sn  Sn22  1  0.673169  0.961266  0.536572  1
  Sn  Sn23  1  0.175655  0.537685  0.963270  1
  Sn  Sn24  1  0.674596  0.962865  0.963324  1
  Sn  Sn25  1  0.171121  0.535670  0.538095  1
  Sn  Sn26  1  0.329506  0.036906  0.461672  1
  Sn  Sn27  1  0.826335  0.460640  0.037524  1
  Sn  Sn28  1  0.529753  0.602006  0.749567  1
  Sn  Sn29  1  0.031803  0.895551  0.749526  1
  Sn  Sn30  1  0.470546  0.395832  0.250457  1
  Sn  Sn31  1  0.969944  0.105642  0.249977  1
  Sn  Sn32  1  0.290588  0.140716  0.750476  1
  Sn  Sn33  1  0.791004  0.361733  0.749600  1
  Sn  Sn34  1  0.708330  0.860311  0.250164  1
  Sn  Sn35  1  0.207034  0.639775  0.250319  1
