# generated using pymatgen
data_Ca6Pr13NdSn16
_symmetry_space_group_name_H-M   'P 1'
_cell_length_a   8.10171852
_cell_length_b   8.56073063
_cell_length_c   16.19808305
_cell_angle_alpha   90.02239455
_cell_angle_beta   90.13316953
_cell_angle_gamma   89.99828900
_symmetry_Int_Tables_number   1
_chemical_formula_structural   Ca6Pr13NdSn16
_chemical_formula_sum   'Ca6 Pr13 Nd1 Sn16'
_cell_volume   1123.44133129
_cell_formula_units_Z   1
loop_
 _symmetry_equiv_pos_site_id
 _symmetry_equiv_pos_as_xyz
  1  'x, y, z'
loop_
 _atom_site_type_symbol
 _atom_site_label
 _atom_site_symmetry_multiplicity
 _atom_site_fract_x
 _atom_site_fract_y
 _atom_site_fract_z
 _atom_site_occupancy
  Ca  Ca0  1  0.830580  0.669998  0.623065  1
  Ca  Ca1  1  0.669722  0.169452  0.377153  1
  Ca  Ca2  1  0.162244  0.496622  0.748992  1
  Ca  Ca3  1  0.662973  0.003455  0.748966  1
  Ca  Ca4  1  0.836748  0.502524  0.251523  1
  Ca  Ca5  1  0.337806  0.994760  0.251113  1
  Pr  Pr6  1  0.165066  0.326374  0.123603  1
  Pr  Pr7  1  0.665396  0.172735  0.124752  1
  Pr  Pr8  1  0.165884  0.326756  0.375788  1
  Pr  Pr9  1  0.334939  0.828027  0.624654  1
  Pr  Pr10  1  0.835099  0.673979  0.875070  1
  Pr  Pr11  1  0.491032  0.317199  0.904498  1
  Pr  Pr12  1  0.989150  0.186217  0.596012  1
  Pr  Pr13  1  0.511403  0.684972  0.404413  1
  Pr  Pr14  1  0.008613  0.815751  0.095463  1
  Pr  Pr15  1  0.509928  0.682517  0.096088  1
  Pr  Pr16  1  0.006898  0.816768  0.405049  1
  Pr  Pr17  1  0.493415  0.317159  0.595167  1
  Pr  Pr18  1  0.989300  0.183904  0.903358  1
  Nd  Nd19  1  0.333418  0.827639  0.875897  1
  Sn  Sn20  1  0.325358  0.034704  0.037957  1
  Sn  Sn21  1  0.827744  0.465695  0.461049  1
  Sn  Sn22  1  0.673560  0.966104  0.539447  1
  Sn  Sn23  1  0.175337  0.536737  0.961704  1
  Sn  Sn24  1  0.673270  0.963194  0.962262  1
  Sn  Sn25  1  0.173444  0.537498  0.537678  1
  Sn  Sn26  1  0.328347  0.036549  0.462412  1
  Sn  Sn27  1  0.824214  0.463009  0.036625  1
  Sn  Sn28  1  0.531187  0.605260  0.750128  1
  Sn  Sn29  1  0.031251  0.898716  0.749805  1
  Sn  Sn30  1  0.468940  0.397465  0.249911  1
  Sn  Sn31  1  0.968270  0.103489  0.250647  1
  Sn  Sn32  1  0.289901  0.140744  0.750020  1
  Sn  Sn33  1  0.789787  0.358272  0.750598  1
  Sn  Sn34  1  0.709939  0.857035  0.249241  1
  Sn  Sn35  1  0.209838  0.638722  0.249896  1
