# generated using pymatgen
data_Co2NiSb8Pt
_symmetry_space_group_name_H-M   'P 1'
_cell_length_a   6.42548702
_cell_length_b   6.56203362
_cell_length_c   6.57190041
_cell_angle_alpha   70.80069382
_cell_angle_beta   90.06474593
_cell_angle_gamma   89.94514321
_symmetry_Int_Tables_number   1
_chemical_formula_structural   Co2NiSb8Pt
_chemical_formula_sum   'Co2 Ni1 Sb8 Pt1'
_cell_volume   261.68673660
_cell_formula_units_Z   1
loop_
 _symmetry_equiv_pos_site_id
 _symmetry_equiv_pos_as_xyz
  1  'x, y, z'
loop_
 _atom_site_type_symbol
 _atom_site_label
 _atom_site_symmetry_multiplicity
 _atom_site_fract_x
 _atom_site_fract_y
 _atom_site_fract_z
 _atom_site_occupancy
  Co  Co0  1  0.999957  0.749656  0.250415  1
  Co  Co1  1  0.499737  0.249807  0.249819  1
  Ni  Ni2  1  0.501116  0.750295  0.749504  1
  Sb  Sb3  1  0.627835  0.355711  0.864689  1
  Sb  Sb4  1  0.142365  0.658612  0.633056  1
  Sb  Sb5  1  0.355838  0.637925  0.151255  1
  Sb  Sb6  1  0.854014  0.365373  0.339997  1
  Sb  Sb7  1  0.371690  0.144419  0.634866  1
  Sb  Sb8  1  0.858080  0.841984  0.867766  1
  Sb  Sb9  1  0.644172  0.861687  0.349029  1
  Sb  Sb10  1  0.145386  0.134213  0.159790  1
  Pt  Pt11  1  0.999810  0.250319  0.749812  1
