# generated using pymatgen
data_Li3Al4ZnPd4
_symmetry_space_group_name_H-M   'P 1'
_cell_length_a   5.24973844
_cell_length_b   4.33312300
_cell_length_c   7.49333700
_cell_angle_alpha   90.00000000
_cell_angle_beta   89.57497120
_cell_angle_gamma   90.00000000
_symmetry_Int_Tables_number   1
_chemical_formula_structural   Li3Al4ZnPd4
_chemical_formula_sum   'Li3 Al4 Zn1 Pd4'
_cell_volume   170.45195959
_cell_formula_units_Z   1
loop_
 _symmetry_equiv_pos_site_id
 _symmetry_equiv_pos_as_xyz
  1  'x, y, z'
loop_
 _atom_site_type_symbol
 _atom_site_label
 _atom_site_symmetry_multiplicity
 _atom_site_fract_x
 _atom_site_fract_y
 _atom_site_fract_z
 _atom_site_occupancy
  Li  Li0  1  0.503864  0.749999  0.250634  1
  Li  Li1  1  0.494772  0.249999  0.749619  1
  Li  Li2  1  0.995956  0.249999  0.749472  1
  Al  Al3  1  0.675912  0.249999  0.079476  1
  Al  Al4  1  0.323569  0.249999  0.418884  1
  Al  Al5  1  0.680679  0.749999  0.588019  1
  Al  Al6  1  0.320810  0.749999  0.913520  1
  Zn  Zn7  1  0.003249  0.749999  0.250493  1
  Pd  Pd8  1  0.182809  0.249999  0.083704  1
  Pd  Pd9  1  0.816621  0.249999  0.414977  1
  Pd  Pd10  1  0.182524  0.749999  0.580935  1
  Pd  Pd11  1  0.819227  0.749999  0.920263  1
