# generated using pymatgen
data_Na6VIO5
_symmetry_space_group_name_H-M   'P 1'
_cell_length_a   6.90146610
_cell_length_b   6.90146550
_cell_length_c   6.90146700
_cell_angle_alpha   59.99999760
_cell_angle_beta   60.00000050
_cell_angle_gamma   60.00000297
_symmetry_Int_Tables_number   1
_chemical_formula_structural   Na6VIO5
_chemical_formula_sum   'Na6 V1 I1 O5'
_cell_volume   232.43905545
_cell_formula_units_Z   1
loop_
 _symmetry_equiv_pos_site_id
 _symmetry_equiv_pos_as_xyz
  1  'x, y, z'
loop_
 _atom_site_type_symbol
 _atom_site_label
 _atom_site_symmetry_multiplicity
 _atom_site_fract_x
 _atom_site_fract_y
 _atom_site_fract_z
 _atom_site_occupancy
  Na  Na0  1  0.485203  0.014796  0.014796  1
  Na  Na1  1  0.014796  0.485203  0.014796  1
  Na  Na2  1  0.485204  0.485204  0.014795  1
  Na  Na3  1  0.014796  0.014796  0.485203  1
  Na  Na4  1  0.485204  0.014795  0.485204  1
  Na  Na5  1  0.014795  0.485204  0.485204  1
  V  V6  1  0.500000  0.500000  0.500000  1
  I  I7  1  0.000000  0.000000  0.000000  1
  O  O8  1  0.603597  0.603597  0.189209  1
  O  O9  1  0.250000  0.250000  0.250000  1
  O  O10  1  0.603597  0.189209  0.603597  1
  O  O11  1  0.189209  0.603597  0.603597  1
  O  O12  1  0.603597  0.603597  0.603597  1
