# generated using pymatgen
data_MnCo3P4
_symmetry_space_group_name_H-M   'P 1'
_cell_length_a   3.23956600
_cell_length_b   5.06251146
_cell_length_c   5.64391169
_cell_angle_alpha   89.83453069
_cell_angle_beta   90.00000000
_cell_angle_gamma   90.00000000
_symmetry_Int_Tables_number   1
_chemical_formula_structural   MnCo3P4
_chemical_formula_sum   'Mn1 Co3 P4'
_cell_volume   92.56168455
_cell_formula_units_Z   1
loop_
 _symmetry_equiv_pos_site_id
 _symmetry_equiv_pos_as_xyz
  1  'x, y, z'
loop_
 _atom_site_type_symbol
 _atom_site_label
 _atom_site_symmetry_multiplicity
 _atom_site_fract_x
 _atom_site_fract_y
 _atom_site_fract_z
 _atom_site_occupancy
  Mn  Mn0  1  0.500000  0.502449  0.303567  1
  Co  Co1  1  0.500000  0.002008  0.198431  1
  Co  Co2  1  0.000000  0.500156  0.702965  1
  Co  Co3  1  0.000000  0.999591  0.795684  1
  P  P4  1  0.500000  0.686937  0.924329  1
  P  P5  1  0.500000  0.194340  0.578704  1
  P  P6  1  0.000000  0.308592  0.076935  1
  P  P7  1  0.000000  0.805927  0.419385  1
