# generated using pymatgen
data_Yb3SmOs5Ru3
_symmetry_space_group_name_H-M   'P 1'
_cell_length_a   5.23433641
_cell_length_b   5.20207684
_cell_length_c   9.04386143
_cell_angle_alpha   89.96826415
_cell_angle_beta   90.02983079
_cell_angle_gamma   119.29574096
_symmetry_Int_Tables_number   1
_chemical_formula_structural   Yb3SmOs5Ru3
_chemical_formula_sum   'Yb3 Sm1 Os5 Ru3'
_cell_volume   214.76391322
_cell_formula_units_Z   1
loop_
 _symmetry_equiv_pos_site_id
 _symmetry_equiv_pos_as_xyz
  1  'x, y, z'
loop_
 _atom_site_type_symbol
 _atom_site_label
 _atom_site_symmetry_multiplicity
 _atom_site_fract_x
 _atom_site_fract_y
 _atom_site_fract_z
 _atom_site_occupancy
  Yb  Yb0  1  0.332729  0.666547  0.430227  1
  Yb  Yb1  1  0.331674  0.665873  0.064808  1
  Yb  Yb2  1  0.665254  0.332621  0.940342  1
  Sm  Sm3  1  0.666597  0.333132  0.564313  1
  Os  Os4  1  0.173979  0.344178  0.751722  1
  Os  Os5  1  0.173334  0.829702  0.751544  1
  Os  Os6  1  0.660454  0.829532  0.752802  1
  Os  Os7  1  0.836331  0.662122  0.248115  1
  Os  Os8  1  0.838667  0.174514  0.248021  1
  Ru  Ru9  1  0.987764  0.993879  0.499004  1
  Ru  Ru10  1  0.983867  0.992040  0.999733  1
  Ru  Ru11  1  0.349349  0.175861  0.249370  1
