# generated using pymatgen
data_Nd12Ir3PtBr12
_symmetry_space_group_name_H-M   'P 1'
_cell_length_a   10.52841434
_cell_length_b   10.52841356
_cell_length_c   10.45733500
_cell_angle_alpha   109.33452382
_cell_angle_beta   109.33452232
_cell_angle_gamma   109.60756568
_symmetry_Int_Tables_number   1
_chemical_formula_structural   Nd12Ir3PtBr12
_chemical_formula_sum   'Nd12 Ir3 Pt1 Br12'
_cell_volume   893.83005712
_cell_formula_units_Z   1
loop_
 _symmetry_equiv_pos_site_id
 _symmetry_equiv_pos_as_xyz
  1  'x, y, z'
loop_
 _atom_site_type_symbol
 _atom_site_label
 _atom_site_symmetry_multiplicity
 _atom_site_fract_x
 _atom_site_fract_y
 _atom_site_fract_z
 _atom_site_occupancy
  Nd  Nd0  1  0.262938  0.743800  0.232194  1
  Nd  Nd1  1  0.480861  0.743800  0.011606  1
  Nd  Nd2  1  0.234897  0.469795  0.484897  1
  Nd  Nd3  1  0.015530  0.031061  0.265530  1
  Nd  Nd4  1  0.234897  0.265103  0.750000  1
  Nd  Nd5  1  0.015530  0.484470  0.750000  1
  Nd  Nd6  1  0.480861  0.237062  0.469254  1
  Nd  Nd7  1  0.262938  0.019139  0.030746  1
  Nd  Nd8  1  0.756200  0.237062  0.267806  1
  Nd  Nd9  1  0.756200  0.019139  0.488394  1
  Nd  Nd10  1  0.468939  0.484470  0.234470  1
  Nd  Nd11  1  0.030205  0.265103  0.015103  1
  Ir  Ir12  1  0.249644  0.499288  0.999644  1
  Ir  Ir13  1  0.000712  0.250356  0.500356  1
  Ir  Ir14  1  0.249644  0.250356  0.250000  1
  Pt  Pt15  1  0.500000  0.000000  0.250000  1
  Br  Br16  1  0.249245  0.994805  0.503367  1
  Br  Br17  1  0.511649  0.505825  0.755825  1
  Br  Br18  1  0.249245  0.754441  0.745879  1
  Br  Br19  1  0.991890  0.745946  0.995946  1
  Br  Br20  1  0.994175  0.505825  0.250000  1
  Br  Br21  1  0.745559  0.994805  0.991436  1
  Br  Br22  1  0.754054  0.745946  0.250000  1
  Br  Br23  1  0.505195  0.754441  0.508564  1
  Br  Br24  1  0.505195  0.250755  0.996633  1
  Br  Br25  1  0.754054  0.508110  0.504054  1
  Br  Br26  1  0.745559  0.250755  0.754121  1
  Br  Br27  1  0.994175  0.988351  0.744175  1
