# generated using pymatgen
data_Y8Lu12Si15Sb
_symmetry_space_group_name_H-M   'P 1'
_cell_length_a   7.38764903
_cell_length_b   7.59378578
_cell_length_c   14.41419000
_cell_angle_alpha   90.07803887
_cell_angle_beta   87.29016985
_cell_angle_gamma   90.11254896
_symmetry_Int_Tables_number   1
_chemical_formula_structural   Y8Lu12Si15Sb
_chemical_formula_sum   'Y8 Lu12 Si15 Sb1'
_cell_volume   807.73284158
_cell_formula_units_Z   1
loop_
 _symmetry_equiv_pos_site_id
 _symmetry_equiv_pos_as_xyz
  1  'x, y, z'
loop_
 _atom_site_type_symbol
 _atom_site_label
 _atom_site_symmetry_multiplicity
 _atom_site_fract_x
 _atom_site_fract_y
 _atom_site_fract_z
 _atom_site_occupancy
  Y  Y0  1  0.017444  0.179802  0.098152  1
  Y  Y1  1  0.982536  0.821266  0.901954  1
  Y  Y2  1  0.483017  0.678902  0.902027  1
  Y  Y3  1  0.998618  0.826278  0.599140  1
  Y  Y4  1  0.517680  0.320875  0.099031  1
  Y  Y5  1  0.997806  0.175099  0.399968  1
  Y  Y6  1  0.507152  0.316609  0.398629  1
  Y  Y7  1  0.511578  0.684947  0.601438  1
  Lu  Lu8  1  0.167670  0.504309  0.752546  1
  Lu  Lu9  1  0.830925  0.494675  0.252959  1
  Lu  Lu10  1  0.330778  0.007344  0.252294  1
  Lu  Lu11  1  0.671552  0.993680  0.749386  1
  Lu  Lu12  1  0.353826  0.155453  0.625783  1
  Lu  Lu13  1  0.650754  0.830666  0.377093  1
  Lu  Lu14  1  0.146805  0.679700  0.371913  1
  Lu  Lu15  1  0.670379  0.822262  0.122667  1
  Lu  Lu16  1  0.837272  0.329229  0.623545  1
  Lu  Lu17  1  0.328013  0.176362  0.876887  1
  Lu  Lu18  1  0.828071  0.322606  0.876764  1
  Lu  Lu19  1  0.171071  0.678072  0.123361  1
  Si  Si20  1  0.041159  0.114149  0.751403  1
  Si  Si21  1  0.956521  0.890457  0.246313  1
  Si  Si22  1  0.457883  0.611596  0.247977  1
  Si  Si23  1  0.538748  0.388533  0.752226  1
  Si  Si24  1  0.290876  0.865979  0.753413  1
  Si  Si25  1  0.711507  0.128847  0.246585  1
  Si  Si26  1  0.210714  0.372061  0.247865  1
  Si  Si27  1  0.791780  0.630470  0.752318  1
  Si  Si28  1  0.802240  0.537293  0.457247  1
  Si  Si29  1  0.308298  0.965206  0.457340  1
  Si  Si30  1  0.848458  0.530936  0.040267  1
  Si  Si31  1  0.692975  0.034917  0.541937  1
  Si  Si32  1  0.150490  0.469259  0.960372  1
  Si  Si33  1  0.650665  0.030793  0.959737  1
  Si  Si34  1  0.348368  0.970463  0.040968  1
  Sb  Sb35  1  0.196371  0.460904  0.538490  1
