# generated using pymatgen
data_Hf2Ta8Si5Sn
_symmetry_space_group_name_H-M   'P 1'
_cell_length_a   7.71892717
_cell_length_b   7.71892694
_cell_length_c   7.72003295
_cell_angle_alpha   128.79097572
_cell_angle_beta   128.71303922
_cell_angle_gamma   75.39933705
_symmetry_Int_Tables_number   1
_chemical_formula_structural   Hf2Ta8Si5Sn
_chemical_formula_sum   'Hf2 Ta8 Si5 Sn1'
_cell_volume   272.26549573
_cell_formula_units_Z   1
loop_
 _symmetry_equiv_pos_site_id
 _symmetry_equiv_pos_as_xyz
  1  'x, y, z'
loop_
 _atom_site_type_symbol
 _atom_site_label
 _atom_site_symmetry_multiplicity
 _atom_site_fract_x
 _atom_site_fract_y
 _atom_site_fract_z
 _atom_site_occupancy
  Hf  Hf0  1  0.023042  0.194099  0.516032  1
  Hf  Hf1  1  0.678065  0.507010  0.483968  1
  Ta  Ta2  1  0.506504  0.024447  0.825548  1
  Ta  Ta3  1  0.198899  0.680954  0.174452  1
  Ta  Ta4  1  0.992108  0.816709  0.517130  1
  Ta  Ta5  1  0.299578  0.474977  0.482870  1
  Ta  Ta6  1  0.476998  0.993672  0.173685  1
  Ta  Ta7  1  0.819989  0.303314  0.826315  1
  Ta  Ta8  1  0.004095  0.004095  0.000000  1
  Ta  Ta9  1  0.501618  0.501618  0.000000  1
  Si  Si10  1  0.247003  0.247003  0.000000  1
  Si  Si11  1  0.371379  0.130698  0.499867  1
  Si  Si12  1  0.630832  0.871512  0.500133  1
  Si  Si13  1  0.868403  0.369115  0.236200  1
  Si  Si14  1  0.132915  0.632203  0.763800  1
  Sn  Sn15  1  0.748572  0.748572  0.000000  1
