# generated using pymatgen
data_Dy3Tm3Al24ZnOs7
_symmetry_space_group_name_H-M   'P 1'
_cell_length_a   8.84488634
_cell_length_b   8.84232714
_cell_length_c   9.52444031
_cell_angle_alpha   89.94956038
_cell_angle_beta   90.02186799
_cell_angle_gamma   120.06872300
_symmetry_Int_Tables_number   1
_chemical_formula_structural   Dy3Tm3Al24ZnOs7
_chemical_formula_sum   'Dy3 Tm3 Al24 Zn1 Os7'
_cell_volume   644.65535809
_cell_formula_units_Z   1
loop_
 _symmetry_equiv_pos_site_id
 _symmetry_equiv_pos_as_xyz
  1  'x, y, z'
loop_
 _atom_site_type_symbol
 _atom_site_label
 _atom_site_symmetry_multiplicity
 _atom_site_fract_x
 _atom_site_fract_y
 _atom_site_fract_z
 _atom_site_occupancy
  Dy  Dy0  1  0.191454  0.386568  0.248394  1
  Dy  Dy1  1  0.808342  0.613278  0.751607  1
  Dy  Dy2  1  0.613479  0.808642  0.248483  1
  Tm  Tm3  1  0.388330  0.191802  0.751030  1
  Tm  Tm4  1  0.195538  0.804299  0.253454  1
  Tm  Tm5  1  0.804076  0.195613  0.746502  1
  Al  Al6  1  0.329498  0.670466  0.022402  1
  Al  Al7  1  0.669956  0.329377  0.977207  1
  Al  Al8  1  0.665610  0.333701  0.518405  1
  Al  Al9  1  0.333864  0.666012  0.481933  1
  Al  Al10  1  0.162719  0.325788  0.574581  1
  Al  Al11  1  0.837510  0.674037  0.425675  1
  Al  Al12  1  0.674120  0.837446  0.574524  1
  Al  Al13  1  0.849221  0.677350  0.081537  1
  Al  Al14  1  0.325916  0.162492  0.425993  1
  Al  Al15  1  0.150957  0.322495  0.918221  1
  Al  Al16  1  0.163111  0.837339  0.575265  1
  Al  Al17  1  0.322530  0.150673  0.081253  1
  Al  Al18  1  0.837066  0.163029  0.424931  1
  Al  Al19  1  0.677445  0.849312  0.918329  1
  Al  Al20  1  0.836466  0.163419  0.076391  1
  Al  Al21  1  0.163707  0.836980  0.923371  1
  Al  Al22  1  0.561155  0.121594  0.249251  1
  Al  Al23  1  0.438613  0.878974  0.750691  1
  Al  Al24  1  0.878406  0.438830  0.249338  1
  Al  Al25  1  0.121692  0.561218  0.750671  1
  Al  Al26  1  0.563586  0.436377  0.254422  1
  Al  Al27  1  0.436213  0.562897  0.745734  1
  Al  Al28  1  0.999559  0.000526  0.250524  1
  Al  Al29  1  0.001250  0.999945  0.749512  1
  Zn  Zn30  1  0.499903  0.499908  0.999922  1
  Os  Os31  1  0.499745  0.000355  0.999477  1
  Os  Os32  1  0.999776  0.499847  0.999906  1
  Os  Os33  1  0.499833  0.000251  0.500440  1
  Os  Os34  1  0.999678  0.499832  0.500134  1
  Os  Os35  1  0.499749  0.499396  0.500454  1
  Os  Os36  1  0.999914  0.999939  0.999941  1
  Os  Os37  1  0.000013  0.999996  0.500095  1
