# generated using pymatgen
data_Ti2AlRh4Au
_symmetry_space_group_name_H-M   'P 1'
_cell_length_a   4.09427000
_cell_length_b   5.43250646
_cell_length_c   10.67116693
_cell_angle_alpha   92.85167729
_cell_angle_beta   90.00000000
_cell_angle_gamma   90.00000000
_symmetry_Int_Tables_number   1
_chemical_formula_structural   Ti2AlRh4Au
_chemical_formula_sum   'Ti4 Al2 Rh8 Au2'
_cell_volume   237.05575978
_cell_formula_units_Z   2
loop_
 _symmetry_equiv_pos_site_id
 _symmetry_equiv_pos_as_xyz
  1  'x, y, z'
loop_
 _atom_site_type_symbol
 _atom_site_label
 _atom_site_symmetry_multiplicity
 _atom_site_fract_x
 _atom_site_fract_y
 _atom_site_fract_z
 _atom_site_occupancy
  Ti  Ti0  1  0.500000  0.350951  0.135260  1
  Ti  Ti1  1  0.500000  0.649049  0.864740  1
  Ti  Ti2  1  0.500000  0.811786  0.367728  1
  Ti  Ti3  1  0.500000  0.188214  0.632272  1
  Al  Al4  1  0.000000  0.000000  0.000000  1
  Al  Al5  1  0.000000  0.500000  0.500000  1
  Rh  Rh6  1  0.000000  0.000000  0.500000  1
  Rh  Rh7  1  0.000000  0.500000  0.000000  1
  Rh  Rh8  1  0.000000  0.581021  0.259626  1
  Rh  Rh9  1  0.000000  0.418979  0.740374  1
  Rh  Rh10  1  0.500000  0.308997  0.389423  1
  Rh  Rh11  1  0.500000  0.691003  0.610577  1
  Rh  Rh12  1  0.500000  0.812529  0.108888  1
  Rh  Rh13  1  0.500000  0.187471  0.891112  1
  Au  Au14  1  0.000000  0.078700  0.243387  1
  Au  Au15  1  0.000000  0.921300  0.756613  1
