# generated using pymatgen
data_Ho2B4Mo2Ru3
_symmetry_space_group_name_H-M   'P 1'
_cell_length_a   3.10557600
_cell_length_b   8.91283101
_cell_length_c   10.19127401
_cell_angle_alpha   89.99882975
_cell_angle_beta   90.00000000
_cell_angle_gamma   90.00000000
_symmetry_Int_Tables_number   1
_chemical_formula_structural   Ho2B4Mo2Ru3
_chemical_formula_sum   'Ho4 B8 Mo4 Ru6'
_cell_volume   282.08910477
_cell_formula_units_Z   2
loop_
 _symmetry_equiv_pos_site_id
 _symmetry_equiv_pos_as_xyz
  1  'x, y, z'
loop_
 _atom_site_type_symbol
 _atom_site_label
 _atom_site_symmetry_multiplicity
 _atom_site_fract_x
 _atom_site_fract_y
 _atom_site_fract_z
 _atom_site_occupancy
  Ho  Ho0  1  0.500000  0.838056  0.181574  1
  Ho  Ho1  1  0.500000  0.161944  0.818426  1
  Ho  Ho2  1  0.500000  0.661914  0.681565  1
  Ho  Ho3  1  0.500000  0.338086  0.318435  1
  B  B4  1  0.500000  0.967836  0.585455  1
  B  B5  1  0.500000  0.032164  0.414545  1
  B  B6  1  0.500000  0.853631  0.899692  1
  B  B7  1  0.500000  0.146369  0.100308  1
  B  B8  1  0.500000  0.646354  0.399664  1
  B  B9  1  0.500000  0.353646  0.600336  1
  B  B10  1  0.500000  0.467865  0.914543  1
  B  B11  1  0.500000  0.532135  0.085457  1
  Mo  Mo12  1  0.000000  0.660735  0.953785  1
  Mo  Mo13  1  0.000000  0.339265  0.046215  1
  Mo  Mo14  1  0.000000  0.839240  0.453758  1
  Mo  Mo15  1  0.000000  0.160760  0.546242  1
  Ru  Ru16  1  0.000000  0.000000  0.000000  1
  Ru  Ru17  1  0.000000  0.409810  0.760470  1
  Ru  Ru18  1  0.000000  0.590190  0.239530  1
  Ru  Ru19  1  0.000000  0.500000  0.500000  1
  Ru  Ru20  1  0.000000  0.909820  0.739539  1
  Ru  Ru21  1  0.000000  0.090180  0.260461  1
