# generated using pymatgen
data_Ta4Mn3Fe5
_symmetry_space_group_name_H-M   'P 1'
_cell_length_a   4.76993000
_cell_length_b   4.76992952
_cell_length_c   7.93179200
_cell_angle_alpha   90.00000000
_cell_angle_beta   90.00000000
_cell_angle_gamma   120.00000333
_symmetry_Int_Tables_number   1
_chemical_formula_structural   Ta4Mn3Fe5
_chemical_formula_sum   'Ta4 Mn3 Fe5'
_cell_volume   156.28809650
_cell_formula_units_Z   1
loop_
 _symmetry_equiv_pos_site_id
 _symmetry_equiv_pos_as_xyz
  1  'x, y, z'
loop_
 _atom_site_type_symbol
 _atom_site_label
 _atom_site_symmetry_multiplicity
 _atom_site_fract_x
 _atom_site_fract_y
 _atom_site_fract_z
 _atom_site_occupancy
  Ta  Ta0  1  0.333333  0.666667  0.434419  1
  Ta  Ta1  1  0.666667  0.333333  0.563167  1
  Ta  Ta2  1  0.666667  0.333333  0.936833  1
  Ta  Ta3  1  0.333333  0.666667  0.065581  1
  Mn  Mn4  1  0.172230  0.827770  0.750000  1
  Mn  Mn5  1  0.172230  0.344459  0.750000  1
  Mn  Mn6  1  0.655541  0.827770  0.750000  1
  Fe  Fe7  1  0.000000  0.000000  0.502180  1
  Fe  Fe8  1  0.000000  0.000000  0.997820  1
  Fe  Fe9  1  0.830854  0.169146  0.250000  1
  Fe  Fe10  1  0.830854  0.661708  0.250000  1
  Fe  Fe11  1  0.338292  0.169146  0.250000  1
