# generated using pymatgen
data_Hf8V11Si16Ni
_symmetry_space_group_name_H-M   'P 1'
_cell_length_a   6.59207715
_cell_length_b   6.59207863
_cell_length_c   12.16284135
_cell_angle_alpha   90.19346295
_cell_angle_beta   89.80653718
_cell_angle_gamma   89.87282330
_symmetry_Int_Tables_number   1
_chemical_formula_structural   Hf8V11Si16Ni
_chemical_formula_sum   'Hf8 V11 Si16 Ni1'
_cell_volume   528.53489957
_cell_formula_units_Z   1
loop_
 _symmetry_equiv_pos_site_id
 _symmetry_equiv_pos_as_xyz
  1  'x, y, z'
loop_
 _atom_site_type_symbol
 _atom_site_label
 _atom_site_symmetry_multiplicity
 _atom_site_fract_x
 _atom_site_fract_y
 _atom_site_fract_z
 _atom_site_occupancy
  Hf  Hf0  1  0.001975  0.662934  0.030867  1
  Hf  Hf1  1  0.839794  0.501313  0.279221  1
  Hf  Hf2  1  0.160081  0.501737  0.780367  1
  Hf  Hf3  1  0.501313  0.839794  0.720779  1
  Hf  Hf4  1  0.501737  0.160081  0.219633  1
  Hf  Hf5  1  0.998852  0.338098  0.530231  1
  Hf  Hf6  1  0.662934  0.001975  0.969133  1
  Hf  Hf7  1  0.338098  0.998852  0.469769  1
  V  V8  1  0.166995  0.829905  0.249559  1
  V  V9  1  0.829905  0.166995  0.750441  1
  V  V10  1  0.666772  0.666772  0.500000  1
  V  V11  1  0.999171  0.157867  0.127463  1
  V  V12  1  0.341570  0.503615  0.376146  1
  V  V13  1  0.663680  0.497254  0.875752  1
  V  V14  1  0.503615  0.341570  0.623854  1
  V  V15  1  0.497254  0.663680  0.124248  1
  V  V16  1  0.996182  0.842089  0.626861  1
  V  V17  1  0.157867  0.999171  0.872537  1
  V  V18  1  0.842089  0.996182  0.373139  1
  Si  Si19  1  0.288957  0.960332  0.062975  1
  Si  Si20  1  0.540295  0.791077  0.314391  1
  Si  Si21  1  0.456984  0.211881  0.817901  1
  Si  Si22  1  0.791077  0.540295  0.685609  1
  Si  Si23  1  0.211881  0.456984  0.182099  1
  Si  Si24  1  0.708070  0.039565  0.564758  1
  Si  Si25  1  0.960332  0.288957  0.937025  1
  Si  Si26  1  0.039565  0.708070  0.435242  1
  Si  Si27  1  0.703791  0.375600  0.070062  1
  Si  Si28  1  0.128925  0.205609  0.319769  1
  Si  Si29  1  0.871342  0.795410  0.821499  1
  Si  Si30  1  0.205609  0.128925  0.680231  1
  Si  Si31  1  0.795410  0.871342  0.178501  1
  Si  Si32  1  0.294648  0.628304  0.571628  1
  Si  Si33  1  0.375600  0.703791  0.929938  1
  Si  Si34  1  0.628304  0.294648  0.428372  1
  Ni  Ni35  1  0.329328  0.329328  0.000000  1
