# generated using pymatgen
data_Pr2Nd3CoAuO12
_symmetry_space_group_name_H-M   'P 1'
_cell_length_a   7.05201992
_cell_length_b   7.05349362
_cell_length_c   7.59530800
_cell_angle_alpha   74.38514128
_cell_angle_beta   74.39853164
_cell_angle_gamma   50.42098794
_symmetry_Int_Tables_number   1
_chemical_formula_structural   Pr2Nd3CoAuO12
_chemical_formula_sum   'Pr2 Nd3 Co1 Au1 O12'
_cell_volume   278.01502366
_cell_formula_units_Z   1
loop_
 _symmetry_equiv_pos_site_id
 _symmetry_equiv_pos_as_xyz
  1  'x, y, z'
loop_
 _atom_site_type_symbol
 _atom_site_label
 _atom_site_symmetry_multiplicity
 _atom_site_fract_x
 _atom_site_fract_y
 _atom_site_fract_z
 _atom_site_occupancy
  Pr  Pr0  1  0.302919  0.305691  0.836095  1
  Pr  Pr1  1  0.998837  0.001142  0.501987  1
  Nd  Nd2  1  0.312130  0.296502  0.356896  1
  Nd  Nd3  1  0.703581  0.687452  0.641651  1
  Nd  Nd4  1  0.693745  0.697118  0.163670  1
  Co  Co5  1  0.750567  0.249701  0.001275  1
  Au  Au6  1  0.242386  0.757672  0.000313  1
  O  O7  1  0.100617  0.593430  0.574099  1
  O  O8  1  0.979168  0.020757  0.169418  1
  O  O9  1  0.407674  0.897930  0.423615  1
  O  O10  1  0.507307  0.493244  0.174220  1
  O  O11  1  0.094890  0.575074  0.082940  1
  O  O12  1  0.907229  0.401139  0.422053  1
  O  O13  1  0.983844  0.018161  0.827275  1
  O  O14  1  0.599652  0.091058  0.575775  1
  O  O15  1  0.510193  0.489930  0.829845  1
  O  O16  1  0.585633  0.105789  0.076823  1
  O  O17  1  0.427345  0.902178  0.918577  1
  O  O18  1  0.892280  0.416030  0.923473  1
