# generated using pymatgen
data_Er8Al2RuRh
_symmetry_space_group_name_H-M   'P 1'
_cell_length_a   9.43784559
_cell_length_b   9.44822506
_cell_length_c   9.44822541
_cell_angle_alpha   60.06431594
_cell_angle_beta   60.03634263
_cell_angle_gamma   60.03634451
_symmetry_Int_Tables_number   1
_chemical_formula_structural   Er8Al2RuRh
_chemical_formula_sum   'Er16 Al4 Ru2 Rh2'
_cell_volume   596.35873266
_cell_formula_units_Z   2
loop_
 _symmetry_equiv_pos_site_id
 _symmetry_equiv_pos_as_xyz
  1  'x, y, z'
loop_
 _atom_site_type_symbol
 _atom_site_label
 _atom_site_symmetry_multiplicity
 _atom_site_fract_x
 _atom_site_fract_y
 _atom_site_fract_z
 _atom_site_occupancy
  Er  Er0  1  0.192696  0.196645  0.805545  1
  Er  Er1  1  0.437009  0.062991  0.062991  1
  Er  Er2  1  0.440448  0.060886  0.436701  1
  Er  Er3  1  0.061964  0.436701  0.060886  1
  Er  Er4  1  0.648246  0.056504  0.647004  1
  Er  Er5  1  0.195279  0.804721  0.804721  1
  Er  Er6  1  0.061964  0.060886  0.436701  1
  Er  Er7  1  0.805087  0.194913  0.194913  1
  Er  Er8  1  0.805114  0.805545  0.196645  1
  Er  Er9  1  0.648246  0.647004  0.056504  1
  Er  Er10  1  0.650349  0.647735  0.647735  1
  Er  Er11  1  0.061647  0.438353  0.438353  1
  Er  Er12  1  0.054181  0.647735  0.647735  1
  Er  Er13  1  0.805114  0.196645  0.805545  1
  Er  Er14  1  0.440448  0.436701  0.060886  1
  Er  Er15  1  0.192696  0.805545  0.196645  1
  Al  Al16  1  0.422632  0.732479  0.422257  1
  Al  Al17  1  0.422632  0.422257  0.732479  1
  Al  Al18  1  0.733285  0.422296  0.422296  1
  Al  Al19  1  0.422123  0.422296  0.422296  1
  Ru  Ru20  1  0.858471  0.423206  0.859852  1
  Ru  Ru21  1  0.858471  0.859852  0.423206  1
  Rh  Rh22  1  0.423306  0.859051  0.859051  1
  Rh  Rh23  1  0.858592  0.859051  0.859051  1
