# generated using pymatgen
data_LiPr2(GdSi2)2
_symmetry_space_group_name_H-M   'P 1'
_cell_length_a   7.23307300
_cell_length_b   7.75897600
_cell_length_c   14.83327100
_cell_angle_alpha   90.00000000
_cell_angle_beta   90.00000000
_cell_angle_gamma   90.00000000
_symmetry_Int_Tables_number   1
_chemical_formula_structural   LiPr2(GdSi2)2
_chemical_formula_sum   'Li4 Pr8 Gd8 Si16'
_cell_volume   832.46155901
_cell_formula_units_Z   4
loop_
 _symmetry_equiv_pos_site_id
 _symmetry_equiv_pos_as_xyz
  1  'x, y, z'
loop_
 _atom_site_type_symbol
 _atom_site_label
 _atom_site_symmetry_multiplicity
 _atom_site_fract_x
 _atom_site_fract_y
 _atom_site_fract_z
 _atom_site_occupancy
  Li  Li0  1  0.656698  0.986156  0.750000  1
  Li  Li1  1  0.843302  0.486156  0.250000  1
  Li  Li2  1  0.343302  0.013844  0.250000  1
  Li  Li3  1  0.156698  0.513844  0.750000  1
  Pr  Pr4  1  0.021840  0.185547  0.397718  1
  Pr  Pr5  1  0.521840  0.314453  0.397718  1
  Pr  Pr6  1  0.478160  0.685547  0.897718  1
  Pr  Pr7  1  0.478160  0.685547  0.602282  1
  Pr  Pr8  1  0.978160  0.814453  0.602282  1
  Pr  Pr9  1  0.978160  0.814453  0.897718  1
  Pr  Pr10  1  0.521840  0.314453  0.102282  1
  Pr  Pr11  1  0.021840  0.185547  0.102282  1
  Gd  Gd12  1  0.327622  0.182799  0.626821  1
  Gd  Gd13  1  0.672378  0.817201  0.373179  1
  Gd  Gd14  1  0.172378  0.682799  0.373179  1
  Gd  Gd15  1  0.827622  0.317201  0.873179  1
  Gd  Gd16  1  0.827622  0.317201  0.626821  1
  Gd  Gd17  1  0.327622  0.182799  0.873179  1
  Gd  Gd18  1  0.172378  0.682799  0.126821  1
  Gd  Gd19  1  0.672378  0.817201  0.126821  1
  Si  Si20  1  0.272946  0.881966  0.750000  1
  Si  Si21  1  0.473391  0.588775  0.250000  1
  Si  Si22  1  0.026609  0.088775  0.750000  1
  Si  Si23  1  0.526609  0.411225  0.750000  1
  Si  Si24  1  0.151245  0.465956  0.533837  1
  Si  Si25  1  0.973391  0.911225  0.250000  1
  Si  Si26  1  0.727054  0.118034  0.250000  1
  Si  Si27  1  0.848755  0.534044  0.033837  1
  Si  Si28  1  0.348755  0.965956  0.033837  1
  Si  Si29  1  0.151245  0.465956  0.966163  1
  Si  Si30  1  0.651245  0.034044  0.533837  1
  Si  Si31  1  0.348755  0.965956  0.466163  1
  Si  Si32  1  0.848755  0.534044  0.466163  1
  Si  Si33  1  0.772946  0.618034  0.750000  1
  Si  Si34  1  0.227054  0.381966  0.250000  1
  Si  Si35  1  0.651245  0.034044  0.966163  1
