# generated using pymatgen
data_Dy4Mg2Cu3Rh
_symmetry_space_group_name_H-M   'P 1'
_cell_length_a   7.58287178
_cell_length_b   7.58287178
_cell_length_c   3.75383900
_cell_angle_alpha   90.00000000
_cell_angle_beta   90.00000000
_cell_angle_gamma   90.26825149
_symmetry_Int_Tables_number   1
_chemical_formula_structural   Dy4Mg2Cu3Rh
_chemical_formula_sum   'Dy4 Mg2 Cu3 Rh1'
_cell_volume   215.84316808
_cell_formula_units_Z   1
loop_
 _symmetry_equiv_pos_site_id
 _symmetry_equiv_pos_as_xyz
  1  'x, y, z'
loop_
 _atom_site_type_symbol
 _atom_site_label
 _atom_site_symmetry_multiplicity
 _atom_site_fract_x
 _atom_site_fract_y
 _atom_site_fract_z
 _atom_site_occupancy
  Dy  Dy0  1  0.669626  0.169626  0.500000  1
  Dy  Dy1  1  0.321174  0.821174  0.500000  1
  Dy  Dy2  1  0.174737  0.338311  0.500000  1
  Dy  Dy3  1  0.838311  0.674737  0.500000  1
  Mg  Mg4  1  0.000443  0.001001  0.000000  1
  Mg  Mg5  1  0.501001  0.500443  0.000000  1
  Cu  Cu6  1  0.873664  0.373664  0.000000  1
  Cu  Cu7  1  0.620993  0.877610  0.000000  1
  Cu  Cu8  1  0.377610  0.120993  0.000000  1
  Rh  Rh9  1  0.122440  0.622440  0.000000  1
