# generated using pymatgen
data_Ho2Tm2(Al8Pd3)3
_symmetry_space_group_name_H-M   'P 1'
_cell_length_a   7.52240653
_cell_length_b   7.53538177
_cell_length_c   13.14227400
_cell_angle_alpha   84.58353393
_cell_angle_beta   79.08009426
_cell_angle_gamma   59.99999132
_symmetry_Int_Tables_number   1
_chemical_formula_structural   Ho2Tm2(Al8Pd3)3
_chemical_formula_sum   'Ho2 Tm2 Al24 Pd9'
_cell_volume   633.47179889
_cell_formula_units_Z   1
loop_
 _symmetry_equiv_pos_site_id
 _symmetry_equiv_pos_as_xyz
  1  'x, y, z'
loop_
 _atom_site_type_symbol
 _atom_site_label
 _atom_site_symmetry_multiplicity
 _atom_site_fract_x
 _atom_site_fract_y
 _atom_site_fract_z
 _atom_site_occupancy
  Ho  Ho0  1  0.393519  0.168582  0.808289  1
  Ho  Ho1  1  0.606481  0.831418  0.191711  1
  Tm  Tm2  1  0.733591  0.498657  0.807846  1
  Tm  Tm3  1  0.266409  0.501343  0.192154  1
  Al  Al4  1  0.684455  0.833341  0.944297  1
  Al  Al5  1  0.315545  0.166659  0.055703  1
  Al  Al6  1  0.146193  0.832916  0.561728  1
  Al  Al7  1  0.853807  0.167084  0.438272  1
  Al  Al8  1  0.479475  0.166802  0.559109  1
  Al  Al9  1  0.520525  0.833198  0.440891  1
  Al  Al10  1  0.216944  0.165418  0.329315  1
  Al  Al11  1  0.783056  0.834582  0.670685  1
  Al  Al12  1  0.437011  0.506621  0.670968  1
  Al  Al13  1  0.562989  0.493379  0.329032  1
  Al  Al14  1  0.108936  0.159751  0.669782  1
  Al  Al15  1  0.891064  0.840249  0.330218  1
  Al  Al16  1  0.353542  0.499180  0.944596  1
  Al  Al17  1  0.646458  0.500820  0.055404  1
  Al  Al18  1  0.015290  0.168090  0.953019  1
  Al  Al19  1  0.984710  0.831910  0.046981  1
  Al  Al20  1  0.186782  0.499410  0.440853  1
  Al  Al21  1  0.813218  0.500590  0.559147  1
  Al  Al22  1  0.733163  0.164546  0.183793  1
  Al  Al23  1  0.266837  0.835454  0.816207  1
  Al  Al24  1  0.061192  0.630509  0.815253  1
  Al  Al25  1  0.938808  0.369491  0.184747  1
  Al  Al26  1  0.854860  0.042563  0.816161  1
  Al  Al27  1  0.145140  0.957437  0.183839  1
  Pd  Pd28  1  0.119540  0.492280  0.638594  1
  Pd  Pd29  1  0.880460  0.507720  0.361406  1
  Pd  Pd30  1  0.656960  0.171610  0.000077  1
  Pd  Pd31  1  0.343040  0.828390  0.999923  1
  Pd  Pd32  1  0.537272  0.167077  0.361467  1
  Pd  Pd33  1  0.462728  0.832923  0.638533  1
  Pd  Pd34  1  0.778102  0.175316  0.638032  1
  Pd  Pd35  1  0.221898  0.824684  0.361968  1
  Pd  Pd36  1  0.000000  0.500000  0.000000  1
