# generated using pymatgen
data_Er4Lu4Re3TcB24
_symmetry_space_group_name_H-M   'P 1'
_cell_length_a   3.63205500
_cell_length_b   9.08368298
_cell_length_c   11.45543900
_cell_angle_alpha   90.02665026
_cell_angle_beta   90.00000000
_cell_angle_gamma   90.00000000
_symmetry_Int_Tables_number   1
_chemical_formula_structural   Er4Lu4Re3TcB24
_chemical_formula_sum   'Er4 Lu4 Re3 Tc1 B24'
_cell_volume   377.94279928
_cell_formula_units_Z   1
loop_
 _symmetry_equiv_pos_site_id
 _symmetry_equiv_pos_as_xyz
  1  'x, y, z'
loop_
 _atom_site_type_symbol
 _atom_site_label
 _atom_site_symmetry_multiplicity
 _atom_site_fract_x
 _atom_site_fract_y
 _atom_site_fract_z
 _atom_site_occupancy
  Er  Er0  1  0.000000  0.323548  0.413732  1
  Er  Er1  1  0.000000  0.676880  0.585928  1
  Er  Er2  1  0.000000  0.823033  0.086244  1
  Er  Er3  1  0.000000  0.177041  0.913827  1
  Lu  Lu4  1  0.000000  0.942363  0.370087  1
  Lu  Lu5  1  0.000000  0.056501  0.629439  1
  Lu  Lu6  1  0.000000  0.444121  0.130391  1
  Lu  Lu7  1  0.000000  0.556532  0.870493  1
  Re  Re8  1  0.000000  0.360708  0.679670  1
  Re  Re9  1  0.000000  0.139365  0.179784  1
  Re  Re10  1  0.000000  0.860692  0.820274  1
  Tc  Tc11  1  0.000000  0.639427  0.320188  1
  B  B12  1  0.500000  0.553656  0.432932  1
  B  B13  1  0.500000  0.446533  0.566786  1
  B  B14  1  0.500000  0.053551  0.066817  1
  B  B15  1  0.500000  0.946551  0.933088  1
  B  B16  1  0.500000  0.750347  0.418870  1
  B  B17  1  0.500000  0.249256  0.580893  1
  B  B18  1  0.500000  0.250928  0.081002  1
  B  B19  1  0.500000  0.749403  0.919034  1
  B  B20  1  0.500000  0.792898  0.265204  1
  B  B21  1  0.500000  0.206747  0.734618  1
  B  B22  1  0.500000  0.293346  0.234935  1
  B  B23  1  0.500000  0.706756  0.765316  1
  B  B24  1  0.500000  0.630599  0.184930  1
  B  B25  1  0.500000  0.369598  0.815201  1
  B  B26  1  0.500000  0.130234  0.315352  1
  B  B27  1  0.500000  0.869527  0.684713  1
  B  B28  1  0.500000  0.981316  0.212289  1
  B  B29  1  0.500000  0.018464  0.787599  1
  B  B30  1  0.500000  0.481869  0.287790  1
  B  B31  1  0.500000  0.518502  0.712379  1
  B  B32  1  0.500000  0.599036  0.027729  1
  B  B33  1  0.500000  0.401248  0.972675  1
  B  B34  1  0.500000  0.098529  0.472299  1
  B  B35  1  0.500000  0.900894  0.527491  1
