# generated using pymatgen
data_Y6ErLu3(In2Pt)4
_symmetry_space_group_name_H-M   'P 1'
_cell_length_a   3.62203300
_cell_length_b   8.15419590
_cell_length_c   18.13726662
_cell_angle_alpha   90.01592893
_cell_angle_beta   90.00000000
_cell_angle_gamma   90.00000000
_symmetry_Int_Tables_number   1
_chemical_formula_structural   Y6ErLu3(In2Pt)4
_chemical_formula_sum   'Y6 Er1 Lu3 In8 Pt4'
_cell_volume   535.67991608
_cell_formula_units_Z   1
loop_
 _symmetry_equiv_pos_site_id
 _symmetry_equiv_pos_as_xyz
  1  'x, y, z'
loop_
 _atom_site_type_symbol
 _atom_site_label
 _atom_site_symmetry_multiplicity
 _atom_site_fract_x
 _atom_site_fract_y
 _atom_site_fract_z
 _atom_site_occupancy
  Y  Y0  1  0.000000  0.617449  0.084683  1
  Y  Y1  1  0.000000  0.241654  0.219995  1
  Y  Y2  1  0.000000  0.760371  0.781070  1
  Y  Y3  1  0.000000  0.260007  0.717613  1
  Y  Y4  1  0.000000  0.000656  0.999378  1
  Y  Y5  1  0.000000  0.499356  0.500388  1
  Er  Er6  1  0.000000  0.740390  0.281570  1
  Lu  Lu7  1  0.000000  0.114598  0.413749  1
  Lu  Lu8  1  0.000000  0.883680  0.585708  1
  Lu  Lu9  1  0.000000  0.383888  0.913279  1
  In  In10  1  0.500000  0.419642  0.351549  1
  In  In11  1  0.500000  0.582058  0.649563  1
  In  In12  1  0.500000  0.081875  0.850021  1
  In  In13  1  0.500000  0.921900  0.150283  1
  In  In14  1  0.500000  0.293701  0.064950  1
  In  In15  1  0.500000  0.704488  0.933969  1
  In  In16  1  0.500000  0.201908  0.563599  1
  In  In17  1  0.500000  0.795350  0.435659  1
  Pt  Pt18  1  0.500000  0.021087  0.305935  1
  Pt  Pt19  1  0.500000  0.974604  0.693597  1
  Pt  Pt20  1  0.500000  0.474029  0.805193  1
  Pt  Pt21  1  0.500000  0.527309  0.198251  1
