# generated using pymatgen
data_Na5Nd(CO3)4
_symmetry_space_group_name_H-M   'P 1'
_cell_length_a   10.20851700
_cell_length_b   8.87630620
_cell_length_c   12.36584000
_cell_angle_alpha   89.73186196
_cell_angle_beta   90.00000000
_cell_angle_gamma   90.00000000
_symmetry_Int_Tables_number   1
_chemical_formula_structural   Na5Nd(CO3)4
_chemical_formula_sum   'Na20 Nd4 C16 O48'
_cell_volume   1120.50500015
_cell_formula_units_Z   4
loop_
 _symmetry_equiv_pos_site_id
 _symmetry_equiv_pos_as_xyz
  1  'x, y, z'
loop_
 _atom_site_type_symbol
 _atom_site_label
 _atom_site_symmetry_multiplicity
 _atom_site_fract_x
 _atom_site_fract_y
 _atom_site_fract_z
 _atom_site_occupancy
  Na  Na0  1  0.628109  0.454075  0.070161  1
  Na  Na1  1  0.373371  0.194382  0.789436  1
  Na  Na2  1  0.819966  0.990010  0.365429  1
  Na  Na3  1  0.921384  0.575834  0.597868  1
  Na  Na4  1  0.877014  0.584139  0.897721  1
  Na  Na5  1  0.126629  0.694382  0.789436  1
  Na  Na6  1  0.078616  0.424166  0.402132  1
  Na  Na7  1  0.873371  0.305618  0.210564  1
  Na  Na8  1  0.622986  0.084139  0.897721  1
  Na  Na9  1  0.680034  0.490010  0.365429  1
  Na  Na10  1  0.128109  0.045925  0.929839  1
  Na  Na11  1  0.122986  0.415861  0.102279  1
  Na  Na12  1  0.578616  0.075834  0.597868  1
  Na  Na13  1  0.421384  0.924166  0.402132  1
  Na  Na14  1  0.871891  0.954075  0.070161  1
  Na  Na15  1  0.180034  0.009990  0.634571  1
  Na  Na16  1  0.626629  0.805618  0.210564  1
  Na  Na17  1  0.319966  0.509990  0.634571  1
  Na  Na18  1  0.371891  0.545925  0.929839  1
  Na  Na19  1  0.377014  0.915861  0.102279  1
  Nd  Nd20  1  0.376508  0.287364  0.276132  1
  Nd  Nd21  1  0.623492  0.712636  0.723868  1
  Nd  Nd22  1  0.123492  0.787364  0.276132  1
  Nd  Nd23  1  0.876508  0.212636  0.723868  1
  C  C24  1  0.865015  0.263460  0.491326  1
  C  C25  1  0.365015  0.236540  0.508674  1
  C  C26  1  0.622106  0.141261  0.215409  1
  C  C27  1  0.391879  0.246444  0.009475  1
  C  C28  1  0.872332  0.883828  0.721327  1
  C  C29  1  0.127668  0.116172  0.278673  1
  C  C30  1  0.134985  0.736540  0.508674  1
  C  C31  1  0.634985  0.763460  0.491326  1
  C  C32  1  0.627668  0.383828  0.721327  1
  C  C33  1  0.377894  0.858739  0.784591  1
  C  C34  1  0.108121  0.746444  0.009475  1
  C  C35  1  0.372332  0.616172  0.278673  1
  C  C36  1  0.122106  0.358739  0.784591  1
  C  C37  1  0.891879  0.253556  0.990525  1
  C  C38  1  0.877894  0.641261  0.215409  1
  C  C39  1  0.608121  0.753556  0.990525  1
  O  O40  1  0.839941  0.381235  0.014009  1
  O  O41  1  0.843276  0.169599  0.912209  1
  O  O42  1  0.656724  0.669599  0.912209  1
  O  O43  1  0.872758  0.739247  0.732626  1
  O  O44  1  0.740476  0.454830  0.728237  1
  O  O45  1  0.759524  0.954830  0.728237  1
  O  O46  1  0.985897  0.561860  0.222442  1
  O  O47  1  0.299409  0.349668  0.467661  1
  O  O48  1  0.372758  0.760753  0.267374  1
  O  O49  1  0.990874  0.201423  0.045040  1
  O  O50  1  0.509126  0.701423  0.045040  1
  O  O51  1  0.485897  0.938140  0.777558  1
  O  O52  1  0.976850  0.960672  0.703591  1
  O  O53  1  0.154897  0.685595  0.603866  1
  O  O54  1  0.345103  0.185595  0.603866  1
  O  O55  1  0.799409  0.150332  0.532339  1
  O  O56  1  0.700591  0.650332  0.532339  1
  O  O57  1  0.127242  0.260753  0.267374  1
  O  O58  1  0.389809  0.711944  0.776733  1
  O  O59  1  0.009126  0.798577  0.954960  1
  O  O60  1  0.955251  0.325290  0.553565  1
  O  O61  1  0.514103  0.061860  0.222442  1
  O  O62  1  0.523150  0.460672  0.703591  1
  O  O63  1  0.200591  0.849668  0.467661  1
  O  O64  1  0.734331  0.079700  0.203728  1
  O  O65  1  0.234331  0.420300  0.796272  1
  O  O66  1  0.044749  0.674710  0.446435  1
  O  O67  1  0.660059  0.881235  0.014009  1
  O  O68  1  0.490874  0.298577  0.954960  1
  O  O69  1  0.156724  0.830401  0.087791  1
  O  O70  1  0.845103  0.314405  0.396134  1
  O  O71  1  0.889809  0.788056  0.223267  1
  O  O72  1  0.765669  0.579700  0.203728  1
  O  O73  1  0.023150  0.039328  0.296409  1
  O  O74  1  0.627242  0.239247  0.732626  1
  O  O75  1  0.160059  0.618765  0.985991  1
  O  O76  1  0.014103  0.438140  0.777558  1
  O  O77  1  0.654897  0.814405  0.396134  1
  O  O78  1  0.343276  0.330401  0.087791  1
  O  O79  1  0.610191  0.288056  0.223267  1
  O  O80  1  0.265669  0.920300  0.796272  1
  O  O81  1  0.455251  0.174710  0.446435  1
  O  O82  1  0.476850  0.539328  0.296409  1
  O  O83  1  0.259524  0.545170  0.271763  1
  O  O84  1  0.544749  0.825290  0.553565  1
  O  O85  1  0.339941  0.118765  0.985991  1
  O  O86  1  0.240476  0.045170  0.271763  1
  O  O87  1  0.110191  0.211944  0.776733  1
