# generated using pymatgen
data_ErMn2SbO6
_symmetry_space_group_name_H-M   'P 1'
_cell_length_a   6.37280613
_cell_length_b   6.45951491
_cell_length_c   6.43712706
_cell_angle_alpha   90.94844964
_cell_angle_beta   90.95610271
_cell_angle_gamma   91.42019022
_symmetry_Int_Tables_number   1
_chemical_formula_structural   ErMn2SbO6
_chemical_formula_sum   'Er2 Mn4 Sb2 O12'
_cell_volume   264.82941670
_cell_formula_units_Z   2
loop_
 _symmetry_equiv_pos_site_id
 _symmetry_equiv_pos_as_xyz
  1  'x, y, z'
loop_
 _atom_site_type_symbol
 _atom_site_label
 _atom_site_symmetry_multiplicity
 _atom_site_fract_x
 _atom_site_fract_y
 _atom_site_fract_z
 _atom_site_occupancy
  Er  Er0  1  0.062941  0.752388  0.563189  1
  Er  Er1  1  0.747910  0.564003  0.059610  1
  Mn  Mn2  1  0.560379  0.049627  0.745241  1
  Mn  Mn3  1  0.941784  0.245621  0.440979  1
  Mn  Mn4  1  0.252404  0.431241  0.945627  1
  Mn  Mn5  1  0.440296  0.957924  0.248547  1
  Sb  Sb6  1  0.495535  0.493984  0.500068  1
  Sb  Sb7  1  0.002805  0.007411  0.000440  1
  O  O8  1  0.042838  0.704234  0.912061  1
  O  O9  1  0.703138  0.911415  0.044735  1
  O  O10  1  0.910622  0.039244  0.701630  1
  O  O11  1  0.958816  0.300099  0.089335  1
  O  O12  1  0.302033  0.088922  0.953610  1
  O  O13  1  0.088069  0.960169  0.296523  1
  O  O14  1  0.797967  0.569396  0.421590  1
  O  O15  1  0.569299  0.434566  0.797070  1
  O  O16  1  0.423280  0.793780  0.561372  1
  O  O17  1  0.196214  0.429238  0.577844  1
  O  O18  1  0.427168  0.564589  0.203127  1
  O  O19  1  0.576503  0.202148  0.437404  1
