# generated using pymatgen
data_Zr12Al3Ga(Rh2N)4
_symmetry_space_group_name_H-M   'P 1'
_cell_length_a   8.58129092
_cell_length_b   8.58129150
_cell_length_c   8.58129134
_cell_angle_alpha   59.97373213
_cell_angle_beta   59.97373066
_cell_angle_gamma   59.97373052
_symmetry_Int_Tables_number   1
_chemical_formula_structural   Zr12Al3Ga(Rh2N)4
_chemical_formula_sum   'Zr12 Al3 Ga1 Rh8 N4'
_cell_volume   446.56445458
_cell_formula_units_Z   1
loop_
 _symmetry_equiv_pos_site_id
 _symmetry_equiv_pos_as_xyz
  1  'x, y, z'
loop_
 _atom_site_type_symbol
 _atom_site_label
 _atom_site_symmetry_multiplicity
 _atom_site_fract_x
 _atom_site_fract_y
 _atom_site_fract_z
 _atom_site_occupancy
  Zr  Zr0  1  0.810417  0.810417  0.189777  1
  Zr  Zr1  1  0.189952  0.189952  0.810291  1
  Zr  Zr2  1  0.810417  0.189777  0.810417  1
  Zr  Zr3  1  0.189952  0.810291  0.189952  1
  Zr  Zr4  1  0.189777  0.810417  0.810417  1
  Zr  Zr5  1  0.810291  0.189952  0.189952  1
  Zr  Zr6  1  0.439583  0.439583  0.060223  1
  Zr  Zr7  1  0.060048  0.060048  0.439709  1
  Zr  Zr8  1  0.439583  0.060223  0.439583  1
  Zr  Zr9  1  0.060048  0.439709  0.060048  1
  Zr  Zr10  1  0.060223  0.439583  0.439583  1
  Zr  Zr11  1  0.439709  0.060048  0.060048  1
  Al  Al12  1  0.125000  0.625000  0.625000  1
  Al  Al13  1  0.625000  0.125000  0.625000  1
  Al  Al14  1  0.625000  0.625000  0.125000  1
  Ga  Ga15  1  0.625000  0.625000  0.625000  1
  Rh  Rh16  1  0.754321  0.414165  0.414165  1
  Rh  Rh17  1  0.414165  0.754321  0.414165  1
  Rh  Rh18  1  0.414165  0.414165  0.754321  1
  Rh  Rh19  1  0.414878  0.414878  0.414878  1
  Rh  Rh20  1  0.495679  0.835835  0.835835  1
  Rh  Rh21  1  0.835835  0.495679  0.835835  1
  Rh  Rh22  1  0.835835  0.835835  0.495679  1
  Rh  Rh23  1  0.835122  0.835122  0.835122  1
  N  N24  1  0.625000  0.125000  0.125000  1
  N  N25  1  0.125000  0.625000  0.125000  1
  N  N26  1  0.125000  0.125000  0.625000  1
  N  N27  1  0.125000  0.125000  0.125000  1
