# generated using pymatgen
data_Tm10AlIn2Sb3
_symmetry_space_group_name_H-M   'P 1'
_cell_length_a   8.78682914
_cell_length_b   8.80177736
_cell_length_c   6.40219500
_cell_angle_alpha   90.00000000
_cell_angle_beta   90.00000000
_cell_angle_gamma   119.49765159
_symmetry_Int_Tables_number   1
_chemical_formula_structural   Tm10AlIn2Sb3
_chemical_formula_sum   'Tm10 Al1 In2 Sb3'
_cell_volume   430.96133226
_cell_formula_units_Z   1
loop_
 _symmetry_equiv_pos_site_id
 _symmetry_equiv_pos_as_xyz
  1  'x, y, z'
loop_
 _atom_site_type_symbol
 _atom_site_label
 _atom_site_symmetry_multiplicity
 _atom_site_fract_x
 _atom_site_fract_y
 _atom_site_fract_z
 _atom_site_occupancy
  Tm  Tm0  1  0.327029  0.669270  0.002860  1
  Tm  Tm1  1  0.672532  0.336304  0.497772  1
  Tm  Tm2  1  0.672532  0.336304  0.002228  1
  Tm  Tm3  1  0.327029  0.669270  0.497140  1
  Tm  Tm4  1  0.228151  0.988439  0.250000  1
  Tm  Tm5  1  0.765825  0.002450  0.750000  1
  Tm  Tm6  1  0.991535  0.237940  0.250000  1
  Tm  Tm7  1  0.765123  0.760950  0.250000  1
  Tm  Tm8  1  0.242556  0.236298  0.750000  1
  Tm  Tm9  1  0.008208  0.765929  0.750000  1
  Al  Al10  1  0.996695  0.600748  0.250000  1
  In  In11  1  0.600640  0.998413  0.250000  1
  In  In12  1  0.403812  0.003977  0.750000  1
  Sb  Sb13  1  0.388838  0.390021  0.250000  1
  Sb  Sb14  1  0.607395  0.608479  0.750000  1
  Sb  Sb15  1  0.002101  0.395208  0.750000  1
