# generated using pymatgen
data_NdHo2(Si3Pd10)2
_symmetry_space_group_name_H-M   'P 1'
_cell_length_a   8.72602360
_cell_length_b   8.72602415
_cell_length_c   8.72602400
_cell_angle_alpha   60.00000057
_cell_angle_beta   59.99999850
_cell_angle_gamma   60.00000107
_symmetry_Int_Tables_number   1
_chemical_formula_structural   NdHo2(Si3Pd10)2
_chemical_formula_sum   'Nd1 Ho2 Si6 Pd20'
_cell_volume   469.82292009
_cell_formula_units_Z   1
loop_
 _symmetry_equiv_pos_site_id
 _symmetry_equiv_pos_as_xyz
  1  'x, y, z'
loop_
 _atom_site_type_symbol
 _atom_site_label
 _atom_site_symmetry_multiplicity
 _atom_site_fract_x
 _atom_site_fract_y
 _atom_site_fract_z
 _atom_site_occupancy
  Nd  Nd0  1  0.250000  0.250000  0.250000  1
  Ho  Ho1  1  0.750000  0.750000  0.750000  1
  Ho  Ho2  1  0.000000  0.000000  0.000000  1
  Si  Si3  1  0.732682  0.267318  0.267318  1
  Si  Si4  1  0.267318  0.732682  0.732682  1
  Si  Si5  1  0.267318  0.732682  0.267318  1
  Si  Si6  1  0.732682  0.267318  0.732682  1
  Si  Si7  1  0.267318  0.267318  0.732682  1
  Si  Si8  1  0.732682  0.732682  0.267318  1
  Pd  Pd9  1  0.385310  0.385310  0.385310  1
  Pd  Pd10  1  0.617021  0.617021  0.617021  1
  Pd  Pd11  1  0.385310  0.385310  0.844070  1
  Pd  Pd12  1  0.385310  0.844070  0.385310  1
  Pd  Pd13  1  0.617021  0.617021  0.148937  1
  Pd  Pd14  1  0.617021  0.148937  0.617021  1
  Pd  Pd15  1  0.844070  0.385310  0.385310  1
  Pd  Pd16  1  0.148937  0.617021  0.617021  1
  Pd  Pd17  1  0.346231  0.998901  0.998901  1
  Pd  Pd18  1  0.655966  0.998901  0.998901  1
  Pd  Pd19  1  0.998901  0.346231  0.655966  1
  Pd  Pd20  1  0.998901  0.655966  0.346231  1
  Pd  Pd21  1  0.998901  0.346231  0.998901  1
  Pd  Pd22  1  0.655966  0.998901  0.346231  1
  Pd  Pd23  1  0.998901  0.655966  0.998901  1
  Pd  Pd24  1  0.346231  0.998901  0.655966  1
  Pd  Pd25  1  0.998901  0.998901  0.346231  1
  Pd  Pd26  1  0.998901  0.998901  0.655966  1
  Pd  Pd27  1  0.655966  0.346231  0.998901  1
  Pd  Pd28  1  0.346231  0.655966  0.998901  1
