# generated using pymatgen
data_Dy2YCo8MoP6
_symmetry_space_group_name_H-M   'P 1'
_cell_length_a   3.71977100
_cell_length_b   10.56149900
_cell_length_c   12.25403100
_cell_angle_alpha   90.00000000
_cell_angle_beta   90.00000000
_cell_angle_gamma   90.00000000
_symmetry_Int_Tables_number   1
_chemical_formula_structural   Dy2YCo8MoP6
_chemical_formula_sum   'Dy4 Y2 Co16 Mo2 P12'
_cell_volume   481.41624509
_cell_formula_units_Z   2
loop_
 _symmetry_equiv_pos_site_id
 _symmetry_equiv_pos_as_xyz
  1  'x, y, z'
loop_
 _atom_site_type_symbol
 _atom_site_label
 _atom_site_symmetry_multiplicity
 _atom_site_fract_x
 _atom_site_fract_y
 _atom_site_fract_z
 _atom_site_occupancy
  Dy  Dy0  1  0.500000  0.818979  0.204956  1
  Dy  Dy1  1  0.500000  0.181021  0.204956  1
  Dy  Dy2  1  0.000000  0.681021  0.795044  1
  Dy  Dy3  1  0.000000  0.318979  0.795044  1
  Y  Y4  1  0.000000  0.500000  0.524214  1
  Y  Y5  1  0.500000  0.000000  0.475786  1
  Co  Co6  1  0.500000  0.500000  0.701832  1
  Co  Co7  1  0.000000  0.000000  0.298168  1
  Co  Co8  1  0.000000  0.500000  0.986515  1
  Co  Co9  1  0.500000  0.000000  0.013485  1
  Co  Co10  1  0.500000  0.332416  0.990325  1
  Co  Co11  1  0.500000  0.667584  0.990325  1
  Co  Co12  1  0.000000  0.167584  0.009675  1
  Co  Co13  1  0.000000  0.832416  0.009675  1
  Co  Co14  1  0.500000  0.295857  0.431351  1
  Co  Co15  1  0.500000  0.704143  0.431351  1
  Co  Co16  1  0.000000  0.204143  0.568649  1
  Co  Co17  1  0.000000  0.795857  0.568649  1
  Co  Co18  1  0.500000  0.878220  0.706860  1
  Co  Co19  1  0.500000  0.121780  0.706860  1
  Co  Co20  1  0.000000  0.621780  0.293140  1
  Co  Co21  1  0.000000  0.378220  0.293140  1
  Mo  Mo22  1  0.500000  0.500000  0.156256  1
  Mo  Mo23  1  0.000000  0.000000  0.843744  1
  P  P24  1  0.500000  0.500000  0.881238  1
  P  P25  1  0.000000  0.000000  0.118762  1
  P  P26  1  0.500000  0.500000  0.348961  1
  P  P27  1  0.000000  0.000000  0.651039  1
  P  P28  1  0.500000  0.310980  0.615912  1
  P  P29  1  0.500000  0.689020  0.615912  1
  P  P30  1  0.000000  0.189020  0.384088  1
  P  P31  1  0.000000  0.810980  0.384088  1
  P  P32  1  0.500000  0.844763  0.893088  1
  P  P33  1  0.500000  0.155237  0.893088  1
  P  P34  1  0.000000  0.655237  0.106912  1
  P  P35  1  0.000000  0.344763  0.106912  1
