# generated using pymatgen
data_Nd6PtI10
_symmetry_space_group_name_H-M   'P 1'
_cell_length_a   7.98051769
_cell_length_b   10.02630386
_cell_length_c   10.04829691
_cell_angle_alpha   107.48473249
_cell_angle_beta   97.07942842
_cell_angle_gamma   105.07546807
_symmetry_Int_Tables_number   1
_chemical_formula_structural   Nd6PtI10
_chemical_formula_sum   'Nd6 Pt1 I10'
_cell_volume   722.55454331
_cell_formula_units_Z   1
loop_
 _symmetry_equiv_pos_site_id
 _symmetry_equiv_pos_as_xyz
  1  'x, y, z'
loop_
 _atom_site_type_symbol
 _atom_site_label
 _atom_site_symmetry_multiplicity
 _atom_site_fract_x
 _atom_site_fract_y
 _atom_site_fract_z
 _atom_site_occupancy
  Nd  Nd0  1  0.883018  0.959183  0.245611  1
  Nd  Nd1  1  0.116982  0.040817  0.754389  1
  Nd  Nd2  1  0.355040  0.128375  0.169450  1
  Nd  Nd3  1  0.644960  0.871625  0.830550  1
  Nd  Nd4  1  0.970519  0.291590  0.088373  1
  Nd  Nd5  1  0.029481  0.708410  0.911627  1
  Pt  Pt6  1  0.000000  0.000000  0.000000  1
  I  I7  1  0.357579  0.455235  0.273340  1
  I  I8  1  0.642421  0.544765  0.726660  1
  I  I9  1  0.913936  0.629391  0.180437  1
  I  I10  1  0.086064  0.370609  0.819563  1
  I  I11  1  0.453263  0.816960  0.091807  1
  I  I12  1  0.546737  0.183040  0.908193  1
  I  I13  1  0.261793  0.088297  0.462463  1
  I  I14  1  0.738207  0.911703  0.537537  1
  I  I15  1  0.783766  0.260725  0.349399  1
  I  I16  1  0.216234  0.739275  0.650601  1
