# generated using pymatgen
data_Ca7HgN4
_symmetry_space_group_name_H-M   'P 1'
_cell_length_a   3.63844600
_cell_length_b   12.02176700
_cell_length_c   11.60851400
_cell_angle_alpha   90.00000000
_cell_angle_beta   90.00000000
_cell_angle_gamma   90.00000000
_symmetry_Int_Tables_number   1
_chemical_formula_structural   Ca7HgN4
_chemical_formula_sum   'Ca14 Hg2 N8'
_cell_volume   507.76278767
_cell_formula_units_Z   2
loop_
 _symmetry_equiv_pos_site_id
 _symmetry_equiv_pos_as_xyz
  1  'x, y, z'
loop_
 _atom_site_type_symbol
 _atom_site_label
 _atom_site_symmetry_multiplicity
 _atom_site_fract_x
 _atom_site_fract_y
 _atom_site_fract_z
 _atom_site_occupancy
  Ca  Ca0  1  0.500841  0.671188  0.236523  1
  Ca  Ca1  1  0.500841  0.328812  0.763477  1
  Ca  Ca2  1  0.499159  0.171188  0.263477  1
  Ca  Ca3  1  0.499159  0.828812  0.736523  1
  Ca  Ca4  1  0.499547  0.500000  0.000000  1
  Ca  Ca5  1  0.500453  0.000000  0.500000  1
  Ca  Ca6  1  0.999601  0.929040  0.266424  1
  Ca  Ca7  1  0.999601  0.070960  0.733576  1
  Ca  Ca8  1  0.000399  0.429040  0.233576  1
  Ca  Ca9  1  0.000399  0.570960  0.766424  1
  Ca  Ca10  1  0.000448  0.765382  0.479489  1
  Ca  Ca11  1  0.000448  0.234618  0.520511  1
  Ca  Ca12  1  0.999552  0.265382  0.020511  1
  Ca  Ca13  1  0.999552  0.734618  0.979489  1
  Hg  Hg14  1  0.491161  0.500000  0.500000  1
  Hg  Hg15  1  0.508839  0.000000  0.000000  1
  N  N16  1  0.000913  0.602405  0.130453  1
  N  N17  1  0.000913  0.397595  0.869547  1
  N  N18  1  0.999087  0.102405  0.369547  1
  N  N19  1  0.999087  0.897595  0.630453  1
  N  N20  1  0.500065  0.832465  0.359128  1
  N  N21  1  0.500065  0.167535  0.640872  1
  N  N22  1  0.499935  0.332465  0.140872  1
  N  N23  1  0.499935  0.667535  0.859128  1
