# generated using pymatgen
data_Cd2Sb2Pb
_symmetry_space_group_name_H-M   'P 1'
_cell_length_a   4.81492000
_cell_length_b   4.81491947
_cell_length_c   7.57905100
_cell_angle_alpha   90.00000000
_cell_angle_beta   90.00000000
_cell_angle_gamma   119.99998992
_symmetry_Int_Tables_number   1
_chemical_formula_structural   Cd2Sb2Pb
_chemical_formula_sum   'Cd2 Sb2 Pb1'
_cell_volume   152.16809676
_cell_formula_units_Z   1
loop_
 _symmetry_equiv_pos_site_id
 _symmetry_equiv_pos_as_xyz
  1  'x, y, z'
loop_
 _atom_site_type_symbol
 _atom_site_label
 _atom_site_symmetry_multiplicity
 _atom_site_fract_x
 _atom_site_fract_y
 _atom_site_fract_z
 _atom_site_occupancy
  Cd  Cd0  1  0.666667  0.333333  0.367387  1
  Cd  Cd1  1  0.333333  0.666667  0.632613  1
  Sb  Sb2  1  0.666667  0.333333  0.764475  1
  Sb  Sb3  1  0.333333  0.666667  0.235525  1
  Pb  Pb4  1  0.000000  0.000000  0.000000  1
