# generated using pymatgen
data_SrPr2ZrGa2(FeO6)2
_symmetry_space_group_name_H-M   'P 1'
_cell_length_a   11.10221038
_cell_length_b   11.16049478
_cell_length_c   11.17187700
_cell_angle_alpha   109.51391173
_cell_angle_beta   109.33032689
_cell_angle_gamma   109.25399607
_symmetry_Int_Tables_number   1
_chemical_formula_structural   SrPr2ZrGa2(FeO6)2
_chemical_formula_sum   'Sr4 Pr8 Zr4 Ga8 Fe8 O48'
_cell_volume   1069.73093669
_cell_formula_units_Z   4
loop_
 _symmetry_equiv_pos_site_id
 _symmetry_equiv_pos_as_xyz
  1  'x, y, z'
loop_
 _atom_site_type_symbol
 _atom_site_label
 _atom_site_symmetry_multiplicity
 _atom_site_fract_x
 _atom_site_fract_y
 _atom_site_fract_z
 _atom_site_occupancy
  Sr  Sr0  1  0.622472  0.241659  0.373573  1
  Sr  Sr1  1  0.874562  0.121902  0.245350  1
  Sr  Sr2  1  0.126005  0.878565  0.754427  1
  Sr  Sr3  1  0.376506  0.758558  0.625927  1
  Pr  Pr4  1  0.250021  0.623262  0.876794  1
  Pr  Pr5  1  0.628103  0.370989  0.750565  1
  Pr  Pr6  1  0.126750  0.252415  0.880824  1
  Pr  Pr7  1  0.249709  0.123003  0.369709  1
  Pr  Pr8  1  0.873305  0.747690  0.119075  1
  Pr  Pr9  1  0.750712  0.877020  0.630571  1
  Pr  Pr10  1  0.371456  0.628979  0.249226  1
  Pr  Pr11  1  0.749957  0.376614  0.123069  1
  Zr  Zr12  1  0.000228  0.999471  0.500038  1
  Zr  Zr13  1  0.499739  0.000038  0.999529  1
  Zr  Zr14  1  0.000765  0.500446  0.499419  1
  Zr  Zr15  1  0.499079  0.499658  0.498880  1
  Ga  Ga16  1  0.253875  0.374144  0.631956  1
  Ga  Ga17  1  0.623369  0.872101  0.249148  1
  Ga  Ga18  1  0.376523  0.127972  0.751185  1
  Ga  Ga19  1  0.752918  0.129451  0.871695  1
  Ga  Ga20  1  0.746078  0.625207  0.367886  1
  Ga  Ga21  1  0.129177  0.747333  0.369963  1
  Ga  Ga22  1  0.374424  0.251467  0.125236  1
  Ga  Ga23  1  0.119282  0.366654  0.240239  1
  Fe  Fe24  1  0.880810  0.633519  0.759836  1
  Fe  Fe25  1  0.625026  0.748200  0.873760  1
  Fe  Fe26  1  0.871130  0.252307  0.629476  1
  Fe  Fe27  1  0.246848  0.870477  0.128243  1
  Fe  Fe28  1  0.499837  0.499061  0.000648  1
  Fe  Fe29  1  0.001547  0.003555  0.001517  1
  Fe  Fe30  1  0.499340  0.000026  0.501186  1
  Fe  Fe31  1  0.000269  0.498791  0.001785  1
  O  O32  1  0.297088  0.876315  0.982072  1
  O  O33  1  0.412728  0.294217  0.316367  1
  O  O34  1  0.684648  0.483926  0.606757  1
  O  O35  1  0.025561  0.619180  0.708176  1
  O  O36  1  0.475260  0.792440  0.881856  1
  O  O37  1  0.204118  0.516471  0.622316  1
  O  O38  1  0.884097  0.299210  0.484618  1
  O  O39  1  0.024796  0.403506  0.823919  1
  O  O40  1  0.677074  0.203446  0.589536  1
  O  O41  1  0.396358  0.018049  0.322382  1
  O  O42  1  0.616063  0.014373  0.200247  1
  O  O43  1  0.620028  0.594826  0.917102  1
  O  O44  1  0.087723  0.179637  0.200833  1
  O  O45  1  0.403155  0.378693  0.586105  1
  O  O46  1  0.299119  0.417498  0.823520  1
  O  O47  1  0.106076  0.183736  0.483155  1
  O  O48  1  0.880334  0.582413  0.906976  1
  O  O49  1  0.820095  0.897331  0.018264  1
  O  O50  1  0.917263  0.098594  0.625236  1
  O  O51  1  0.201405  0.674022  0.080947  1
  O  O52  1  0.584383  0.880214  0.402735  1
  O  O53  1  0.815659  0.908946  0.294297  1
  O  O54  1  0.523940  0.320993  0.902421  1
  O  O55  1  0.094496  0.916526  0.120925  1
  O  O56  1  0.904810  0.086358  0.881536  1
  O  O57  1  0.476485  0.678419  0.098176  1
  O  O58  1  0.184569  0.091426  0.706345  1
  O  O59  1  0.414457  0.119599  0.597463  1
  O  O60  1  0.799838  0.323258  0.918915  1
  O  O61  1  0.084325  0.899361  0.376438  1
  O  O62  1  0.181387  0.103753  0.983791  1
  O  O63  1  0.118308  0.415569  0.094718  1
  O  O64  1  0.893644  0.815360  0.516550  1
  O  O65  1  0.701235  0.581941  0.176596  1
  O  O66  1  0.596637  0.621085  0.413121  1
  O  O67  1  0.913347  0.823776  0.799384  1
  O  O68  1  0.381479  0.404166  0.084340  1
  O  O69  1  0.383805  0.985404  0.799023  1
  O  O70  1  0.604684  0.985078  0.680090  1
  O  O71  1  0.321223  0.797531  0.410004  1
  O  O72  1  0.978519  0.597422  0.179016  1
  O  O73  1  0.114916  0.701092  0.512369  1
  O  O74  1  0.796153  0.482718  0.376843  1
  O  O75  1  0.521589  0.207398  0.116681  1
  O  O76  1  0.977118  0.381837  0.290922  1
  O  O77  1  0.312361  0.513631  0.391638  1
  O  O78  1  0.585553  0.705870  0.679370  1
  O  O79  1  0.702267  0.122850  0.015172  1
