# generated using pymatgen
data_Lu3InSn3Ru2
_symmetry_space_group_name_H-M   'P 1'
_cell_length_a   7.77853900
_cell_length_b   7.77853929
_cell_length_c   3.75523000
_cell_angle_alpha   90.00000000
_cell_angle_beta   90.00000000
_cell_angle_gamma   119.99998716
_symmetry_Int_Tables_number   1
_chemical_formula_structural   Lu3InSn3Ru2
_chemical_formula_sum   'Lu3 In1 Sn3 Ru2'
_cell_volume   196.77200589
_cell_formula_units_Z   1
loop_
 _symmetry_equiv_pos_site_id
 _symmetry_equiv_pos_as_xyz
  1  'x, y, z'
loop_
 _atom_site_type_symbol
 _atom_site_label
 _atom_site_symmetry_multiplicity
 _atom_site_fract_x
 _atom_site_fract_y
 _atom_site_fract_z
 _atom_site_occupancy
  Lu  Lu0  1  0.411961  0.379715  0.500000  1
  Lu  Lu1  1  0.620285  0.032246  0.500000  1
  Lu  Lu2  1  0.967754  0.588039  0.500000  1
  In  In3  1  0.333333  0.666667  0.000000  1
  Sn  Sn4  1  0.745550  0.737257  0.000000  1
  Sn  Sn5  1  0.262743  0.008294  0.000000  1
  Sn  Sn6  1  0.991706  0.254450  0.000000  1
  Ru  Ru7  1  0.666667  0.333333  0.000000  1
  Ru  Ru8  1  0.000000  0.000000  0.500000  1
