# generated using pymatgen
data_Be2Nb6GaP
_symmetry_space_group_name_H-M   'P 1'
_cell_length_a   6.66863512
_cell_length_b   6.68516583
_cell_length_c   3.42044200
_cell_angle_alpha   90.00000000
_cell_angle_beta   90.00000000
_cell_angle_gamma   89.57705944
_symmetry_Int_Tables_number   1
_chemical_formula_structural   Be2Nb6GaP
_chemical_formula_sum   'Be2 Nb6 Ga1 P1'
_cell_volume   152.48233669
_cell_formula_units_Z   1
loop_
 _symmetry_equiv_pos_site_id
 _symmetry_equiv_pos_as_xyz
  1  'x, y, z'
loop_
 _atom_site_type_symbol
 _atom_site_label
 _atom_site_symmetry_multiplicity
 _atom_site_fract_x
 _atom_site_fract_y
 _atom_site_fract_z
 _atom_site_occupancy
  Be  Be0  1  0.621579  0.876254  0.000000  1
  Be  Be1  1  0.116915  0.621682  0.000000  1
  Nb  Nb2  1  0.995492  0.993850  0.000000  1
  Nb  Nb3  1  0.498868  0.507450  0.000000  1
  Nb  Nb4  1  0.691183  0.176336  0.500000  1
  Nb  Nb5  1  0.168222  0.336006  0.500000  1
  Nb  Nb6  1  0.822479  0.677875  0.500000  1
  Nb  Nb7  1  0.318903  0.807760  0.500000  1
  Ga  Ga8  1  0.382893  0.115311  0.000000  1
  P  P9  1  0.883466  0.387476  0.000000  1
