# generated using pymatgen
data_K2Os3Cl7O5
_symmetry_space_group_name_H-M   'P 1'
_cell_length_a   9.52417807
_cell_length_b   9.52417792
_cell_length_c   10.57708032
_cell_angle_alpha   72.27415676
_cell_angle_beta   72.27415987
_cell_angle_gamma   53.66251928
_symmetry_Int_Tables_number   1
_chemical_formula_structural   K2Os3Cl7O5
_chemical_formula_sum   'K4 Os6 Cl14 O10'
_cell_volume   726.49497690
_cell_formula_units_Z   2
loop_
 _symmetry_equiv_pos_site_id
 _symmetry_equiv_pos_as_xyz
  1  'x, y, z'
loop_
 _atom_site_type_symbol
 _atom_site_label
 _atom_site_symmetry_multiplicity
 _atom_site_fract_x
 _atom_site_fract_y
 _atom_site_fract_z
 _atom_site_occupancy
  K  K0  1  0.824763  0.741133  0.862722  1
  K  K1  1  0.258867  0.175237  0.637278  1
  K  K2  1  0.741133  0.824763  0.362722  1
  K  K3  1  0.175237  0.258867  0.137278  1
  Os  Os4  1  0.788862  0.208604  0.955459  1
  Os  Os5  1  0.208604  0.788862  0.455459  1
  Os  Os6  1  0.211138  0.791396  0.044541  1
  Os  Os7  1  0.560133  0.439867  0.250000  1
  Os  Os8  1  0.439867  0.560133  0.750000  1
  Os  Os9  1  0.791396  0.211138  0.544541  1
  Cl  Cl10  1  0.055459  0.646669  0.130377  1
  Cl  Cl11  1  0.353331  0.944541  0.369623  1
  Cl  Cl12  1  0.356432  0.944972  0.964326  1
  Cl  Cl13  1  0.646669  0.055459  0.630377  1
  Cl  Cl14  1  0.283574  0.415254  0.830076  1
  Cl  Cl15  1  0.918038  0.081962  0.750000  1
  Cl  Cl16  1  0.055028  0.643568  0.535674  1
  Cl  Cl17  1  0.643568  0.055028  0.035674  1
  Cl  Cl18  1  0.584746  0.716426  0.669924  1
  Cl  Cl19  1  0.944972  0.356432  0.464326  1
  Cl  Cl20  1  0.081962  0.918038  0.250000  1
  Cl  Cl21  1  0.716426  0.584746  0.169924  1
  Cl  Cl22  1  0.415254  0.283574  0.330076  1
  Cl  Cl23  1  0.944541  0.353331  0.869623  1
  O  O24  1  0.402995  0.595313  0.375796  1
  O  O25  1  0.292671  0.707620  0.880268  1
  O  O26  1  0.292380  0.707329  0.619732  1
  O  O27  1  0.707329  0.292380  0.119732  1
  O  O28  1  0.597005  0.404687  0.624204  1
  O  O29  1  0.000000  0.000000  0.000000  1
  O  O30  1  0.707620  0.292671  0.380268  1
  O  O31  1  0.595313  0.402995  0.875796  1
  O  O32  1  0.404687  0.597005  0.124204  1
  O  O33  1  0.000000  0.000000  0.500000  1
