# generated using pymatgen
data_Hf6As5IrRu6
_symmetry_space_group_name_H-M   'P 1'
_cell_length_a   7.62966898
_cell_length_b   7.72445371
_cell_length_c   7.62967009
_cell_angle_alpha   128.81705809
_cell_angle_beta   117.50484074
_cell_angle_gamma   84.53353458
_symmetry_Int_Tables_number   1
_chemical_formula_structural   Hf6As5IrRu6
_chemical_formula_sum   'Hf6 As5 Ir1 Ru6'
_cell_volume   298.22514803
_cell_formula_units_Z   1
loop_
 _symmetry_equiv_pos_site_id
 _symmetry_equiv_pos_as_xyz
  1  'x, y, z'
loop_
 _atom_site_type_symbol
 _atom_site_label
 _atom_site_symmetry_multiplicity
 _atom_site_fract_x
 _atom_site_fract_y
 _atom_site_fract_z
 _atom_site_occupancy
  Hf  Hf0  1  0.450122  0.672272  0.722149  1
  Hf  Hf1  1  0.511283  0.251099  0.239816  1
  Hf  Hf2  1  0.747545  0.843556  0.596011  1
  Hf  Hf3  1  0.245867  0.830314  0.084446  1
  Hf  Hf4  1  0.069352  0.256424  0.687073  1
  Hf  Hf5  1  0.959158  0.666330  0.207172  1
  As  As6  1  0.728456  0.254970  0.026514  1
  As  As7  1  0.332747  0.585316  0.251322  1
  As  As8  1  0.676405  0.921879  0.262570  1
  As  As9  1  0.159309  0.921879  0.745474  1
  As  As10  1  0.833994  0.585316  0.752568  1
  Ir  Ir11  1  0.278517  0.251387  0.472871  1
  Ru  Ru12  1  0.504182  0.496878  0.999709  1
  Ru  Ru13  1  0.997169  0.496878  0.492696  1
  Ru  Ru14  1  0.075754  0.253011  0.081580  1
  Ru  Ru15  1  0.876190  0.009541  0.127021  1
  Ru  Ru16  1  0.382520  0.009541  0.633351  1
  Ru  Ru17  1  0.671431  0.253011  0.677257  1
