# generated using pymatgen
data_HoHf3(Rh5Pb)2
_symmetry_space_group_name_H-M   'P 1'
_cell_length_a   4.17905800
_cell_length_b   5.69177865
_cell_length_c   11.34263104
_cell_angle_alpha   89.91439543
_cell_angle_beta   90.00000000
_cell_angle_gamma   90.00000000
_symmetry_Int_Tables_number   1
_chemical_formula_structural   HoHf3(Rh5Pb)2
_chemical_formula_sum   'Ho1 Hf3 Rh10 Pb2'
_cell_volume   269.79861858
_cell_formula_units_Z   1
loop_
 _symmetry_equiv_pos_site_id
 _symmetry_equiv_pos_as_xyz
  1  'x, y, z'
loop_
 _atom_site_type_symbol
 _atom_site_label
 _atom_site_symmetry_multiplicity
 _atom_site_fract_x
 _atom_site_fract_y
 _atom_site_fract_z
 _atom_site_occupancy
  Ho  Ho0  1  0.500000  0.190780  0.640249  1
  Hf  Hf1  1  0.500000  0.814511  0.357711  1
  Hf  Hf2  1  0.500000  0.687775  0.856921  1
  Hf  Hf3  1  0.500000  0.316006  0.140146  1
  Rh  Rh4  1  0.500000  0.217584  0.888187  1
  Rh  Rh5  1  0.500000  0.785847  0.119998  1
  Rh  Rh6  1  0.500000  0.709260  0.619895  1
  Rh  Rh7  1  0.500000  0.286387  0.374474  1
  Rh  Rh8  1  0.000000  0.455248  0.757069  1
  Rh  Rh9  1  0.000000  0.552339  0.247802  1
  Rh  Rh10  1  0.000000  0.990707  0.493754  1
  Rh  Rh11  1  0.000000  0.501433  0.001737  1
  Rh  Rh12  1  0.000000  0.051735  0.249117  1
  Rh  Rh13  1  0.000000  0.944130  0.753494  1
  Pb  Pb14  1  0.000000  0.497369  0.498298  1
  Pb  Pb15  1  0.000000  0.998889  0.001148  1
