# generated using pymatgen
data_Ba4ZrMn2NiO12
_symmetry_space_group_name_H-M   'P 1'
_cell_length_a   10.07448713
_cell_length_b   10.07448650
_cell_length_c   10.07448552
_cell_angle_alpha   33.48177289
_cell_angle_beta   33.48177834
_cell_angle_gamma   33.48177154
_symmetry_Int_Tables_number   1
_chemical_formula_structural   Ba4ZrMn2NiO12
_chemical_formula_sum   'Ba4 Zr1 Mn2 Ni1 O12'
_cell_volume   277.15275023
_cell_formula_units_Z   1
loop_
 _symmetry_equiv_pos_site_id
 _symmetry_equiv_pos_as_xyz
  1  'x, y, z'
loop_
 _atom_site_type_symbol
 _atom_site_label
 _atom_site_symmetry_multiplicity
 _atom_site_fract_x
 _atom_site_fract_y
 _atom_site_fract_z
 _atom_site_occupancy
  Ba  Ba0  1  0.713984  0.713984  0.713984  1
  Ba  Ba1  1  0.286016  0.286016  0.286016  1
  Ba  Ba2  1  0.870421  0.870421  0.870421  1
  Ba  Ba3  1  0.129579  0.129579  0.129579  1
  Zr  Zr4  1  0.000000  0.000000  0.000000  1
  Mn  Mn5  1  0.411990  0.411990  0.411990  1
  Mn  Mn6  1  0.588010  0.588010  0.588010  1
  Ni  Ni7  1  0.500000  0.500000  0.500000  1
  O  O8  1  0.214562  0.214562  0.697684  1
  O  O9  1  0.697684  0.214562  0.214562  1
  O  O10  1  0.214562  0.697684  0.214562  1
  O  O11  1  0.785438  0.302316  0.785438  1
  O  O12  1  0.785438  0.785438  0.302316  1
  O  O13  1  0.302316  0.785438  0.785438  1
  O  O14  1  0.396938  0.396938  0.833131  1
  O  O15  1  0.833131  0.396938  0.396938  1
  O  O16  1  0.166869  0.603062  0.603062  1
  O  O17  1  0.603062  0.603062  0.166869  1
  O  O18  1  0.603062  0.166869  0.603062  1
  O  O19  1  0.396938  0.833131  0.396938  1
