# generated using pymatgen
data_Cs3LiPtO4
_symmetry_space_group_name_H-M   'P 1'
_cell_length_a   7.81947862
_cell_length_b   7.81947968
_cell_length_c   6.48679700
_cell_angle_alpha   78.29682830
_cell_angle_beta   78.29682669
_cell_angle_gamma   87.02541082
_symmetry_Int_Tables_number   1
_chemical_formula_structural   Cs3LiPtO4
_chemical_formula_sum   'Cs6 Li2 Pt2 O8'
_cell_volume   380.28724045
_cell_formula_units_Z   2
loop_
 _symmetry_equiv_pos_site_id
 _symmetry_equiv_pos_as_xyz
  1  'x, y, z'
loop_
 _atom_site_type_symbol
 _atom_site_label
 _atom_site_symmetry_multiplicity
 _atom_site_fract_x
 _atom_site_fract_y
 _atom_site_fract_z
 _atom_site_occupancy
  Cs  Cs0  1  0.068153  0.246437  0.022901  1
  Cs  Cs1  1  0.593819  0.406181  0.250000  1
  Cs  Cs2  1  0.246437  0.068153  0.522901  1
  Cs  Cs3  1  0.753563  0.931847  0.477099  1
  Cs  Cs4  1  0.931847  0.753563  0.977099  1
  Cs  Cs5  1  0.406181  0.593819  0.750000  1
  Li  Li6  1  0.732007  0.267993  0.750000  1
  Li  Li7  1  0.267993  0.732007  0.250000  1
  Pt  Pt8  1  0.500000  0.000000  0.000000  1
  Pt  Pt9  1  0.000000  0.500000  0.500000  1
  O  O10  1  0.198031  0.489130  0.258917  1
  O  O11  1  0.910310  0.274250  0.482337  1
  O  O12  1  0.489130  0.198031  0.758917  1
  O  O13  1  0.274250  0.910310  0.982337  1
  O  O14  1  0.089690  0.725750  0.517663  1
  O  O15  1  0.725750  0.089690  0.017663  1
  O  O16  1  0.510870  0.801969  0.241083  1
  O  O17  1  0.801969  0.510870  0.741083  1
