# generated using pymatgen
data_Yb5Sc3(P3Ir4)4
_symmetry_space_group_name_H-M   'P 1'
_cell_length_a   12.83844300
_cell_length_b   12.83844294
_cell_length_c   3.95585100
_cell_angle_alpha   90.00000000
_cell_angle_beta   90.00000000
_cell_angle_gamma   119.99999758
_symmetry_Int_Tables_number   1
_chemical_formula_structural   Yb5Sc3(P3Ir4)4
_chemical_formula_sum   'Yb5 Sc3 P12 Ir16'
_cell_volume   564.67073451
_cell_formula_units_Z   1
loop_
 _symmetry_equiv_pos_site_id
 _symmetry_equiv_pos_as_xyz
  1  'x, y, z'
loop_
 _atom_site_type_symbol
 _atom_site_label
 _atom_site_symmetry_multiplicity
 _atom_site_fract_x
 _atom_site_fract_y
 _atom_site_fract_z
 _atom_site_occupancy
  Yb  Yb0  1  0.666667  0.333333  0.500000  1
  Yb  Yb1  1  0.333333  0.666667  0.500000  1
  Yb  Yb2  1  0.999801  0.815880  0.000000  1
  Yb  Yb3  1  0.184120  0.183920  0.000000  1
  Yb  Yb4  1  0.816080  0.000199  0.000000  1
  Sc  Sc5  1  0.000607  0.444679  0.500000  1
  Sc  Sc6  1  0.555321  0.555928  0.500000  1
  Sc  Sc7  1  0.444072  0.999393  0.500000  1
  P  P8  1  0.999401  0.643508  0.500000  1
  P  P9  1  0.356492  0.355895  0.500000  1
  P  P10  1  0.644105  0.000599  0.500000  1
  P  P11  1  0.516394  0.688851  0.000000  1
  P  P12  1  0.311149  0.827544  0.000000  1
  P  P13  1  0.172456  0.483606  0.000000  1
  P  P14  1  0.483634  0.171850  0.000000  1
  P  P15  1  0.688215  0.516366  0.000000  1
  P  P16  1  0.828150  0.311785  0.000000  1
  P  P17  1  0.000287  0.177743  0.500000  1
  P  P18  1  0.822257  0.822543  0.500000  1
  P  P19  1  0.177457  0.999713  0.500000  1
  Ir  Ir20  1  0.509900  0.869598  0.000000  1
  Ir  Ir21  1  0.130402  0.640303  0.000000  1
  Ir  Ir22  1  0.359697  0.490100  0.000000  1
  Ir  Ir23  1  0.489051  0.359196  0.000000  1
  Ir  Ir24  1  0.870147  0.510949  0.000000  1
  Ir  Ir25  1  0.640804  0.129853  0.000000  1
  Ir  Ir26  1  0.000290  0.278960  0.000000  1
  Ir  Ir27  1  0.721040  0.721329  0.000000  1
  Ir  Ir28  1  0.278671  0.999710  0.000000  1
  Ir  Ir29  1  0.627702  0.807588  0.500000  1
  Ir  Ir30  1  0.192412  0.820114  0.500000  1
  Ir  Ir31  1  0.179886  0.372298  0.500000  1
  Ir  Ir32  1  0.372717  0.178984  0.500000  1
  Ir  Ir33  1  0.806266  0.627283  0.500000  1
  Ir  Ir34  1  0.821016  0.193734  0.500000  1
  Ir  Ir35  1  0.000000  0.000000  0.500000  1
