# generated using pymatgen
data_Dy2Mn3Fe6P6Ir
_symmetry_space_group_name_H-M   'P 1'
_cell_length_a   3.67894400
_cell_length_b   10.32373200
_cell_length_c   12.16098800
_cell_angle_alpha   90.00000000
_cell_angle_beta   90.00000000
_cell_angle_gamma   90.00000000
_symmetry_Int_Tables_number   1
_chemical_formula_structural   Dy2Mn3Fe6P6Ir
_chemical_formula_sum   'Dy4 Mn6 Fe12 P12 Ir2'
_cell_volume   461.87957656
_cell_formula_units_Z   2
loop_
 _symmetry_equiv_pos_site_id
 _symmetry_equiv_pos_as_xyz
  1  'x, y, z'
loop_
 _atom_site_type_symbol
 _atom_site_label
 _atom_site_symmetry_multiplicity
 _atom_site_fract_x
 _atom_site_fract_y
 _atom_site_fract_z
 _atom_site_occupancy
  Dy  Dy0  1  0.250000  0.579812  0.712412  1
  Dy  Dy1  1  0.250000  0.920188  0.212412  1
  Dy  Dy2  1  0.750000  0.419785  0.288894  1
  Dy  Dy3  1  0.750000  0.080215  0.788894  1
  Mn  Mn4  1  0.250000  0.699546  0.988575  1
  Mn  Mn5  1  0.250000  0.800454  0.488575  1
  Mn  Mn6  1  0.750000  0.293416  0.006573  1
  Mn  Mn7  1  0.750000  0.206584  0.506573  1
  Mn  Mn8  1  0.250000  0.399237  0.490430  1
  Mn  Mn9  1  0.250000  0.100763  0.990430  1
  Fe  Fe10  1  0.250000  0.220615  0.170697  1
  Fe  Fe11  1  0.250000  0.279385  0.670697  1
  Fe  Fe12  1  0.750000  0.775415  0.827556  1
  Fe  Fe13  1  0.750000  0.724585  0.327556  1
  Fe  Fe14  1  0.250000  0.877292  0.694655  1
  Fe  Fe15  1  0.250000  0.622708  0.194655  1
  Fe  Fe16  1  0.750000  0.123992  0.304608  1
  Fe  Fe17  1  0.750000  0.376008  0.804608  1
  Fe  Fe18  1  0.250000  0.461146  0.936250  1
  Fe  Fe19  1  0.250000  0.038854  0.436250  1
  Fe  Fe20  1  0.750000  0.536906  0.064494  1
  Fe  Fe21  1  0.750000  0.963094  0.564494  1
  P  P22  1  0.250000  0.423766  0.112920  1
  P  P23  1  0.250000  0.076234  0.612920  1
  P  P24  1  0.750000  0.572736  0.887291  1
  P  P25  1  0.750000  0.927264  0.387291  1
  P  P26  1  0.250000  0.270544  0.858565  1
  P  P27  1  0.250000  0.229456  0.358565  1
  P  P28  1  0.750000  0.727397  0.142258  1
  P  P29  1  0.750000  0.772603  0.642258  1
  P  P30  1  0.250000  0.607381  0.377676  1
  P  P31  1  0.250000  0.892619  0.877676  1
  P  P32  1  0.750000  0.391607  0.622237  1
  P  P33  1  0.750000  0.108393  0.122237  1
  Ir  Ir34  1  0.750000  0.589915  0.513911  1
  Ir  Ir35  1  0.750000  0.910085  0.013911  1
