# generated using pymatgen
data_Y2MnAl20RuRh2
_symmetry_space_group_name_H-M   'P 1'
_cell_length_a   6.82585337
_cell_length_b   6.83699533
_cell_length_c   9.12938274
_cell_angle_alpha   89.83585300
_cell_angle_beta   89.88556426
_cell_angle_gamma   96.83940107
_symmetry_Int_Tables_number   1
_chemical_formula_structural   Y2MnAl20RuRh2
_chemical_formula_sum   'Y2 Mn1 Al20 Ru1 Rh2'
_cell_volume   423.01825803
_cell_formula_units_Z   1
loop_
 _symmetry_equiv_pos_site_id
 _symmetry_equiv_pos_as_xyz
  1  'x, y, z'
loop_
 _atom_site_type_symbol
 _atom_site_label
 _atom_site_symmetry_multiplicity
 _atom_site_fract_x
 _atom_site_fract_y
 _atom_site_fract_z
 _atom_site_occupancy
  Y  Y0  1  0.868094  0.123965  0.751695  1
  Y  Y1  1  0.131906  0.876035  0.248305  1
  Mn  Mn2  1  0.500000  0.000000  0.000000  1
  Al  Al3  1  0.620581  0.375527  0.549674  1
  Al  Al4  1  0.379419  0.624473  0.450326  1
  Al  Al5  1  0.381215  0.628713  0.048109  1
  Al  Al6  1  0.618785  0.371287  0.951891  1
  Al  Al7  1  0.225874  0.223264  0.499728  1
  Al  Al8  1  0.774126  0.776736  0.500272  1
  Al  Al9  1  0.770354  0.779376  0.997810  1
  Al  Al10  1  0.229646  0.220624  0.002190  1
  Al  Al11  1  0.839437  0.152942  0.099340  1
  Al  Al12  1  0.160563  0.847058  0.900660  1
  Al  Al13  1  0.156316  0.844711  0.601650  1
  Al  Al14  1  0.843684  0.155289  0.398350  1
  Al  Al15  1  0.857668  0.589289  0.750769  1
  Al  Al16  1  0.142332  0.410711  0.249231  1
  Al  Al17  1  0.413135  0.138332  0.753378  1
  Al  Al18  1  0.586865  0.861668  0.246622  1
  Al  Al19  1  0.223704  0.479983  0.749955  1
  Al  Al20  1  0.776296  0.520017  0.250045  1
  Al  Al21  1  0.518603  0.780518  0.753000  1
  Al  Al22  1  0.481397  0.219482  0.247000  1
  Ru  Ru23  1  0.500000  0.000000  0.500000  1
  Rh  Rh24  1  0.000000  0.500000  0.500000  1
  Rh  Rh25  1  0.000000  0.500000  0.000000  1
