# generated using pymatgen
data_PaSe4Br
_symmetry_space_group_name_H-M   'P 1'
_cell_length_a   7.58033193
_cell_length_b   8.16928950
_cell_length_c   7.67228639
_cell_angle_alpha   106.35120533
_cell_angle_beta   119.74384118
_cell_angle_gamma   89.09196547
_symmetry_Int_Tables_number   1
_chemical_formula_structural   PaSe4Br
_chemical_formula_sum   'Pa2 Se8 Br2'
_cell_volume   391.43740979
_cell_formula_units_Z   2
loop_
 _symmetry_equiv_pos_site_id
 _symmetry_equiv_pos_as_xyz
  1  'x, y, z'
loop_
 _atom_site_type_symbol
 _atom_site_label
 _atom_site_symmetry_multiplicity
 _atom_site_fract_x
 _atom_site_fract_y
 _atom_site_fract_z
 _atom_site_occupancy
  Pa  Pa0  1  0.308930  0.000356  0.116733  1
  Pa  Pa1  1  0.691083  0.999649  0.883276  1
  Se  Se2  1  0.507281  0.275648  0.062134  1
  Se  Se3  1  0.046921  0.279480  0.136857  1
  Se  Se4  1  0.012595  0.865818  0.201235  1
  Se  Se5  1  0.740422  0.148233  0.306363  1
  Se  Se6  1  0.259541  0.851762  0.693661  1
  Se  Se7  1  0.987457  0.134187  0.798770  1
  Se  Se8  1  0.953141  0.720521  0.863153  1
  Se  Se9  1  0.492693  0.724354  0.937891  1
  Br  Br10  1  0.553989  0.796869  0.423517  1
  Br  Br11  1  0.445948  0.203123  0.576413  1
