# generated using pymatgen
data_TbHo4CoRuO12
_symmetry_space_group_name_H-M   'P 1'
_cell_length_a   6.78176840
_cell_length_b   6.78032243
_cell_length_c   7.22648533
_cell_angle_alpha   74.40101951
_cell_angle_beta   74.40060781
_cell_angle_gamma   50.90756459
_symmetry_Int_Tables_number   1
_chemical_formula_structural   TbHo4CoRuO12
_chemical_formula_sum   'Tb1 Ho4 Co1 Ru1 O12'
_cell_volume   246.19939335
_cell_formula_units_Z   1
loop_
 _symmetry_equiv_pos_site_id
 _symmetry_equiv_pos_as_xyz
  1  'x, y, z'
loop_
 _atom_site_type_symbol
 _atom_site_label
 _atom_site_symmetry_multiplicity
 _atom_site_fract_x
 _atom_site_fract_y
 _atom_site_fract_z
 _atom_site_occupancy
  Tb  Tb0  1  0.305730  0.314387  0.331302  1
  Ho  Ho1  1  0.685334  0.693794  0.669395  1
  Ho  Ho2  1  0.678609  0.713408  0.141444  1
  Ho  Ho3  1  0.995277  0.004897  0.999632  1
  Ho  Ho4  1  0.286390  0.321831  0.857400  1
  Co  Co5  1  0.260496  0.739601  0.500283  1
  Ru  Ru6  1  0.771531  0.228499  0.500340  1
  O  O7  1  0.396291  0.913788  0.921687  1
  O  O8  1  0.578357  0.101300  0.583598  1
  O  O9  1  0.895953  0.423861  0.418037  1
  O  O10  1  0.084966  0.605100  0.076136  1
  O  O11  1  0.017276  0.982828  0.323717  1
  O  O12  1  0.503860  0.495740  0.683001  1
  O  O13  1  0.893020  0.405120  0.929421  1
  O  O14  1  0.096137  0.570681  0.584029  1
  O  O15  1  0.432204  0.900004  0.418077  1
  O  O16  1  0.596077  0.105787  0.068640  1
  O  O17  1  0.504974  0.496513  0.317676  1
  O  O18  1  0.017517  0.982859  0.676183  1
