# generated using pymatgen
data_Ca2Co9TcAs6
_symmetry_space_group_name_H-M   'P 1'
_cell_length_a   3.79567500
_cell_length_b   10.74321600
_cell_length_c   12.27169400
_cell_angle_alpha   90.00000000
_cell_angle_beta   90.00000000
_cell_angle_gamma   90.00000000
_symmetry_Int_Tables_number   1
_chemical_formula_structural   Ca2Co9TcAs6
_chemical_formula_sum   'Ca4 Co18 Tc2 As12'
_cell_volume   500.41214843
_cell_formula_units_Z   2
loop_
 _symmetry_equiv_pos_site_id
 _symmetry_equiv_pos_as_xyz
  1  'x, y, z'
loop_
 _atom_site_type_symbol
 _atom_site_label
 _atom_site_symmetry_multiplicity
 _atom_site_fract_x
 _atom_site_fract_y
 _atom_site_fract_z
 _atom_site_occupancy
  Ca  Ca0  1  0.250000  0.581767  0.702446  1
  Ca  Ca1  1  0.250000  0.918233  0.202446  1
  Ca  Ca2  1  0.750000  0.417474  0.295805  1
  Ca  Ca3  1  0.750000  0.082526  0.795805  1
  Co  Co4  1  0.750000  0.293983  0.011572  1
  Co  Co5  1  0.750000  0.206017  0.511572  1
  Co  Co6  1  0.250000  0.405009  0.490107  1
  Co  Co7  1  0.250000  0.094991  0.990107  1
  Co  Co8  1  0.750000  0.594090  0.511063  1
  Co  Co9  1  0.750000  0.905910  0.011063  1
  Co  Co10  1  0.250000  0.214688  0.175900  1
  Co  Co11  1  0.250000  0.285312  0.675900  1
  Co  Co12  1  0.750000  0.784674  0.824726  1
  Co  Co13  1  0.750000  0.715326  0.324726  1
  Co  Co14  1  0.250000  0.884406  0.698019  1
  Co  Co15  1  0.250000  0.615594  0.198019  1
  Co  Co16  1  0.750000  0.118499  0.303279  1
  Co  Co17  1  0.750000  0.381501  0.803279  1
  Co  Co18  1  0.250000  0.464244  0.933601  1
  Co  Co19  1  0.250000  0.035756  0.433601  1
  Co  Co20  1  0.750000  0.531976  0.065853  1
  Co  Co21  1  0.750000  0.968024  0.565853  1
  Tc  Tc22  1  0.250000  0.705900  0.988277  1
  Tc  Tc23  1  0.250000  0.794100  0.488277  1
  As  As24  1  0.250000  0.415780  0.115099  1
  As  As25  1  0.250000  0.084220  0.615099  1
  As  As26  1  0.750000  0.581954  0.883705  1
  As  As27  1  0.750000  0.918046  0.383705  1
  As  As28  1  0.250000  0.266680  0.867997  1
  As  As29  1  0.250000  0.233320  0.367997  1
  As  As30  1  0.750000  0.731433  0.133854  1
  As  As31  1  0.750000  0.768567  0.633854  1
  As  As32  1  0.250000  0.595105  0.390414  1
  As  As33  1  0.250000  0.904895  0.890414  1
  As  As34  1  0.750000  0.398788  0.608281  1
  As  As35  1  0.750000  0.101212  0.108281  1
