# generated using pymatgen
data_Tm9Lu(GaCo5)2
_symmetry_space_group_name_H-M   'P 1'
_cell_length_a   5.38592311
_cell_length_b   5.38592493
_cell_length_c   20.34387100
_cell_angle_alpha   90.00000000
_cell_angle_beta   90.00000000
_cell_angle_gamma   136.64866077
_symmetry_Int_Tables_number   1
_chemical_formula_structural   Tm9Lu(GaCo5)2
_chemical_formula_sum   'Tm9 Lu1 Ga2 Co10'
_cell_volume   405.11257163
_cell_formula_units_Z   1
loop_
 _symmetry_equiv_pos_site_id
 _symmetry_equiv_pos_as_xyz
  1  'x, y, z'
loop_
 _atom_site_type_symbol
 _atom_site_label
 _atom_site_symmetry_multiplicity
 _atom_site_fract_x
 _atom_site_fract_y
 _atom_site_fract_z
 _atom_site_occupancy
  Tm  Tm0  1  0.291347  0.708653  0.066090  1
  Tm  Tm1  1  0.998175  0.001825  0.842589  1
  Tm  Tm2  1  0.711051  0.288949  0.750000  1
  Tm  Tm3  1  0.708666  0.291334  0.566020  1
  Tm  Tm4  1  0.001784  0.998216  0.342440  1
  Tm  Tm5  1  0.998175  0.001825  0.657411  1
  Tm  Tm6  1  0.708666  0.291334  0.933980  1
  Tm  Tm7  1  0.001784  0.998216  0.157560  1
  Tm  Tm8  1  0.291347  0.708653  0.433910  1
  Lu  Lu9  1  0.288683  0.711317  0.250000  1
  Ga  Ga10  1  0.000003  0.999997  0.499997  1
  Ga  Ga11  1  0.000003  0.999997  0.000003  1
  Co  Co12  1  0.293543  0.706457  0.654597  1
  Co  Co13  1  0.582710  0.417290  0.441339  1
  Co  Co14  1  0.415081  0.584919  0.750000  1
  Co  Co15  1  0.417319  0.582681  0.941354  1
  Co  Co16  1  0.585177  0.414823  0.250000  1
  Co  Co17  1  0.417319  0.582681  0.558646  1
  Co  Co18  1  0.706458  0.293542  0.345356  1
  Co  Co19  1  0.706458  0.293542  0.154644  1
  Co  Co20  1  0.582710  0.417290  0.058661  1
  Co  Co21  1  0.293543  0.706457  0.845403  1
