# generated using pymatgen
data_Tb3HoReRu7
_symmetry_space_group_name_H-M   'P 1'
_cell_length_a   5.21432920
_cell_length_b   5.46081797
_cell_length_c   9.01233801
_cell_angle_alpha   90.00000029
_cell_angle_beta   90.00538691
_cell_angle_gamma   121.57645303
_symmetry_Int_Tables_number   1
_chemical_formula_structural   Tb3HoReRu7
_chemical_formula_sum   'Tb3 Ho1 Re1 Ru7'
_cell_volume   218.62697684
_cell_formula_units_Z   1
loop_
 _symmetry_equiv_pos_site_id
 _symmetry_equiv_pos_as_xyz
  1  'x, y, z'
loop_
 _atom_site_type_symbol
 _atom_site_label
 _atom_site_symmetry_multiplicity
 _atom_site_fract_x
 _atom_site_fract_y
 _atom_site_fract_z
 _atom_site_occupancy
  Tb  Tb0  1  0.327112  0.663556  0.432970  1
  Tb  Tb1  1  0.654009  0.327004  0.564778  1
  Tb  Tb2  1  0.653950  0.326974  0.935502  1
  Ho  Ho3  1  0.327787  0.663893  0.067054  1
  Re  Re4  1  0.689007  0.844503  0.750464  1
  Ru  Ru5  1  0.974005  0.987003  0.499747  1
  Ru  Ru6  1  0.973514  0.986757  0.000395  1
  Ru  Ru7  1  0.837621  0.166652  0.249291  1
  Ru  Ru8  1  0.837621  0.670971  0.249291  1
  Ru  Ru9  1  0.356897  0.178448  0.249328  1
  Ru  Ru10  1  0.184238  0.828523  0.750589  1
  Ru  Ru11  1  0.184238  0.355714  0.750589  1
