# generated using pymatgen
data_Hf6Al6Pd5Pt
_symmetry_space_group_name_H-M   'P 1'
_cell_length_a   7.19252000
_cell_length_b   7.19251947
_cell_length_c   7.05173400
_cell_angle_alpha   90.00000000
_cell_angle_beta   90.00000000
_cell_angle_gamma   119.99999325
_symmetry_Int_Tables_number   1
_chemical_formula_structural   Hf6Al6Pd5Pt
_chemical_formula_sum   'Hf6 Al6 Pd5 Pt1'
_cell_volume   315.92842857
_cell_formula_units_Z   1
loop_
 _symmetry_equiv_pos_site_id
 _symmetry_equiv_pos_as_xyz
  1  'x, y, z'
loop_
 _atom_site_type_symbol
 _atom_site_label
 _atom_site_symmetry_multiplicity
 _atom_site_fract_x
 _atom_site_fract_y
 _atom_site_fract_z
 _atom_site_occupancy
  Hf  Hf0  1  0.607746  0.588919  0.250460  1
  Hf  Hf1  1  0.022178  0.413703  0.749218  1
  Hf  Hf2  1  0.411081  0.018827  0.250460  1
  Hf  Hf3  1  0.981173  0.392254  0.250460  1
  Hf  Hf4  1  0.391525  0.977822  0.749218  1
  Hf  Hf5  1  0.586297  0.608475  0.749218  1
  Al  Al6  1  0.261754  0.260409  0.499193  1
  Al  Al7  1  0.739591  0.001345  0.499193  1
  Al  Al8  1  0.998655  0.738246  0.499193  1
  Al  Al9  1  0.740479  0.000854  0.999363  1
  Al  Al10  1  0.260375  0.259521  0.999363  1
  Al  Al11  1  0.999146  0.739625  0.999363  1
  Pd  Pd12  1  0.000000  0.000000  0.747915  1
  Pd  Pd13  1  0.000000  0.000000  0.250750  1
  Pd  Pd14  1  0.333333  0.666667  0.033951  1
  Pd  Pd15  1  0.666667  0.333333  0.529512  1
  Pd  Pd16  1  0.666667  0.333333  0.970249  1
  Pt  Pt17  1  0.333333  0.666667  0.472917  1
