# generated using pymatgen
data_DyScNb4(B2Ru5)2
_symmetry_space_group_name_H-M   'P 1'
_cell_length_a   9.51560714
_cell_length_b   9.51560766
_cell_length_c   3.08073500
_cell_angle_alpha   90.00000000
_cell_angle_beta   90.00000000
_cell_angle_gamma   89.68140360
_symmetry_Int_Tables_number   1
_chemical_formula_structural   DyScNb4(B2Ru5)2
_chemical_formula_sum   'Dy1 Sc1 Nb4 B4 Ru10'
_cell_volume   278.94633464
_cell_formula_units_Z   1
loop_
 _symmetry_equiv_pos_site_id
 _symmetry_equiv_pos_as_xyz
  1  'x, y, z'
loop_
 _atom_site_type_symbol
 _atom_site_label
 _atom_site_symmetry_multiplicity
 _atom_site_fract_x
 _atom_site_fract_y
 _atom_site_fract_z
 _atom_site_occupancy
  Dy  Dy0  1  0.174357  0.174357  0.000000  1
  Sc  Sc1  1  0.823844  0.823844  0.000000  1
  Nb  Nb2  1  0.501680  0.999291  0.000000  1
  Nb  Nb3  1  0.999291  0.501680  0.000000  1
  Nb  Nb4  1  0.676072  0.324361  0.000000  1
  Nb  Nb5  1  0.324361  0.676072  0.000000  1
  B  B6  1  0.379925  0.379925  0.000000  1
  B  B7  1  0.624054  0.624054  0.000000  1
  B  B8  1  0.877954  0.118767  0.000000  1
  B  B9  1  0.118767  0.877954  0.000000  1
  Ru  Ru10  1  0.501611  0.501611  0.500000  1
  Ru  Ru11  1  0.994400  0.994400  0.500000  1
  Ru  Ru12  1  0.440093  0.223082  0.500000  1
  Ru  Ru13  1  0.565520  0.779802  0.500000  1
  Ru  Ru14  1  0.918666  0.284196  0.500000  1
  Ru  Ru15  1  0.077028  0.715300  0.500000  1
  Ru  Ru16  1  0.715300  0.077028  0.500000  1
  Ru  Ru17  1  0.284196  0.918666  0.500000  1
  Ru  Ru18  1  0.779802  0.565520  0.500000  1
  Ru  Ru19  1  0.223082  0.440093  0.500000  1
