# generated using pymatgen
data_CeY(SiRh2)2
_symmetry_space_group_name_H-M   'P 1'
_cell_length_a   9.19948549
_cell_length_b   9.19948420
_cell_length_c   4.10221300
_cell_angle_alpha   90.00000000
_cell_angle_beta   90.00000000
_cell_angle_gamma   155.11092568
_symmetry_Int_Tables_number   1
_chemical_formula_structural   CeY(SiRh2)2
_chemical_formula_sum   'Ce1 Y1 Si2 Rh4'
_cell_volume   146.11197359
_cell_formula_units_Z   1
loop_
 _symmetry_equiv_pos_site_id
 _symmetry_equiv_pos_as_xyz
  1  'x, y, z'
loop_
 _atom_site_type_symbol
 _atom_site_label
 _atom_site_symmetry_multiplicity
 _atom_site_fract_x
 _atom_site_fract_y
 _atom_site_fract_z
 _atom_site_occupancy
  Ce  Ce0  1  0.904442  0.095558  0.250000  1
  Y  Y1  1  0.101886  0.898114  0.750000  1
  Si  Si2  1  0.320721  0.679279  0.750000  1
  Si  Si3  1  0.676639  0.323361  0.250000  1
  Rh  Rh4  1  0.546505  0.453495  0.250000  1
  Rh  Rh5  1  0.452123  0.547877  0.750000  1
  Rh  Rh6  1  0.249379  0.750621  0.250000  1
  Rh  Rh7  1  0.748304  0.251696  0.750000  1
