# generated using pymatgen
data_Ce9Lu(Sn3Os)2
_symmetry_space_group_name_H-M   'P 1'
_cell_length_a   6.30272300
_cell_length_b   9.56525452
_cell_length_c   9.51860893
_cell_angle_alpha   120.16224350
_cell_angle_beta   89.99896167
_cell_angle_gamma   90.00207475
_symmetry_Int_Tables_number   1
_chemical_formula_structural   Ce9Lu(Sn3Os)2
_chemical_formula_sum   'Ce9 Lu1 Sn6 Os2'
_cell_volume   496.15403387
_cell_formula_units_Z   1
loop_
 _symmetry_equiv_pos_site_id
 _symmetry_equiv_pos_as_xyz
  1  'x, y, z'
loop_
 _atom_site_type_symbol
 _atom_site_label
 _atom_site_symmetry_multiplicity
 _atom_site_fract_x
 _atom_site_fract_y
 _atom_site_fract_z
 _atom_site_occupancy
  Ce  Ce0  1  0.749959  0.758377  0.760174  1
  Ce  Ce1  1  0.749959  0.998203  0.239826  1
  Ce  Ce2  1  0.250020  0.753814  0.000000  1
  Ce  Ce3  1  0.250031  0.243182  0.242808  1
  Ce  Ce4  1  0.250031  0.000374  0.757192  1
  Ce  Ce5  1  0.500934  0.332540  0.664988  1
  Ce  Ce6  1  0.500934  0.667552  0.335012  1
  Ce  Ce7  1  0.999074  0.667556  0.335020  1
  Ce  Ce8  1  0.999074  0.332536  0.664980  1
  Lu  Lu9  1  0.749992  0.249071  0.000000  1
  Sn  Sn10  1  0.750018  0.598460  0.000000  1
  Sn  Sn11  1  0.750049  0.393765  0.390647  1
  Sn  Sn12  1  0.750049  0.003118  0.609353  1
  Sn  Sn13  1  0.249947  0.394428  0.000000  1
  Sn  Sn14  1  0.249984  0.603338  0.603058  1
  Sn  Sn15  1  0.249984  0.000280  0.396942  1
  Os  Os16  1  0.500618  0.001700  0.000000  1
  Os  Os17  1  0.999343  0.001706  0.000000  1
