# generated using pymatgen
data_Dy3ErAl4Pt3Rh
_symmetry_space_group_name_H-M   'P 1'
_cell_length_a   4.41101400
_cell_length_b   6.80986796
_cell_length_c   7.81125700
_cell_angle_alpha   90.13750770
_cell_angle_beta   90.00000000
_cell_angle_gamma   90.00000000
_symmetry_Int_Tables_number   1
_chemical_formula_structural   Dy3ErAl4Pt3Rh
_chemical_formula_sum   'Dy3 Er1 Al4 Pt3 Rh1'
_cell_volume   234.63716564
_cell_formula_units_Z   1
loop_
 _symmetry_equiv_pos_site_id
 _symmetry_equiv_pos_as_xyz
  1  'x, y, z'
loop_
 _atom_site_type_symbol
 _atom_site_label
 _atom_site_symmetry_multiplicity
 _atom_site_fract_x
 _atom_site_fract_y
 _atom_site_fract_z
 _atom_site_occupancy
  Dy  Dy0  1  0.250000  0.467628  0.179772  1
  Dy  Dy1  1  0.750000  0.532295  0.818236  1
  Dy  Dy2  1  0.250000  0.965923  0.323224  1
  Er  Er3  1  0.750000  0.029756  0.679644  1
  Al  Al4  1  0.250000  0.855989  0.937879  1
  Al  Al5  1  0.750000  0.142626  0.060785  1
  Al  Al6  1  0.750000  0.642842  0.440168  1
  Al  Al7  1  0.250000  0.362078  0.562089  1
  Pt  Pt8  1  0.750000  0.268541  0.380282  1
  Pt  Pt9  1  0.750000  0.769166  0.120764  1
  Pt  Pt10  1  0.250000  0.227561  0.879026  1
  Rh  Rh11  1  0.250000  0.735593  0.618130  1
