# generated using pymatgen
data_YbPrSiN3
_symmetry_space_group_name_H-M   'P 1'
_cell_length_a   5.99916312
_cell_length_b   5.99916199
_cell_length_c   11.59833800
_cell_angle_alpha   90.00000000
_cell_angle_beta   90.00000000
_cell_angle_gamma   126.25626732
_symmetry_Int_Tables_number   1
_chemical_formula_structural   YbPrSiN3
_chemical_formula_sum   'Yb4 Pr4 Si4 N12'
_cell_volume   336.60202479
_cell_formula_units_Z   4
loop_
 _symmetry_equiv_pos_site_id
 _symmetry_equiv_pos_as_xyz
  1  'x, y, z'
loop_
 _atom_site_type_symbol
 _atom_site_label
 _atom_site_symmetry_multiplicity
 _atom_site_fract_x
 _atom_site_fract_y
 _atom_site_fract_z
 _atom_site_occupancy
  Yb  Yb0  1  0.054080  0.945920  0.857950  1
  Yb  Yb1  1  0.945920  0.054080  0.142050  1
  Yb  Yb2  1  0.445920  0.554080  0.357950  1
  Yb  Yb3  1  0.554080  0.445920  0.642050  1
  Pr  Pr4  1  0.639922  0.360078  0.080276  1
  Pr  Pr5  1  0.360078  0.639922  0.919724  1
  Pr  Pr6  1  0.860078  0.139922  0.580276  1
  Pr  Pr7  1  0.139922  0.860078  0.419724  1
  Si  Si8  1  0.739076  0.260924  0.836329  1
  Si  Si9  1  0.260924  0.739076  0.163671  1
  Si  Si10  1  0.760924  0.239076  0.336329  1
  Si  Si11  1  0.239076  0.760924  0.663671  1
  N  N12  1  0.577922  0.422078  0.866544  1
  N  N13  1  0.422078  0.577922  0.133456  1
  N  N14  1  0.922078  0.077922  0.366544  1
  N  N15  1  0.077922  0.922078  0.633456  1
  N  N16  1  0.524931  0.975069  0.750000  1
  N  N17  1  0.975069  0.524931  0.250000  1
  N  N18  1  0.475069  0.024931  0.250000  1
  N  N19  1  0.024931  0.475069  0.750000  1
  N  N20  1  0.842220  0.157780  0.954303  1
  N  N21  1  0.157780  0.842220  0.045697  1
  N  N22  1  0.657780  0.342220  0.454303  1
  N  N23  1  0.342220  0.657780  0.545697  1
