# generated using pymatgen
data_Y2Th12Ir5Os
_symmetry_space_group_name_H-M   'P 1'
_cell_length_a   10.00303900
_cell_length_b   10.02248461
_cell_length_c   6.35724605
_cell_angle_alpha   90.24462258
_cell_angle_beta   90.00000000
_cell_angle_gamma   119.93583617
_symmetry_Int_Tables_number   1
_chemical_formula_structural   Y2Th12Ir5Os
_chemical_formula_sum   'Y2 Th12 Ir5 Os1'
_cell_volume   552.30906982
_cell_formula_units_Z   1
loop_
 _symmetry_equiv_pos_site_id
 _symmetry_equiv_pos_as_xyz
  1  'x, y, z'
loop_
 _atom_site_type_symbol
 _atom_site_label
 _atom_site_symmetry_multiplicity
 _atom_site_fract_x
 _atom_site_fract_y
 _atom_site_fract_z
 _atom_site_occupancy
  Y  Y0  1  0.460359  0.539408  0.295594  1
  Y  Y1  1  0.079049  0.539408  0.295594  1
  Th  Th2  1  0.915660  0.459221  0.799587  1
  Th  Th3  1  0.254924  0.129830  0.500706  1
  Th  Th4  1  0.541860  0.083720  0.794325  1
  Th  Th5  1  0.745400  0.871134  0.001556  1
  Th  Th6  1  0.666529  0.333058  0.300105  1
  Th  Th7  1  0.125734  0.871134  0.001556  1
  Th  Th8  1  0.456813  0.913628  0.292051  1
  Th  Th9  1  0.543561  0.459221  0.799587  1
  Th  Th10  1  0.874905  0.129830  0.500706  1
  Th  Th11  1  0.128078  0.256157  0.999924  1
  Th  Th12  1  0.871299  0.742599  0.497665  1
  Th  Th13  1  0.333133  0.666267  0.781503  1
  Ir  Ir14  1  0.812379  0.187604  0.055112  1
  Ir  Ir15  1  0.626085  0.816839  0.551282  1
  Ir  Ir16  1  0.375224  0.187604  0.055112  1
  Ir  Ir17  1  0.186451  0.372901  0.557862  1
  Ir  Ir18  1  0.190754  0.816839  0.551282  1
  Os  Os19  1  0.811800  0.623598  0.052894  1
