# generated using pymatgen
data_Ca2YTmV4O12
_symmetry_space_group_name_H-M   'P 1'
_cell_length_a   5.33493842
_cell_length_b   7.69121669
_cell_length_c   5.57276817
_cell_angle_alpha   89.69795714
_cell_angle_beta   90.05789268
_cell_angle_gamma   89.84637751
_symmetry_Int_Tables_number   1
_chemical_formula_structural   Ca2YTmV4O12
_chemical_formula_sum   'Ca2 Y1 Tm1 V4 O12'
_cell_volume   228.65863738
_cell_formula_units_Z   1
loop_
 _symmetry_equiv_pos_site_id
 _symmetry_equiv_pos_as_xyz
  1  'x, y, z'
loop_
 _atom_site_type_symbol
 _atom_site_label
 _atom_site_symmetry_multiplicity
 _atom_site_fract_x
 _atom_site_fract_y
 _atom_site_fract_z
 _atom_site_occupancy
  Ca  Ca0  1  0.512449  0.248957  0.554315  1
  Ca  Ca1  1  0.990812  0.250389  0.051370  1
  Y  Y2  1  0.480690  0.747979  0.434470  1
  Tm  Tm3  1  0.013761  0.751690  0.932253  1
  V  V4  1  0.501850  0.497304  0.999994  1
  V  V5  1  0.992431  0.496581  0.501492  1
  V  V6  1  0.992444  0.002921  0.497803  1
  V  V7  1  0.502818  0.002156  0.996515  1
  O  O8  1  0.890785  0.750317  0.540683  1
  O  O9  1  0.609425  0.749260  0.033824  1
  O  O10  1  0.091694  0.250702  0.467710  1
  O  O11  1  0.416119  0.249840  0.969528  1
  O  O12  1  0.821215  0.461675  0.792007  1
  O  O13  1  0.710041  0.039239  0.310903  1
  O  O14  1  0.296291  0.562976  0.705772  1
  O  O15  1  0.199643  0.937100  0.199029  1
  O  O16  1  0.183869  0.560962  0.213550  1
  O  O17  1  0.285908  0.941661  0.690147  1
  O  O18  1  0.693553  0.458268  0.306366  1
  O  O19  1  0.814201  0.040029  0.802273  1
