# generated using pymatgen
data_Lu12InFe2AgIr
_symmetry_space_group_name_H-M   'P 1'
_cell_length_a   8.14659006
_cell_length_b   8.14659014
_cell_length_c   8.14659025
_cell_angle_alpha   106.55774766
_cell_angle_beta   110.20929518
_cell_angle_gamma   111.68897913
_symmetry_Int_Tables_number   1
_chemical_formula_structural   Lu12InFe2AgIr
_chemical_formula_sum   'Lu12 In1 Fe2 Ag1 Ir1'
_cell_volume   415.32836670
_cell_formula_units_Z   1
loop_
 _symmetry_equiv_pos_site_id
 _symmetry_equiv_pos_as_xyz
  1  'x, y, z'
loop_
 _atom_site_type_symbol
 _atom_site_label
 _atom_site_symmetry_multiplicity
 _atom_site_fract_x
 _atom_site_fract_y
 _atom_site_fract_z
 _atom_site_occupancy
  Lu  Lu0  1  0.309054  0.310174  0.619228  1
  Lu  Lu1  1  0.690946  0.689826  0.380772  1
  Lu  Lu2  1  0.309054  0.689826  0.998880  1
  Lu  Lu3  1  0.690946  0.310174  0.001120  1
  Lu  Lu4  1  0.444289  0.194311  0.249977  1
  Lu  Lu5  1  0.555711  0.805689  0.750023  1
  Lu  Lu6  1  0.944335  0.194311  0.750023  1
  Lu  Lu7  1  0.192327  0.960560  0.768233  1
  Lu  Lu8  1  0.055665  0.805689  0.249977  1
  Lu  Lu9  1  0.807673  0.039440  0.231767  1
  Lu  Lu10  1  0.192327  0.424095  0.231767  1
  Lu  Lu11  1  0.807673  0.575905  0.768233  1
  In  In12  1  0.000000  0.500000  0.500000  1
  Fe  Fe13  1  0.383201  0.383201  0.000000  1
  Fe  Fe14  1  0.616799  0.616799  0.000000  1
  Ag  Ag15  1  0.500000  0.000000  0.500000  1
  Ir  Ir16  1  0.000000  0.000000  0.000000  1
