# generated using pymatgen
data_BiRh5Pb6
_symmetry_space_group_name_H-M   'P 1'
_cell_length_a   7.19608047
_cell_length_b   7.19608066
_cell_length_c   7.19608074
_cell_angle_alpha   102.54691032
_cell_angle_beta   102.54691579
_cell_angle_gamma   124.43855527
_symmetry_Int_Tables_number   1
_chemical_formula_structural   BiRh5Pb6
_chemical_formula_sum   'Bi1 Rh5 Pb6'
_cell_volume   271.90432991
_cell_formula_units_Z   1
loop_
 _symmetry_equiv_pos_site_id
 _symmetry_equiv_pos_as_xyz
  1  'x, y, z'
loop_
 _atom_site_type_symbol
 _atom_site_label
 _atom_site_symmetry_multiplicity
 _atom_site_fract_x
 _atom_site_fract_y
 _atom_site_fract_z
 _atom_site_occupancy
  Bi  Bi0  1  0.092096  0.092096  0.000000  1
  Rh  Rh1  1  0.493184  0.493184  0.000000  1
  Rh  Rh2  1  0.819434  0.051900  0.232466  1
  Rh  Rh3  1  0.051900  0.819434  0.232466  1
  Rh  Rh4  1  0.819434  0.586968  0.767534  1
  Rh  Rh5  1  0.586968  0.819434  0.767534  1
  Pb  Pb6  1  0.704260  0.275178  0.000000  1
  Pb  Pb7  1  0.275178  0.704260  0.000000  1
  Pb  Pb8  1  0.704260  0.704260  0.429082  1
  Pb  Pb9  1  0.595769  0.095769  0.500000  1
  Pb  Pb10  1  0.095769  0.595769  0.500000  1
  Pb  Pb11  1  0.275177  0.275177  0.570918  1
