# generated using pymatgen
data_CsHfCr9Se16
_symmetry_space_group_name_H-M   'P 1'
_cell_length_a   7.34359940
_cell_length_b   9.78603956
_cell_length_c   10.00381600
_cell_angle_alpha   72.46677802
_cell_angle_beta   68.49968293
_cell_angle_gamma   79.20416041
_symmetry_Int_Tables_number   1
_chemical_formula_structural   CsHfCr9Se16
_chemical_formula_sum   'Cs1 Hf1 Cr9 Se16'
_cell_volume   635.42039653
_cell_formula_units_Z   1
loop_
 _symmetry_equiv_pos_site_id
 _symmetry_equiv_pos_as_xyz
  1  'x, y, z'
loop_
 _atom_site_type_symbol
 _atom_site_label
 _atom_site_symmetry_multiplicity
 _atom_site_fract_x
 _atom_site_fract_y
 _atom_site_fract_z
 _atom_site_occupancy
  Cs  Cs0  1  0.002247  0.002438  0.993343  1
  Hf  Hf1  1  0.835405  0.700608  0.478771  1
  Cr  Cr2  1  0.338141  0.678872  0.482972  1
  Cr  Cr3  1  0.660827  0.317813  0.518234  1
  Cr  Cr4  1  0.163211  0.316088  0.518320  1
  Cr  Cr5  1  0.814839  0.407046  0.165116  1
  Cr  Cr6  1  0.316704  0.404948  0.166047  1
  Cr  Cr7  1  0.684541  0.589386  0.835664  1
  Cr  Cr8  1  0.182508  0.586680  0.841168  1
  Cr  Cr9  1  0.501087  0.998637  0.500245  1
  Cr  Cr10  1  0.999773  0.999204  0.500260  1
  Se  Se11  1  0.787483  0.151481  0.349242  1
  Se  Se12  1  0.287395  0.149662  0.351645  1
  Se  Se13  1  0.699860  0.858261  0.671758  1
  Se  Se14  1  0.213437  0.845202  0.650663  1
  Se  Se15  1  0.959946  0.476947  0.341793  1
  Se  Se16  1  0.459492  0.476426  0.343020  1
  Se  Se17  1  0.534668  0.518723  0.660012  1
  Se  Se18  1  0.044989  0.518440  0.660357  1
  Se  Se19  1  0.616791  0.833643  0.319876  1
  Se  Se20  1  0.145725  0.834201  0.319768  1
  Se  Se21  1  0.874743  0.173554  0.662524  1
  Se  Se22  1  0.377274  0.172422  0.662641  1
  Se  Se23  1  0.342730  0.650075  0.991751  1
  Se  Se24  1  0.840537  0.651418  0.990766  1
  Se  Se25  1  0.157794  0.342330  0.013652  1
  Se  Se26  1  0.657853  0.345493  0.010390  1
