# generated using pymatgen
data_LiHo6Co17(SiP)6
_symmetry_space_group_name_H-M   'P 1'
_cell_length_a   3.73836100
_cell_length_b   10.63224300
_cell_length_c   12.25177300
_cell_angle_alpha   90.00000000
_cell_angle_beta   90.00000000
_cell_angle_gamma   90.00000000
_symmetry_Int_Tables_number   1
_chemical_formula_structural   LiHo6Co17(SiP)6
_chemical_formula_sum   'Li1 Ho6 Co17 Si6 P6'
_cell_volume   486.97321325
_cell_formula_units_Z   1
loop_
 _symmetry_equiv_pos_site_id
 _symmetry_equiv_pos_as_xyz
  1  'x, y, z'
loop_
 _atom_site_type_symbol
 _atom_site_label
 _atom_site_symmetry_multiplicity
 _atom_site_fract_x
 _atom_site_fract_y
 _atom_site_fract_z
 _atom_site_occupancy
  Li  Li0  1  0.500000  0.500000  0.151369  1
  Ho  Ho1  1  0.000000  0.500000  0.521883  1
  Ho  Ho2  1  0.500000  0.000000  0.473505  1
  Ho  Ho3  1  0.500000  0.817247  0.205958  1
  Ho  Ho4  1  0.500000  0.182753  0.205958  1
  Ho  Ho5  1  0.000000  0.681653  0.794866  1
  Ho  Ho6  1  0.000000  0.318347  0.794866  1
  Co  Co7  1  0.000000  0.500000  0.986143  1
  Co  Co8  1  0.500000  0.000000  0.018326  1
  Co  Co9  1  0.500000  0.296925  0.427338  1
  Co  Co10  1  0.500000  0.703075  0.427338  1
  Co  Co11  1  0.000000  0.200100  0.565577  1
  Co  Co12  1  0.000000  0.799900  0.565577  1
  Co  Co13  1  0.500000  0.881251  0.706617  1
  Co  Co14  1  0.500000  0.118749  0.706617  1
  Co  Co15  1  0.000000  0.621109  0.292531  1
  Co  Co16  1  0.000000  0.378891  0.292531  1
  Co  Co17  1  0.500000  0.333218  0.996715  1
  Co  Co18  1  0.500000  0.666782  0.996715  1
  Co  Co19  1  0.000000  0.168256  0.006009  1
  Co  Co20  1  0.000000  0.831744  0.006009  1
  Co  Co21  1  0.000000  0.000000  0.848119  1
  Co  Co22  1  0.500000  0.500000  0.705948  1
  Co  Co23  1  0.000000  0.000000  0.305669  1
  Si  Si24  1  0.500000  0.308037  0.614791  1
  Si  Si25  1  0.500000  0.691963  0.614791  1
  Si  Si26  1  0.000000  0.000000  0.119336  1
  Si  Si27  1  0.500000  0.852658  0.892741  1
  Si  Si28  1  0.500000  0.147342  0.892741  1
  Si  Si29  1  0.000000  0.000000  0.659130  1
  P  P30  1  0.000000  0.193101  0.383449  1
  P  P31  1  0.000000  0.806899  0.383449  1
  P  P32  1  0.500000  0.500000  0.886191  1
  P  P33  1  0.000000  0.657408  0.103796  1
  P  P34  1  0.000000  0.342592  0.103796  1
  P  P35  1  0.500000  0.500000  0.343607  1
