# generated using pymatgen
data_H(Pd3Pb)5
_symmetry_space_group_name_H-M   'P 1'
_cell_length_a   4.12830200
_cell_length_b   4.12830200
_cell_length_c   20.59608500
_cell_angle_alpha   90.00000000
_cell_angle_beta   90.00000000
_cell_angle_gamma   90.00000000
_symmetry_Int_Tables_number   1
_chemical_formula_structural   H(Pd3Pb)5
_chemical_formula_sum   'H1 Pd15 Pb5'
_cell_volume   351.01655164
_cell_formula_units_Z   1
loop_
 _symmetry_equiv_pos_site_id
 _symmetry_equiv_pos_as_xyz
  1  'x, y, z'
loop_
 _atom_site_type_symbol
 _atom_site_label
 _atom_site_symmetry_multiplicity
 _atom_site_fract_x
 _atom_site_fract_y
 _atom_site_fract_z
 _atom_site_occupancy
  H  H0  1  0.500000  0.500000  0.100000  1
  Pd  Pd1  1  0.000000  0.500000  0.100000  1
  Pd  Pd2  1  0.000000  0.500000  0.302889  1
  Pd  Pd3  1  0.000000  0.500000  0.501379  1
  Pd  Pd4  1  0.000000  0.500000  0.698621  1
  Pd  Pd5  1  0.000000  0.500000  0.897111  1
  Pd  Pd6  1  0.500000  0.500000  0.998096  1
  Pd  Pd7  1  0.500000  0.500000  0.201904  1
  Pd  Pd8  1  0.500000  0.500000  0.401888  1
  Pd  Pd9  1  0.500000  0.500000  0.600000  1
  Pd  Pd10  1  0.500000  0.500000  0.798112  1
  Pd  Pd11  1  0.500000  0.000000  0.100000  1
  Pd  Pd12  1  0.500000  0.000000  0.302889  1
  Pd  Pd13  1  0.500000  0.000000  0.501379  1
  Pd  Pd14  1  0.500000  0.000000  0.698621  1
  Pd  Pd15  1  0.500000  0.000000  0.897111  1
  Pb  Pb16  1  0.000000  0.000000  0.994605  1
  Pb  Pb17  1  0.000000  0.000000  0.205395  1
  Pb  Pb18  1  0.000000  0.000000  0.403714  1
  Pb  Pb19  1  0.000000  0.000000  0.600000  1
  Pb  Pb20  1  0.000000  0.000000  0.796286  1
