# generated using pymatgen
data_Ga2FeCl8
_symmetry_space_group_name_H-M   'P 1'
_cell_length_a   9.77700928
_cell_length_b   9.77700981
_cell_length_c   11.86450491
_cell_angle_alpha   54.91752034
_cell_angle_beta   54.91751780
_cell_angle_gamma   49.52980260
_symmetry_Int_Tables_number   1
_chemical_formula_structural   Ga2FeCl8
_chemical_formula_sum   'Ga4 Fe2 Cl16'
_cell_volume   667.94644427
_cell_formula_units_Z   2
loop_
 _symmetry_equiv_pos_site_id
 _symmetry_equiv_pos_as_xyz
  1  'x, y, z'
loop_
 _atom_site_type_symbol
 _atom_site_label
 _atom_site_symmetry_multiplicity
 _atom_site_fract_x
 _atom_site_fract_y
 _atom_site_fract_z
 _atom_site_occupancy
  Ga  Ga0  1  0.672005  0.158897  0.032619  1
  Ga  Ga1  1  0.327995  0.841103  0.967381  1
  Ga  Ga2  1  0.841103  0.327995  0.467381  1
  Ga  Ga3  1  0.158897  0.672005  0.532619  1
  Fe  Fe4  1  0.997206  0.002794  0.750000  1
  Fe  Fe5  1  0.002794  0.997206  0.250000  1
  Cl  Cl6  1  0.871121  0.834573  0.512585  1
  Cl  Cl7  1  0.128879  0.165427  0.487415  1
  Cl  Cl8  1  0.689667  0.622712  0.444031  1
  Cl  Cl9  1  0.622712  0.689667  0.944031  1
  Cl  Cl10  1  0.834573  0.871121  0.012585  1
  Cl  Cl11  1  0.859564  0.304444  0.281510  1
  Cl  Cl12  1  0.151433  0.718323  0.183303  1
  Cl  Cl13  1  0.281677  0.848567  0.316697  1
  Cl  Cl14  1  0.140436  0.695556  0.718490  1
  Cl  Cl15  1  0.310333  0.377288  0.555969  1
  Cl  Cl16  1  0.695556  0.140436  0.218490  1
  Cl  Cl17  1  0.165427  0.128879  0.987415  1
  Cl  Cl18  1  0.377288  0.310333  0.055969  1
  Cl  Cl19  1  0.304444  0.859564  0.781510  1
  Cl  Cl20  1  0.718323  0.151433  0.683303  1
  Cl  Cl21  1  0.848567  0.281677  0.816697  1
