# generated using pymatgen
data_Lu2Zn11Cu6
_symmetry_space_group_name_H-M   'P 1'
_cell_length_a   6.61210169
_cell_length_b   6.61210232
_cell_length_c   6.61210169
_cell_angle_alpha   83.06749810
_cell_angle_beta   83.06749572
_cell_angle_gamma   83.06750661
_symmetry_Int_Tables_number   1
_chemical_formula_structural   Lu2Zn11Cu6
_chemical_formula_sum   'Lu2 Zn11 Cu6'
_cell_volume   283.21194450
_cell_formula_units_Z   1
loop_
 _symmetry_equiv_pos_site_id
 _symmetry_equiv_pos_as_xyz
  1  'x, y, z'
loop_
 _atom_site_type_symbol
 _atom_site_label
 _atom_site_symmetry_multiplicity
 _atom_site_fract_x
 _atom_site_fract_y
 _atom_site_fract_z
 _atom_site_occupancy
  Lu  Lu0  1  0.647581  0.647581  0.647581  1
  Lu  Lu1  1  0.342438  0.342438  0.342438  1
  Zn  Zn2  1  0.165324  0.651698  0.651699  1
  Zn  Zn3  1  0.651698  0.651698  0.165324  1
  Zn  Zn4  1  0.651698  0.165324  0.651699  1
  Zn  Zn5  1  0.890739  0.890739  0.890739  1
  Zn  Zn6  1  0.106142  0.106142  0.106142  1
  Zn  Zn7  1  0.696588  0.002794  0.303726  1
  Zn  Zn8  1  0.002795  0.303726  0.696588  1
  Zn  Zn9  1  0.303725  0.696588  0.002794  1
  Zn  Zn10  1  0.303726  0.002795  0.696588  1
  Zn  Zn11  1  0.002794  0.696588  0.303726  1
  Zn  Zn12  1  0.696588  0.303725  0.002794  1
  Cu  Cu13  1  0.346570  0.844389  0.346570  1
  Cu  Cu14  1  0.346570  0.346570  0.844389  1
  Cu  Cu15  1  0.844389  0.346570  0.346570  1
  Cu  Cu16  1  0.999724  0.501184  0.999724  1
  Cu  Cu17  1  0.501184  0.999724  0.999724  1
  Cu  Cu18  1  0.999724  0.999724  0.501184  1
