# generated using pymatgen
data_Na4Si2PbS6
_symmetry_space_group_name_H-M   'P 1'
_cell_length_a   6.81352717
_cell_length_b   6.81352708
_cell_length_c   7.72722551
_cell_angle_alpha   81.41573395
_cell_angle_beta   81.41573652
_cell_angle_gamma   119.80772600
_symmetry_Int_Tables_number   1
_chemical_formula_structural   Na4Si2PbS6
_chemical_formula_sum   'Na4 Si2 Pb1 S6'
_cell_volume   297.15984415
_cell_formula_units_Z   1
loop_
 _symmetry_equiv_pos_site_id
 _symmetry_equiv_pos_as_xyz
  1  'x, y, z'
loop_
 _atom_site_type_symbol
 _atom_site_label
 _atom_site_symmetry_multiplicity
 _atom_site_fract_x
 _atom_site_fract_y
 _atom_site_fract_z
 _atom_site_occupancy
  Na  Na0  1  0.499259  0.500741  0.000000  1
  Na  Na1  1  0.824638  0.175362  0.000000  1
  Na  Na2  1  0.175989  0.824011  0.000000  1
  Na  Na3  1  0.665571  0.334429  0.500000  1
  Si  Si4  1  0.051314  0.051152  0.341940  1
  Si  Si5  1  0.948848  0.948686  0.658060  1
  Pb  Pb6  1  0.334836  0.665164  0.500000  1
  S  S7  1  0.782965  0.780872  0.252845  1
  S  S8  1  0.219128  0.217035  0.747155  1
  S  S9  1  0.079489  0.381875  0.252521  1
  S  S10  1  0.383992  0.084153  0.251621  1
  S  S11  1  0.915847  0.616008  0.748379  1
  S  S12  1  0.618125  0.920511  0.747479  1
