# generated using pymatgen
data_PrCd3(Ir2O7)2
_symmetry_space_group_name_H-M   'P 1'
_cell_length_a   7.26844833
_cell_length_b   7.33405369
_cell_length_c   7.26844900
_cell_angle_alpha   60.29547129
_cell_angle_beta   60.00000152
_cell_angle_gamma   60.29546560
_symmetry_Int_Tables_number   1
_chemical_formula_structural   PrCd3(Ir2O7)2
_chemical_formula_sum   'Pr1 Cd3 Ir4 O14'
_cell_volume   275.19322614
_cell_formula_units_Z   1
loop_
 _symmetry_equiv_pos_site_id
 _symmetry_equiv_pos_as_xyz
  1  'x, y, z'
loop_
 _atom_site_type_symbol
 _atom_site_label
 _atom_site_symmetry_multiplicity
 _atom_site_fract_x
 _atom_site_fract_y
 _atom_site_fract_z
 _atom_site_occupancy
  Pr  Pr0  1  0.125000  0.625000  0.125000  1
  Cd  Cd1  1  0.125000  0.125000  0.625000  1
  Cd  Cd2  1  0.125000  0.125000  0.125000  1
  Cd  Cd3  1  0.625000  0.125000  0.125000  1
  Ir  Ir4  1  0.625000  0.625000  0.625000  1
  Ir  Ir5  1  0.125000  0.625000  0.625000  1
  Ir  Ir6  1  0.625000  0.125000  0.625000  1
  Ir  Ir7  1  0.625000  0.625000  0.125000  1
  O  O8  1  0.952439  0.548865  0.546257  1
  O  O9  1  0.302424  0.303865  0.696856  1
  O  O10  1  0.952439  0.548865  0.952439  1
  O  O11  1  0.696856  0.303865  0.302424  1
  O  O12  1  0.546257  0.548865  0.952439  1
  O  O13  1  0.553144  0.946135  0.553144  1
  O  O14  1  0.553144  0.946135  0.947576  1
  O  O15  1  0.256018  0.231945  0.256018  1
  O  O16  1  0.297561  0.701135  0.703743  1
  O  O17  1  0.696856  0.303865  0.696856  1
  O  O18  1  0.993982  0.018055  0.993982  1
  O  O19  1  0.947576  0.946135  0.553144  1
  O  O20  1  0.297561  0.701135  0.297561  1
  O  O21  1  0.703743  0.701135  0.297561  1
