# generated using pymatgen
data_Ho12Fe2Co2HgPb
_symmetry_space_group_name_H-M   'P 1'
_cell_length_a   8.36733716
_cell_length_b   8.36733659
_cell_length_c   8.36733695
_cell_angle_alpha   111.04356924
_cell_angle_beta   109.52938997
_cell_angle_gamma   107.85636789
_symmetry_Int_Tables_number   1
_chemical_formula_structural   Ho12Fe2Co2HgPb
_chemical_formula_sum   'Ho12 Fe2 Co2 Hg1 Pb1'
_cell_volume   450.61308679
_cell_formula_units_Z   1
loop_
 _symmetry_equiv_pos_site_id
 _symmetry_equiv_pos_as_xyz
  1  'x, y, z'
loop_
 _atom_site_type_symbol
 _atom_site_label
 _atom_site_symmetry_multiplicity
 _atom_site_fract_x
 _atom_site_fract_y
 _atom_site_fract_z
 _atom_site_occupancy
  Ho  Ho0  1  0.990494  0.276620  0.713875  1
  Ho  Ho1  1  0.009506  0.723380  0.286125  1
  Ho  Ho2  1  0.685366  0.882776  0.197410  1
  Ho  Ho3  1  0.314634  0.512044  0.197410  1
  Ho  Ho4  1  0.314634  0.117224  0.802590  1
  Ho  Ho5  1  0.685366  0.487956  0.802590  1
  Ho  Ho6  1  0.562745  0.276620  0.286125  1
  Ho  Ho7  1  0.437255  0.723380  0.713875  1
  Ho  Ho8  1  0.185123  0.789465  0.974588  1
  Ho  Ho9  1  0.814877  0.789465  0.604343  1
  Ho  Ho10  1  0.185123  0.210535  0.395657  1
  Ho  Ho11  1  0.814877  0.210535  0.025412  1
  Fe  Fe12  1  0.109300  0.109300  0.000000  1
  Fe  Fe13  1  0.890700  0.890700  0.000000  1
  Co  Co14  1  0.617901  0.500000  0.117901  1
  Co  Co15  1  0.382099  0.500000  0.882099  1
  Hg  Hg16  1  0.000000  0.500000  0.500000  1
  Pb  Pb17  1  0.500000  0.000000  0.500000  1
