# generated using pymatgen
data_KSc2H12IrRu
_symmetry_space_group_name_H-M   'P 1'
_cell_length_a   4.75456100
_cell_length_b   4.75456295
_cell_length_c   8.68527200
_cell_angle_alpha   90.00000000
_cell_angle_beta   90.00000000
_cell_angle_gamma   120.00000728
_symmetry_Int_Tables_number   1
_chemical_formula_structural   KSc2H12IrRu
_chemical_formula_sum   'K1 Sc2 H12 Ir1 Ru1'
_cell_volume   170.03371734
_cell_formula_units_Z   1
loop_
 _symmetry_equiv_pos_site_id
 _symmetry_equiv_pos_as_xyz
  1  'x, y, z'
loop_
 _atom_site_type_symbol
 _atom_site_label
 _atom_site_symmetry_multiplicity
 _atom_site_fract_x
 _atom_site_fract_y
 _atom_site_fract_z
 _atom_site_occupancy
  K  K0  1  0.000000  0.000000  0.989927  1
  Sc  Sc1  1  0.666667  0.333333  0.386126  1
  Sc  Sc2  1  0.333333  0.666667  0.639519  1
  H  H3  1  0.158898  0.841102  0.397193  1
  H  H4  1  0.682205  0.841102  0.397193  1
  H  H5  1  0.158898  0.317795  0.397193  1
  H  H6  1  0.842024  0.157976  0.596903  1
  H  H7  1  0.315952  0.157976  0.596903  1
  H  H8  1  0.842024  0.684048  0.596903  1
  H  H9  1  0.502483  0.004967  0.819523  1
  H  H10  1  0.502483  0.497517  0.819523  1
  H  H11  1  0.995033  0.497517  0.819523  1
  H  H12  1  0.495804  0.991608  0.182022  1
  H  H13  1  0.495804  0.504196  0.182022  1
  H  H14  1  0.008392  0.504196  0.182022  1
  Ir  Ir15  1  0.333333  0.666667  0.298430  1
  Ru  Ru16  1  0.666667  0.333333  0.699079  1
