# generated using pymatgen
data_Dy4Lu8AlCo4Sn
_symmetry_space_group_name_H-M   'P 1'
_cell_length_a   8.19268015
_cell_length_b   8.19268035
_cell_length_c   8.19268027
_cell_angle_alpha   112.31374650
_cell_angle_beta   109.39083191
_cell_angle_gamma   106.75691005
_symmetry_Int_Tables_number   1
_chemical_formula_structural   Dy4Lu8AlCo4Sn
_chemical_formula_sum   'Dy4 Lu8 Al1 Co4 Sn1'
_cell_volume   422.31000910
_cell_formula_units_Z   1
loop_
 _symmetry_equiv_pos_site_id
 _symmetry_equiv_pos_as_xyz
  1  'x, y, z'
loop_
 _atom_site_type_symbol
 _atom_site_label
 _atom_site_symmetry_multiplicity
 _atom_site_fract_x
 _atom_site_fract_y
 _atom_site_fract_z
 _atom_site_occupancy
  Dy  Dy0  1  0.439305  0.235521  0.203783  1
  Dy  Dy1  1  0.560695  0.764479  0.796217  1
  Dy  Dy2  1  0.031737  0.235521  0.796217  1
  Dy  Dy3  1  0.968263  0.764479  0.203783  1
  Lu  Lu4  1  0.180082  0.281444  0.461527  1
  Lu  Lu5  1  0.819918  0.718556  0.538473  1
  Lu  Lu6  1  0.180082  0.718556  0.898637  1
  Lu  Lu7  1  0.819918  0.281444  0.101363  1
  Lu  Lu8  1  0.324606  0.637183  0.312578  1
  Lu  Lu9  1  0.675394  0.362817  0.687422  1
  Lu  Lu10  1  0.324606  0.012028  0.687422  1
  Lu  Lu11  1  0.675394  0.987972  0.312578  1
  Al  Al12  1  0.000000  0.000000  0.000000  1
  Co  Co13  1  0.341099  0.000000  0.341099  1
  Co  Co14  1  0.658901  0.000000  0.658901  1
  Co  Co15  1  0.114859  0.614859  0.500000  1
  Co  Co16  1  0.885141  0.385141  0.500000  1
  Sn  Sn17  1  0.500000  0.500000  0.000000  1
