# generated using pymatgen
data_Eu4P4PtRh3
_symmetry_space_group_name_H-M   'P 1'
_cell_length_a   6.29274601
_cell_length_b   6.29274689
_cell_length_c   6.29274605
_cell_angle_alpha   90.13826316
_cell_angle_beta   90.13826990
_cell_angle_gamma   89.86174040
_symmetry_Int_Tables_number   1
_chemical_formula_structural   Eu4P4PtRh3
_chemical_formula_sum   'Eu4 P4 Pt1 Rh3'
_cell_volume   249.18212457
_cell_formula_units_Z   1
loop_
 _symmetry_equiv_pos_site_id
 _symmetry_equiv_pos_as_xyz
  1  'x, y, z'
loop_
 _atom_site_type_symbol
 _atom_site_label
 _atom_site_symmetry_multiplicity
 _atom_site_fract_x
 _atom_site_fract_y
 _atom_site_fract_z
 _atom_site_occupancy
  Eu  Eu0  1  0.397191  0.897191  0.602809  1
  Eu  Eu1  1  0.895982  0.604697  0.398060  1
  Eu  Eu2  1  0.601940  0.395982  0.895303  1
  Eu  Eu3  1  0.104697  0.101940  0.104018  1
  P  P4  1  0.673880  0.173880  0.326120  1
  P  P5  1  0.175141  0.320365  0.669650  1
  P  P6  1  0.330350  0.675141  0.179635  1
  P  P7  1  0.820365  0.830350  0.824859  1
  Pt  Pt8  1  0.085511  0.585511  0.914489  1
  Rh  Rh9  1  0.583585  0.916636  0.085276  1
  Rh  Rh10  1  0.914724  0.083585  0.583364  1
  Rh  Rh11  1  0.416636  0.414724  0.416415  1
