# generated using pymatgen
data_Zn20CdPd5
_symmetry_space_group_name_H-M   'P 1'
_cell_length_a   7.97429619
_cell_length_b   8.00063014
_cell_length_c   7.94593460
_cell_angle_alpha   70.76122225
_cell_angle_beta   70.91900826
_cell_angle_gamma   109.54183865
_symmetry_Int_Tables_number   1
_chemical_formula_structural   Zn20CdPd5
_chemical_formula_sum   'Zn20 Cd1 Pd5'
_cell_volume   392.87842557
_cell_formula_units_Z   1
loop_
 _symmetry_equiv_pos_site_id
 _symmetry_equiv_pos_as_xyz
  1  'x, y, z'
loop_
 _atom_site_type_symbol
 _atom_site_label
 _atom_site_symmetry_multiplicity
 _atom_site_fract_x
 _atom_site_fract_y
 _atom_site_fract_z
 _atom_site_occupancy
  Zn  Zn0  1  0.004373  0.997209  0.789521  1
  Zn  Zn1  1  0.775968  0.776054  0.224218  1
  Zn  Zn2  1  0.209908  0.001313  0.994987  1
  Zn  Zn3  1  0.000191  0.223217  0.003403  1
  Zn  Zn4  1  0.276613  0.256994  0.387402  1
  Zn  Zn5  1  0.015077  0.743170  0.647358  1
  Zn  Zn6  1  0.720604  0.992719  0.650424  1
  Zn  Zn7  1  0.660118  0.643698  0.626943  1
  Zn  Zn8  1  0.384919  0.647793  0.338066  1
  Zn  Zn9  1  0.647861  0.375006  0.357154  1
  Zn  Zn10  1  0.350149  0.741131  0.988539  1
  Zn  Zn11  1  0.596990  0.247014  0.738125  1
  Zn  Zn12  1  0.349842  0.996458  0.273488  1
  Zn  Zn13  1  0.717597  0.350016  0.998811  1
  Zn  Zn14  1  0.013109  0.355352  0.267112  1
  Zn  Zn15  1  0.276747  0.628327  0.729815  1
  Zn  Zn16  1  0.643045  0.647323  0.994187  1
  Zn  Zn17  1  0.009297  0.660112  0.342941  1
  Zn  Zn18  1  0.646813  0.002460  0.352610  1
  Zn  Zn19  1  0.357870  0.354924  0.005128  1
  Cd  Cd20  1  0.994075  0.362862  0.636811  1
  Pd  Pd21  1  0.363846  0.000394  0.634430  1
  Pd  Pd22  1  0.997737  0.000155  0.345397  1
  Pd  Pd23  1  0.349057  0.360825  0.655191  1
  Pd  Pd24  1  0.653931  0.996458  0.004823  1
  Pd  Pd25  1  0.984264  0.639018  0.013117  1
