# generated using pymatgen
data_Nd2Sm6InPd24
_symmetry_space_group_name_H-M   'P 1'
_cell_length_a   8.50063700
_cell_length_b   8.50063700
_cell_length_c   8.50063700
_cell_angle_alpha   89.99956863
_cell_angle_beta   89.99956863
_cell_angle_gamma   89.99956863
_symmetry_Int_Tables_number   1
_chemical_formula_structural   Nd2Sm6InPd24
_chemical_formula_sum   'Nd2 Sm6 In1 Pd24'
_cell_volume   614.26308007
_cell_formula_units_Z   1
loop_
 _symmetry_equiv_pos_site_id
 _symmetry_equiv_pos_as_xyz
  1  'x, y, z'
loop_
 _atom_site_type_symbol
 _atom_site_label
 _atom_site_symmetry_multiplicity
 _atom_site_fract_x
 _atom_site_fract_y
 _atom_site_fract_z
 _atom_site_occupancy
  Nd  Nd0  1  0.251292  0.251292  0.251292  1
  Nd  Nd1  1  0.748708  0.748708  0.748708  1
  Sm  Sm2  1  0.748749  0.748749  0.251335  1
  Sm  Sm3  1  0.748749  0.251335  0.748749  1
  Sm  Sm4  1  0.251251  0.251251  0.748665  1
  Sm  Sm5  1  0.251251  0.748665  0.251251  1
  Sm  Sm6  1  0.251335  0.748749  0.748749  1
  Sm  Sm7  1  0.748665  0.251251  0.251251  1
  In  In8  1  0.000000  0.000000  0.000000  1
  Pd  Pd9  1  0.266854  0.500600  0.999290  1
  Pd  Pd10  1  0.733146  0.499400  0.000710  1
  Pd  Pd11  1  0.999290  0.266854  0.500600  1
  Pd  Pd12  1  0.500600  0.266854  0.999290  1
  Pd  Pd13  1  0.000710  0.733146  0.499400  1
  Pd  Pd14  1  0.499400  0.733146  0.000710  1
  Pd  Pd15  1  0.500600  0.999290  0.266854  1
  Pd  Pd16  1  0.266854  0.999290  0.500600  1
  Pd  Pd17  1  0.499400  0.000710  0.733146  1
  Pd  Pd18  1  0.733146  0.000710  0.499400  1
  Pd  Pd19  1  0.999290  0.500600  0.266854  1
  Pd  Pd20  1  0.000710  0.499400  0.733146  1
  Pd  Pd21  1  0.255225  0.500751  0.500751  1
  Pd  Pd22  1  0.744775  0.499249  0.499249  1
  Pd  Pd23  1  0.500751  0.255225  0.500751  1
  Pd  Pd24  1  0.499249  0.744775  0.499249  1
  Pd  Pd25  1  0.500751  0.500751  0.255225  1
  Pd  Pd26  1  0.499249  0.499249  0.744775  1
  Pd  Pd27  1  0.313674  0.999365  0.999365  1
  Pd  Pd28  1  0.686326  0.000635  0.000635  1
  Pd  Pd29  1  0.999365  0.313674  0.999365  1
  Pd  Pd30  1  0.000635  0.686326  0.000635  1
  Pd  Pd31  1  0.999365  0.999365  0.313674  1
  Pd  Pd32  1  0.000635  0.000635  0.686326  1
