# generated using pymatgen
data_DyHoEr3CoBi2
_symmetry_space_group_name_H-M   'P 1'
_cell_length_a   7.94379100
_cell_length_b   8.88114800
_cell_length_c   12.36626200
_cell_angle_alpha   90.00000000
_cell_angle_beta   90.00000000
_cell_angle_gamma   90.00000000
_symmetry_Int_Tables_number   1
_chemical_formula_structural   DyHoEr3CoBi2
_chemical_formula_sum   'Dy4 Ho4 Er12 Co4 Bi8'
_cell_volume   872.43958070
_cell_formula_units_Z   4
loop_
 _symmetry_equiv_pos_site_id
 _symmetry_equiv_pos_as_xyz
  1  'x, y, z'
loop_
 _atom_site_type_symbol
 _atom_site_label
 _atom_site_symmetry_multiplicity
 _atom_site_fract_x
 _atom_site_fract_y
 _atom_site_fract_z
 _atom_site_occupancy
  Dy  Dy0  1  0.884737  0.750000  0.811081  1
  Dy  Dy1  1  0.115263  0.250000  0.188919  1
  Dy  Dy2  1  0.384737  0.250000  0.688919  1
  Dy  Dy3  1  0.615263  0.750000  0.311081  1
  Ho  Ho4  1  0.053600  0.750000  0.497954  1
  Ho  Ho5  1  0.946400  0.250000  0.502046  1
  Ho  Ho6  1  0.553600  0.250000  0.002046  1
  Ho  Ho7  1  0.446400  0.750000  0.997954  1
  Er  Er8  1  0.347142  0.750000  0.699590  1
  Er  Er9  1  0.652858  0.250000  0.300410  1
  Er  Er10  1  0.847142  0.250000  0.800410  1
  Er  Er11  1  0.152858  0.750000  0.199590  1
  Er  Er12  1  0.674616  0.538166  0.563148  1
  Er  Er13  1  0.325384  0.461834  0.436852  1
  Er  Er14  1  0.174616  0.461834  0.936852  1
  Er  Er15  1  0.325384  0.038166  0.436852  1
  Er  Er16  1  0.825384  0.538166  0.063148  1
  Er  Er17  1  0.674616  0.961834  0.563148  1
  Er  Er18  1  0.825384  0.961834  0.063148  1
  Er  Er19  1  0.174616  0.038166  0.936852  1
  Co  Co20  1  0.065993  0.750000  0.992396  1
  Co  Co21  1  0.934007  0.250000  0.007604  1
  Co  Co22  1  0.565993  0.250000  0.507604  1
  Co  Co23  1  0.434007  0.750000  0.492396  1
  Bi  Bi24  1  0.571351  0.509610  0.826646  1
  Bi  Bi25  1  0.428649  0.490390  0.173354  1
  Bi  Bi26  1  0.071351  0.490390  0.673354  1
  Bi  Bi27  1  0.428649  0.009610  0.173354  1
  Bi  Bi28  1  0.928649  0.509610  0.326646  1
  Bi  Bi29  1  0.571351  0.990390  0.826646  1
  Bi  Bi30  1  0.928649  0.990390  0.326646  1
  Bi  Bi31  1  0.071351  0.009610  0.673354  1
