# generated using pymatgen
data_YNi3As2
_symmetry_space_group_name_H-M   'P 1'
_cell_length_a   3.90305100
_cell_length_b   10.85503600
_cell_length_c   12.73148900
_cell_angle_alpha   90.00000000
_cell_angle_beta   90.00000000
_cell_angle_gamma   90.00000000
_symmetry_Int_Tables_number   1
_chemical_formula_structural   YNi3As2
_chemical_formula_sum   'Y6 Ni18 As12'
_cell_volume   539.40465913
_cell_formula_units_Z   6
loop_
 _symmetry_equiv_pos_site_id
 _symmetry_equiv_pos_as_xyz
  1  'x, y, z'
loop_
 _atom_site_type_symbol
 _atom_site_label
 _atom_site_symmetry_multiplicity
 _atom_site_fract_x
 _atom_site_fract_y
 _atom_site_fract_z
 _atom_site_occupancy
  Y  Y0  1  0.000000  0.500000  0.523498  1
  Y  Y1  1  0.500000  0.000000  0.476502  1
  Y  Y2  1  0.500000  0.816167  0.206181  1
  Y  Y3  1  0.500000  0.183833  0.206181  1
  Y  Y4  1  0.000000  0.683833  0.793819  1
  Y  Y5  1  0.000000  0.316167  0.793819  1
  Ni  Ni6  1  0.500000  0.500000  0.156461  1
  Ni  Ni7  1  0.000000  0.000000  0.843539  1
  Ni  Ni8  1  0.500000  0.500000  0.699545  1
  Ni  Ni9  1  0.000000  0.000000  0.300455  1
  Ni  Ni10  1  0.000000  0.500000  0.982762  1
  Ni  Ni11  1  0.500000  0.000000  0.017238  1
  Ni  Ni12  1  0.500000  0.333226  0.997561  1
  Ni  Ni13  1  0.500000  0.666774  0.997561  1
  Ni  Ni14  1  0.000000  0.166774  0.002439  1
  Ni  Ni15  1  0.000000  0.833226  0.002439  1
  Ni  Ni16  1  0.500000  0.303059  0.426401  1
  Ni  Ni17  1  0.500000  0.696941  0.426401  1
  Ni  Ni18  1  0.000000  0.196941  0.573599  1
  Ni  Ni19  1  0.000000  0.803059  0.573599  1
  Ni  Ni20  1  0.500000  0.879873  0.707402  1
  Ni  Ni21  1  0.500000  0.120127  0.707402  1
  Ni  Ni22  1  0.000000  0.620127  0.292598  1
  Ni  Ni23  1  0.000000  0.379873  0.292598  1
  As  As24  1  0.500000  0.500000  0.876718  1
  As  As25  1  0.000000  0.000000  0.123282  1
  As  As26  1  0.500000  0.500000  0.345017  1
  As  As27  1  0.000000  0.000000  0.654983  1
  As  As28  1  0.500000  0.314226  0.613569  1
  As  As29  1  0.500000  0.685774  0.613569  1
  As  As30  1  0.000000  0.185774  0.386431  1
  As  As31  1  0.000000  0.814226  0.386431  1
  As  As32  1  0.500000  0.847272  0.890594  1
  As  As33  1  0.500000  0.152728  0.890594  1
  As  As34  1  0.000000  0.652728  0.109406  1
  As  As35  1  0.000000  0.347272  0.109406  1
