# generated using pymatgen
data_Zr2Be(CuNi2)2
_symmetry_space_group_name_H-M   'P 1'
_cell_length_a   4.63569622
_cell_length_b   4.81366677
_cell_length_c   6.36753883
_cell_angle_alpha   81.23208159
_cell_angle_beta   82.95103331
_cell_angle_gamma   120.85932835
_symmetry_Int_Tables_number   1
_chemical_formula_structural   Zr2Be(CuNi2)2
_chemical_formula_sum   'Zr2 Be1 Cu2 Ni4'
_cell_volume   117.11980127
_cell_formula_units_Z   1
loop_
 _symmetry_equiv_pos_site_id
 _symmetry_equiv_pos_as_xyz
  1  'x, y, z'
loop_
 _atom_site_type_symbol
 _atom_site_label
 _atom_site_symmetry_multiplicity
 _atom_site_fract_x
 _atom_site_fract_y
 _atom_site_fract_z
 _atom_site_occupancy
  Zr  Zr0  1  0.603223  0.610468  0.233783  1
  Zr  Zr1  1  0.389358  0.391660  0.766181  1
  Be  Be2  1  0.503371  0.000958  0.501582  1
  Cu  Cu3  1  0.305134  0.974266  0.158576  1
  Cu  Cu4  1  0.044907  0.707688  0.842904  1
  Ni  Ni5  1  0.000510  0.000941  0.499619  1
  Ni  Ni6  1  0.699246  0.026283  0.839687  1
  Ni  Ni7  1  0.953390  0.287615  0.158994  1
  Ni  Ni8  1  0.000861  0.500120  0.498674  1
