# generated using pymatgen
data_HoScCoB6
_symmetry_space_group_name_H-M   'P 1'
_cell_length_a   3.43442500
_cell_length_b   8.93720200
_cell_length_c   11.28440500
_cell_angle_alpha   90.00000000
_cell_angle_beta   90.00000000
_cell_angle_gamma   90.00000000
_symmetry_Int_Tables_number   1
_chemical_formula_structural   HoScCoB6
_chemical_formula_sum   'Ho4 Sc4 Co4 B24'
_cell_volume   346.36521949
_cell_formula_units_Z   4
loop_
 _symmetry_equiv_pos_site_id
 _symmetry_equiv_pos_as_xyz
  1  'x, y, z'
loop_
 _atom_site_type_symbol
 _atom_site_label
 _atom_site_symmetry_multiplicity
 _atom_site_fract_x
 _atom_site_fract_y
 _atom_site_fract_z
 _atom_site_occupancy
  Ho  Ho0  1  0.000000  0.822426  0.085841  1
  Ho  Ho1  1  0.000000  0.177574  0.914159  1
  Ho  Ho2  1  0.000000  0.322426  0.414159  1
  Ho  Ho3  1  0.000000  0.677574  0.585841  1
  Sc  Sc4  1  0.000000  0.444396  0.127933  1
  Sc  Sc5  1  0.000000  0.555604  0.872067  1
  Sc  Sc6  1  0.000000  0.944396  0.372067  1
  Sc  Sc7  1  0.000000  0.055604  0.627933  1
  Co  Co8  1  0.000000  0.141925  0.181858  1
  Co  Co9  1  0.000000  0.858075  0.818142  1
  Co  Co10  1  0.000000  0.641925  0.318142  1
  Co  Co11  1  0.000000  0.358075  0.681858  1
  B  B12  1  0.500000  0.055279  0.067614  1
  B  B13  1  0.500000  0.944721  0.932386  1
  B  B14  1  0.500000  0.555279  0.432386  1
  B  B15  1  0.500000  0.444721  0.567614  1
  B  B16  1  0.500000  0.251538  0.082385  1
  B  B17  1  0.500000  0.748462  0.917615  1
  B  B18  1  0.500000  0.751538  0.417615  1
  B  B19  1  0.500000  0.248462  0.582385  1
  B  B20  1  0.500000  0.294404  0.235235  1
  B  B21  1  0.500000  0.705596  0.764765  1
  B  B22  1  0.500000  0.794404  0.264765  1
  B  B23  1  0.500000  0.205596  0.735235  1
  B  B24  1  0.500000  0.131339  0.316856  1
  B  B25  1  0.500000  0.868661  0.683144  1
  B  B26  1  0.500000  0.631339  0.183144  1
  B  B27  1  0.500000  0.368661  0.816856  1
  B  B28  1  0.500000  0.484631  0.286089  1
  B  B29  1  0.500000  0.515369  0.713911  1
  B  B30  1  0.500000  0.984631  0.213911  1
  B  B31  1  0.500000  0.015369  0.786089  1
  B  B32  1  0.500000  0.100304  0.473181  1
  B  B33  1  0.500000  0.899696  0.526819  1
  B  B34  1  0.500000  0.600304  0.026819  1
  B  B35  1  0.500000  0.399696  0.973181  1
