# generated using pymatgen
data_La3In3GeIr2
_symmetry_space_group_name_H-M   'P 1'
_cell_length_a   7.64675700
_cell_length_b   7.64675691
_cell_length_c   4.31890600
_cell_angle_alpha   90.00000000
_cell_angle_beta   90.00000000
_cell_angle_gamma   119.99999608
_symmetry_Int_Tables_number   1
_chemical_formula_structural   La3In3GeIr2
_chemical_formula_sum   'La3 In3 Ge1 Ir2'
_cell_volume   218.70513201
_cell_formula_units_Z   1
loop_
 _symmetry_equiv_pos_site_id
 _symmetry_equiv_pos_as_xyz
  1  'x, y, z'
loop_
 _atom_site_type_symbol
 _atom_site_label
 _atom_site_symmetry_multiplicity
 _atom_site_fract_x
 _atom_site_fract_y
 _atom_site_fract_z
 _atom_site_occupancy
  La  La0  1  0.586309  0.599129  0.000000  1
  La  La1  1  0.400871  0.987180  0.000000  1
  La  La2  1  0.012820  0.413691  0.000000  1
  In  In3  1  0.009140  0.759375  0.500000  1
  In  In4  1  0.240625  0.249765  0.500000  1
  In  In5  1  0.750235  0.990860  0.500000  1
  Ge  Ge6  1  0.666667  0.333333  0.500000  1
  Ir  Ir7  1  0.000000  0.000000  0.000000  1
  Ir  Ir8  1  0.333333  0.666667  0.500000  1
