# generated using pymatgen
data_TbDy3Ga4Ni3Ru
_symmetry_space_group_name_H-M   'P 1'
_cell_length_a   4.27546100
_cell_length_b   6.80604882
_cell_length_c   7.56117952
_cell_angle_alpha   89.97178926
_cell_angle_beta   90.00000000
_cell_angle_gamma   90.00000000
_symmetry_Int_Tables_number   1
_chemical_formula_structural   TbDy3Ga4Ni3Ru
_chemical_formula_sum   'Tb1 Dy3 Ga4 Ni3 Ru1'
_cell_volume   220.02270820
_cell_formula_units_Z   1
loop_
 _symmetry_equiv_pos_site_id
 _symmetry_equiv_pos_as_xyz
  1  'x, y, z'
loop_
 _atom_site_type_symbol
 _atom_site_label
 _atom_site_symmetry_multiplicity
 _atom_site_fract_x
 _atom_site_fract_y
 _atom_site_fract_z
 _atom_site_occupancy
  Tb  Tb0  1  0.250000  0.026865  0.813611  1
  Dy  Dy1  1  0.250000  0.522537  0.688291  1
  Dy  Dy2  1  0.750000  0.977673  0.192392  1
  Dy  Dy3  1  0.750000  0.478634  0.308860  1
  Ga  Ga4  1  0.250000  0.165511  0.430898  1
  Ga  Ga5  1  0.250000  0.661076  0.061518  1
  Ga  Ga6  1  0.750000  0.838257  0.578109  1
  Ga  Ga7  1  0.750000  0.337957  0.930202  1
  Ni  Ni8  1  0.250000  0.284664  0.106307  1
  Ni  Ni9  1  0.750000  0.218417  0.608751  1
  Ni  Ni10  1  0.750000  0.716708  0.891428  1
  Ru  Ru11  1  0.250000  0.771698  0.389632  1
