# generated using pymatgen
data_Be14VPIr16
_symmetry_space_group_name_H-M   'P 1'
_cell_length_a   8.48718510
_cell_length_b   8.48713308
_cell_length_c   8.48713320
_cell_angle_alpha   140.83984162
_cell_angle_beta   96.39970768
_cell_angle_gamma   96.49699281
_symmetry_Int_Tables_number   1
_chemical_formula_structural   Be14VPIr16
_chemical_formula_sum   'Be14 V1 P1 Ir16'
_cell_volume   363.73376499
_cell_formula_units_Z   1
loop_
 _symmetry_equiv_pos_site_id
 _symmetry_equiv_pos_as_xyz
  1  'x, y, z'
loop_
 _atom_site_type_symbol
 _atom_site_label
 _atom_site_symmetry_multiplicity
 _atom_site_fract_x
 _atom_site_fract_y
 _atom_site_fract_z
 _atom_site_occupancy
  Be  Be0  1  0.124784  0.249847  0.874936  1
  Be  Be1  1  0.378711  0.250334  0.128377  1
  Be  Be2  1  0.872064  0.250340  0.621723  1
  Be  Be3  1  0.624352  0.249389  0.374963  1
  Be  Be4  1  0.373108  0.497957  0.875151  1
  Be  Be5  1  0.633726  0.506242  0.127485  1
  Be  Be6  1  0.128384  0.506242  0.622143  1
  Be  Be7  1  0.877222  0.501996  0.375226  1
  Be  Be8  1  0.877314  0.002186  0.875127  1
  Be  Be9  1  0.121004  0.993055  0.127948  1
  Be  Be10  1  0.614768  0.992959  0.621808  1
  Be  Be11  1  0.374064  0.998929  0.375135  1
  Be  Be12  1  0.881970  0.750505  0.131464  1
  Be  Be13  1  0.369297  0.750547  0.618750  1
  V  V14  1  0.124290  0.749449  0.374842  1
  P  P15  1  0.624835  0.749936  0.874899  1
  Ir  Ir16  1  0.125190  0.365300  0.245856  1
  Ir  Ir17  1  0.125190  0.879334  0.759889  1
  Ir  Ir18  1  0.869300  0.365183  0.990101  1
  Ir  Ir19  1  0.375589  0.875584  0.000675  1
  Ir  Ir20  1  0.869300  0.879199  0.504115  1
  Ir  Ir21  1  0.375589  0.374914  0.500005  1
  Ir  Ir22  1  0.624980  0.875656  0.250016  1
  Ir  Ir23  1  0.624980  0.374965  0.749324  1
  Ir  Ir24  1  0.874289  0.125363  0.250031  1
  Ir  Ir25  1  0.874289  0.624258  0.748925  1
  Ir  Ir26  1  0.625439  0.125529  0.001218  1
  Ir  Ir27  1  0.125160  0.620802  0.990556  1
  Ir  Ir28  1  0.625439  0.624221  0.499909  1
  Ir  Ir29  1  0.125160  0.134606  0.504359  1
  Ir  Ir30  1  0.380106  0.620749  0.245682  1
  Ir  Ir31  1  0.380106  0.134424  0.759356  1
