# generated using pymatgen
data_Dy4ErMo2C7
_symmetry_space_group_name_H-M   'P 1'
_cell_length_a   8.40177566
_cell_length_b   8.40177582
_cell_length_c   3.43298500
_cell_angle_alpha   90.00000000
_cell_angle_beta   90.00000000
_cell_angle_gamma   122.67806081
_symmetry_Int_Tables_number   1
_chemical_formula_structural   Dy4ErMo2C7
_chemical_formula_sum   'Dy4 Er1 Mo2 C7'
_cell_volume   203.97666005
_cell_formula_units_Z   1
loop_
 _symmetry_equiv_pos_site_id
 _symmetry_equiv_pos_as_xyz
  1  'x, y, z'
loop_
 _atom_site_type_symbol
 _atom_site_label
 _atom_site_symmetry_multiplicity
 _atom_site_fract_x
 _atom_site_fract_y
 _atom_site_fract_z
 _atom_site_occupancy
  Dy  Dy0  1  0.074577  0.332359  0.500000  1
  Dy  Dy1  1  0.925423  0.667641  0.500000  1
  Dy  Dy2  1  0.667641  0.925423  0.500000  1
  Dy  Dy3  1  0.332359  0.074577  0.500000  1
  Er  Er4  1  0.500000  0.500000  0.000000  1
  Mo  Mo5  1  0.711406  0.288594  0.000000  1
  Mo  Mo6  1  0.288594  0.711406  0.000000  1
  C  C7  1  0.623382  0.376618  0.500000  1
  C  C8  1  0.376618  0.623382  0.500000  1
  C  C9  1  0.000000  0.000000  0.000000  1
  C  C10  1  0.168272  0.168272  0.000000  1
  C  C11  1  0.831728  0.831728  0.000000  1
  C  C12  1  0.000000  0.500000  0.000000  1
  C  C13  1  0.500000  0.000000  0.000000  1
