# generated using pymatgen
data_Y6Fe3Co13(ReP6)2
_symmetry_space_group_name_H-M   'P 1'
_cell_length_a   3.73438700
_cell_length_b   10.58783504
_cell_length_c   12.17204301
_cell_angle_alpha   89.99286742
_cell_angle_beta   90.00000000
_cell_angle_gamma   90.00000000
_symmetry_Int_Tables_number   1
_chemical_formula_structural   Y6Fe3Co13(ReP6)2
_chemical_formula_sum   'Y6 Fe3 Co13 Re2 P12'
_cell_volume   481.27129978
_cell_formula_units_Z   1
loop_
 _symmetry_equiv_pos_site_id
 _symmetry_equiv_pos_as_xyz
  1  'x, y, z'
loop_
 _atom_site_type_symbol
 _atom_site_label
 _atom_site_symmetry_multiplicity
 _atom_site_fract_x
 _atom_site_fract_y
 _atom_site_fract_z
 _atom_site_occupancy
  Y  Y0  1  0.000000  0.500004  0.524377  1
  Y  Y1  1  0.500000  0.000278  0.475517  1
  Y  Y2  1  0.500000  0.818643  0.203797  1
  Y  Y3  1  0.500000  0.181570  0.203363  1
  Y  Y4  1  0.000000  0.680908  0.796633  1
  Y  Y5  1  0.000000  0.318110  0.797371  1
  Fe  Fe6  1  0.000000  0.503078  0.987575  1
  Fe  Fe7  1  0.500000  0.998644  0.012679  1
  Fe  Fe8  1  0.500000  0.331454  0.993018  1
  Co  Co9  1  0.500000  0.499973  0.699593  1
  Co  Co10  1  0.000000  0.000152  0.300595  1
  Co  Co11  1  0.500000  0.670110  0.989864  1
  Co  Co12  1  0.000000  0.165430  0.008792  1
  Co  Co13  1  0.000000  0.831199  0.009989  1
  Co  Co14  1  0.500000  0.296350  0.430724  1
  Co  Co15  1  0.500000  0.704394  0.430963  1
  Co  Co16  1  0.000000  0.204382  0.569144  1
  Co  Co17  1  0.000000  0.795821  0.569257  1
  Co  Co18  1  0.500000  0.879341  0.708037  1
  Co  Co19  1  0.500000  0.120064  0.708262  1
  Co  Co20  1  0.000000  0.620738  0.292163  1
  Co  Co21  1  0.000000  0.379256  0.289991  1
  Re  Re22  1  0.500000  0.502461  0.155246  1
  Re  Re23  1  0.000000  0.998787  0.844120  1
  P  P24  1  0.500000  0.498547  0.883136  1
  P  P25  1  0.000000  0.999423  0.118446  1
  P  P26  1  0.500000  0.499684  0.347062  1
  P  P27  1  0.000000  0.000187  0.652327  1
  P  P28  1  0.500000  0.310174  0.617043  1
  P  P29  1  0.500000  0.689547  0.616781  1
  P  P30  1  0.000000  0.190304  0.383186  1
  P  P31  1  0.000000  0.810470  0.383629  1
  P  P32  1  0.500000  0.847131  0.893920  1
  P  P33  1  0.500000  0.154032  0.895684  1
  P  P34  1  0.000000  0.653381  0.106054  1
  P  P35  1  0.000000  0.345972  0.101662  1
