# generated using pymatgen
data_Ho2Sc3Ga3Sn
_symmetry_space_group_name_H-M   'P 1'
_cell_length_a   7.30780950
_cell_length_b   7.68226946
_cell_length_c   14.61537060
_cell_angle_alpha   89.95663544
_cell_angle_beta   89.61041754
_cell_angle_gamma   89.89966598
_symmetry_Int_Tables_number   1
_chemical_formula_structural   Ho2Sc3Ga3Sn
_chemical_formula_sum   'Ho8 Sc12 Ga12 Sn4'
_cell_volume   820.49466246
_cell_formula_units_Z   4
loop_
 _symmetry_equiv_pos_site_id
 _symmetry_equiv_pos_as_xyz
  1  'x, y, z'
loop_
 _atom_site_type_symbol
 _atom_site_label
 _atom_site_symmetry_multiplicity
 _atom_site_fract_x
 _atom_site_fract_y
 _atom_site_fract_z
 _atom_site_occupancy
  Ho  Ho0  1  0.012691  0.175719  0.092805  1
  Ho  Ho1  1  0.994245  0.824032  0.904087  1
  Ho  Ho2  1  0.487363  0.682660  0.905854  1
  Ho  Ho3  1  0.990642  0.824882  0.599855  1
  Ho  Ho4  1  0.500595  0.313039  0.094348  1
  Ho  Ho5  1  0.997821  0.178191  0.400040  1
  Ho  Ho6  1  0.503078  0.316067  0.400236  1
  Ho  Ho7  1  0.501917  0.685811  0.601897  1
  Sc  Sc8  1  0.165746  0.503686  0.754473  1
  Sc  Sc9  1  0.832588  0.497727  0.247864  1
  Sc  Sc10  1  0.329957  0.003586  0.246038  1
  Sc  Sc11  1  0.668617  0.994289  0.752973  1
  Sc  Sc12  1  0.341803  0.164659  0.632963  1
  Sc  Sc13  1  0.670710  0.840337  0.369907  1
  Sc  Sc14  1  0.167241  0.667281  0.367093  1
  Sc  Sc15  1  0.663823  0.840590  0.125360  1
  Sc  Sc16  1  0.826191  0.322771  0.630322  1
  Sc  Sc17  1  0.330332  0.170651  0.876430  1
  Sc  Sc18  1  0.831269  0.320791  0.873193  1
  Sc  Sc19  1  0.179068  0.673423  0.123618  1
  Ga  Ga20  1  0.033623  0.113781  0.749909  1
  Ga  Ga21  1  0.967630  0.883670  0.246634  1
  Ga  Ga22  1  0.470187  0.616898  0.249668  1
  Ga  Ga23  1  0.530863  0.386541  0.753988  1
  Ga  Ga24  1  0.286247  0.869780  0.751315  1
  Ga  Ga25  1  0.713808  0.133484  0.248533  1
  Ga  Ga26  1  0.211897  0.369581  0.248906  1
  Ga  Ga27  1  0.787588  0.627113  0.751421  1
  Ga  Ga28  1  0.671903  0.039977  0.541836  1
  Ga  Ga29  1  0.168928  0.462369  0.957423  1
  Ga  Ga30  1  0.662517  0.035440  0.958702  1
  Ga  Ga31  1  0.338352  0.962007  0.039863  1
  Sn  Sn32  1  0.179351  0.459282  0.542054  1
  Sn  Sn33  1  0.822262  0.542181  0.459807  1
  Sn  Sn34  1  0.328545  0.958706  0.461139  1
  Sn  Sn35  1  0.830604  0.538997  0.039446  1
