# generated using pymatgen
data_Cd3CoIr3PbO14
_symmetry_space_group_name_H-M   'P 1'
_cell_length_a   7.19410681
_cell_length_b   7.15827079
_cell_length_c   7.15827107
_cell_angle_alpha   60.55240447
_cell_angle_beta   60.90689451
_cell_angle_gamma   60.90689707
_symmetry_Int_Tables_number   1
_chemical_formula_structural   Cd3CoIr3PbO14
_chemical_formula_sum   'Cd3 Co1 Ir3 Pb1 O14'
_cell_volume   265.29318450
_cell_formula_units_Z   1
loop_
 _symmetry_equiv_pos_site_id
 _symmetry_equiv_pos_as_xyz
  1  'x, y, z'
loop_
 _atom_site_type_symbol
 _atom_site_label
 _atom_site_symmetry_multiplicity
 _atom_site_fract_x
 _atom_site_fract_y
 _atom_site_fract_z
 _atom_site_occupancy
  Cd  Cd0  1  0.125000  0.625000  0.125000  1
  Cd  Cd1  1  0.125000  0.125000  0.625000  1
  Cd  Cd2  1  0.125000  0.125000  0.125000  1
  Co  Co3  1  0.625000  0.625000  0.625000  1
  Ir  Ir4  1  0.125000  0.625000  0.625000  1
  Ir  Ir5  1  0.625000  0.125000  0.625000  1
  Ir  Ir6  1  0.625000  0.625000  0.125000  1
  Pb  Pb7  1  0.625000  0.125000  0.125000  1
  O  O8  1  0.693484  0.704958  0.304500  1
  O  O9  1  0.303255  0.298914  0.703535  1
  O  O10  1  0.693484  0.304500  0.704958  1
  O  O11  1  0.303255  0.703535  0.298914  1
  O  O12  1  0.305485  0.696378  0.696378  1
  O  O13  1  0.692270  0.297184  0.297184  1
  O  O14  1  0.556516  0.545042  0.945500  1
  O  O15  1  0.946745  0.951086  0.546465  1
  O  O16  1  0.556516  0.945500  0.545042  1
  O  O17  1  0.946745  0.546465  0.951086  1
  O  O18  1  0.944515  0.553622  0.553622  1
  O  O19  1  0.557730  0.952816  0.952816  1
  O  O20  1  0.243261  0.253549  0.253549  1
  O  O21  1  0.006739  0.996451  0.996451  1
