# generated using pymatgen
data_Tb2YZn3IrPd2
_symmetry_space_group_name_H-M   'P 1'
_cell_length_a   7.28708267
_cell_length_b   7.27945217
_cell_length_c   3.89167100
_cell_angle_alpha   90.00000000
_cell_angle_beta   90.00000000
_cell_angle_gamma   119.93670346
_symmetry_Int_Tables_number   1
_chemical_formula_structural   Tb2YZn3IrPd2
_chemical_formula_sum   'Tb2 Y1 Zn3 Ir1 Pd2'
_cell_volume   178.89400652
_cell_formula_units_Z   1
loop_
 _symmetry_equiv_pos_site_id
 _symmetry_equiv_pos_as_xyz
  1  'x, y, z'
loop_
 _atom_site_type_symbol
 _atom_site_label
 _atom_site_symmetry_multiplicity
 _atom_site_fract_x
 _atom_site_fract_y
 _atom_site_fract_z
 _atom_site_occupancy
  Tb  Tb0  1  0.587118  0.597266  0.000000  1
  Tb  Tb1  1  0.402718  0.989879  0.000000  1
  Y  Y2  1  0.009933  0.412347  0.000000  1
  Zn  Zn3  1  0.252151  0.254288  0.500000  1
  Zn  Zn4  1  0.745742  0.998199  0.500000  1
  Zn  Zn5  1  0.001944  0.747477  0.500000  1
  Ir  Ir6  1  0.333962  0.667279  0.500000  1
  Pd  Pd7  1  0.999968  0.999896  0.000000  1
  Pd  Pd8  1  0.666464  0.333369  0.500000  1
