# generated using pymatgen
data_Tb2NdGa2Co9B4
_symmetry_space_group_name_H-M   'P 1'
_cell_length_a   5.16812614
_cell_length_b   5.16723895
_cell_length_c   9.56694200
_cell_angle_alpha   90.00024454
_cell_angle_beta   90.00061732
_cell_angle_gamma   119.99843536
_symmetry_Int_Tables_number   1
_chemical_formula_structural   Tb2NdGa2Co9B4
_chemical_formula_sum   'Tb2 Nd1 Ga2 Co9 B4'
_cell_volume   221.25967497
_cell_formula_units_Z   1
loop_
 _symmetry_equiv_pos_site_id
 _symmetry_equiv_pos_as_xyz
  1  'x, y, z'
loop_
 _atom_site_type_symbol
 _atom_site_label
 _atom_site_symmetry_multiplicity
 _atom_site_fract_x
 _atom_site_fract_y
 _atom_site_fract_z
 _atom_site_occupancy
  Tb  Tb0  1  0.000007  0.000009  0.341448  1
  Tb  Tb1  1  0.000005  0.999999  0.658643  1
  Nd  Nd2  1  0.999955  0.999997  0.999966  1
  Ga  Ga3  1  0.333361  0.666655  0.999925  1
  Ga  Ga4  1  0.666573  0.333348  0.999925  1
  Co  Co5  1  0.500021  0.000019  0.500020  1
  Co  Co6  1  0.499987  0.499998  0.500037  1
  Co  Co7  1  0.999998  0.499989  0.500031  1
  Co  Co8  1  0.499997  0.999986  0.209556  1
  Co  Co9  1  0.500014  0.500013  0.209563  1
  Co  Co10  1  0.000001  0.500008  0.209569  1
  Co  Co11  1  0.499992  0.999993  0.790422  1
  Co  Co12  1  0.500003  0.499993  0.790421  1
  Co  Co13  1  0.999986  0.499992  0.790413  1
  B  B14  1  0.333319  0.666632  0.350332  1
  B  B15  1  0.666695  0.333376  0.350338  1
  B  B16  1  0.666648  0.333278  0.649700  1
  B  B17  1  0.333336  0.666717  0.649694  1
