# generated using pymatgen
data_Er10AlBi2Pb3
_symmetry_space_group_name_H-M   'P 1'
_cell_length_a   8.98579553
_cell_length_b   8.98579642
_cell_length_c   6.48277000
_cell_angle_alpha   90.00000000
_cell_angle_beta   90.00000000
_cell_angle_gamma   120.25082735
_symmetry_Int_Tables_number   1
_chemical_formula_structural   Er10AlBi2Pb3
_chemical_formula_sum   'Er10 Al1 Bi2 Pb3'
_cell_volume   452.16934263
_cell_formula_units_Z   1
loop_
 _symmetry_equiv_pos_site_id
 _symmetry_equiv_pos_as_xyz
  1  'x, y, z'
loop_
 _atom_site_type_symbol
 _atom_site_label
 _atom_site_symmetry_multiplicity
 _atom_site_fract_x
 _atom_site_fract_y
 _atom_site_fract_z
 _atom_site_occupancy
  Er  Er0  1  0.657377  0.333948  0.998708  1
  Er  Er1  1  0.333948  0.657377  0.998708  1
  Er  Er2  1  0.333948  0.657377  0.501292  1
  Er  Er3  1  0.657377  0.333948  0.501292  1
  Er  Er4  1  0.757622  0.757622  0.750000  1
  Er  Er5  1  0.242018  0.015141  0.750000  1
  Er  Er6  1  0.015141  0.242018  0.750000  1
  Er  Er7  1  0.237728  0.237728  0.250000  1
  Er  Er8  1  0.761873  0.999057  0.250000  1
  Er  Er9  1  0.999057  0.761873  0.250000  1
  Al  Al10  1  0.401494  0.401494  0.750000  1
  Bi  Bi11  1  0.609077  0.001555  0.750000  1
  Bi  Bi12  1  0.001555  0.609077  0.750000  1
  Pb  Pb13  1  0.604937  0.604937  0.250000  1
  Pb  Pb14  1  0.392064  0.994786  0.250000  1
  Pb  Pb15  1  0.994786  0.392064  0.250000  1
