# generated using pymatgen
data_Rb5As2Pt
_symmetry_space_group_name_H-M   'P 1'
_cell_length_a   6.02320400
_cell_length_b   6.02320378
_cell_length_c   19.95556800
_cell_angle_alpha   90.00000000
_cell_angle_beta   90.00000000
_cell_angle_gamma   119.99999022
_symmetry_Int_Tables_number   1
_chemical_formula_structural   Rb5As2Pt
_chemical_formula_sum   'Rb10 As4 Pt2'
_cell_volume   626.97452843
_cell_formula_units_Z   2
loop_
 _symmetry_equiv_pos_site_id
 _symmetry_equiv_pos_as_xyz
  1  'x, y, z'
loop_
 _atom_site_type_symbol
 _atom_site_label
 _atom_site_symmetry_multiplicity
 _atom_site_fract_x
 _atom_site_fract_y
 _atom_site_fract_z
 _atom_site_occupancy
  Rb  Rb0  1  0.333333  0.666667  0.548488  1
  Rb  Rb1  1  0.666667  0.333333  0.048488  1
  Rb  Rb2  1  0.666667  0.333333  0.451512  1
  Rb  Rb3  1  0.333333  0.666667  0.951512  1
  Rb  Rb4  1  0.000000  0.000000  0.155405  1
  Rb  Rb5  1  0.000000  0.000000  0.655405  1
  Rb  Rb6  1  0.000000  0.000000  0.844595  1
  Rb  Rb7  1  0.000000  0.000000  0.344595  1
  Rb  Rb8  1  0.333333  0.666667  0.750000  1
  Rb  Rb9  1  0.666667  0.333333  0.250000  1
  As  As10  1  0.333333  0.666667  0.372450  1
  As  As11  1  0.666667  0.333333  0.872450  1
  As  As12  1  0.666667  0.333333  0.627550  1
  As  As13  1  0.333333  0.666667  0.127550  1
  Pt  Pt14  1  0.333333  0.666667  0.250000  1
  Pt  Pt15  1  0.666667  0.333333  0.750000  1
