# generated using pymatgen
data_Sr5La3(Yb3Pt4)4
_symmetry_space_group_name_H-M   'P 1'
_cell_length_a   7.63666805
_cell_length_b   7.76741180
_cell_length_c   14.80431765
_cell_angle_alpha   89.83599322
_cell_angle_beta   90.09134686
_cell_angle_gamma   90.09573875
_symmetry_Int_Tables_number   1
_chemical_formula_structural   Sr5La3(Yb3Pt4)4
_chemical_formula_sum   'Sr5 La3 Yb12 Pt16'
_cell_volume   878.14393164
_cell_formula_units_Z   1
loop_
 _symmetry_equiv_pos_site_id
 _symmetry_equiv_pos_as_xyz
  1  'x, y, z'
loop_
 _atom_site_type_symbol
 _atom_site_label
 _atom_site_symmetry_multiplicity
 _atom_site_fract_x
 _atom_site_fract_y
 _atom_site_fract_z
 _atom_site_occupancy
  Sr  Sr0  1  0.999795  0.825189  0.096803  1
  Sr  Sr1  1  0.498019  0.675064  0.096443  1
  Sr  Sr2  1  0.998779  0.825242  0.403964  1
  Sr  Sr3  1  0.501460  0.325716  0.596100  1
  Sr  Sr4  1  0.001166  0.173982  0.903861  1
  La  La5  1  0.495407  0.320989  0.901398  1
  La  La6  1  0.995417  0.179157  0.599967  1
  La  La7  1  0.502200  0.678751  0.399729  1
  Yb  Yb8  1  0.338628  0.832657  0.877294  1
  Yb  Yb9  1  0.839430  0.666437  0.622626  1
  Yb  Yb10  1  0.660292  0.167255  0.377615  1
  Yb  Yb11  1  0.161149  0.334800  0.123270  1
  Yb  Yb12  1  0.661753  0.168069  0.123562  1
  Yb  Yb13  1  0.160003  0.331224  0.376852  1
  Yb  Yb14  1  0.339124  0.830771  0.623483  1
  Yb  Yb15  1  0.839418  0.668499  0.877051  1
  Yb  Yb16  1  0.176732  0.500987  0.749900  1
  Yb  Yb17  1  0.676910  0.998254  0.750522  1
  Yb  Yb18  1  0.825132  0.499750  0.248916  1
  Yb  Yb19  1  0.320697  0.000807  0.249603  1
  Pt  Pt20  1  0.336640  0.047871  0.039945  1
  Pt  Pt21  1  0.825016  0.463494  0.458171  1
  Pt  Pt22  1  0.674150  0.964359  0.542742  1
  Pt  Pt23  1  0.176282  0.529603  0.955490  1
  Pt  Pt24  1  0.662623  0.971731  0.954586  1
  Pt  Pt25  1  0.165970  0.528938  0.541423  1
  Pt  Pt26  1  0.333299  0.030342  0.459286  1
  Pt  Pt27  1  0.830075  0.459517  0.037656  1
  Pt  Pt28  1  0.545985  0.622519  0.753817  1
  Pt  Pt29  1  0.045428  0.877424  0.746286  1
  Pt  Pt30  1  0.457461  0.375065  0.252914  1
  Pt  Pt31  1  0.951565  0.127663  0.249415  1
  Pt  Pt32  1  0.304103  0.133621  0.753421  1
  Pt  Pt33  1  0.804987  0.365929  0.745581  1
  Pt  Pt34  1  0.691501  0.867610  0.257017  1
  Pt  Pt35  1  0.203403  0.630713  0.253287  1
