# generated using pymatgen
data_TbDy3Al16Ga2Ir5Au
_symmetry_space_group_name_H-M   'P 1'
_cell_length_a   7.58977670
_cell_length_b   7.58995951
_cell_length_c   9.47723100
_cell_angle_alpha   89.96811348
_cell_angle_beta   89.97537492
_cell_angle_gamma   119.59568579
_symmetry_Int_Tables_number   1
_chemical_formula_structural   TbDy3Al16Ga2Ir5Au
_chemical_formula_sum   'Tb1 Dy3 Al16 Ga2 Ir5 Au1'
_cell_volume   474.71761079
_cell_formula_units_Z   1
loop_
 _symmetry_equiv_pos_site_id
 _symmetry_equiv_pos_as_xyz
  1  'x, y, z'
loop_
 _atom_site_type_symbol
 _atom_site_label
 _atom_site_symmetry_multiplicity
 _atom_site_fract_x
 _atom_site_fract_y
 _atom_site_fract_z
 _atom_site_occupancy
  Tb  Tb0  1  0.995233  0.676198  0.750922  1
  Dy  Dy1  1  0.004731  0.323715  0.248950  1
  Dy  Dy2  1  0.676227  0.995273  0.751049  1
  Dy  Dy3  1  0.323845  0.004770  0.248986  1
  Al  Al4  1  0.001766  0.344676  0.578419  1
  Al  Al5  1  0.998285  0.655045  0.420979  1
  Al  Al6  1  0.999705  0.663732  0.073939  1
  Al  Al7  1  0.336449  0.000510  0.926663  1
  Al  Al8  1  0.000343  0.336129  0.926623  1
  Al  Al9  1  0.663702  0.999719  0.073661  1
  Al  Al10  1  0.655134  0.998285  0.421259  1
  Al  Al11  1  0.345125  0.001907  0.578442  1
  Al  Al12  1  0.333738  0.333752  0.054735  1
  Al  Al13  1  0.666127  0.666285  0.945800  1
  Al  Al14  1  0.657206  0.657369  0.560510  1
  Al  Al15  1  0.342541  0.342538  0.438963  1
  Al  Al16  1  0.338008  0.552431  0.751190  1
  Al  Al17  1  0.662121  0.447477  0.248811  1
  Al  Al18  1  0.552163  0.337561  0.751166  1
  Al  Al19  1  0.447499  0.662241  0.248832  1
  Ga  Ga20  1  0.142830  0.142974  0.756274  1
  Ga  Ga21  1  0.857162  0.857234  0.243810  1
  Ir  Ir22  1  0.671358  0.328610  0.499862  1
  Ir  Ir23  1  0.328632  0.671346  0.499880  1
  Ir  Ir24  1  0.328529  0.671448  0.000105  1
  Ir  Ir25  1  0.671443  0.328521  0.000123  1
  Ir  Ir26  1  0.000065  0.000169  0.000167  1
  Au  Au27  1  0.000032  0.000088  0.499882  1
