# generated using pymatgen
data_Tm4AlRe4Os3
_symmetry_space_group_name_H-M   'P 1'
_cell_length_a   5.28195101
_cell_length_b   5.32789277
_cell_length_c   8.89620800
_cell_angle_alpha   90.00000000
_cell_angle_beta   90.00000000
_cell_angle_gamma   119.56731613
_symmetry_Int_Tables_number   1
_chemical_formula_structural   Tm4AlRe4Os3
_chemical_formula_sum   'Tm4 Al1 Re4 Os3'
_cell_volume   217.75215834
_cell_formula_units_Z   1
loop_
 _symmetry_equiv_pos_site_id
 _symmetry_equiv_pos_as_xyz
  1  'x, y, z'
loop_
 _atom_site_type_symbol
 _atom_site_label
 _atom_site_symmetry_multiplicity
 _atom_site_fract_x
 _atom_site_fract_y
 _atom_site_fract_z
 _atom_site_occupancy
  Tm  Tm0  1  0.662189  0.329858  0.562361  1
  Tm  Tm1  1  0.334318  0.670973  0.440839  1
  Tm  Tm2  1  0.334318  0.670973  0.059161  1
  Tm  Tm3  1  0.662189  0.329858  0.937639  1
  Al  Al4  1  0.834528  0.659503  0.250000  1
  Re  Re5  1  0.164105  0.333862  0.750000  1
  Re  Re6  1  0.166412  0.824802  0.750000  1
  Re  Re7  1  0.653995  0.824218  0.750000  1
  Re  Re8  1  0.833597  0.164905  0.250000  1
  Os  Os9  1  0.999195  0.011389  0.495383  1
  Os  Os10  1  0.999195  0.011389  0.004617  1
  Os  Os11  1  0.355959  0.168270  0.250000  1
