# generated using pymatgen
data_Co2SeO6
_symmetry_space_group_name_H-M   'P 1'
_cell_length_a   4.89486766
_cell_length_b   10.22795002
_cell_length_c   4.89790110
_cell_angle_alpha   90.00310021
_cell_angle_beta   60.01913600
_cell_angle_gamma   90.00047453
_symmetry_Int_Tables_number   1
_chemical_formula_structural   Co2SeO6
_chemical_formula_sum   'Co4 Se2 O12'
_cell_volume   212.39970305
_cell_formula_units_Z   2
loop_
 _symmetry_equiv_pos_site_id
 _symmetry_equiv_pos_as_xyz
  1  'x, y, z'
loop_
 _atom_site_type_symbol
 _atom_site_label
 _atom_site_symmetry_multiplicity
 _atom_site_fract_x
 _atom_site_fract_y
 _atom_site_fract_z
 _atom_site_occupancy
  Co  Co0  1  0.333386  0.000000  0.333256  1
  Co  Co1  1  0.166624  0.500000  0.666739  1
  Co  Co2  1  0.833372  0.500001  0.333267  1
  Co  Co3  1  0.666612  0.999999  0.666742  1
  Se  Se4  1  0.000008  0.000000  0.999992  1
  Se  Se5  1  0.499998  0.500001  0.000005  1
  O  O6  1  0.174539  0.595125  0.999975  1
  O  O7  1  0.325462  0.095130  0.000011  1
  O  O8  1  0.674516  0.904868  0.000027  1
  O  O9  1  0.825480  0.404875  0.999987  1
  O  O10  1  0.999974  0.904834  0.325449  1
  O  O11  1  0.174614  0.404842  0.325464  1
  O  O12  1  0.499928  0.595155  0.325463  1
  O  O13  1  0.674584  0.095163  0.325436  1
  O  O14  1  0.000076  0.095166  0.674527  1
  O  O15  1  0.325388  0.904838  0.674546  1
  O  O16  1  0.500028  0.404845  0.674558  1
  O  O17  1  0.825413  0.595158  0.674556  1
