# generated using pymatgen
data_Dy5Cd2(HgPt)2
_symmetry_space_group_name_H-M   'P 1'
_cell_length_a   3.66778400
_cell_length_b   7.93982800
_cell_length_c   18.32663000
_cell_angle_alpha   90.00000000
_cell_angle_beta   90.00000000
_cell_angle_gamma   90.00000000
_symmetry_Int_Tables_number   1
_chemical_formula_structural   Dy5Cd2(HgPt)2
_chemical_formula_sum   'Dy10 Cd4 Hg4 Pt4'
_cell_volume   533.70031357
_cell_formula_units_Z   2
loop_
 _symmetry_equiv_pos_site_id
 _symmetry_equiv_pos_as_xyz
  1  'x, y, z'
loop_
 _atom_site_type_symbol
 _atom_site_label
 _atom_site_symmetry_multiplicity
 _atom_site_fract_x
 _atom_site_fract_y
 _atom_site_fract_z
 _atom_site_occupancy
  Dy  Dy0  1  0.000000  0.109540  0.414100  1
  Dy  Dy1  1  0.000000  0.890460  0.585900  1
  Dy  Dy2  1  0.000000  0.390460  0.914100  1
  Dy  Dy3  1  0.000000  0.609540  0.085900  1
  Dy  Dy4  1  0.000000  0.242015  0.216871  1
  Dy  Dy5  1  0.000000  0.757985  0.783129  1
  Dy  Dy6  1  0.000000  0.257985  0.716871  1
  Dy  Dy7  1  0.000000  0.742015  0.283129  1
  Dy  Dy8  1  0.000000  0.000000  0.000000  1
  Dy  Dy9  1  0.000000  0.500000  0.500000  1
  Cd  Cd10  1  0.500000  0.423839  0.352210  1
  Cd  Cd11  1  0.500000  0.576161  0.647790  1
  Cd  Cd12  1  0.500000  0.076161  0.852210  1
  Cd  Cd13  1  0.500000  0.923839  0.147790  1
  Hg  Hg14  1  0.500000  0.283390  0.063300  1
  Hg  Hg15  1  0.500000  0.716610  0.936700  1
  Hg  Hg16  1  0.500000  0.216610  0.563300  1
  Hg  Hg17  1  0.500000  0.783390  0.436700  1
  Pt  Pt18  1  0.500000  0.030719  0.302127  1
  Pt  Pt19  1  0.500000  0.969281  0.697873  1
  Pt  Pt20  1  0.500000  0.469281  0.802127  1
  Pt  Pt21  1  0.500000  0.530719  0.197873  1
