# generated using pymatgen
data_PrYZn5Sn
_symmetry_space_group_name_H-M   'P 1'
_cell_length_a   8.50554151
_cell_length_b   8.50554236
_cell_length_c   9.06964900
_cell_angle_alpha   90.00000000
_cell_angle_beta   90.00000000
_cell_angle_gamma   149.75104103
_symmetry_Int_Tables_number   1
_chemical_formula_structural   PrYZn5Sn
_chemical_formula_sum   'Pr2 Y2 Zn10 Sn2'
_cell_volume   330.53439567
_cell_formula_units_Z   2
loop_
 _symmetry_equiv_pos_site_id
 _symmetry_equiv_pos_as_xyz
  1  'x, y, z'
loop_
 _atom_site_type_symbol
 _atom_site_label
 _atom_site_symmetry_multiplicity
 _atom_site_fract_x
 _atom_site_fract_y
 _atom_site_fract_z
 _atom_site_occupancy
  Pr  Pr0  1  0.000000  0.000000  0.500000  1
  Pr  Pr1  1  0.000000  0.000000  0.000000  1
  Y  Y2  1  0.205022  0.794978  0.250000  1
  Y  Y3  1  0.794978  0.205022  0.750000  1
  Zn  Zn4  1  0.812741  0.187259  0.390580  1
  Zn  Zn5  1  0.187259  0.812741  0.609420  1
  Zn  Zn6  1  0.812741  0.187259  0.109420  1
  Zn  Zn7  1  0.187259  0.812741  0.890580  1
  Zn  Zn8  1  0.657785  0.342215  0.482539  1
  Zn  Zn9  1  0.342215  0.657785  0.517461  1
  Zn  Zn10  1  0.657785  0.342215  0.017461  1
  Zn  Zn11  1  0.342215  0.657785  0.982539  1
  Zn  Zn12  1  0.394237  0.605763  0.250000  1
  Zn  Zn13  1  0.605763  0.394237  0.750000  1
  Sn  Sn14  1  0.557138  0.442862  0.250000  1
  Sn  Sn15  1  0.442862  0.557138  0.750000  1
