# generated using pymatgen
data_Sr20Li3InAg8
_symmetry_space_group_name_H-M   'P 1'
_cell_length_a   8.76138900
_cell_length_b   8.76138900
_cell_length_c   16.06231600
_cell_angle_alpha   90.00000000
_cell_angle_beta   90.00000000
_cell_angle_gamma   90.00000000
_symmetry_Int_Tables_number   1
_chemical_formula_structural   Sr20Li3InAg8
_chemical_formula_sum   'Sr20 Li3 In1 Ag8'
_cell_volume   1232.97449223
_cell_formula_units_Z   1
loop_
 _symmetry_equiv_pos_site_id
 _symmetry_equiv_pos_as_xyz
  1  'x, y, z'
loop_
 _atom_site_type_symbol
 _atom_site_label
 _atom_site_symmetry_multiplicity
 _atom_site_fract_x
 _atom_site_fract_y
 _atom_site_fract_z
 _atom_site_occupancy
  Sr  Sr0  1  0.671996  0.166407  0.108318  1
  Sr  Sr1  1  0.168086  0.668068  0.611561  1
  Sr  Sr2  1  0.328004  0.833593  0.108318  1
  Sr  Sr3  1  0.831914  0.331932  0.611561  1
  Sr  Sr4  1  0.833593  0.671996  0.108318  1
  Sr  Sr5  1  0.331932  0.168086  0.611561  1
  Sr  Sr6  1  0.166407  0.328004  0.108318  1
  Sr  Sr7  1  0.668068  0.831914  0.611561  1
  Sr  Sr8  1  0.833593  0.328004  0.891682  1
  Sr  Sr9  1  0.331932  0.831914  0.388439  1
  Sr  Sr10  1  0.166407  0.671996  0.891682  1
  Sr  Sr11  1  0.668068  0.168086  0.388439  1
  Sr  Sr12  1  0.671996  0.833593  0.891682  1
  Sr  Sr13  1  0.168086  0.331932  0.388439  1
  Sr  Sr14  1  0.328004  0.166407  0.891682  1
  Sr  Sr15  1  0.831914  0.668068  0.388439  1
  Sr  Sr16  1  0.500000  0.500000  0.752418  1
  Sr  Sr17  1  0.000000  0.000000  0.245818  1
  Sr  Sr18  1  0.000000  0.000000  0.754182  1
  Sr  Sr19  1  0.500000  0.500000  0.247582  1
  Li  Li20  1  0.500000  0.500000  0.500000  1
  Li  Li21  1  0.500000  0.500000  0.000000  1
  Li  Li22  1  0.000000  0.000000  0.500000  1
  In  In23  1  0.000000  0.000000  0.000000  1
  Ag  Ag24  1  0.619909  0.121065  0.751236  1
  Ag  Ag25  1  0.121065  0.619909  0.248764  1
  Ag  Ag26  1  0.878935  0.380091  0.248764  1
  Ag  Ag27  1  0.380091  0.878935  0.751236  1
  Ag  Ag28  1  0.878935  0.619909  0.751236  1
  Ag  Ag29  1  0.380091  0.121065  0.248764  1
  Ag  Ag30  1  0.121065  0.380091  0.751236  1
  Ag  Ag31  1  0.619909  0.878935  0.248764  1
