# generated using pymatgen
data_Cs8Th(SeO4)6
_symmetry_space_group_name_H-M   'P 1'
_cell_length_a   11.01039094
_cell_length_b   11.01039205
_cell_length_c   8.53627500
_cell_angle_alpha   79.44631217
_cell_angle_beta   79.44631109
_cell_angle_gamma   122.03290568
_symmetry_Int_Tables_number   1
_chemical_formula_structural   Cs8Th(SeO4)6
_chemical_formula_sum   'Cs8 Th1 Se6 O24'
_cell_volume   812.19580182
_cell_formula_units_Z   1
loop_
 _symmetry_equiv_pos_site_id
 _symmetry_equiv_pos_as_xyz
  1  'x, y, z'
loop_
 _atom_site_type_symbol
 _atom_site_label
 _atom_site_symmetry_multiplicity
 _atom_site_fract_x
 _atom_site_fract_y
 _atom_site_fract_z
 _atom_site_occupancy
  Cs  Cs0  1  0.222477  0.222477  0.378449  1
  Cs  Cs1  1  0.777523  0.777523  0.621551  1
  Cs  Cs2  1  0.665367  0.334633  0.500000  1
  Cs  Cs3  1  0.334633  0.665367  0.500000  1
  Cs  Cs4  1  0.870397  0.529123  0.889098  1
  Cs  Cs5  1  0.529123  0.870397  0.889098  1
  Cs  Cs6  1  0.129603  0.470877  0.110902  1
  Cs  Cs7  1  0.470877  0.129603  0.110902  1
  Th  Th8  1  0.000000  0.000000  0.000000  1
  Se  Se9  1  0.945591  0.264368  0.715758  1
  Se  Se10  1  0.264368  0.945591  0.715758  1
  Se  Se11  1  0.054409  0.735632  0.284242  1
  Se  Se12  1  0.735632  0.054409  0.284242  1
  Se  Se13  1  0.383191  0.383191  0.798962  1
  Se  Se14  1  0.616809  0.616809  0.201038  1
  O  O15  1  0.934050  0.099841  0.795860  1
  O  O16  1  0.099841  0.934050  0.795860  1
  O  O17  1  0.065950  0.900159  0.204140  1
  O  O18  1  0.900159  0.065950  0.204140  1
  O  O19  1  0.769266  0.216802  0.770351  1
  O  O20  1  0.216802  0.769266  0.770351  1
  O  O21  1  0.230734  0.783198  0.229649  1
  O  O22  1  0.783198  0.230734  0.229649  1
  O  O23  1  0.048526  0.387158  0.804513  1
  O  O24  1  0.387158  0.048526  0.804513  1
  O  O25  1  0.951474  0.612842  0.195487  1
  O  O26  1  0.612842  0.951474  0.195487  1
  O  O27  1  0.028852  0.326833  0.507546  1
  O  O28  1  0.326833  0.028852  0.507546  1
  O  O29  1  0.971148  0.673167  0.492454  1
  O  O30  1  0.673167  0.971148  0.492454  1
  O  O31  1  0.398484  0.539274  0.813127  1
  O  O32  1  0.539274  0.398484  0.813127  1
  O  O33  1  0.601516  0.460726  0.186873  1
  O  O34  1  0.460726  0.601516  0.186873  1
  O  O35  1  0.228556  0.228556  0.970891  1
  O  O36  1  0.771444  0.771444  0.029109  1
  O  O37  1  0.342603  0.342603  0.629946  1
  O  O38  1  0.657397  0.657397  0.370054  1
