# generated using pymatgen
data_Sr10Sc3Fe2(MoO6)5
_symmetry_space_group_name_H-M   'P 1'
_cell_length_a   8.08383698
_cell_length_b   9.82334379
_cell_length_c   10.02046570
_cell_angle_alpha   78.88103239
_cell_angle_beta   66.21478115
_cell_angle_gamma   65.66986844
_symmetry_Int_Tables_number   1
_chemical_formula_structural   Sr10Sc3Fe2(MoO6)5
_chemical_formula_sum   'Sr10 Sc3 Fe2 Mo5 O30'
_cell_volume   663.13352663
_cell_formula_units_Z   1
loop_
 _symmetry_equiv_pos_site_id
 _symmetry_equiv_pos_as_xyz
  1  'x, y, z'
loop_
 _atom_site_type_symbol
 _atom_site_label
 _atom_site_symmetry_multiplicity
 _atom_site_fract_x
 _atom_site_fract_y
 _atom_site_fract_z
 _atom_site_occupancy
  Sr  Sr0  1  0.146642  0.400172  0.300865  1
  Sr  Sr1  1  0.759381  0.999768  0.500336  1
  Sr  Sr2  1  0.949199  0.203137  0.899913  1
  Sr  Sr3  1  0.546789  0.797682  0.102856  1
  Sr  Sr4  1  0.343511  0.602380  0.701131  1
  Sr  Sr5  1  0.656489  0.397620  0.298869  1
  Sr  Sr6  1  0.240619  0.000232  0.499664  1
  Sr  Sr7  1  0.453211  0.202318  0.897144  1
  Sr  Sr8  1  0.050801  0.796863  0.100087  1
  Sr  Sr9  1  0.853358  0.599828  0.699135  1
  Sc  Sc10  1  0.300121  0.300282  0.599290  1
  Sc  Sc11  1  0.500000  0.500000  0.000000  1
  Sc  Sc12  1  0.699879  0.699718  0.400710  1
  Fe  Fe13  1  0.899278  0.899318  0.801252  1
  Fe  Fe14  1  0.100722  0.100682  0.198748  1
  Mo  Mo15  1  0.800543  0.297665  0.600751  1
  Mo  Mo16  1  0.399069  0.901465  0.800572  1
  Mo  Mo17  1  0.600931  0.098535  0.199428  1
  Mo  Mo18  1  0.199457  0.702335  0.399249  1
  Mo  Mo19  1  0.000000  0.500000  0.000000  1
  O  O20  1  0.852587  0.596800  0.199396  1
  O  O21  1  0.456436  0.196403  0.390824  1
  O  O22  1  0.651885  0.396114  0.799750  1
  O  O23  1  0.258517  0.996748  0.986819  1
  O  O24  1  0.053942  0.798557  0.593650  1
  O  O25  1  0.946058  0.201443  0.406350  1
  O  O26  1  0.543564  0.803597  0.609176  1
  O  O27  1  0.741483  0.003252  0.013181  1
  O  O28  1  0.348115  0.603886  0.200250  1
  O  O29  1  0.147413  0.403200  0.800604  1
  O  O30  1  0.109196  0.891749  0.298176  1
  O  O31  1  0.300903  0.091499  0.700172  1
  O  O32  1  0.499468  0.291780  0.105408  1
  O  O33  1  0.699561  0.492600  0.508847  1
  O  O34  1  0.902271  0.693004  0.906682  1
  O  O35  1  0.097729  0.306996  0.093318  1
  O  O36  1  0.300439  0.507400  0.491153  1
  O  O37  1  0.500532  0.708220  0.894592  1
  O  O38  1  0.699097  0.908501  0.299828  1
  O  O39  1  0.890804  0.108251  0.701824  1
  O  O40  1  0.236300  0.539993  0.979303  1
  O  O41  1  0.436650  0.741370  0.381567  1
  O  O42  1  0.623376  0.941631  0.779385  1
  O  O43  1  0.824774  0.140014  0.178770  1
  O  O44  1  0.037336  0.338328  0.579205  1
  O  O45  1  0.763700  0.460007  0.020697  1
  O  O46  1  0.962664  0.661672  0.420795  1
  O  O47  1  0.175226  0.859986  0.821230  1
  O  O48  1  0.376624  0.058369  0.220615  1
  O  O49  1  0.563350  0.258630  0.618433  1
