# generated using pymatgen
data_Y8Tm4InCo4Ru
_symmetry_space_group_name_H-M   'P 1'
_cell_length_a   8.29691293
_cell_length_b   8.29691314
_cell_length_c   8.29691305
_cell_angle_alpha   111.04081981
_cell_angle_beta   110.71841600
_cell_angle_gamma   106.68989541
_symmetry_Int_Tables_number   1
_chemical_formula_structural   Y8Tm4InCo4Ru
_chemical_formula_sum   'Y8 Tm4 In1 Co4 Ru1'
_cell_volume   438.89493788
_cell_formula_units_Z   1
loop_
 _symmetry_equiv_pos_site_id
 _symmetry_equiv_pos_as_xyz
  1  'x, y, z'
loop_
 _atom_site_type_symbol
 _atom_site_label
 _atom_site_symmetry_multiplicity
 _atom_site_fract_x
 _atom_site_fract_y
 _atom_site_fract_z
 _atom_site_occupancy
  Y  Y0  1  0.411400  0.218643  0.192756  1
  Y  Y1  1  0.588600  0.781357  0.807244  1
  Y  Y2  1  0.025887  0.218643  0.807244  1
  Y  Y3  1  0.974113  0.781357  0.192756  1
  Y  Y4  1  0.184961  0.284904  0.469866  1
  Y  Y5  1  0.815039  0.715096  0.530134  1
  Y  Y6  1  0.184961  0.715096  0.900057  1
  Y  Y7  1  0.815039  0.284904  0.099943  1
  Tm  Tm8  1  0.315042  0.624149  0.309107  1
  Tm  Tm9  1  0.684958  0.375851  0.690893  1
  Tm  Tm10  1  0.315042  0.005936  0.690893  1
  Tm  Tm11  1  0.684958  0.994064  0.309107  1
  In  In12  1  0.500000  0.500000  0.000000  1
  Co  Co13  1  0.379143  0.000000  0.379143  1
  Co  Co14  1  0.620857  0.000000  0.620857  1
  Co  Co15  1  0.111532  0.611532  0.500000  1
  Co  Co16  1  0.888468  0.388468  0.500000  1
  Ru  Ru17  1  0.000000  0.000000  0.000000  1
