# generated using pymatgen
data_Ta8Ti2Si5Ge
_symmetry_space_group_name_H-M   'P 1'
_cell_length_a   7.56992197
_cell_length_b   7.55405269
_cell_length_c   7.56824396
_cell_angle_alpha   128.73995606
_cell_angle_beta   128.78017997
_cell_angle_gamma   75.36132793
_symmetry_Int_Tables_number   1
_chemical_formula_structural   Ta8Ti2Si5Ge
_chemical_formula_sum   'Ta8 Ti2 Si5 Ge1'
_cell_volume   256.15922971
_cell_formula_units_Z   1
loop_
 _symmetry_equiv_pos_site_id
 _symmetry_equiv_pos_as_xyz
  1  'x, y, z'
loop_
 _atom_site_type_symbol
 _atom_site_label
 _atom_site_symmetry_multiplicity
 _atom_site_fract_x
 _atom_site_fract_y
 _atom_site_fract_z
 _atom_site_occupancy
  Ta  Ta0  1  0.683214  0.511687  0.494623  1
  Ta  Ta1  1  0.511439  0.016923  0.827073  1
  Ta  Ta2  1  0.189744  0.684087  0.172353  1
  Ta  Ta3  1  0.987847  0.815651  0.503872  1
  Ta  Ta4  1  0.312572  0.482568  0.496249  1
  Ta  Ta5  1  0.481911  0.988247  0.171630  1
  Ta  Ta6  1  0.815214  0.312057  0.828519  1
  Ta  Ta7  1  0.500374  0.499317  0.000607  1
  Ti  Ti8  1  0.017829  0.188699  0.505342  1
  Ti  Ti9  1  0.001431  0.000172  0.998939  1
  Si  Si10  1  0.247549  0.249387  0.995964  1
  Si  Si11  1  0.361821  0.127939  0.493102  1
  Si  Si12  1  0.634958  0.873001  0.506770  1
  Si  Si13  1  0.873618  0.363529  0.239654  1
  Si  Si14  1  0.127143  0.631007  0.760289  1
  Ge  Ge15  1  0.753337  0.755730  0.005014  1
