# generated using pymatgen
data_La16Dy3MgIr12
_symmetry_space_group_name_H-M   'P 1'
_cell_length_a   11.37341700
_cell_length_b   11.37341700
_cell_length_c   6.47467200
_cell_angle_alpha   90.00000000
_cell_angle_beta   90.00000000
_cell_angle_gamma   90.00000000
_symmetry_Int_Tables_number   1
_chemical_formula_structural   La16Dy3MgIr12
_chemical_formula_sum   'La16 Dy3 Mg1 Ir12'
_cell_volume   837.52869899
_cell_formula_units_Z   1
loop_
 _symmetry_equiv_pos_site_id
 _symmetry_equiv_pos_as_xyz
  1  'x, y, z'
loop_
 _atom_site_type_symbol
 _atom_site_label
 _atom_site_symmetry_multiplicity
 _atom_site_fract_x
 _atom_site_fract_y
 _atom_site_fract_z
 _atom_site_occupancy
  La  La0  1  0.280547  0.086217  0.389364  1
  La  La1  1  0.287332  0.911717  0.888278  1
  La  La2  1  0.712668  0.088283  0.888278  1
  La  La3  1  0.719453  0.913783  0.389364  1
  La  La4  1  0.589078  0.789232  0.889371  1
  La  La5  1  0.588124  0.210850  0.386713  1
  La  La6  1  0.411876  0.789150  0.386713  1
  La  La7  1  0.410922  0.210768  0.889371  1
  La  La8  1  0.210850  0.411876  0.613287  1
  La  La9  1  0.210768  0.589078  0.110629  1
  La  La10  1  0.789232  0.410922  0.110629  1
  La  La11  1  0.789150  0.588124  0.613287  1
  La  La12  1  0.911717  0.712668  0.111722  1
  La  La13  1  0.913783  0.280547  0.610636  1
  La  La14  1  0.086217  0.719453  0.610636  1
  La  La15  1  0.088283  0.287332  0.111722  1
  Dy  Dy16  1  0.000000  0.000000  0.000000  1
  Dy  Dy17  1  0.500000  0.500000  0.000000  1
  Dy  Dy18  1  0.500000  0.500000  0.500000  1
  Mg  Mg19  1  0.000000  0.000000  0.500000  1
  Ir  Ir20  1  0.850464  0.151341  0.244958  1
  Ir  Ir21  1  0.848659  0.850464  0.755042  1
  Ir  Ir22  1  0.151341  0.149536  0.755042  1
  Ir  Ir23  1  0.149536  0.848659  0.244958  1
  Ir  Ir24  1  0.649530  0.351793  0.747984  1
  Ir  Ir25  1  0.648207  0.649530  0.252016  1
  Ir  Ir26  1  0.351793  0.350470  0.252016  1
  Ir  Ir27  1  0.350470  0.648207  0.747984  1
  Ir  Ir28  1  0.500000  0.000000  0.121205  1
  Ir  Ir29  1  0.500000  0.000000  0.618066  1
  Ir  Ir30  1  0.000000  0.500000  0.878795  1
  Ir  Ir31  1  0.000000  0.500000  0.381934  1
