# generated using pymatgen
data_Re4(As2Se)3
_symmetry_space_group_name_H-M   'P 1'
_cell_length_a   7.14367837
_cell_length_b   7.14367852
_cell_length_c   7.15326821
_cell_angle_alpha   60.12607098
_cell_angle_beta   60.12606445
_cell_angle_gamma   60.08784596
_symmetry_Int_Tables_number   1
_chemical_formula_structural   Re4(As2Se)3
_chemical_formula_sum   'Re4 As6 Se3'
_cell_volume   258.78960614
_cell_formula_units_Z   1
loop_
 _symmetry_equiv_pos_site_id
 _symmetry_equiv_pos_as_xyz
  1  'x, y, z'
loop_
 _atom_site_type_symbol
 _atom_site_label
 _atom_site_symmetry_multiplicity
 _atom_site_fract_x
 _atom_site_fract_y
 _atom_site_fract_z
 _atom_site_occupancy
  Re  Re0  1  0.399158  0.399158  0.399909  1
  Re  Re1  1  0.399176  0.799966  0.399875  1
  Re  Re2  1  0.799966  0.399176  0.399875  1
  Re  Re3  1  0.399302  0.399302  0.800447  1
  As  As4  1  0.001216  0.001216  0.998713  1
  As  As5  1  0.145029  0.145029  0.144414  1
  As  As6  1  0.143898  0.567760  0.143416  1
  As  As7  1  0.567760  0.143898  0.143416  1
  As  As8  1  0.144507  0.144507  0.565479  1
  As  As9  1  0.638642  0.638642  0.638882  1
  Se  Se10  1  0.637161  0.087455  0.637956  1
  Se  Se11  1  0.087455  0.637161  0.637956  1
  Se  Se12  1  0.636730  0.636730  0.089660  1
