# generated using pymatgen
data_Ce3SmTlInRh4
_symmetry_space_group_name_H-M   'P 1'
_cell_length_a   7.74604927
_cell_length_b   7.73114609
_cell_length_c   3.71869800
_cell_angle_alpha   90.00000000
_cell_angle_beta   90.00000000
_cell_angle_gamma   88.16675472
_symmetry_Int_Tables_number   1
_chemical_formula_structural   Ce3SmTlInRh4
_chemical_formula_sum   'Ce3 Sm1 Tl1 In1 Rh4'
_cell_volume   222.58336390
_cell_formula_units_Z   1
loop_
 _symmetry_equiv_pos_site_id
 _symmetry_equiv_pos_as_xyz
  1  'x, y, z'
loop_
 _atom_site_type_symbol
 _atom_site_label
 _atom_site_symmetry_multiplicity
 _atom_site_fract_x
 _atom_site_fract_y
 _atom_site_fract_z
 _atom_site_occupancy
  Ce  Ce0  1  0.331127  0.829326  0.500000  1
  Ce  Ce1  1  0.169053  0.329380  0.500000  1
  Ce  Ce2  1  0.827214  0.666511  0.500000  1
  Sm  Sm3  1  0.668266  0.169445  0.500000  1
  Tl  Tl4  1  0.994430  0.999212  0.000000  1
  In  In5  1  0.499311  0.495071  0.000000  1
  Rh  Rh6  1  0.147067  0.639475  0.000000  1
  Rh  Rh7  1  0.878411  0.385123  0.000000  1
  Rh  Rh8  1  0.628553  0.850793  0.000000  1
  Rh  Rh9  1  0.356566  0.135664  0.000000  1
