# generated using pymatgen
data_Hf4Si4MoW
_symmetry_space_group_name_H-M   'P 1'
_cell_length_a   6.68331700
_cell_length_b   6.68331700
_cell_length_c   3.76214800
_cell_angle_alpha   90.00000000
_cell_angle_beta   90.00000000
_cell_angle_gamma   90.00000000
_symmetry_Int_Tables_number   1
_chemical_formula_structural   Hf4Si4MoW
_chemical_formula_sum   'Hf4 Si4 Mo1 W1'
_cell_volume   168.04283435
_cell_formula_units_Z   1
loop_
 _symmetry_equiv_pos_site_id
 _symmetry_equiv_pos_as_xyz
  1  'x, y, z'
loop_
 _atom_site_type_symbol
 _atom_site_label
 _atom_site_symmetry_multiplicity
 _atom_site_fract_x
 _atom_site_fract_y
 _atom_site_fract_z
 _atom_site_occupancy
  Hf  Hf0  1  0.825858  0.674126  0.500000  1
  Hf  Hf1  1  0.325874  0.825858  0.500000  1
  Hf  Hf2  1  0.174142  0.325874  0.500000  1
  Hf  Hf3  1  0.674126  0.174142  0.500000  1
  Si  Si4  1  0.127570  0.627925  0.000000  1
  Si  Si5  1  0.627925  0.872430  0.000000  1
  Si  Si6  1  0.372075  0.127570  0.000000  1
  Si  Si7  1  0.872430  0.372075  0.000000  1
  Mo  Mo8  1  0.500000  0.500000  0.000000  1
  W  W9  1  0.000000  0.000000  0.000000  1
