# generated using pymatgen
data_Tb7Ce(PI6)2
_symmetry_space_group_name_H-M   'P 1'
_cell_length_a   4.17016100
_cell_length_b   13.77896417
_cell_length_c   14.54273796
_cell_angle_alpha   89.39769012
_cell_angle_beta   90.00000000
_cell_angle_gamma   90.00000000
_symmetry_Int_Tables_number   1
_chemical_formula_structural   Tb7Ce(PI6)2
_chemical_formula_sum   'Tb7 Ce1 P2 I12'
_cell_volume   835.58680826
_cell_formula_units_Z   1
loop_
 _symmetry_equiv_pos_site_id
 _symmetry_equiv_pos_as_xyz
  1  'x, y, z'
loop_
 _atom_site_type_symbol
 _atom_site_label
 _atom_site_symmetry_multiplicity
 _atom_site_fract_x
 _atom_site_fract_y
 _atom_site_fract_z
 _atom_site_occupancy
  Tb  Tb0  1  0.500000  0.113723  0.348753  1
  Tb  Tb1  1  0.500000  0.882384  0.649234  1
  Tb  Tb2  1  0.500000  0.616060  0.150165  1
  Tb  Tb3  1  0.500000  0.387210  0.852293  1
  Tb  Tb4  1  0.000000  0.891291  0.425022  1
  Tb  Tb5  1  0.000000  0.607571  0.927597  1
  Tb  Tb6  1  0.000000  0.393788  0.074449  1
  Ce  Ce7  1  0.000000  0.108690  0.575488  1
  P  P8  1  0.500000  0.995908  0.497590  1
  P  P9  1  0.500000  0.501101  0.001640  1
  I  I10  1  0.500000  0.247084  0.161905  1
  I  I11  1  0.500000  0.751749  0.837406  1
  I  I12  1  0.500000  0.745751  0.335707  1
  I  I13  1  0.500000  0.260693  0.665233  1
  I  I14  1  0.000000  0.263402  0.411074  1
  I  I15  1  0.000000  0.735393  0.582057  1
  I  I16  1  0.000000  0.763624  0.080984  1
  I  I17  1  0.000000  0.238612  0.919338  1
  I  I18  1  0.000000  0.001468  0.235779  1
  I  I19  1  0.000000  0.991624  0.766318  1
  I  I20  1  0.000000  0.501181  0.262372  1
  I  I21  1  0.000000  0.501693  0.739595  1
