# generated using pymatgen
data_Er4Al18NiPt2Rh3
_symmetry_space_group_name_H-M   'P 1'
_cell_length_a   7.56013809
_cell_length_b   7.56013912
_cell_length_c   9.37361168
_cell_angle_alpha   90.15654149
_cell_angle_beta   90.15654246
_cell_angle_gamma   119.77621057
_symmetry_Int_Tables_number   1
_chemical_formula_structural   Er4Al18NiPt2Rh3
_chemical_formula_sum   'Er4 Al18 Ni1 Pt2 Rh3'
_cell_volume   465.01355289
_cell_formula_units_Z   1
loop_
 _symmetry_equiv_pos_site_id
 _symmetry_equiv_pos_as_xyz
  1  'x, y, z'
loop_
 _atom_site_type_symbol
 _atom_site_label
 _atom_site_symmetry_multiplicity
 _atom_site_fract_x
 _atom_site_fract_y
 _atom_site_fract_z
 _atom_site_occupancy
  Er  Er0  1  0.993501  0.669255  0.749703  1
  Er  Er1  1  0.005060  0.329374  0.250499  1
  Er  Er2  1  0.670626  0.994940  0.749501  1
  Er  Er3  1  0.330745  0.006499  0.250297  1
  Al  Al4  1  0.126118  0.125177  0.744587  1
  Al  Al5  1  0.874823  0.873882  0.255413  1
  Al  Al6  1  0.002598  0.333028  0.575543  1
  Al  Al7  1  0.004633  0.670870  0.424540  1
  Al  Al8  1  0.001476  0.662588  0.076012  1
  Al  Al9  1  0.337412  0.998524  0.923988  1
  Al  Al10  1  0.999482  0.337160  0.923707  1
  Al  Al11  1  0.662840  0.000518  0.076293  1
  Al  Al12  1  0.666972  0.997402  0.424457  1
  Al  Al13  1  0.329130  0.995367  0.575460  1
  Al  Al14  1  0.335524  0.335690  0.053495  1
  Al  Al15  1  0.664310  0.664476  0.946505  1
  Al  Al16  1  0.669852  0.673045  0.552973  1
  Al  Al17  1  0.326955  0.330148  0.447027  1
  Al  Al18  1  0.339490  0.549853  0.749905  1
  Al  Al19  1  0.661151  0.453665  0.247069  1
  Al  Al20  1  0.546335  0.338849  0.752931  1
  Al  Al21  1  0.450147  0.660510  0.250095  1
  Ni  Ni22  1  0.000158  0.999842  0.500000  1
  Pt  Pt23  1  0.672031  0.327969  0.500000  1
  Pt  Pt24  1  0.000035  0.999965  0.000000  1
  Rh  Rh25  1  0.328264  0.671736  0.500000  1
  Rh  Rh26  1  0.328041  0.671959  0.000000  1
  Rh  Rh27  1  0.672290  0.327710  0.000000  1
