# generated using pymatgen
data_Ta2Co(Ni10B3)2
_symmetry_space_group_name_H-M   'P 1'
_cell_length_a   7.42221907
_cell_length_b   7.42221887
_cell_length_c   7.42317603
_cell_angle_alpha   60.00425329
_cell_angle_beta   60.00425652
_cell_angle_gamma   59.99999636
_symmetry_Int_Tables_number   1
_chemical_formula_structural   Ta2Co(Ni10B3)2
_chemical_formula_sum   'Ta2 Co1 Ni20 B6'
_cell_volume   289.18129824
_cell_formula_units_Z   1
loop_
 _symmetry_equiv_pos_site_id
 _symmetry_equiv_pos_as_xyz
  1  'x, y, z'
loop_
 _atom_site_type_symbol
 _atom_site_label
 _atom_site_symmetry_multiplicity
 _atom_site_fract_x
 _atom_site_fract_y
 _atom_site_fract_z
 _atom_site_occupancy
  Ta  Ta0  1  0.747600  0.747600  0.757200  1
  Ta  Ta1  1  0.249917  0.249917  0.250248  1
  Co  Co2  1  0.616595  0.616595  0.150215  1
  Ni  Ni3  1  0.999805  0.999805  0.000586  1
  Ni  Ni4  1  0.615547  0.153409  0.615497  1
  Ni  Ni5  1  0.153409  0.615547  0.615497  1
  Ni  Ni6  1  0.615547  0.615547  0.615497  1
  Ni  Ni7  1  0.384401  0.384401  0.846797  1
  Ni  Ni8  1  0.384261  0.847308  0.384170  1
  Ni  Ni9  1  0.847308  0.384261  0.384170  1
  Ni  Ni10  1  0.384261  0.384261  0.384170  1
  Ni  Ni11  1  0.999982  0.999982  0.340325  1
  Ni  Ni12  1  0.659710  0.999982  0.340325  1
  Ni  Ni13  1  0.999982  0.659710  0.340325  1
  Ni  Ni14  1  0.659177  0.339869  0.999971  1
  Ni  Ni15  1  0.000982  0.339869  0.999971  1
  Ni  Ni16  1  0.000328  0.340352  0.658991  1
  Ni  Ni17  1  0.339869  0.659177  0.999971  1
  Ni  Ni18  1  0.340352  0.000328  0.658991  1
  Ni  Ni19  1  0.339869  0.000982  0.999971  1
  Ni  Ni20  1  0.000328  0.000328  0.658991  1
  Ni  Ni21  1  0.000982  0.659177  0.999971  1
  Ni  Ni22  1  0.659177  0.000982  0.999971  1
  B  B23  1  0.730634  0.730634  0.267291  1
  B  B24  1  0.271442  0.730634  0.267291  1
  B  B25  1  0.730634  0.271442  0.267291  1
  B  B26  1  0.267870  0.267870  0.732102  1
  B  B27  1  0.732157  0.267870  0.732102  1
  B  B28  1  0.267870  0.732157  0.732102  1
