# generated using pymatgen
data_Lu8Cd3BiAu8
_symmetry_space_group_name_H-M   'P 1'
_cell_length_a   7.94970000
_cell_length_b   7.94970000
_cell_length_c   7.18985400
_cell_angle_alpha   90.00000000
_cell_angle_beta   90.00000000
_cell_angle_gamma   90.00000000
_symmetry_Int_Tables_number   1
_chemical_formula_structural   Lu8Cd3BiAu8
_chemical_formula_sum   'Lu8 Cd3 Bi1 Au8'
_cell_volume   454.38245248
_cell_formula_units_Z   1
loop_
 _symmetry_equiv_pos_site_id
 _symmetry_equiv_pos_as_xyz
  1  'x, y, z'
loop_
 _atom_site_type_symbol
 _atom_site_label
 _atom_site_symmetry_multiplicity
 _atom_site_fract_x
 _atom_site_fract_y
 _atom_site_fract_z
 _atom_site_occupancy
  Lu  Lu0  1  0.848567  0.160218  0.502297  1
  Lu  Lu1  1  0.151433  0.839782  0.502297  1
  Lu  Lu2  1  0.339782  0.348567  0.997703  1
  Lu  Lu3  1  0.660218  0.651433  0.997703  1
  Lu  Lu4  1  0.684277  0.678465  0.501402  1
  Lu  Lu5  1  0.315723  0.321535  0.501402  1
  Lu  Lu6  1  0.178466  0.815723  0.998598  1
  Lu  Lu7  1  0.821535  0.184278  0.998598  1
  Cd  Cd8  1  0.000000  0.500000  0.750000  1
  Cd  Cd9  1  0.500000  0.000000  0.750000  1
  Cd  Cd10  1  0.000000  0.500000  0.250000  1
  Bi  Bi11  1  0.500000  0.000000  0.250000  1
  Au  Au12  1  0.634379  0.376594  0.276423  1
  Au  Au13  1  0.365621  0.623406  0.276423  1
  Au  Au14  1  0.133282  0.126547  0.775135  1
  Au  Au15  1  0.866718  0.873453  0.775135  1
  Au  Au16  1  0.373453  0.633282  0.724865  1
  Au  Au17  1  0.626547  0.366718  0.724865  1
  Au  Au18  1  0.876594  0.865621  0.223577  1
  Au  Au19  1  0.123406  0.134379  0.223577  1
