# generated using pymatgen
data_Ho4Sc4Ga3Ir
_symmetry_space_group_name_H-M   'P 1'
_cell_length_a   9.60875300
_cell_length_b   9.60870329
_cell_length_c   6.94062500
_cell_angle_alpha   90.00000000
_cell_angle_beta   90.00000000
_cell_angle_gamma   120.00035950
_symmetry_Int_Tables_number   1
_chemical_formula_structural   Ho4Sc4Ga3Ir
_chemical_formula_sum   'Ho8 Sc8 Ga6 Ir2'
_cell_volume   554.95714994
_cell_formula_units_Z   2
loop_
 _symmetry_equiv_pos_site_id
 _symmetry_equiv_pos_as_xyz
  1  'x, y, z'
loop_
 _atom_site_type_symbol
 _atom_site_label
 _atom_site_symmetry_multiplicity
 _atom_site_fract_x
 _atom_site_fract_y
 _atom_site_fract_z
 _atom_site_occupancy
  Ho  Ho0  1  0.468075  0.531924  0.210110  1
  Ho  Ho1  1  0.063848  0.531924  0.210110  1
  Ho  Ho2  1  0.468076  0.936152  0.210112  1
  Ho  Ho3  1  0.531925  0.468076  0.710110  1
  Ho  Ho4  1  0.936152  0.468076  0.710110  1
  Ho  Ho5  1  0.531924  0.063848  0.710112  1
  Ho  Ho6  1  0.000000  0.999999  0.230404  1
  Ho  Ho7  1  0.000000  0.000001  0.730404  1
  Sc  Sc8  1  0.171472  0.828527  0.512433  1
  Sc  Sc9  1  0.657055  0.828530  0.512434  1
  Sc  Sc10  1  0.171470  0.342940  0.512433  1
  Sc  Sc11  1  0.828528  0.171473  0.012433  1
  Sc  Sc12  1  0.342945  0.171470  0.012434  1
  Sc  Sc13  1  0.828530  0.657060  0.012433  1
  Sc  Sc14  1  0.333335  0.666670  0.835930  1
  Sc  Sc15  1  0.666665  0.333330  0.335930  1
  Ga  Ga16  1  0.164258  0.835743  0.947163  1
  Ga  Ga17  1  0.671495  0.835748  0.947218  1
  Ga  Ga18  1  0.164250  0.328499  0.947220  1
  Ga  Ga19  1  0.835742  0.164257  0.447163  1
  Ga  Ga20  1  0.328505  0.164252  0.447218  1
  Ga  Ga21  1  0.835750  0.671501  0.447220  1
  Ir  Ir22  1  0.333331  0.666665  0.461454  1
  Ir  Ir23  1  0.666669  0.333335  0.961454  1
