# generated using pymatgen
data_Ba2Ho3Er(Si3O10)2
_symmetry_space_group_name_H-M   'P 1'
_cell_length_a   5.44784641
_cell_length_b   12.31054059
_cell_length_c   6.90115100
_cell_angle_alpha   90.03173432
_cell_angle_beta   106.42394559
_cell_angle_gamma   89.97541805
_symmetry_Int_Tables_number   1
_chemical_formula_structural   Ba2Ho3Er(Si3O10)2
_chemical_formula_sum   'Ba2 Ho3 Er1 Si6 O20'
_cell_volume   443.94660117
_cell_formula_units_Z   1
loop_
 _symmetry_equiv_pos_site_id
 _symmetry_equiv_pos_as_xyz
  1  'x, y, z'
loop_
 _atom_site_type_symbol
 _atom_site_label
 _atom_site_symmetry_multiplicity
 _atom_site_fract_x
 _atom_site_fract_y
 _atom_site_fract_z
 _atom_site_occupancy
  Ba  Ba0  1  0.762443  0.250300  0.016938  1
  Ba  Ba1  1  0.237606  0.749813  0.983017  1
  Ho  Ho2  1  0.842723  0.598846  0.316844  1
  Ho  Ho3  1  0.842696  0.900764  0.316524  1
  Ho  Ho4  1  0.157314  0.099491  0.683525  1
  Er  Er5  1  0.157794  0.400559  0.683412  1
  Si  Si6  1  0.305307  0.060876  0.214103  1
  Si  Si7  1  0.304849  0.439202  0.213500  1
  Si  Si8  1  0.581248  0.250363  0.488220  1
  Si  Si9  1  0.419006  0.750005  0.511803  1
  Si  Si10  1  0.694722  0.560371  0.786049  1
  Si  Si11  1  0.694732  0.939318  0.786075  1
  O  O12  1  0.163857  0.121670  0.002246  1
  O  O13  1  0.163196  0.378979  0.000881  1
  O  O14  1  0.437296  0.554902  0.193098  1
  O  O15  1  0.437566  0.945212  0.192691  1
  O  O16  1  0.547667  0.143050  0.338590  1
  O  O17  1  0.547313  0.356840  0.336862  1
  O  O18  1  0.102821  0.049310  0.352540  1
  O  O19  1  0.103386  0.450227  0.353126  1
  O  O20  1  0.124368  0.749843  0.365424  1
  O  O21  1  0.631665  0.749950  0.386291  1
  O  O22  1  0.368698  0.250506  0.613972  1
  O  O23  1  0.875991  0.250780  0.634581  1
  O  O24  1  0.897534  0.548021  0.647873  1
  O  O25  1  0.897180  0.950921  0.647621  1
  O  O26  1  0.453331  0.643086  0.662011  1
  O  O27  1  0.452311  0.857064  0.662008  1
  O  O28  1  0.562426  0.055018  0.807277  1
  O  O29  1  0.560347  0.445231  0.806914  1
  O  O30  1  0.836356  0.620989  0.998148  1
  O  O31  1  0.836252  0.878492  0.997846  1
