# generated using pymatgen
data_CeTa6AgO18
_symmetry_space_group_name_H-M   'P 1'
_cell_length_a   7.55152241
_cell_length_b   5.39252798
_cell_length_c   8.49280590
_cell_angle_alpha   87.93858536
_cell_angle_beta   89.99664720
_cell_angle_gamma   89.96217506
_symmetry_Int_Tables_number   1
_chemical_formula_structural   CeTa6AgO18
_chemical_formula_sum   'Ce1 Ta6 Ag1 O18'
_cell_volume   345.61841929
_cell_formula_units_Z   1
loop_
 _symmetry_equiv_pos_site_id
 _symmetry_equiv_pos_as_xyz
  1  'x, y, z'
loop_
 _atom_site_type_symbol
 _atom_site_label
 _atom_site_symmetry_multiplicity
 _atom_site_fract_x
 _atom_site_fract_y
 _atom_site_fract_z
 _atom_site_occupancy
  Ce  Ce0  1  0.249881  0.966744  0.445829  1
  Ta  Ta1  1  0.499656  0.521963  0.699094  1
  Ta  Ta2  1  0.000363  0.521963  0.699053  1
  Ta  Ta3  1  0.994544  0.471593  0.300689  1
  Ta  Ta4  1  0.997787  0.996733  0.998794  1
  Ta  Ta5  1  0.505457  0.471490  0.300589  1
  Ta  Ta6  1  0.502221  0.996713  0.998800  1
  Ag  Ag7  1  0.749470  0.003647  0.509304  1
  O  O8  1  0.953433  0.684778  0.128385  1
  O  O9  1  0.046955  0.307255  0.870230  1
  O  O10  1  0.062458  0.160485  0.215951  1
  O  O11  1  0.750061  0.378048  0.338842  1
  O  O12  1  0.053805  0.267160  0.523934  1
  O  O13  1  0.437595  0.160472  0.215913  1
  O  O14  1  0.546681  0.684681  0.128351  1
  O  O15  1  0.529950  0.742754  0.473592  1
  O  O16  1  0.749976  0.094399  0.027570  1
  O  O17  1  0.950088  0.820128  0.807613  1
  O  O18  1  0.750057  0.440272  0.675914  1
  O  O19  1  0.549946  0.820087  0.807574  1
  O  O20  1  0.250006  0.595246  0.316851  1
  O  O21  1  0.453019  0.307294  0.870242  1
  O  O22  1  0.969790  0.743099  0.473622  1
  O  O23  1  0.446751  0.266807  0.523971  1
  O  O24  1  0.250005  0.654097  0.655736  1
  O  O25  1  0.250044  0.922091  0.993560  1
