# generated using pymatgen
data_Mg6Nb6Ga10Os7
_symmetry_space_group_name_H-M   'P 1'
_cell_length_a   9.00527526
_cell_length_b   8.91984958
_cell_length_c   8.91979088
_cell_angle_alpha   59.21814842
_cell_angle_beta   59.68260398
_cell_angle_gamma   59.68212247
_symmetry_Int_Tables_number   1
_chemical_formula_structural   Mg6Nb6Ga10Os7
_chemical_formula_sum   'Mg6 Nb6 Ga10 Os7'
_cell_volume   501.16977044
_cell_formula_units_Z   1
loop_
 _symmetry_equiv_pos_site_id
 _symmetry_equiv_pos_as_xyz
  1  'x, y, z'
loop_
 _atom_site_type_symbol
 _atom_site_label
 _atom_site_symmetry_multiplicity
 _atom_site_fract_x
 _atom_site_fract_y
 _atom_site_fract_z
 _atom_site_occupancy
  Mg  Mg0  1  0.698625  0.716545  0.294382  1
  Mg  Mg1  1  0.290446  0.716549  0.294379  1
  Mg  Mg2  1  0.704960  0.295043  0.295044  1
  Mg  Mg3  1  0.290452  0.294383  0.716542  1
  Mg  Mg4  1  0.698626  0.294383  0.716544  1
  Mg  Mg5  1  0.291559  0.708437  0.708441  1
  Nb  Nb6  1  0.877563  0.883102  0.361772  1
  Nb  Nb7  1  0.877563  0.361773  0.883103  1
  Nb  Nb8  1  0.372974  0.876996  0.876994  1
  Nb  Nb9  1  0.873037  0.876995  0.876995  1
  Nb  Nb10  1  0.126434  0.128419  0.618712  1
  Nb  Nb11  1  0.126435  0.618711  0.128419  1
  Ga  Ga12  1  0.654414  0.116007  0.116011  1
  Ga  Ga13  1  0.113565  0.116009  0.116013  1
  Ga  Ga14  1  0.658640  0.654792  0.027928  1
  Ga  Ga15  1  0.658641  0.027924  0.654792  1
  Ga  Ga16  1  0.027404  0.656135  0.656137  1
  Ga  Ga17  1  0.660323  0.656136  0.656132  1
  Ga  Ga18  1  0.339226  0.333776  0.987772  1
  Ga  Ga19  1  0.339225  0.987771  0.333780  1
  Ga  Ga20  1  0.964006  0.343607  0.343607  1
  Ga  Ga21  1  0.348779  0.343610  0.343606  1
  Os  Os22  1  0.016165  0.983835  0.983836  1
  Os  Os23  1  0.998131  0.000135  0.504422  1
  Os  Os24  1  0.497315  0.000139  0.504417  1
  Os  Os25  1  0.999379  0.500621  0.500622  1
  Os  Os26  1  0.497311  0.504424  0.000134  1
  Os  Os27  1  0.998130  0.504416  0.000137  1
  Os  Os28  1  0.500671  0.999329  0.999331  1
