# generated using pymatgen
data_Hf3Mg2Zr3(Al2Pt)7
_symmetry_space_group_name_H-M   'P 1'
_cell_length_a   8.82344543
_cell_length_b   8.82040296
_cell_length_c   8.82073018
_cell_angle_alpha   59.98331172
_cell_angle_beta   59.98981189
_cell_angle_gamma   59.98858291
_symmetry_Int_Tables_number   1
_chemical_formula_structural   Hf3Mg2Zr3(Al2Pt)7
_chemical_formula_sum   'Hf3 Mg2 Zr3 Al14 Pt7'
_cell_volume   485.27783161
_cell_formula_units_Z   1
loop_
 _symmetry_equiv_pos_site_id
 _symmetry_equiv_pos_as_xyz
  1  'x, y, z'
loop_
 _atom_site_type_symbol
 _atom_site_label
 _atom_site_symmetry_multiplicity
 _atom_site_fract_x
 _atom_site_fract_y
 _atom_site_fract_z
 _atom_site_occupancy
  Hf  Hf0  1  0.679838  0.679917  0.319246  1
  Hf  Hf1  1  0.320999  0.679917  0.319246  1
  Hf  Hf2  1  0.676754  0.323743  0.322749  1
  Mg  Mg3  1  0.880963  0.883292  0.354782  1
  Mg  Mg4  1  0.880672  0.355494  0.883161  1
  Zr  Zr5  1  0.317000  0.316412  0.682833  1
  Zr  Zr6  1  0.683755  0.316412  0.682833  1
  Zr  Zr7  1  0.314754  0.685900  0.684592  1
  Al  Al8  1  0.361301  0.879775  0.879941  1
  Al  Al9  1  0.878984  0.879775  0.879941  1
  Al  Al10  1  0.119949  0.122557  0.637546  1
  Al  Al11  1  0.119516  0.638280  0.122687  1
  Al  Al12  1  0.641354  0.119494  0.120109  1
  Al  Al13  1  0.119042  0.119494  0.120109  1
  Al  Al14  1  0.664234  0.662847  0.008687  1
  Al  Al15  1  0.664956  0.007498  0.662591  1
  Al  Al16  1  0.006742  0.664146  0.663116  1
  Al  Al17  1  0.665997  0.664146  0.663116  1
  Al  Al18  1  0.335906  0.334990  0.993197  1
  Al  Al19  1  0.336720  0.991699  0.334861  1
  Al  Al20  1  0.990945  0.336044  0.335217  1
  Al  Al21  1  0.337794  0.336044  0.335217  1
  Pt  Pt22  1  0.009479  0.991295  0.989748  1
  Pt  Pt23  1  0.001351  0.000963  0.504224  1
  Pt  Pt24  1  0.493462  0.000963  0.504224  1
  Pt  Pt25  1  0.003233  0.497927  0.495607  1
  Pt  Pt26  1  0.492869  0.506191  0.000625  1
  Pt  Pt27  1  0.000315  0.506191  0.000625  1
  Pt  Pt28  1  0.501116  0.998595  0.999173  1
