# generated using pymatgen
data_Dy6Tm4SnSb5
_symmetry_space_group_name_H-M   'P 1'
_cell_length_a   6.33711800
_cell_length_b   8.92751801
_cell_length_c   8.91323290
_cell_angle_alpha   120.05303190
_cell_angle_beta   90.00000000
_cell_angle_gamma   90.00000000
_symmetry_Int_Tables_number   1
_chemical_formula_structural   Dy6Tm4SnSb5
_chemical_formula_sum   'Dy6 Tm4 Sn1 Sb5'
_cell_volume   436.47169678
_cell_formula_units_Z   1
loop_
 _symmetry_equiv_pos_site_id
 _symmetry_equiv_pos_as_xyz
  1  'x, y, z'
loop_
 _atom_site_type_symbol
 _atom_site_label
 _atom_site_symmetry_multiplicity
 _atom_site_fract_x
 _atom_site_fract_y
 _atom_site_fract_z
 _atom_site_occupancy
  Dy  Dy0  1  0.749999  0.246201  0.000000  1
  Dy  Dy1  1  0.750001  0.753637  0.754933  1
  Dy  Dy2  1  0.750001  0.998704  0.245067  1
  Dy  Dy3  1  0.249999  0.754405  0.000000  1
  Dy  Dy4  1  0.250001  0.246626  0.245709  1
  Dy  Dy5  1  0.250001  0.000917  0.754291  1
  Tm  Tm6  1  0.500249  0.334147  0.667990  1
  Tm  Tm7  1  0.500249  0.666158  0.332010  1
  Tm  Tm8  1  0.999749  0.666162  0.332010  1
  Tm  Tm9  1  0.999749  0.334151  0.667990  1
  Sn  Sn10  1  0.749999  0.607592  0.000000  1
  Sb  Sb11  1  0.750001  0.390377  0.391033  1
  Sb  Sb12  1  0.750001  0.999344  0.608967  1
  Sb  Sb13  1  0.249999  0.391318  0.000000  1
  Sb  Sb14  1  0.250001  0.609590  0.608917  1
  Sb  Sb15  1  0.250001  0.000673  0.391083  1
