# generated using pymatgen
data_Ba3ThPd2O9
_symmetry_space_group_name_H-M   'P 1'
_cell_length_a   5.99001000
_cell_length_b   5.99000892
_cell_length_c   15.28517200
_cell_angle_alpha   90.00000000
_cell_angle_beta   90.00000000
_cell_angle_gamma   120.00001703
_symmetry_Int_Tables_number   1
_chemical_formula_structural   Ba3ThPd2O9
_chemical_formula_sum   'Ba6 Th2 Pd4 O18'
_cell_volume   474.95876156
_cell_formula_units_Z   2
loop_
 _symmetry_equiv_pos_site_id
 _symmetry_equiv_pos_as_xyz
  1  'x, y, z'
loop_
 _atom_site_type_symbol
 _atom_site_label
 _atom_site_symmetry_multiplicity
 _atom_site_fract_x
 _atom_site_fract_y
 _atom_site_fract_z
 _atom_site_occupancy
  Ba  Ba0  1  0.333333  0.666667  0.603366  1
  Ba  Ba1  1  0.666667  0.333333  0.103366  1
  Ba  Ba2  1  0.666667  0.333333  0.396634  1
  Ba  Ba3  1  0.333333  0.666667  0.896634  1
  Ba  Ba4  1  0.000000  0.000000  0.750000  1
  Ba  Ba5  1  0.000000  0.000000  0.250000  1
  Th  Th6  1  0.000000  0.000000  0.000000  1
  Th  Th7  1  0.000000  0.000000  0.500000  1
  Pd  Pd8  1  0.666667  0.333333  0.661651  1
  Pd  Pd9  1  0.333333  0.666667  0.161651  1
  Pd  Pd10  1  0.666667  0.333333  0.838349  1
  Pd  Pd11  1  0.333333  0.666667  0.338349  1
  O  O12  1  0.173802  0.826198  0.087515  1
  O  O13  1  0.173802  0.347605  0.087515  1
  O  O14  1  0.652395  0.826198  0.087515  1
  O  O15  1  0.347605  0.173802  0.587515  1
  O  O16  1  0.826198  0.652395  0.912485  1
  O  O17  1  0.826198  0.173802  0.587515  1
  O  O18  1  0.826198  0.652395  0.587515  1
  O  O19  1  0.173802  0.826198  0.412485  1
  O  O20  1  0.652395  0.826198  0.412485  1
  O  O21  1  0.347605  0.173802  0.912485  1
  O  O22  1  0.826198  0.173802  0.912485  1
  O  O23  1  0.173802  0.347605  0.412485  1
  O  O24  1  0.484815  0.969630  0.250000  1
  O  O25  1  0.515185  0.484815  0.750000  1
  O  O26  1  0.969630  0.484815  0.750000  1
  O  O27  1  0.030370  0.515185  0.250000  1
  O  O28  1  0.484815  0.515185  0.250000  1
  O  O29  1  0.515185  0.030370  0.750000  1
