# generated using pymatgen
data_NdDy2(TmRh6)3
_symmetry_space_group_name_H-M   'P 1'
_cell_length_a   5.26226000
_cell_length_b   5.26225927
_cell_length_c   17.51648300
_cell_angle_alpha   90.00000000
_cell_angle_beta   90.00000000
_cell_angle_gamma   120.00000458
_symmetry_Int_Tables_number   1
_chemical_formula_structural   NdDy2(TmRh6)3
_chemical_formula_sum   'Nd1 Dy2 Tm3 Rh18'
_cell_volume   420.07038772
_cell_formula_units_Z   1
loop_
 _symmetry_equiv_pos_site_id
 _symmetry_equiv_pos_as_xyz
  1  'x, y, z'
loop_
 _atom_site_type_symbol
 _atom_site_label
 _atom_site_symmetry_multiplicity
 _atom_site_fract_x
 _atom_site_fract_y
 _atom_site_fract_z
 _atom_site_occupancy
  Nd  Nd0  1  0.666667  0.333333  0.250003  1
  Dy  Dy1  1  0.333333  0.666667  0.541796  1
  Dy  Dy2  1  0.333333  0.666667  0.750133  1
  Tm  Tm3  1  0.666667  0.333333  0.040722  1
  Tm  Tm4  1  0.666667  0.333333  0.459059  1
  Tm  Tm5  1  0.333333  0.666667  0.958010  1
  Rh  Rh6  1  0.167342  0.334682  0.124068  1
  Rh  Rh7  1  0.832613  0.665226  0.625573  1
  Rh  Rh8  1  0.665318  0.832658  0.124068  1
  Rh  Rh9  1  0.167342  0.832658  0.124068  1
  Rh  Rh10  1  0.832613  0.167387  0.625573  1
  Rh  Rh11  1  0.334774  0.167387  0.625573  1
  Rh  Rh12  1  0.832568  0.665136  0.874588  1
  Rh  Rh13  1  0.832568  0.167432  0.874588  1
  Rh  Rh14  1  0.334864  0.167432  0.874588  1
  Rh  Rh15  1  0.665478  0.832738  0.375919  1
  Rh  Rh16  1  0.167262  0.832738  0.375919  1
  Rh  Rh17  1  0.167262  0.334522  0.375919  1
  Rh  Rh18  1  0.000000  0.000000  0.250037  1
  Rh  Rh19  1  0.000000  0.000000  0.749896  1
  Rh  Rh20  1  0.333333  0.666667  0.250114  1
  Rh  Rh21  1  0.666667  0.333333  0.749912  1
  Rh  Rh22  1  0.000000  0.000000  0.999293  1
  Rh  Rh23  1  0.000000  0.000000  0.500581  1
