# generated using pymatgen
data_DyY19Si15Au
_symmetry_space_group_name_H-M   'P 1'
_cell_length_a   7.46939814
_cell_length_b   7.70803994
_cell_length_c   14.68646123
_cell_angle_alpha   90.15739302
_cell_angle_beta   90.50260684
_cell_angle_gamma   90.15004354
_symmetry_Int_Tables_number   1
_chemical_formula_structural   DyY19Si15Au
_chemical_formula_sum   'Dy1 Y19 Si15 Au1'
_cell_volume   845.52579892
_cell_formula_units_Z   1
loop_
 _symmetry_equiv_pos_site_id
 _symmetry_equiv_pos_as_xyz
  1  'x, y, z'
loop_
 _atom_site_type_symbol
 _atom_site_label
 _atom_site_symmetry_multiplicity
 _atom_site_fract_x
 _atom_site_fract_y
 _atom_site_fract_z
 _atom_site_occupancy
  Dy  Dy0  1  0.680114  0.174149  0.623222  1
  Y  Y1  1  0.182706  0.321712  0.877357  1
  Y  Y2  1  0.318349  0.819520  0.121447  1
  Y  Y3  1  0.823763  0.677519  0.377465  1
  Y  Y4  1  0.318800  0.824745  0.377652  1
  Y  Y5  1  0.817418  0.678701  0.121835  1
  Y  Y6  1  0.680923  0.179596  0.877582  1
  Y  Y7  1  0.178449  0.321397  0.623425  1
  Y  Y8  1  0.526176  0.679083  0.601044  1
  Y  Y9  1  0.028850  0.816574  0.901198  1
  Y  Y10  1  0.470029  0.317896  0.098638  1
  Y  Y11  1  0.976448  0.182004  0.399790  1
  Y  Y12  1  0.470835  0.321930  0.400031  1
  Y  Y13  1  0.970108  0.183371  0.098355  1
  Y  Y14  1  0.530519  0.682674  0.900180  1
  Y  Y15  1  0.025177  0.817928  0.600809  1
  Y  Y16  1  0.851226  0.508468  0.749985  1
  Y  Y17  1  0.349524  0.988952  0.748774  1
  Y  Y18  1  0.150044  0.488564  0.249974  1
  Y  Y19  1  0.651556  0.011158  0.250772  1
  Si  Si20  1  0.145025  0.527973  0.040176  1
  Si  Si21  1  0.354019  0.029242  0.959977  1
  Si  Si22  1  0.850997  0.471627  0.541820  1
  Si  Si23  1  0.342375  0.027843  0.542812  1
  Si  Si24  1  0.855151  0.471307  0.959245  1
  Si  Si25  1  0.644344  0.971055  0.039397  1
  Si  Si26  1  0.148382  0.530481  0.461084  1
  Si  Si27  1  0.478186  0.395316  0.750254  1
  Si  Si28  1  0.976443  0.104262  0.752043  1
  Si  Si29  1  0.523055  0.607130  0.248682  1
  Si  Si30  1  0.024920  0.894901  0.247252  1
  Si  Si31  1  0.734048  0.871281  0.752274  1
  Si  Si32  1  0.233813  0.626748  0.751191  1
  Si  Si33  1  0.267971  0.126308  0.247011  1
  Si  Si34  1  0.765588  0.375255  0.248707  1
  Au  Au35  1  0.654669  0.973329  0.458540  1
