# generated using pymatgen
data_YTm3Np2O12
_symmetry_space_group_name_H-M   'P 1'
_cell_length_a   5.49246200
_cell_length_b   7.78602442
_cell_length_c   11.75197804
_cell_angle_alpha   73.64674206
_cell_angle_beta   90.00000000
_cell_angle_gamma   90.00000000
_symmetry_Int_Tables_number   1
_chemical_formula_structural   YTm3Np2O12
_chemical_formula_sum   'Y2 Tm6 Np4 O24'
_cell_volume   482.23495092
_cell_formula_units_Z   2
loop_
 _symmetry_equiv_pos_site_id
 _symmetry_equiv_pos_as_xyz
  1  'x, y, z'
loop_
 _atom_site_type_symbol
 _atom_site_label
 _atom_site_symmetry_multiplicity
 _atom_site_fract_x
 _atom_site_fract_y
 _atom_site_fract_z
 _atom_site_occupancy
  Y  Y0  1  0.302744  0.500000  0.750000  1
  Y  Y1  1  0.697256  0.500000  0.250000  1
  Tm  Tm2  1  0.186009  0.795371  0.079575  1
  Tm  Tm3  1  0.254350  0.000000  0.750000  1
  Tm  Tm4  1  0.745650  0.000000  0.250000  1
  Tm  Tm5  1  0.186009  0.204629  0.420425  1
  Tm  Tm6  1  0.813991  0.204629  0.920425  1
  Tm  Tm7  1  0.813991  0.795371  0.579575  1
  Np  Np8  1  0.743543  0.722533  0.886403  1
  Np  Np9  1  0.256457  0.722533  0.386403  1
  Np  Np10  1  0.743543  0.277467  0.613597  1
  Np  Np11  1  0.256457  0.277467  0.113597  1
  O  O12  1  0.877774  0.371167  0.444987  1
  O  O13  1  0.441574  0.849430  0.931335  1
  O  O14  1  0.877774  0.628833  0.055013  1
  O  O15  1  0.035302  0.283479  0.734130  1
  O  O16  1  0.964698  0.283479  0.234130  1
  O  O17  1  0.122226  0.371167  0.944987  1
  O  O18  1  0.615221  0.479017  0.884160  1
  O  O19  1  0.558426  0.150570  0.068665  1
  O  O20  1  0.122226  0.628833  0.555013  1
  O  O21  1  0.035302  0.716521  0.765870  1
  O  O22  1  0.451661  0.196522  0.275412  1
  O  O23  1  0.042860  0.947036  0.396322  1
  O  O24  1  0.441574  0.150570  0.568665  1
  O  O25  1  0.964698  0.716521  0.265870  1
  O  O26  1  0.957140  0.052964  0.603678  1
  O  O27  1  0.548339  0.196522  0.775412  1
  O  O28  1  0.548339  0.803478  0.724588  1
  O  O29  1  0.042860  0.052964  0.103678  1
  O  O30  1  0.615221  0.520983  0.615840  1
  O  O31  1  0.384779  0.520983  0.115840  1
  O  O32  1  0.451661  0.803478  0.224588  1
  O  O33  1  0.384779  0.479017  0.384160  1
  O  O34  1  0.558426  0.849430  0.431335  1
  O  O35  1  0.957140  0.947036  0.896322  1
