# generated using pymatgen
data_Lu3Zn4InPt4
_symmetry_space_group_name_H-M   'P 1'
_cell_length_a   4.11985700
_cell_length_b   6.74565542
_cell_length_c   8.08674829
_cell_angle_alpha   92.47629789
_cell_angle_beta   90.00000000
_cell_angle_gamma   90.00000000
_symmetry_Int_Tables_number   1
_chemical_formula_structural   Lu3Zn4InPt4
_chemical_formula_sum   'Lu3 Zn4 In1 Pt4'
_cell_volume   224.53005239
_cell_formula_units_Z   1
loop_
 _symmetry_equiv_pos_site_id
 _symmetry_equiv_pos_as_xyz
  1  'x, y, z'
loop_
 _atom_site_type_symbol
 _atom_site_label
 _atom_site_symmetry_multiplicity
 _atom_site_fract_x
 _atom_site_fract_y
 _atom_site_fract_z
 _atom_site_occupancy
  Lu  Lu0  1  0.750000  0.459308  0.833638  1
  Lu  Lu1  1  0.750000  0.955990  0.674223  1
  Lu  Lu2  1  0.250000  0.038272  0.316907  1
  Zn  Zn3  1  0.250000  0.634372  0.553164  1
  Zn  Zn4  1  0.750000  0.365165  0.449392  1
  Zn  Zn5  1  0.750000  0.868613  0.055851  1
  Zn  Zn6  1  0.250000  0.135110  0.942599  1
  In  In7  1  0.250000  0.545041  0.173198  1
  Pt  Pt8  1  0.250000  0.751364  0.867699  1
  Pt  Pt9  1  0.750000  0.249757  0.132981  1
  Pt  Pt10  1  0.750000  0.744842  0.365660  1
  Pt  Pt11  1  0.250000  0.252166  0.634688  1
