# generated using pymatgen
data_Ba2Ga5GePd2
_symmetry_space_group_name_H-M   'P 1'
_cell_length_a   6.27856800
_cell_length_b   6.27856644
_cell_length_c   6.17230800
_cell_angle_alpha   90.00000000
_cell_angle_beta   90.00000000
_cell_angle_gamma   116.43646380
_symmetry_Int_Tables_number   1
_chemical_formula_structural   Ba2Ga5GePd2
_chemical_formula_sum   'Ba2 Ga5 Ge1 Pd2'
_cell_volume   217.87111242
_cell_formula_units_Z   1
loop_
 _symmetry_equiv_pos_site_id
 _symmetry_equiv_pos_as_xyz
  1  'x, y, z'
loop_
 _atom_site_type_symbol
 _atom_site_label
 _atom_site_symmetry_multiplicity
 _atom_site_fract_x
 _atom_site_fract_y
 _atom_site_fract_z
 _atom_site_occupancy
  Ba  Ba0  1  0.235949  0.764051  0.750000  1
  Ba  Ba1  1  0.764583  0.235417  0.250000  1
  Ga  Ga2  1  0.346779  0.653221  0.250000  1
  Ga  Ga3  1  0.728043  0.728059  0.000000  1
  Ga  Ga4  1  0.728043  0.728059  0.500000  1
  Ga  Ga5  1  0.271941  0.271957  0.000000  1
  Ga  Ga6  1  0.271941  0.271957  0.500000  1
  Ge  Ge7  1  0.653161  0.346839  0.750000  1
  Pd  Pd8  1  0.896492  0.103508  0.750000  1
  Pd  Pd9  1  0.103066  0.896934  0.250000  1
