# generated using pymatgen
data_Li2Tm3HfIr3
_symmetry_space_group_name_H-M   'P 1'
_cell_length_a   7.20014623
_cell_length_b   7.19060105
_cell_length_c   3.97211600
_cell_angle_alpha   90.00000000
_cell_angle_beta   90.00000000
_cell_angle_gamma   119.95616550
_symmetry_Int_Tables_number   1
_chemical_formula_structural   Li2Tm3HfIr3
_chemical_formula_sum   'Li2 Tm3 Hf1 Ir3'
_cell_volume   178.17662402
_cell_formula_units_Z   1
loop_
 _symmetry_equiv_pos_site_id
 _symmetry_equiv_pos_as_xyz
  1  'x, y, z'
loop_
 _atom_site_type_symbol
 _atom_site_label
 _atom_site_symmetry_multiplicity
 _atom_site_fract_x
 _atom_site_fract_y
 _atom_site_fract_z
 _atom_site_occupancy
  Li  Li0  1  0.248027  0.245959  0.000000  1
  Li  Li1  1  0.751973  0.997932  0.000000  1
  Tm  Tm2  1  0.000000  0.390680  0.500000  1
  Tm  Tm3  1  0.572246  0.583448  0.500000  1
  Tm  Tm4  1  0.427754  0.011203  0.500000  1
  Hf  Hf5  1  0.000000  0.755211  0.000000  1
  Ir  Ir6  1  0.319912  0.674851  0.000000  1
  Ir  Ir7  1  0.680088  0.354937  0.000000  1
  Ir  Ir8  1  0.000000  0.985780  0.500000  1
