# generated using pymatgen
data_LiV5As4
_symmetry_space_group_name_H-M   'P 1'
_cell_length_a   3.31487710
_cell_length_b   6.85464751
_cell_length_c   9.69300403
_cell_angle_alpha   46.11117925
_cell_angle_beta   89.95308811
_cell_angle_gamma   75.93973218
_symmetry_Int_Tables_number   1
_chemical_formula_structural   LiV5As4
_chemical_formula_sum   'Li1 V5 As4'
_cell_volume   149.48347597
_cell_formula_units_Z   1
loop_
 _symmetry_equiv_pos_site_id
 _symmetry_equiv_pos_as_xyz
  1  'x, y, z'
loop_
 _atom_site_type_symbol
 _atom_site_label
 _atom_site_symmetry_multiplicity
 _atom_site_fract_x
 _atom_site_fract_y
 _atom_site_fract_z
 _atom_site_occupancy
  Li  Li0  1  0.382686  0.124415  0.304781  1
  V  V1  1  0.359798  0.119702  0.806165  1
  V  V2  1  0.665462  0.507578  0.726702  1
  V  V3  1  0.734565  0.368924  0.488408  1
  V  V4  1  0.055801  0.732109  0.885487  1
  V  V5  1  0.985209  0.871116  0.124127  1
  As  As6  1  0.640936  0.563565  0.147027  1
  As  As7  1  0.082413  0.677745  0.464677  1
  As  As8  1  0.427241  0.985860  0.612325  1
  As  As9  1  0.292175  0.254126  0.000053  1
