# generated using pymatgen
data_K(Cd2Au)2
_symmetry_space_group_name_H-M   'P 1'
_cell_length_a   8.84895300
_cell_length_b   8.84895300
_cell_length_c   4.46801500
_cell_angle_alpha   90.00000000
_cell_angle_beta   90.00000000
_cell_angle_gamma   90.00000000
_symmetry_Int_Tables_number   1
_chemical_formula_structural   K(Cd2Au)2
_chemical_formula_sum   'K2 Cd8 Au4'
_cell_volume   349.86330893
_cell_formula_units_Z   2
loop_
 _symmetry_equiv_pos_site_id
 _symmetry_equiv_pos_as_xyz
  1  'x, y, z'
loop_
 _atom_site_type_symbol
 _atom_site_label
 _atom_site_symmetry_multiplicity
 _atom_site_fract_x
 _atom_site_fract_y
 _atom_site_fract_z
 _atom_site_occupancy
  K  K0  1  0.500000  0.500000  0.500000  1
  K  K1  1  0.000000  0.000000  0.000000  1
  Cd  Cd2  1  0.336207  0.079795  0.500000  1
  Cd  Cd3  1  0.663793  0.920205  0.500000  1
  Cd  Cd4  1  0.836207  0.420205  0.000000  1
  Cd  Cd5  1  0.163793  0.579795  0.000000  1
  Cd  Cd6  1  0.079795  0.336207  0.500000  1
  Cd  Cd7  1  0.920205  0.663793  0.500000  1
  Cd  Cd8  1  0.420205  0.836207  0.000000  1
  Cd  Cd9  1  0.579795  0.163793  0.000000  1
  Au  Au10  1  0.771174  0.228826  0.500000  1
  Au  Au11  1  0.228826  0.771174  0.500000  1
  Au  Au12  1  0.271174  0.271174  0.000000  1
  Au  Au13  1  0.728826  0.728826  0.000000  1
