# generated using pymatgen
data_Ho4Co14Si3(P3Ru2)3
_symmetry_space_group_name_H-M   'P 1'
_cell_length_a   3.72018900
_cell_length_b   10.48753831
_cell_length_c   11.87150235
_cell_angle_alpha   89.97215829
_cell_angle_beta   90.00000000
_cell_angle_gamma   90.00000000
_symmetry_Int_Tables_number   1
_chemical_formula_structural   Ho4Co14Si3(P3Ru2)3
_chemical_formula_sum   'Ho4 Co14 Si3 P9 Ru6'
_cell_volume   463.17402513
_cell_formula_units_Z   1
loop_
 _symmetry_equiv_pos_site_id
 _symmetry_equiv_pos_as_xyz
  1  'x, y, z'
loop_
 _atom_site_type_symbol
 _atom_site_label
 _atom_site_symmetry_multiplicity
 _atom_site_fract_x
 _atom_site_fract_y
 _atom_site_fract_z
 _atom_site_occupancy
  Ho  Ho0  1  0.250000  0.585711  0.703753  1
  Ho  Ho1  1  0.250000  0.913020  0.204713  1
  Ho  Ho2  1  0.750000  0.414822  0.294028  1
  Ho  Ho3  1  0.750000  0.082650  0.793893  1
  Co  Co4  1  0.750000  0.597813  0.512685  1
  Co  Co5  1  0.750000  0.900515  0.013419  1
  Co  Co6  1  0.250000  0.217735  0.181534  1
  Co  Co7  1  0.250000  0.283291  0.677572  1
  Co  Co8  1  0.750000  0.777168  0.823125  1
  Co  Co9  1  0.750000  0.722843  0.323092  1
  Co  Co10  1  0.250000  0.880793  0.700111  1
  Co  Co11  1  0.250000  0.618856  0.200423  1
  Co  Co12  1  0.750000  0.112165  0.299686  1
  Co  Co13  1  0.750000  0.389724  0.798873  1
  Co  Co14  1  0.250000  0.472731  0.929700  1
  Co  Co15  1  0.250000  0.032119  0.427809  1
  Co  Co16  1  0.750000  0.540435  0.065430  1
  Co  Co17  1  0.750000  0.959970  0.564986  1
  Si  Si18  1  0.250000  0.419254  0.111348  1
  Si  Si19  1  0.250000  0.081078  0.611536  1
  Si  Si20  1  0.250000  0.273103  0.868847  1
  P  P21  1  0.750000  0.579385  0.885211  1
  P  P22  1  0.750000  0.920535  0.385769  1
  P  P23  1  0.250000  0.226334  0.367023  1
  P  P24  1  0.750000  0.729375  0.133879  1
  P  P25  1  0.750000  0.770634  0.633341  1
  P  P26  1  0.250000  0.600685  0.386161  1
  P  P27  1  0.250000  0.898909  0.886559  1
  P  P28  1  0.750000  0.400989  0.613201  1
  P  P29  1  0.750000  0.098676  0.113176  1
  Ru  Ru30  1  0.250000  0.714922  0.989818  1
  Ru  Ru31  1  0.250000  0.785029  0.489291  1
  Ru  Ru32  1  0.750000  0.293375  0.015835  1
  Ru  Ru33  1  0.750000  0.208485  0.514111  1
  Ru  Ru34  1  0.250000  0.409846  0.487820  1
  Ru  Ru35  1  0.250000  0.087024  0.992239  1
