# generated using pymatgen
data_Mn5ZnPd10
_symmetry_space_group_name_H-M   'P 1'
_cell_length_a   4.11862400
_cell_length_b   5.44677195
_cell_length_c   10.75505352
_cell_angle_alpha   90.21138183
_cell_angle_beta   90.00000000
_cell_angle_gamma   90.00000000
_symmetry_Int_Tables_number   1
_chemical_formula_structural   Mn5ZnPd10
_chemical_formula_sum   'Mn5 Zn1 Pd10'
_cell_volume   241.26868588
_cell_formula_units_Z   1
loop_
 _symmetry_equiv_pos_site_id
 _symmetry_equiv_pos_as_xyz
  1  'x, y, z'
loop_
 _atom_site_type_symbol
 _atom_site_label
 _atom_site_symmetry_multiplicity
 _atom_site_fract_x
 _atom_site_fract_y
 _atom_site_fract_z
 _atom_site_occupancy
  Mn  Mn0  1  0.000000  0.000000  0.000000  1
  Mn  Mn1  1  0.500000  0.188856  0.364829  1
  Mn  Mn2  1  0.500000  0.811144  0.635171  1
  Mn  Mn3  1  0.500000  0.685860  0.136589  1
  Mn  Mn4  1  0.500000  0.314140  0.863411  1
  Zn  Zn5  1  0.000000  0.500000  0.500000  1
  Pd  Pd6  1  0.500000  0.193428  0.112293  1
  Pd  Pd7  1  0.500000  0.806572  0.887707  1
  Pd  Pd8  1  0.500000  0.694865  0.387756  1
  Pd  Pd9  1  0.500000  0.305135  0.612244  1
  Pd  Pd10  1  0.000000  0.000000  0.500000  1
  Pd  Pd11  1  0.000000  0.500000  0.000000  1
  Pd  Pd12  1  0.000000  0.925473  0.243041  1
  Pd  Pd13  1  0.000000  0.074527  0.756959  1
  Pd  Pd14  1  0.000000  0.426564  0.257451  1
  Pd  Pd15  1  0.000000  0.573436  0.742549  1
