# generated using pymatgen
data_YEr(ZrRh)2
_symmetry_space_group_name_H-M   'P 1'
_cell_length_a   4.61627600
_cell_length_b   7.05872746
_cell_length_c   8.27819000
_cell_angle_alpha   90.07127551
_cell_angle_beta   90.00000000
_cell_angle_gamma   90.00000000
_symmetry_Int_Tables_number   1
_chemical_formula_structural   YEr(ZrRh)2
_chemical_formula_sum   'Y2 Er2 Zr4 Rh4'
_cell_volume   269.74489532
_cell_formula_units_Z   2
loop_
 _symmetry_equiv_pos_site_id
 _symmetry_equiv_pos_as_xyz
  1  'x, y, z'
loop_
 _atom_site_type_symbol
 _atom_site_label
 _atom_site_symmetry_multiplicity
 _atom_site_fract_x
 _atom_site_fract_y
 _atom_site_fract_z
 _atom_site_occupancy
  Y  Y0  1  0.250000  0.515907  0.177618  1
  Y  Y1  1  0.750000  0.484093  0.822382  1
  Er  Er2  1  0.750000  0.983979  0.676221  1
  Er  Er3  1  0.250000  0.016021  0.323779  1
  Zr  Zr4  1  0.250000  0.644169  0.575919  1
  Zr  Zr5  1  0.750000  0.355831  0.424081  1
  Zr  Zr6  1  0.750000  0.857581  0.076371  1
  Zr  Zr7  1  0.250000  0.142419  0.923629  1
  Rh  Rh8  1  0.250000  0.770489  0.910077  1
  Rh  Rh9  1  0.750000  0.229511  0.089923  1
  Rh  Rh10  1  0.750000  0.732391  0.412289  1
  Rh  Rh11  1  0.250000  0.267609  0.587711  1
