# generated using pymatgen
data_RbPr3F10
_symmetry_space_group_name_H-M   'P 1'
_cell_length_a   8.69530386
_cell_length_b   8.69530400
_cell_length_c   8.69530300
_cell_angle_alpha   59.99999999
_cell_angle_beta   59.99999948
_cell_angle_gamma   60.00000016
_symmetry_Int_Tables_number   1
_chemical_formula_structural   RbPr3F10
_chemical_formula_sum   'Rb2 Pr6 F20'
_cell_volume   464.87827875
_cell_formula_units_Z   2
loop_
 _symmetry_equiv_pos_site_id
 _symmetry_equiv_pos_as_xyz
  1  'x, y, z'
loop_
 _atom_site_type_symbol
 _atom_site_label
 _atom_site_symmetry_multiplicity
 _atom_site_fract_x
 _atom_site_fract_y
 _atom_site_fract_z
 _atom_site_occupancy
  Rb  Rb0  1  0.250000  0.250000  0.250000  1
  Rb  Rb1  1  0.750000  0.750000  0.750000  1
  Pr  Pr2  1  0.759954  0.240046  0.240046  1
  Pr  Pr3  1  0.240046  0.759954  0.759954  1
  Pr  Pr4  1  0.240046  0.759954  0.240046  1
  Pr  Pr5  1  0.759954  0.240046  0.759954  1
  Pr  Pr6  1  0.240046  0.240046  0.759954  1
  Pr  Pr7  1  0.759954  0.759954  0.240046  1
  F  F8  1  0.829649  0.500000  0.500000  1
  F  F9  1  0.170351  0.500000  0.500000  1
  F  F10  1  0.500000  0.829649  0.170351  1
  F  F11  1  0.500000  0.170351  0.829649  1
  F  F12  1  0.500000  0.829649  0.500000  1
  F  F13  1  0.170351  0.500000  0.829649  1
  F  F14  1  0.500000  0.170351  0.500000  1
  F  F15  1  0.829649  0.500000  0.170351  1
  F  F16  1  0.500000  0.500000  0.829649  1
  F  F17  1  0.500000  0.500000  0.170351  1
  F  F18  1  0.170351  0.829649  0.500000  1
  F  F19  1  0.829649  0.170351  0.500000  1
  F  F20  1  0.110746  0.110746  0.110746  1
  F  F21  1  0.889254  0.889254  0.889254  1
  F  F22  1  0.110746  0.110746  0.667761  1
  F  F23  1  0.110746  0.667761  0.110746  1
  F  F24  1  0.889254  0.889254  0.332239  1
  F  F25  1  0.889254  0.332239  0.889254  1
  F  F26  1  0.667761  0.110746  0.110746  1
  F  F27  1  0.332239  0.889254  0.889254  1
