# generated using pymatgen
data_Ca2Ga5SiPd2
_symmetry_space_group_name_H-M   'P 1'
_cell_length_a   6.09944098
_cell_length_b   6.09944217
_cell_length_c   5.77973300
_cell_angle_alpha   90.00000000
_cell_angle_beta   90.00000000
_cell_angle_gamma   115.48863004
_symmetry_Int_Tables_number   1
_chemical_formula_structural   Ca2Ga5SiPd2
_chemical_formula_sum   'Ca2 Ga5 Si1 Pd2'
_cell_volume   194.09630707
_cell_formula_units_Z   1
loop_
 _symmetry_equiv_pos_site_id
 _symmetry_equiv_pos_as_xyz
  1  'x, y, z'
loop_
 _atom_site_type_symbol
 _atom_site_label
 _atom_site_symmetry_multiplicity
 _atom_site_fract_x
 _atom_site_fract_y
 _atom_site_fract_z
 _atom_site_occupancy
  Ca  Ca0  1  0.766945  0.233055  0.250000  1
  Ca  Ca1  1  0.232314  0.767686  0.750000  1
  Ga  Ga2  1  0.336129  0.663871  0.250000  1
  Ga  Ga3  1  0.719076  0.714068  0.996045  1
  Ga  Ga4  1  0.719076  0.714068  0.503955  1
  Ga  Ga5  1  0.285932  0.280924  0.996045  1
  Ga  Ga6  1  0.285932  0.280924  0.503955  1
  Si  Si7  1  0.663476  0.336524  0.750000  1
  Pd  Pd8  1  0.894705  0.105295  0.750000  1
  Pd  Pd9  1  0.096415  0.903585  0.250000  1
