# generated using pymatgen
data_Zr6U(Fe8Si3)2
_symmetry_space_group_name_H-M   'P 1'
_cell_length_a   8.13080702
_cell_length_b   8.13258956
_cell_length_c   8.13291401
_cell_angle_alpha   60.04534228
_cell_angle_beta   60.03807189
_cell_angle_gamma   60.03648896
_symmetry_Int_Tables_number   1
_chemical_formula_structural   Zr6U(Fe8Si3)2
_chemical_formula_sum   'Zr6 U1 Fe16 Si6'
_cell_volume   380.61592164
_cell_formula_units_Z   1
loop_
 _symmetry_equiv_pos_site_id
 _symmetry_equiv_pos_as_xyz
  1  'x, y, z'
loop_
 _atom_site_type_symbol
 _atom_site_label
 _atom_site_symmetry_multiplicity
 _atom_site_fract_x
 _atom_site_fract_y
 _atom_site_fract_z
 _atom_site_occupancy
  Zr  Zr0  1  0.703976  0.703998  0.295936  1
  Zr  Zr1  1  0.296044  0.704043  0.295982  1
  Zr  Zr2  1  0.704032  0.296034  0.295993  1
  Zr  Zr3  1  0.296024  0.296002  0.704064  1
  Zr  Zr4  1  0.703956  0.295957  0.704018  1
  Zr  Zr5  1  0.295968  0.703966  0.704007  1
  U  U6  1  0.000000  0.000000  0.000000  1
  Fe  Fe7  1  0.878935  0.878956  0.363194  1
  Fe  Fe8  1  0.878916  0.363248  0.878942  1
  Fe  Fe9  1  0.363200  0.878945  0.878954  1
  Fe  Fe10  1  0.878923  0.878945  0.878953  1
  Fe  Fe11  1  0.121065  0.121044  0.636806  1
  Fe  Fe12  1  0.121084  0.636752  0.121058  1
  Fe  Fe13  1  0.636800  0.121055  0.121046  1
  Fe  Fe14  1  0.121077  0.121055  0.121047  1
  Fe  Fe15  1  0.676146  0.676184  0.971586  1
  Fe  Fe16  1  0.676156  0.971525  0.676222  1
  Fe  Fe17  1  0.971527  0.676189  0.676204  1
  Fe  Fe18  1  0.676136  0.676181  0.676195  1
  Fe  Fe19  1  0.323854  0.323816  0.028414  1
  Fe  Fe20  1  0.323844  0.028475  0.323778  1
  Fe  Fe21  1  0.028473  0.323811  0.323796  1
  Fe  Fe22  1  0.323864  0.323819  0.323805  1
  Si  Si23  1  0.000000  0.000000  0.500000  1
  Si  Si24  1  0.500000  0.000000  0.500000  1
  Si  Si25  1  0.000000  0.500000  0.500000  1
  Si  Si26  1  0.500000  0.500000  0.000000  1
  Si  Si27  1  0.000000  0.500000  0.000000  1
  Si  Si28  1  0.500000  0.000000  0.000000  1
