# generated using pymatgen
data_PaPPdN
_symmetry_space_group_name_H-M   'P 1'
_cell_length_a   3.94211800
_cell_length_b   3.94211800
_cell_length_c   8.09300600
_cell_angle_alpha   90.00000000
_cell_angle_beta   90.00000000
_cell_angle_gamma   90.00000000
_symmetry_Int_Tables_number   1
_chemical_formula_structural   PaPPdN
_chemical_formula_sum   'Pa2 P2 Pd2 N2'
_cell_volume   125.76769522
_cell_formula_units_Z   2
loop_
 _symmetry_equiv_pos_site_id
 _symmetry_equiv_pos_as_xyz
  1  'x, y, z'
loop_
 _atom_site_type_symbol
 _atom_site_label
 _atom_site_symmetry_multiplicity
 _atom_site_fract_x
 _atom_site_fract_y
 _atom_site_fract_z
 _atom_site_occupancy
  Pa  Pa0  1  0.000000  0.000000  0.146390  1
  Pa  Pa1  1  0.499999  0.499999  0.853611  1
  P  P2  1  0.499999  0.499999  0.320332  1
  P  P3  1  0.000000  0.000000  0.679668  1
  Pd  Pd4  1  0.499999  0.000000  0.499999  1
  Pd  Pd5  1  0.000000  0.499999  0.499999  1
  N  N6  1  0.499999  0.000000  0.000000  1
  N  N7  1  0.000000  0.499999  0.000000  1
