# generated using pymatgen
data_La9PrGaSi4Ge
_symmetry_space_group_name_H-M   'P 1'
_cell_length_a   7.98535341
_cell_length_b   9.10656463
_cell_length_c   7.97837123
_cell_angle_alpha   115.67045485
_cell_angle_beta   90.11354739
_cell_angle_gamma   115.84442626
_symmetry_Int_Tables_number   1
_chemical_formula_structural   La9PrGaSi4Ge
_chemical_formula_sum   'La9 Pr1 Ga1 Si4 Ge1'
_cell_volume   457.40732209
_cell_formula_units_Z   1
loop_
 _symmetry_equiv_pos_site_id
 _symmetry_equiv_pos_as_xyz
  1  'x, y, z'
loop_
 _atom_site_type_symbol
 _atom_site_label
 _atom_site_symmetry_multiplicity
 _atom_site_fract_x
 _atom_site_fract_y
 _atom_site_fract_z
 _atom_site_occupancy
  La  La0  1  0.980695  0.960685  0.981037  1
  La  La1  1  0.518686  0.041201  0.521045  1
  La  La2  1  0.528232  0.712446  0.674582  1
  La  La3  1  0.184236  0.712256  0.039526  1
  La  La4  1  0.673986  0.710403  0.183941  1
  La  La5  1  0.042348  0.714880  0.532244  1
  La  La6  1  0.460564  0.288068  0.316829  1
  La  La7  1  0.826765  0.286361  0.968932  1
  La  La8  1  0.315169  0.289788  0.825030  1
  Pr  Pr9  1  0.969042  0.283043  0.455418  1
  Ga  Ga10  1  0.750348  0.499394  0.749503  1
  Si  Si11  1  0.886751  0.000278  0.611945  1
  Si  Si12  1  0.111991  0.000676  0.387037  1
  Si  Si13  1  0.613359  0.999572  0.113733  1
  Si  Si14  1  0.389226  0.002517  0.889142  1
  Ge  Ge15  1  0.248603  0.498433  0.250057  1
