# generated using pymatgen
data_Nd6V2Fe(Co5P4)3
_symmetry_space_group_name_H-M   'P 1'
_cell_length_a   3.75670800
_cell_length_b   10.70454800
_cell_length_c   12.39273900
_cell_angle_alpha   90.00000000
_cell_angle_beta   90.00000000
_cell_angle_gamma   90.00000000
_symmetry_Int_Tables_number   1
_chemical_formula_structural   Nd6V2Fe(Co5P4)3
_chemical_formula_sum   'Nd6 V2 Fe1 Co15 P12'
_cell_volume   498.35988489
_cell_formula_units_Z   1
loop_
 _symmetry_equiv_pos_site_id
 _symmetry_equiv_pos_as_xyz
  1  'x, y, z'
loop_
 _atom_site_type_symbol
 _atom_site_label
 _atom_site_symmetry_multiplicity
 _atom_site_fract_x
 _atom_site_fract_y
 _atom_site_fract_z
 _atom_site_occupancy
  Nd  Nd0  1  0.000000  0.500000  0.522647  1
  Nd  Nd1  1  0.500000  0.000000  0.477341  1
  Nd  Nd2  1  0.500000  0.818274  0.204477  1
  Nd  Nd3  1  0.500000  0.181726  0.204477  1
  Nd  Nd4  1  0.000000  0.680372  0.795981  1
  Nd  Nd5  1  0.000000  0.319628  0.795981  1
  V  V6  1  0.500000  0.500000  0.150638  1
  V  V7  1  0.000000  0.000000  0.848236  1
  Fe  Fe8  1  0.000000  0.500000  0.988968  1
  Co  Co9  1  0.500000  0.500000  0.701753  1
  Co  Co10  1  0.000000  0.000000  0.297329  1
  Co  Co11  1  0.500000  0.000000  0.011700  1
  Co  Co12  1  0.500000  0.330537  0.994816  1
  Co  Co13  1  0.500000  0.669463  0.994816  1
  Co  Co14  1  0.000000  0.166220  0.005464  1
  Co  Co15  1  0.000000  0.833780  0.005464  1
  Co  Co16  1  0.500000  0.295799  0.431045  1
  Co  Co17  1  0.500000  0.704201  0.431045  1
  Co  Co18  1  0.000000  0.204125  0.569431  1
  Co  Co19  1  0.000000  0.795875  0.569431  1
  Co  Co20  1  0.500000  0.881117  0.708718  1
  Co  Co21  1  0.500000  0.118883  0.708718  1
  Co  Co22  1  0.000000  0.619324  0.291200  1
  Co  Co23  1  0.000000  0.380676  0.291200  1
  P  P24  1  0.500000  0.500000  0.888332  1
  P  P25  1  0.000000  0.000000  0.113962  1
  P  P26  1  0.500000  0.500000  0.341647  1
  P  P27  1  0.000000  0.000000  0.657956  1
  P  P28  1  0.500000  0.306471  0.614580  1
  P  P29  1  0.500000  0.693529  0.614580  1
  P  P30  1  0.000000  0.193560  0.385717  1
  P  P31  1  0.000000  0.806440  0.385717  1
  P  P32  1  0.500000  0.847642  0.894073  1
  P  P33  1  0.500000  0.152358  0.894073  1
  P  P34  1  0.000000  0.652102  0.104242  1
  P  P35  1  0.000000  0.347898  0.104242  1
