# generated using pymatgen
data_Sm6Mg2Co(P4Rh5)3
_symmetry_space_group_name_H-M   'P 1'
_cell_length_a   3.94793100
_cell_length_b   11.27706400
_cell_length_c   12.90866200
_cell_angle_alpha   90.00000000
_cell_angle_beta   90.00000000
_cell_angle_gamma   90.00000000
_symmetry_Int_Tables_number   1
_chemical_formula_structural   Sm6Mg2Co(P4Rh5)3
_chemical_formula_sum   'Sm6 Mg2 Co1 P12 Rh15'
_cell_volume   574.70745167
_cell_formula_units_Z   1
loop_
 _symmetry_equiv_pos_site_id
 _symmetry_equiv_pos_as_xyz
  1  'x, y, z'
loop_
 _atom_site_type_symbol
 _atom_site_label
 _atom_site_symmetry_multiplicity
 _atom_site_fract_x
 _atom_site_fract_y
 _atom_site_fract_z
 _atom_site_occupancy
  Sm  Sm0  1  0.000000  0.500000  0.520001  1
  Sm  Sm1  1  0.500000  0.000000  0.480385  1
  Sm  Sm2  1  0.500000  0.824358  0.203246  1
  Sm  Sm3  1  0.500000  0.175642  0.203246  1
  Sm  Sm4  1  0.000000  0.680968  0.796248  1
  Sm  Sm5  1  0.000000  0.319032  0.796248  1
  Mg  Mg6  1  0.500000  0.500000  0.157189  1
  Mg  Mg7  1  0.000000  0.000000  0.841909  1
  Co  Co8  1  0.500000  0.000000  0.009814  1
  P  P9  1  0.500000  0.500000  0.883550  1
  P  P10  1  0.000000  0.000000  0.113743  1
  P  P11  1  0.500000  0.500000  0.351777  1
  P  P12  1  0.000000  0.000000  0.647135  1
  P  P13  1  0.500000  0.311746  0.617009  1
  P  P14  1  0.500000  0.688254  0.617009  1
  P  P15  1  0.000000  0.187862  0.382881  1
  P  P16  1  0.000000  0.812138  0.382881  1
  P  P17  1  0.500000  0.846615  0.894236  1
  P  P18  1  0.500000  0.153385  0.894236  1
  P  P19  1  0.000000  0.661811  0.108893  1
  P  P20  1  0.000000  0.338189  0.108893  1
  Rh  Rh21  1  0.500000  0.500000  0.704347  1
  Rh  Rh22  1  0.000000  0.000000  0.295584  1
  Rh  Rh23  1  0.000000  0.500000  0.988050  1
  Rh  Rh24  1  0.500000  0.330780  0.997970  1
  Rh  Rh25  1  0.500000  0.669220  0.997970  1
  Rh  Rh26  1  0.000000  0.162727  0.002411  1
  Rh  Rh27  1  0.000000  0.837273  0.002411  1
  Rh  Rh28  1  0.500000  0.292201  0.431193  1
  Rh  Rh29  1  0.500000  0.707799  0.431193  1
  Rh  Rh30  1  0.000000  0.207543  0.568662  1
  Rh  Rh31  1  0.000000  0.792457  0.568662  1
  Rh  Rh32  1  0.500000  0.874741  0.710612  1
  Rh  Rh33  1  0.500000  0.125259  0.710612  1
  Rh  Rh34  1  0.000000  0.625643  0.289894  1
  Rh  Rh35  1  0.000000  0.374357  0.289894  1
