# generated using pymatgen
data_Y4CdHgPd4
_symmetry_space_group_name_H-M   'P 1'
_cell_length_a   3.76574800
_cell_length_b   7.70401600
_cell_length_c   7.70401600
_cell_angle_alpha   90.00000000
_cell_angle_beta   90.00000000
_cell_angle_gamma   90.00000000
_symmetry_Int_Tables_number   1
_chemical_formula_structural   Y4CdHgPd4
_chemical_formula_sum   'Y4 Cd1 Hg1 Pd4'
_cell_volume   223.50415761
_cell_formula_units_Z   1
loop_
 _symmetry_equiv_pos_site_id
 _symmetry_equiv_pos_as_xyz
  1  'x, y, z'
loop_
 _atom_site_type_symbol
 _atom_site_label
 _atom_site_symmetry_multiplicity
 _atom_site_fract_x
 _atom_site_fract_y
 _atom_site_fract_z
 _atom_site_occupancy
  Y  Y0  1  0.500000  0.159297  0.683933  1
  Y  Y1  1  0.500000  0.840703  0.316067  1
  Y  Y2  1  0.500000  0.316067  0.159297  1
  Y  Y3  1  0.500000  0.683933  0.840703  1
  Cd  Cd4  1  0.000000  0.500000  0.500000  1
  Hg  Hg5  1  0.000000  0.000000  0.000000  1
  Pd  Pd6  1  0.000000  0.618370  0.139508  1
  Pd  Pd7  1  0.000000  0.381630  0.860492  1
  Pd  Pd8  1  0.000000  0.860492  0.618370  1
  Pd  Pd9  1  0.000000  0.139508  0.381630  1
