# generated using pymatgen
data_Yb8In4Cu3N5
_symmetry_space_group_name_H-M   'P 1'
_cell_length_a   10.70406157
_cell_length_b   10.70406011
_cell_length_c   10.70406136
_cell_angle_alpha   160.38311913
_cell_angle_beta   112.67899969
_cell_angle_gamma   70.88129444
_symmetry_Int_Tables_number   1
_chemical_formula_structural   Yb8In4Cu3N5
_chemical_formula_sum   'Yb8 In4 Cu3 N5'
_cell_volume   377.38816704
_cell_formula_units_Z   1
loop_
 _symmetry_equiv_pos_site_id
 _symmetry_equiv_pos_as_xyz
  1  'x, y, z'
loop_
 _atom_site_type_symbol
 _atom_site_label
 _atom_site_symmetry_multiplicity
 _atom_site_fract_x
 _atom_site_fract_y
 _atom_site_fract_z
 _atom_site_occupancy
  Yb  Yb0  1  0.562564  0.712916  0.849649  1
  Yb  Yb1  1  0.749107  0.900640  0.848468  1
  Yb  Yb2  1  0.437436  0.287084  0.150351  1
  Yb  Yb3  1  0.863268  0.712916  0.150351  1
  Yb  Yb4  1  0.136732  0.287084  0.849649  1
  Yb  Yb5  1  0.250893  0.099360  0.151532  1
  Yb  Yb6  1  0.052171  0.900640  0.151532  1
  Yb  Yb7  1  0.947829  0.099360  0.848468  1
  In  In8  1  0.658597  0.500000  0.158597  1
  In  In9  1  0.341403  0.500000  0.841403  1
  In  In10  1  0.409182  0.909182  0.500000  1
  In  In11  1  0.590818  0.090818  0.500000  1
  Cu  Cu12  1  0.192211  0.692211  0.500000  1
  Cu  Cu13  1  0.807789  0.307789  0.500000  1
  Cu  Cu14  1  0.000000  0.500000  0.500000  1
  N  N15  1  0.351549  0.693708  0.657841  1
  N  N16  1  0.964133  0.306292  0.657841  1
  N  N17  1  0.035867  0.693708  0.342159  1
  N  N18  1  0.000000  0.000000  0.000000  1
  N  N19  1  0.648451  0.306292  0.342159  1
