# generated using pymatgen
data_Tm4GeAs5Rh7
_symmetry_space_group_name_H-M   'P 1'
_cell_length_a   7.24895033
_cell_length_b   7.24895129
_cell_length_c   7.24895048
_cell_angle_alpha   109.46769065
_cell_angle_beta   109.47299114
_cell_angle_gamma   109.47298430
_symmetry_Int_Tables_number   1
_chemical_formula_structural   Tm4GeAs5Rh7
_chemical_formula_sum   'Tm4 Ge1 As5 Rh7'
_cell_volume   293.22670810
_cell_formula_units_Z   1
loop_
 _symmetry_equiv_pos_site_id
 _symmetry_equiv_pos_as_xyz
  1  'x, y, z'
loop_
 _atom_site_type_symbol
 _atom_site_label
 _atom_site_symmetry_multiplicity
 _atom_site_fract_x
 _atom_site_fract_y
 _atom_site_fract_z
 _atom_site_occupancy
  Tm  Tm0  1  0.000000  0.000442  0.500088  1
  Tm  Tm1  1  0.000000  0.500088  0.000442  1
  Tm  Tm2  1  0.500353  0.000442  0.000442  1
  Tm  Tm3  1  0.499647  0.500088  0.500088  1
  Ge  Ge4  1  0.000000  0.681591  0.681591  1
  As  As5  1  0.682171  0.680928  0.998758  1
  As  As6  1  0.317829  0.998758  0.316586  1
  As  As7  1  0.000000  0.322429  0.322429  1
  As  As8  1  0.317829  0.316586  0.998758  1
  As  As9  1  0.682171  0.998758  0.680928  1
  Rh  Rh10  1  0.749320  0.250645  0.501324  1
  Rh  Rh11  1  0.749320  0.501324  0.250645  1
  Rh  Rh12  1  0.500000  0.249261  0.749261  1
  Rh  Rh13  1  0.250680  0.501324  0.752004  1
  Rh  Rh14  1  0.250680  0.752004  0.501324  1
  Rh  Rh15  1  0.500000  0.749261  0.249261  1
  Rh  Rh16  1  0.000000  0.996069  0.996069  1
