# generated using pymatgen
data_Y10Th2Tc3Pd
_symmetry_space_group_name_H-M   'P 1'
_cell_length_a   6.38689458
_cell_length_b   7.39317921
_cell_length_c   9.47989800
_cell_angle_alpha   90.00000000
_cell_angle_beta   90.00000000
_cell_angle_gamma   90.08380561
_symmetry_Int_Tables_number   1
_chemical_formula_structural   Y10Th2Tc3Pd
_chemical_formula_sum   'Y10 Th2 Tc3 Pd1'
_cell_volume   447.63514980
_cell_formula_units_Z   1
loop_
 _symmetry_equiv_pos_site_id
 _symmetry_equiv_pos_as_xyz
  1  'x, y, z'
loop_
 _atom_site_type_symbol
 _atom_site_label
 _atom_site_symmetry_multiplicity
 _atom_site_fract_x
 _atom_site_fract_y
 _atom_site_fract_z
 _atom_site_occupancy
  Y  Y0  1  0.631293  0.042983  0.250000  1
  Y  Y1  1  0.866998  0.534162  0.250000  1
  Y  Y2  1  0.170399  0.182136  0.064342  1
  Y  Y3  1  0.827517  0.824100  0.931251  1
  Y  Y4  1  0.665230  0.322168  0.937109  1
  Y  Y5  1  0.827517  0.824100  0.568749  1
  Y  Y6  1  0.338146  0.671226  0.064956  1
  Y  Y7  1  0.170399  0.182136  0.435658  1
  Y  Y8  1  0.338146  0.671226  0.435044  1
  Y  Y9  1  0.665230  0.322168  0.562891  1
  Th  Th10  1  0.354626  0.948462  0.750000  1
  Th  Th11  1  0.136944  0.449981  0.750000  1
  Tc  Tc12  1  0.459452  0.382670  0.250000  1
  Tc  Tc13  1  0.513148  0.629334  0.750000  1
  Tc  Tc14  1  0.986307  0.128076  0.750000  1
  Pd  Pd15  1  0.048645  0.885069  0.250000  1
