# generated using pymatgen
data_DyHo6CoSn23Ru5
_symmetry_space_group_name_H-M   'P 1'
_cell_length_a   9.81419617
_cell_length_b   9.81419472
_cell_length_c   10.05956201
_cell_angle_alpha   90.02939298
_cell_angle_beta   89.97060479
_cell_angle_gamma   119.98785441
_symmetry_Int_Tables_number   1
_chemical_formula_structural   DyHo6CoSn23Ru5
_chemical_formula_sum   'Dy1 Ho6 Co1 Sn23 Ru5'
_cell_volume   839.21293910
_cell_formula_units_Z   1
loop_
 _symmetry_equiv_pos_site_id
 _symmetry_equiv_pos_as_xyz
  1  'x, y, z'
loop_
 _atom_site_type_symbol
 _atom_site_label
 _atom_site_symmetry_multiplicity
 _atom_site_fract_x
 _atom_site_fract_y
 _atom_site_fract_z
 _atom_site_occupancy
  Dy  Dy0  1  0.003933  0.996067  0.995356  1
  Ho  Ho1  1  0.515657  0.484343  0.696828  1
  Ho  Ho2  1  0.516342  0.032238  0.695952  1
  Ho  Ho3  1  0.967762  0.483658  0.695952  1
  Ho  Ho4  1  0.033050  0.517278  0.304473  1
  Ho  Ho5  1  0.482722  0.966950  0.304473  1
  Ho  Ho6  1  0.482978  0.517022  0.303690  1
  Co  Co7  1  0.829063  0.170937  0.200348  1
  Sn  Sn8  1  0.667747  0.332253  0.181402  1
  Sn  Sn9  1  0.666581  0.333419  0.874017  1
  Sn  Sn10  1  0.332952  0.667048  0.126509  1
  Sn  Sn11  1  0.349105  0.349041  0.000054  1
  Sn  Sn12  1  0.999041  0.648622  0.000327  1
  Sn  Sn13  1  0.654698  0.002437  0.004324  1
  Sn  Sn14  1  0.650959  0.650895  0.000054  1
  Sn  Sn15  1  0.333307  0.666693  0.820587  1
  Sn  Sn16  1  0.439118  0.219656  0.461702  1
  Sn  Sn17  1  0.219929  0.780071  0.539096  1
  Sn  Sn18  1  0.219345  0.439172  0.538728  1
  Sn  Sn19  1  0.560828  0.780655  0.538728  1
  Sn  Sn20  1  0.118962  0.881038  0.272974  1
  Sn  Sn21  1  0.780344  0.560882  0.461702  1
  Sn  Sn22  1  0.782369  0.217631  0.455782  1
  Sn  Sn23  1  0.351378  0.000959  0.000327  1
  Sn  Sn24  1  0.111239  0.233882  0.271644  1
  Sn  Sn25  1  0.766118  0.888761  0.271644  1
  Sn  Sn26  1  0.236387  0.118550  0.725301  1
  Sn  Sn27  1  0.881450  0.763613  0.725301  1
  Sn  Sn28  1  0.881385  0.118615  0.727117  1
  Sn  Sn29  1  0.000295  0.999705  0.498858  1
  Sn  Sn30  1  0.997563  0.345302  0.004324  1
  Ru  Ru31  1  0.169395  0.830605  0.799893  1
  Ru  Ru32  1  0.168476  0.339116  0.799316  1
  Ru  Ru33  1  0.660884  0.831524  0.799316  1
  Ru  Ru34  1  0.338709  0.170071  0.201953  1
  Ru  Ru35  1  0.829929  0.661291  0.201953  1
