# generated using pymatgen
data_TbCe(BOs)4
_symmetry_space_group_name_H-M   'P 1'
_cell_length_a   6.71435279
_cell_length_b   5.99212542
_cell_length_c   5.59521435
_cell_angle_alpha   70.72987281
_cell_angle_beta   57.39814718
_cell_angle_gamma   51.87196838
_symmetry_Int_Tables_number   1
_chemical_formula_structural   TbCe(BOs)4
_chemical_formula_sum   'Tb1 Ce1 B4 Os4'
_cell_volume   149.17872882
_cell_formula_units_Z   1
loop_
 _symmetry_equiv_pos_site_id
 _symmetry_equiv_pos_as_xyz
  1  'x, y, z'
loop_
 _atom_site_type_symbol
 _atom_site_label
 _atom_site_symmetry_multiplicity
 _atom_site_fract_x
 _atom_site_fract_y
 _atom_site_fract_z
 _atom_site_occupancy
  Tb  Tb0  1  0.000000  0.000000  0.000000  1
  Ce  Ce1  1  0.250000  0.250000  0.250000  1
  B  B2  1  0.310024  0.689976  0.310024  1
  B  B3  1  0.689976  0.310024  0.689976  1
  B  B4  1  0.564864  0.935136  0.564864  1
  B  B5  1  0.935136  0.564864  0.935136  1
  Os  Os6  1  0.637693  0.637693  0.362307  1
  Os  Os7  1  0.362307  0.362307  0.637693  1
  Os  Os8  1  0.612024  0.612024  0.887976  1
  Os  Os9  1  0.887976  0.887976  0.612024  1
