# generated using pymatgen
data_Yb11Pr8LuPb16
_symmetry_space_group_name_H-M   'P 1'
_cell_length_a   8.06479098
_cell_length_b   8.61699691
_cell_length_c   16.21869820
_cell_angle_alpha   90.04814381
_cell_angle_beta   90.11197324
_cell_angle_gamma   89.97838669
_symmetry_Int_Tables_number   1
_chemical_formula_structural   Yb11Pr8LuPb16
_chemical_formula_sum   'Yb11 Pr8 Lu1 Pb16'
_cell_volume   1127.10410759
_cell_formula_units_Z   1
loop_
 _symmetry_equiv_pos_site_id
 _symmetry_equiv_pos_as_xyz
  1  'x, y, z'
loop_
 _atom_site_type_symbol
 _atom_site_label
 _atom_site_symmetry_multiplicity
 _atom_site_fract_x
 _atom_site_fract_y
 _atom_site_fract_z
 _atom_site_occupancy
  Yb  Yb0  1  0.165380  0.333526  0.877268  1
  Yb  Yb1  1  0.334767  0.833330  0.122856  1
  Yb  Yb2  1  0.835135  0.666448  0.377256  1
  Yb  Yb3  1  0.334387  0.833050  0.377052  1
  Yb  Yb4  1  0.834880  0.666672  0.122848  1
  Yb  Yb5  1  0.664904  0.166699  0.877100  1
  Yb  Yb6  1  0.165307  0.333095  0.622606  1
  Yb  Yb7  1  0.834636  0.495343  0.749995  1
  Yb  Yb8  1  0.334510  0.004286  0.750118  1
  Yb  Yb9  1  0.165454  0.504468  0.249943  1
  Yb  Yb10  1  0.665436  0.995743  0.249985  1
  Pr  Pr11  1  0.501005  0.685222  0.595413  1
  Pr  Pr12  1  0.001510  0.813961  0.904962  1
  Pr  Pr13  1  0.498863  0.313956  0.095501  1
  Pr  Pr14  1  0.999114  0.186343  0.404330  1
  Pr  Pr15  1  0.498629  0.314214  0.404543  1
  Pr  Pr16  1  0.998989  0.186110  0.095462  1
  Pr  Pr17  1  0.501088  0.685620  0.904676  1
  Pr  Pr18  1  0.000909  0.813876  0.595090  1
  Lu  Lu19  1  0.665374  0.167335  0.622814  1
  Pb  Pb20  1  0.678789  0.962757  0.460581  1
  Pb  Pb21  1  0.178120  0.538365  0.040753  1
  Pb  Pb22  1  0.322331  0.038277  0.959108  1
  Pb  Pb23  1  0.819366  0.459743  0.541459  1
  Pb  Pb24  1  0.324467  0.039306  0.541696  1
  Pb  Pb25  1  0.821966  0.461615  0.959013  1
  Pb  Pb26  1  0.677779  0.961656  0.040780  1
  Pb  Pb27  1  0.178824  0.538475  0.459220  1
  Pb  Pb28  1  0.468622  0.389276  0.749697  1
  Pb  Pb29  1  0.965327  0.109788  0.748576  1
  Pb  Pb30  1  0.532475  0.608746  0.250095  1
  Pb  Pb31  1  0.032511  0.891604  0.249963  1
  Pb  Pb32  1  0.702551  0.854756  0.749139  1
  Pb  Pb33  1  0.202799  0.646332  0.749645  1
  Pb  Pb34  1  0.296811  0.146141  0.250239  1
  Pb  Pb35  1  0.796987  0.353867  0.250219  1
