# generated using pymatgen
data_Ba4RuRhO8
_symmetry_space_group_name_H-M   'P 1'
_cell_length_a   7.34072524
_cell_length_b   7.34072418
_cell_length_c   5.74310200
_cell_angle_alpha   90.00000000
_cell_angle_beta   90.00000000
_cell_angle_gamma   133.93750493
_symmetry_Int_Tables_number   1
_chemical_formula_structural   Ba4RuRhO8
_chemical_formula_sum   'Ba4 Ru1 Rh1 O8'
_cell_volume   222.85144101
_cell_formula_units_Z   1
loop_
 _symmetry_equiv_pos_site_id
 _symmetry_equiv_pos_as_xyz
  1  'x, y, z'
loop_
 _atom_site_type_symbol
 _atom_site_label
 _atom_site_symmetry_multiplicity
 _atom_site_fract_x
 _atom_site_fract_y
 _atom_site_fract_z
 _atom_site_occupancy
  Ba  Ba0  1  0.643441  0.356559  0.000000  1
  Ba  Ba1  1  0.144743  0.855257  0.500000  1
  Ba  Ba2  1  0.855257  0.144743  0.500000  1
  Ba  Ba3  1  0.356559  0.643441  0.000000  1
  Ru  Ru4  1  0.000000  0.000000  0.000000  1
  Rh  Rh5  1  0.500000  0.500000  0.500000  1
  O  O6  1  0.753649  0.753649  0.755012  1
  O  O7  1  0.246351  0.246351  0.244988  1
  O  O8  1  0.246351  0.246351  0.755012  1
  O  O9  1  0.753649  0.753649  0.244988  1
  O  O10  1  0.848817  0.151183  0.000000  1
  O  O11  1  0.343248  0.656752  0.500000  1
  O  O12  1  0.656752  0.343248  0.500000  1
  O  O13  1  0.151183  0.848817  0.000000  1
