# generated using pymatgen
data_PaSO4F3
_symmetry_space_group_name_H-M   'P 1'
_cell_length_a   5.57458000
_cell_length_b   9.98711600
_cell_length_c   12.83033500
_cell_angle_alpha   90.00000000
_cell_angle_beta   90.00000000
_cell_angle_gamma   90.00000000
_symmetry_Int_Tables_number   1
_chemical_formula_structural   PaSO4F3
_chemical_formula_sum   'Pa4 S4 O16 F12'
_cell_volume   714.31577712
_cell_formula_units_Z   4
loop_
 _symmetry_equiv_pos_site_id
 _symmetry_equiv_pos_as_xyz
  1  'x, y, z'
loop_
 _atom_site_type_symbol
 _atom_site_label
 _atom_site_symmetry_multiplicity
 _atom_site_fract_x
 _atom_site_fract_y
 _atom_site_fract_z
 _atom_site_occupancy
  Pa  Pa0  1  0.015656  0.991867  0.548727  1
  Pa  Pa1  1  0.484344  0.008133  0.048727  1
  Pa  Pa2  1  0.515656  0.508133  0.451273  1
  Pa  Pa3  1  0.984344  0.491867  0.951273  1
  S  S4  1  0.978937  0.221628  0.146736  1
  S  S5  1  0.521063  0.778372  0.646736  1
  S  S6  1  0.478937  0.278372  0.853264  1
  S  S7  1  0.021063  0.721628  0.353264  1
  O  O8  1  0.164739  0.135489  0.091390  1
  O  O9  1  0.005215  0.857485  0.404518  1
  O  O10  1  0.263625  0.664762  0.384249  1
  O  O11  1  0.013019  0.226425  0.256705  1
  O  O12  1  0.486981  0.773575  0.756705  1
  O  O13  1  0.236375  0.335238  0.884249  1
  O  O14  1  0.494785  0.142515  0.904518  1
  O  O15  1  0.335261  0.864511  0.591390  1
  O  O16  1  0.664739  0.364511  0.908610  1
  O  O17  1  0.505215  0.642515  0.595482  1
  O  O18  1  0.763625  0.835238  0.615751  1
  O  O19  1  0.513019  0.273575  0.743295  1
  O  O20  1  0.986981  0.726425  0.243295  1
  O  O21  1  0.736375  0.164762  0.115751  1
  O  O22  1  0.994785  0.357485  0.095482  1
  O  O23  1  0.835261  0.635489  0.408610  1
  F  F24  1  0.049328  0.087780  0.689271  1
  F  F25  1  0.298211  0.584344  0.990924  1
  F  F26  1  0.215582  0.123129  0.463885  1
  F  F27  1  0.284418  0.876871  0.963885  1
  F  F28  1  0.201789  0.415656  0.490924  1
  F  F29  1  0.450672  0.912220  0.189271  1
  F  F30  1  0.549328  0.412220  0.310729  1
  F  F31  1  0.798211  0.915656  0.009076  1
  F  F32  1  0.715582  0.376871  0.536115  1
  F  F33  1  0.784418  0.623129  0.036115  1
  F  F34  1  0.701789  0.084344  0.509076  1
  F  F35  1  0.950672  0.587780  0.810729  1
