# generated using pymatgen
data_Dy4Y12Cd4Co3Ir
_symmetry_space_group_name_H-M   'P 1'
_cell_length_a   9.57873965
_cell_length_b   9.53724011
_cell_length_c   9.53724100
_cell_angle_alpha   60.00000038
_cell_angle_beta   60.14321393
_cell_angle_gamma   60.14321540
_symmetry_Int_Tables_number   1
_chemical_formula_structural   Dy4Y12Cd4Co3Ir
_chemical_formula_sum   'Dy4 Y12 Cd4 Co3 Ir1'
_cell_volume   617.41272331
_cell_formula_units_Z   1
loop_
 _symmetry_equiv_pos_site_id
 _symmetry_equiv_pos_as_xyz
  1  'x, y, z'
loop_
 _atom_site_type_symbol
 _atom_site_label
 _atom_site_symmetry_multiplicity
 _atom_site_fract_x
 _atom_site_fract_y
 _atom_site_fract_z
 _atom_site_occupancy
  Dy  Dy0  1  0.342661  0.350034  0.350034  1
  Dy  Dy1  1  0.342661  0.350034  0.957272  1
  Dy  Dy2  1  0.342661  0.957272  0.350034  1
  Dy  Dy3  1  0.960445  0.346519  0.346519  1
  Y  Y4  1  0.816191  0.188527  0.188527  1
  Y  Y5  1  0.188409  0.812019  0.812019  1
  Y  Y6  1  0.188409  0.812019  0.187554  1
  Y  Y7  1  0.816191  0.188527  0.806754  1
  Y  Y8  1  0.188409  0.187554  0.812019  1
  Y  Y9  1  0.816191  0.806754  0.188527  1
  Y  Y10  1  0.937035  0.562644  0.562644  1
  Y  Y11  1  0.562457  0.938197  0.938197  1
  Y  Y12  1  0.562457  0.938197  0.561149  1
  Y  Y13  1  0.937035  0.562644  0.937677  1
  Y  Y14  1  0.562457  0.561149  0.938197  1
  Y  Y15  1  0.937035  0.937677  0.562644  1
  Cd  Cd16  1  0.580374  0.579958  0.579958  1
  Cd  Cd17  1  0.580374  0.579958  0.259711  1
  Cd  Cd18  1  0.580374  0.259711  0.579958  1
  Cd  Cd19  1  0.259307  0.580232  0.580232  1
  Co  Co20  1  0.141928  0.142235  0.142235  1
  Co  Co21  1  0.141928  0.142235  0.573602  1
  Co  Co22  1  0.141928  0.573602  0.142235  1
  Ir  Ir23  1  0.573084  0.142306  0.142306  1
