# generated using pymatgen
data_Zr16VCo4Rh3
_symmetry_space_group_name_H-M   'P 1'
_cell_length_a   8.68468394
_cell_length_b   8.68167383
_cell_length_c   8.68426700
_cell_angle_alpha   60.28734563
_cell_angle_beta   60.29055841
_cell_angle_gamma   60.28128870
_symmetry_Int_Tables_number   1
_chemical_formula_structural   Zr16VCo4Rh3
_chemical_formula_sum   'Zr16 V1 Co4 Rh3'
_cell_volume   465.99521066
_cell_formula_units_Z   1
loop_
 _symmetry_equiv_pos_site_id
 _symmetry_equiv_pos_as_xyz
  1  'x, y, z'
loop_
 _atom_site_type_symbol
 _atom_site_label
 _atom_site_symmetry_multiplicity
 _atom_site_fract_x
 _atom_site_fract_y
 _atom_site_fract_z
 _atom_site_occupancy
  Zr  Zr0  1  0.049520  0.649077  0.648981  1
  Zr  Zr1  1  0.649109  0.049439  0.649085  1
  Zr  Zr2  1  0.648956  0.649032  0.049562  1
  Zr  Zr3  1  0.647252  0.647252  0.647247  1
  Zr  Zr4  1  0.798418  0.798470  0.202266  1
  Zr  Zr5  1  0.198767  0.198748  0.798569  1
  Zr  Zr6  1  0.798521  0.202175  0.798481  1
  Zr  Zr7  1  0.198760  0.798597  0.198753  1
  Zr  Zr8  1  0.202266  0.798490  0.798402  1
  Zr  Zr9  1  0.798562  0.198766  0.198777  1
  Zr  Zr10  1  0.434992  0.434921  0.073678  1
  Zr  Zr11  1  0.064516  0.064484  0.436387  1
  Zr  Zr12  1  0.434973  0.073609  0.434970  1
  Zr  Zr13  1  0.064480  0.436332  0.064507  1
  Zr  Zr14  1  0.073679  0.434915  0.434986  1
  Zr  Zr15  1  0.436382  0.064464  0.064524  1
  V  V16  1  0.422511  0.422553  0.422502  1
  Co  Co17  1  0.421592  0.859050  0.859062  1
  Co  Co18  1  0.859057  0.421543  0.859040  1
  Co  Co19  1  0.859074  0.859043  0.421593  1
  Co  Co20  1  0.860230  0.860236  0.860231  1
  Rh  Rh21  1  0.749644  0.414470  0.414403  1
  Rh  Rh22  1  0.414336  0.749843  0.414363  1
  Rh  Rh23  1  0.414403  0.414490  0.749630  1
