# generated using pymatgen
data_DyNp5(Sb4Au3)2
_symmetry_space_group_name_H-M   'P 1'
_cell_length_a   8.70890481
_cell_length_b   8.70890552
_cell_length_c   8.70890503
_cell_angle_alpha   109.23806570
_cell_angle_beta   109.58792339
_cell_angle_gamma   109.58793060
_symmetry_Int_Tables_number   1
_chemical_formula_structural   DyNp5(Sb4Au3)2
_chemical_formula_sum   'Dy1 Np5 Sb8 Au6'
_cell_volume   508.46768873
_cell_formula_units_Z   1
loop_
 _symmetry_equiv_pos_site_id
 _symmetry_equiv_pos_as_xyz
  1  'x, y, z'
loop_
 _atom_site_type_symbol
 _atom_site_label
 _atom_site_symmetry_multiplicity
 _atom_site_fract_x
 _atom_site_fract_y
 _atom_site_fract_z
 _atom_site_occupancy
  Dy  Dy0  1  0.750000  0.375000  0.625000  1
  Np  Np1  1  0.375550  0.624167  0.748819  1
  Np  Np2  1  0.124450  0.873269  0.248617  1
  Np  Np3  1  0.624652  0.751383  0.375833  1
  Np  Np4  1  0.250000  0.125000  0.875000  1
  Np  Np5  1  0.875348  0.251181  0.126731  1
  Sb  Sb6  1  0.176204  0.498578  0.999111  1
  Sb  Sb7  1  0.323796  0.322906  0.322373  1
  Sb  Sb8  1  0.003812  0.176995  0.499852  1
  Sb  Sb9  1  0.496188  0.996040  0.173183  1
  Sb  Sb10  1  0.677143  0.500148  0.003960  1
  Sb  Sb11  1  0.822857  0.826817  0.823005  1
  Sb  Sb12  1  0.499467  0.000889  0.677094  1
  Sb  Sb13  1  0.000533  0.677627  0.501422  1
  Au  Au14  1  0.871749  0.130242  0.747685  1
  Au  Au15  1  0.628251  0.375937  0.258493  1
  Au  Au16  1  0.117443  0.741507  0.869758  1
  Au  Au17  1  0.250000  0.625000  0.375000  1
  Au  Au18  1  0.382557  0.252315  0.624063  1
  Au  Au19  1  0.750000  0.875000  0.125000  1
