# generated using pymatgen
data_Dy19Er(Ir5Pt)2
_symmetry_space_group_name_H-M   'P 1'
_cell_length_a   10.93410973
_cell_length_b   10.93781002
_cell_length_c   6.34126701
_cell_angle_alpha   90.00465686
_cell_angle_beta   89.95506863
_cell_angle_gamma   90.00408850
_symmetry_Int_Tables_number   1
_chemical_formula_structural   Dy19Er(Ir5Pt)2
_chemical_formula_sum   'Dy19 Er1 Ir10 Pt2'
_cell_volume   758.38495367
_cell_formula_units_Z   1
loop_
 _symmetry_equiv_pos_site_id
 _symmetry_equiv_pos_as_xyz
  1  'x, y, z'
loop_
 _atom_site_type_symbol
 _atom_site_label
 _atom_site_symmetry_multiplicity
 _atom_site_fract_x
 _atom_site_fract_y
 _atom_site_fract_z
 _atom_site_occupancy
  Dy  Dy0  1  0.291266  0.088170  0.375840  1
  Dy  Dy1  1  0.291261  0.911865  0.875901  1
  Dy  Dy2  1  0.705545  0.089796  0.874073  1
  Dy  Dy3  1  0.705551  0.910183  0.373989  1
  Dy  Dy4  1  0.584694  0.790849  0.878050  1
  Dy  Dy5  1  0.584676  0.209271  0.378161  1
  Dy  Dy6  1  0.411139  0.791151  0.377244  1
  Dy  Dy7  1  0.411135  0.208720  0.877157  1
  Dy  Dy8  1  0.209101  0.411724  0.622516  1
  Dy  Dy9  1  0.208957  0.588311  0.122587  1
  Dy  Dy10  1  0.790813  0.414552  0.122939  1
  Dy  Dy11  1  0.790676  0.585378  0.622833  1
  Dy  Dy12  1  0.913506  0.707154  0.126653  1
  Dy  Dy13  1  0.913478  0.292846  0.626694  1
  Dy  Dy14  1  0.091187  0.706984  0.622837  1
  Dy  Dy15  1  0.091107  0.293023  0.122746  1
  Dy  Dy16  1  0.002806  0.999675  0.500035  1
  Dy  Dy17  1  0.002783  0.000331  0.999969  1
  Dy  Dy18  1  0.499882  0.499612  0.999926  1
  Er  Er19  1  0.499864  0.500377  0.499910  1
  Ir  Ir20  1  0.152960  0.153794  0.750119  1
  Ir  Ir21  1  0.152941  0.846176  0.250100  1
  Ir  Ir22  1  0.654602  0.345989  0.749228  1
  Ir  Ir23  1  0.654621  0.654014  0.250034  1
  Ir  Ir24  1  0.346771  0.346461  0.250642  1
  Ir  Ir25  1  0.346796  0.653560  0.749833  1
  Ir  Ir26  1  0.500835  0.999807  0.122715  1
  Ir  Ir27  1  0.500832  0.000214  0.622741  1
  Ir  Ir28  1  0.999522  0.500100  0.877495  1
  Ir  Ir29  1  0.999526  0.499888  0.377505  1
  Pt  Pt30  1  0.845605  0.153553  0.249751  1
  Pt  Pt31  1  0.845561  0.846470  0.749775  1
