# generated using pymatgen
data_AcEr(SnIr)2
_symmetry_space_group_name_H-M   'P 1'
_cell_length_a   7.60271600
_cell_length_b   7.60261848
_cell_length_c   8.27921700
_cell_angle_alpha   90.00013701
_cell_angle_beta   89.99989215
_cell_angle_gamma   120.00010904
_symmetry_Int_Tables_number   1
_chemical_formula_structural   AcEr(SnIr)2
_chemical_formula_sum   'Ac3 Er3 Sn6 Ir6'
_cell_volume   414.43018986
_cell_formula_units_Z   3
loop_
 _symmetry_equiv_pos_site_id
 _symmetry_equiv_pos_as_xyz
  1  'x, y, z'
loop_
 _atom_site_type_symbol
 _atom_site_label
 _atom_site_symmetry_multiplicity
 _atom_site_fract_x
 _atom_site_fract_y
 _atom_site_fract_z
 _atom_site_occupancy
  Ac  Ac0  1  0.588895  0.588924  0.750001  1
  Ac  Ac1  1  0.000038  0.411114  0.749991  1
  Ac  Ac2  1  0.411093  0.999980  0.750013  1
  Er  Er3  1  0.399508  0.999681  0.249976  1
  Er  Er4  1  0.600177  0.600447  0.250011  1
  Er  Er5  1  0.000293  0.399807  0.249984  1
  Sn  Sn6  1  0.256606  0.256438  0.483764  1
  Sn  Sn7  1  0.256603  0.256437  0.016236  1
  Sn  Sn8  1  0.743569  0.000174  0.016242  1
  Sn  Sn9  1  0.999825  0.743412  0.483771  1
  Sn  Sn10  1  0.743566  0.000174  0.483765  1
  Sn  Sn11  1  0.999820  0.743399  0.016226  1
  Ir  Ir12  1  0.666659  0.333335  0.471735  1
  Ir  Ir13  1  0.666681  0.333340  0.028280  1
  Ir  Ir14  1  0.333331  0.666671  0.027805  1
  Ir  Ir15  1  0.333333  0.666674  0.472197  1
  Ir  Ir16  1  0.000003  0.999989  0.750002  1
  Ir  Ir17  1  0.999998  0.000005  0.250001  1
