# generated using pymatgen
data_Sr2Ca3(SnAs3)2
_symmetry_space_group_name_H-M   'P 1'
_cell_length_a   4.23946900
_cell_length_b   12.19391400
_cell_length_c   13.83198600
_cell_angle_alpha   90.00000000
_cell_angle_beta   90.00000000
_cell_angle_gamma   90.00000000
_symmetry_Int_Tables_number   1
_chemical_formula_structural   Sr2Ca3(SnAs3)2
_chemical_formula_sum   'Sr4 Ca6 Sn4 As12'
_cell_volume   715.05448072
_cell_formula_units_Z   2
loop_
 _symmetry_equiv_pos_site_id
 _symmetry_equiv_pos_as_xyz
  1  'x, y, z'
loop_
 _atom_site_type_symbol
 _atom_site_label
 _atom_site_symmetry_multiplicity
 _atom_site_fract_x
 _atom_site_fract_y
 _atom_site_fract_z
 _atom_site_occupancy
  Sr  Sr0  1  0.000000  0.867026  0.434583  1
  Sr  Sr1  1  0.000000  0.132974  0.565417  1
  Sr  Sr2  1  0.000000  0.367026  0.065417  1
  Sr  Sr3  1  0.000000  0.632974  0.934583  1
  Ca  Ca4  1  0.000000  0.622176  0.257957  1
  Ca  Ca5  1  0.000000  0.377824  0.742043  1
  Ca  Ca6  1  0.000000  0.122176  0.242043  1
  Ca  Ca7  1  0.000000  0.877824  0.757957  1
  Ca  Ca8  1  0.000000  0.500000  0.500000  1
  Ca  Ca9  1  0.000000  0.000000  0.000000  1
  Sn  Sn10  1  0.500000  0.789369  0.104737  1
  Sn  Sn11  1  0.500000  0.210631  0.895263  1
  Sn  Sn12  1  0.500000  0.289369  0.395263  1
  Sn  Sn13  1  0.500000  0.710631  0.604737  1
  As  As14  1  0.500000  0.574107  0.112327  1
  As  As15  1  0.500000  0.425893  0.887673  1
  As  As16  1  0.500000  0.074107  0.387673  1
  As  As17  1  0.500000  0.925893  0.612327  1
  As  As18  1  0.500000  0.660414  0.417487  1
  As  As19  1  0.500000  0.339586  0.582513  1
  As  As20  1  0.500000  0.160414  0.082513  1
  As  As21  1  0.500000  0.839586  0.917487  1
  As  As22  1  0.000000  0.874104  0.197809  1
  As  As23  1  0.000000  0.125896  0.802191  1
  As  As24  1  0.000000  0.374104  0.302191  1
  As  As25  1  0.000000  0.625896  0.697809  1
