# generated using pymatgen
data_Tb8VGa24
_symmetry_space_group_name_H-M   'P 1'
_cell_length_a   8.58819400
_cell_length_b   8.58819400
_cell_length_c   8.58819400
_cell_angle_alpha   90.00000000
_cell_angle_beta   90.00000000
_cell_angle_gamma   90.00000000
_symmetry_Int_Tables_number   1
_chemical_formula_structural   Tb8VGa24
_chemical_formula_sum   'Tb8 V1 Ga24'
_cell_volume   633.44007912
_cell_formula_units_Z   1
loop_
 _symmetry_equiv_pos_site_id
 _symmetry_equiv_pos_as_xyz
  1  'x, y, z'
loop_
 _atom_site_type_symbol
 _atom_site_label
 _atom_site_symmetry_multiplicity
 _atom_site_fract_x
 _atom_site_fract_y
 _atom_site_fract_z
 _atom_site_occupancy
  Tb  Tb0  1  0.247365  0.247365  0.247365  1
  Tb  Tb1  1  0.752635  0.752635  0.752635  1
  Tb  Tb2  1  0.752635  0.752635  0.247365  1
  Tb  Tb3  1  0.752635  0.247365  0.752635  1
  Tb  Tb4  1  0.247365  0.247365  0.752635  1
  Tb  Tb5  1  0.247365  0.752635  0.247365  1
  Tb  Tb6  1  0.247365  0.752635  0.752635  1
  Tb  Tb7  1  0.752635  0.247365  0.247365  1
  V  V8  1  0.000000  0.000000  0.000000  1
  Ga  Ga9  1  0.254800  0.500000  0.000000  1
  Ga  Ga10  1  0.745200  0.500000  0.000000  1
  Ga  Ga11  1  0.000000  0.254800  0.500000  1
  Ga  Ga12  1  0.500000  0.254800  0.000000  1
  Ga  Ga13  1  0.000000  0.745200  0.500000  1
  Ga  Ga14  1  0.500000  0.745200  0.000000  1
  Ga  Ga15  1  0.500000  0.000000  0.254800  1
  Ga  Ga16  1  0.254800  0.000000  0.500000  1
  Ga  Ga17  1  0.500000  0.000000  0.745200  1
  Ga  Ga18  1  0.745200  0.000000  0.500000  1
  Ga  Ga19  1  0.000000  0.500000  0.254800  1
  Ga  Ga20  1  0.000000  0.500000  0.745200  1
  Ga  Ga21  1  0.250534  0.500000  0.500000  1
  Ga  Ga22  1  0.749466  0.500000  0.500000  1
  Ga  Ga23  1  0.500000  0.250534  0.500000  1
  Ga  Ga24  1  0.500000  0.749466  0.500000  1
  Ga  Ga25  1  0.500000  0.500000  0.250534  1
  Ga  Ga26  1  0.500000  0.500000  0.749466  1
  Ga  Ga27  1  0.289169  0.000000  0.000000  1
  Ga  Ga28  1  0.710831  0.000000  0.000000  1
  Ga  Ga29  1  0.000000  0.289169  0.000000  1
  Ga  Ga30  1  0.000000  0.710831  0.000000  1
  Ga  Ga31  1  0.000000  0.000000  0.289169  1
  Ga  Ga32  1  0.000000  0.000000  0.710831  1
