# generated using pymatgen
data_Y2Hf5(ZrSn2)3
_symmetry_space_group_name_H-M   'P 1'
_cell_length_a   8.65152182
_cell_length_b   8.66958052
_cell_length_c   5.86222800
_cell_angle_alpha   90.00000000
_cell_angle_beta   90.00000000
_cell_angle_gamma   121.31293392
_symmetry_Int_Tables_number   1
_chemical_formula_structural   Y2Hf5(ZrSn2)3
_chemical_formula_sum   'Y2 Hf5 Zr3 Sn6'
_cell_volume   375.65123152
_cell_formula_units_Z   1
loop_
 _symmetry_equiv_pos_site_id
 _symmetry_equiv_pos_as_xyz
  1  'x, y, z'
loop_
 _atom_site_type_symbol
 _atom_site_label
 _atom_site_symmetry_multiplicity
 _atom_site_fract_x
 _atom_site_fract_y
 _atom_site_fract_z
 _atom_site_occupancy
  Y  Y0  1  0.770856  0.770410  0.750000  1
  Y  Y1  1  0.229581  0.229523  0.250000  1
  Hf  Hf2  1  0.000032  0.746839  0.250000  1
  Hf  Hf3  1  0.665599  0.333568  0.000006  1
  Hf  Hf4  1  0.334580  0.666108  0.000007  1
  Hf  Hf5  1  0.334580  0.666108  0.499993  1
  Hf  Hf6  1  0.665599  0.333568  0.499994  1
  Zr  Zr7  1  0.251309  0.999409  0.750000  1
  Zr  Zr8  1  0.000110  0.254285  0.750000  1
  Zr  Zr9  1  0.748122  0.999871  0.250000  1
  Sn  Sn10  1  0.391316  0.391396  0.750000  1
  Sn  Sn11  1  0.605511  0.003187  0.750000  1
  Sn  Sn12  1  0.003016  0.605722  0.750000  1
  Sn  Sn13  1  0.609538  0.608738  0.250000  1
  Sn  Sn14  1  0.393424  0.995893  0.250000  1
  Sn  Sn15  1  0.996827  0.395371  0.250000  1
