# generated using pymatgen
data_Sr6ErTl(RhO6)2
_symmetry_space_group_name_H-M   'P 1'
_cell_length_a   6.86397042
_cell_length_b   6.86397104
_cell_length_c   6.86397133
_cell_angle_alpha   90.92757630
_cell_angle_beta   90.92757802
_cell_angle_gamma   90.92757913
_symmetry_Int_Tables_number   1
_chemical_formula_structural   Sr6ErTl(RhO6)2
_chemical_formula_sum   'Sr6 Er1 Tl1 Rh2 O12'
_cell_volume   323.26126751
_cell_formula_units_Z   1
loop_
 _symmetry_equiv_pos_site_id
 _symmetry_equiv_pos_as_xyz
  1  'x, y, z'
loop_
 _atom_site_type_symbol
 _atom_site_label
 _atom_site_symmetry_multiplicity
 _atom_site_fract_x
 _atom_site_fract_y
 _atom_site_fract_z
 _atom_site_occupancy
  Sr  Sr0  1  0.617390  0.882609  0.250000  1
  Sr  Sr1  1  0.250000  0.617390  0.882609  1
  Sr  Sr2  1  0.882609  0.250001  0.617390  1
  Sr  Sr3  1  0.380083  0.119917  0.749999  1
  Sr  Sr4  1  0.750000  0.380083  0.119917  1
  Sr  Sr5  1  0.119918  0.749999  0.380083  1
  Er  Er6  1  0.750000  0.750000  0.750000  1
  Tl  Tl7  1  0.250000  0.250000  0.250000  1
  Rh  Rh8  1  0.994227  0.994227  0.994227  1
  Rh  Rh9  1  0.505774  0.505774  0.505774  1
  O  O10  1  0.282572  0.949185  0.083763  1
  O  O11  1  0.083763  0.282572  0.949185  1
  O  O12  1  0.949184  0.083763  0.282573  1
  O  O13  1  0.550815  0.217427  0.416237  1
  O  O14  1  0.217428  0.416237  0.550815  1
  O  O15  1  0.416238  0.550814  0.217427  1
  O  O16  1  0.703623  0.039657  0.905559  1
  O  O17  1  0.905560  0.703623  0.039657  1
  O  O18  1  0.039657  0.905560  0.703622  1
  O  O19  1  0.460343  0.796378  0.594440  1
  O  O20  1  0.796377  0.594440  0.460343  1
  O  O21  1  0.594439  0.460343  0.796377  1
