# generated using pymatgen
data_Hf3ZrPd11Rh
_symmetry_space_group_name_H-M   'P 1'
_cell_length_a   5.65703100
_cell_length_b   5.69248687
_cell_length_c   9.27708802
_cell_angle_alpha   89.30133518
_cell_angle_beta   90.00000000
_cell_angle_gamma   119.79416883
_symmetry_Int_Tables_number   1
_chemical_formula_structural   Hf3ZrPd11Rh
_chemical_formula_sum   'Hf3 Zr1 Pd11 Rh1'
_cell_volume   259.23107712
_cell_formula_units_Z   1
loop_
 _symmetry_equiv_pos_site_id
 _symmetry_equiv_pos_as_xyz
  1  'x, y, z'
loop_
 _atom_site_type_symbol
 _atom_site_label
 _atom_site_symmetry_multiplicity
 _atom_site_fract_x
 _atom_site_fract_y
 _atom_site_fract_z
 _atom_site_occupancy
  Hf  Hf0  1  0.663121  0.326242  0.755487  1
  Hf  Hf1  1  0.336879  0.673758  0.244513  1
  Hf  Hf2  1  0.000000  0.000000  0.500000  1
  Zr  Zr3  1  0.000000  0.000000  0.000000  1
  Pd  Pd4  1  0.168149  0.336297  0.748591  1
  Pd  Pd5  1  0.831851  0.171330  0.251167  1
  Pd  Pd6  1  0.339478  0.171330  0.251167  1
  Pd  Pd7  1  0.660522  0.828670  0.748833  1
  Pd  Pd8  1  0.500000  0.500000  0.500000  1
  Pd  Pd9  1  0.000000  0.500000  0.500000  1
  Pd  Pd10  1  0.000000  0.500000  0.000000  1
  Pd  Pd11  1  0.500000  0.500000  0.000000  1
  Pd  Pd12  1  0.500000  0.000000  0.500000  1
  Pd  Pd13  1  0.831851  0.663703  0.251409  1
  Pd  Pd14  1  0.168149  0.828670  0.748833  1
  Rh  Rh15  1  0.500000  0.000000  0.000000  1
