# generated using pymatgen
data_Hf4ZnAsH2
_symmetry_space_group_name_H-M   'P 1'
_cell_length_a   5.41086350
_cell_length_b   5.41086679
_cell_length_c   5.41086203
_cell_angle_alpha   105.07400856
_cell_angle_beta   105.07402725
_cell_angle_gamma   118.67666792
_symmetry_Int_Tables_number   1
_chemical_formula_structural   Hf4ZnAsH2
_chemical_formula_sum   'Hf4 Zn1 As1 H2'
_cell_volume   119.55423970
_cell_formula_units_Z   1
loop_
 _symmetry_equiv_pos_site_id
 _symmetry_equiv_pos_as_xyz
  1  'x, y, z'
loop_
 _atom_site_type_symbol
 _atom_site_label
 _atom_site_symmetry_multiplicity
 _atom_site_fract_x
 _atom_site_fract_y
 _atom_site_fract_z
 _atom_site_occupancy
  Hf  Hf0  1  0.161929  0.661929  0.823858  1
  Hf  Hf1  1  0.838071  0.338071  0.176143  1
  Hf  Hf2  1  0.338071  0.161929  0.500000  1
  Hf  Hf3  1  0.661929  0.838071  0.500000  1
  Zn  Zn4  1  0.250000  0.250000  0.000000  1
  As  As5  1  0.750000  0.750000  0.000000  1
  H  H6  1  0.750000  0.250000  0.500000  1
  H  H7  1  0.250000  0.750000  0.500000  1
