# generated using pymatgen
data_CaLa(CeCu12)2
_symmetry_space_group_name_H-M   'P 1'
_cell_length_a   5.06316100
_cell_length_b   8.05864071
_cell_length_c   10.10730290
_cell_angle_alpha   90.04831374
_cell_angle_beta   90.00000000
_cell_angle_gamma   90.00000000
_symmetry_Int_Tables_number   1
_chemical_formula_structural   CaLa(CeCu12)2
_chemical_formula_sum   'Ca1 La1 Ce2 Cu24'
_cell_volume   412.40000108
_cell_formula_units_Z   1
loop_
 _symmetry_equiv_pos_site_id
 _symmetry_equiv_pos_as_xyz
  1  'x, y, z'
loop_
 _atom_site_type_symbol
 _atom_site_label
 _atom_site_symmetry_multiplicity
 _atom_site_fract_x
 _atom_site_fract_y
 _atom_site_fract_z
 _atom_site_occupancy
  Ca  Ca0  1  0.000000  0.759485  0.686048  1
  La  La1  1  0.000000  0.259618  0.311360  1
  Ce  Ce2  1  0.500000  0.241132  0.817160  1
  Ce  Ce3  1  0.500000  0.740705  0.184107  1
  Cu  Cu4  1  0.500000  0.354433  0.105759  1
  Cu  Cu5  1  0.500000  0.852602  0.893569  1
  Cu  Cu6  1  0.000000  0.648619  0.393394  1
  Cu  Cu7  1  0.000000  0.146021  0.608760  1
  Cu  Cu8  1  0.500000  0.682591  0.495002  1
  Cu  Cu9  1  0.500000  0.182565  0.507902  1
  Cu  Cu10  1  0.000000  0.317133  0.003723  1
  Cu  Cu11  1  0.000000  0.817470  0.992903  1
  Cu  Cu12  1  0.500000  0.935939  0.655327  1
  Cu  Cu13  1  0.500000  0.441049  0.345767  1
  Cu  Cu14  1  0.000000  0.061894  0.844787  1
  Cu  Cu15  1  0.000000  0.566469  0.153007  1
  Cu  Cu16  1  0.500000  0.603437  0.733177  1
  Cu  Cu17  1  0.500000  0.095673  0.266462  1
  Cu  Cu18  1  0.000000  0.400438  0.766472  1
  Cu  Cu19  1  0.000000  0.896945  0.233259  1
  Cu  Cu20  1  0.743334  0.063542  0.057232  1
  Cu  Cu21  1  0.256108  0.564482  0.941225  1
  Cu  Cu22  1  0.245148  0.933419  0.442008  1
  Cu  Cu23  1  0.754777  0.436447  0.560561  1
  Cu  Cu24  1  0.754852  0.933419  0.442008  1
  Cu  Cu25  1  0.245223  0.436447  0.560561  1
  Cu  Cu26  1  0.256666  0.063542  0.057232  1
  Cu  Cu27  1  0.743892  0.564482  0.941225  1
