# generated using pymatgen
data_Yb20Rh3Au
_symmetry_space_group_name_H-M   'P 1'
_cell_length_a   6.72793903
_cell_length_b   7.43018768
_cell_length_c   15.91307700
_cell_angle_alpha   90.00000000
_cell_angle_beta   90.00000000
_cell_angle_gamma   89.86656777
_symmetry_Int_Tables_number   1
_chemical_formula_structural   Yb20Rh3Au
_chemical_formula_sum   'Yb20 Rh3 Au1'
_cell_volume   795.49016986
_cell_formula_units_Z   1
loop_
 _symmetry_equiv_pos_site_id
 _symmetry_equiv_pos_as_xyz
  1  'x, y, z'
loop_
 _atom_site_type_symbol
 _atom_site_label
 _atom_site_symmetry_multiplicity
 _atom_site_fract_x
 _atom_site_fract_y
 _atom_site_fract_z
 _atom_site_occupancy
  Yb  Yb0  1  0.352281  0.311087  0.059240  1
  Yb  Yb1  1  0.644296  0.689478  0.933669  1
  Yb  Yb2  1  0.855182  0.190422  0.934554  1
  Yb  Yb3  1  0.644296  0.689478  0.566331  1
  Yb  Yb4  1  0.149198  0.812675  0.062384  1
  Yb  Yb5  1  0.352281  0.311087  0.440760  1
  Yb  Yb6  1  0.149198  0.812675  0.437616  1
  Yb  Yb7  1  0.855182  0.190422  0.565446  1
  Yb  Yb8  1  0.140752  0.090553  0.250000  1
  Yb  Yb9  1  0.843430  0.907387  0.750000  1
  Yb  Yb10  1  0.656113  0.406147  0.750000  1
  Yb  Yb11  1  0.336203  0.605916  0.250000  1
  Yb  Yb12  1  0.323018  0.035017  0.647013  1
  Yb  Yb13  1  0.677851  0.951007  0.358513  1
  Yb  Yb14  1  0.833151  0.470540  0.357896  1
  Yb  Yb15  1  0.677851  0.951007  0.141487  1
  Yb  Yb16  1  0.176591  0.535529  0.646877  1
  Yb  Yb17  1  0.323018  0.035017  0.852987  1
  Yb  Yb18  1  0.176591  0.535529  0.853123  1
  Yb  Yb19  1  0.833151  0.470540  0.142104  1
  Rh  Rh20  1  0.466321  0.740428  0.750000  1
  Rh  Rh21  1  0.034137  0.240381  0.750000  1
  Rh  Rh22  1  0.957605  0.759884  0.250000  1
  Au  Au23  1  0.542305  0.257791  0.250000  1
