# generated using pymatgen
data_Er2PaRu3
_symmetry_space_group_name_H-M   'P 1'
_cell_length_a   5.27373099
_cell_length_b   5.27373026
_cell_length_c   5.27373112
_cell_angle_alpha   67.25982407
_cell_angle_beta   67.25982244
_cell_angle_gamma   67.25982728
_symmetry_Int_Tables_number   1
_chemical_formula_structural   Er2PaRu3
_chemical_formula_sum   'Er2 Pa1 Ru3'
_cell_volume   119.81145643
_cell_formula_units_Z   1
loop_
 _symmetry_equiv_pos_site_id
 _symmetry_equiv_pos_as_xyz
  1  'x, y, z'
loop_
 _atom_site_type_symbol
 _atom_site_label
 _atom_site_symmetry_multiplicity
 _atom_site_fract_x
 _atom_site_fract_y
 _atom_site_fract_z
 _atom_site_occupancy
  Er  Er0  1  0.627246  0.627246  0.627246  1
  Er  Er1  1  0.372754  0.372754  0.372754  1
  Pa  Pa2  1  0.000000  0.000000  0.000000  1
  Ru  Ru3  1  0.000000  0.500000  0.000000  1
  Ru  Ru4  1  0.500000  0.000000  0.000000  1
  Ru  Ru5  1  0.000000  0.000000  0.500000  1
