# generated using pymatgen
data_Tb2SmSbO7
_symmetry_space_group_name_H-M   'P 1'
_cell_length_a   6.52706438
_cell_length_b   6.52706474
_cell_length_c   7.60836800
_cell_angle_alpha   90.00000000
_cell_angle_beta   90.00000000
_cell_angle_gamma   109.31583666
_symmetry_Int_Tables_number   1
_chemical_formula_structural   Tb2SmSbO7
_chemical_formula_sum   'Tb4 Sm2 Sb2 O14'
_cell_volume   305.89028322
_cell_formula_units_Z   2
loop_
 _symmetry_equiv_pos_site_id
 _symmetry_equiv_pos_as_xyz
  1  'x, y, z'
loop_
 _atom_site_type_symbol
 _atom_site_label
 _atom_site_symmetry_multiplicity
 _atom_site_fract_x
 _atom_site_fract_y
 _atom_site_fract_z
 _atom_site_occupancy
  Tb  Tb0  1  0.531633  0.000136  0.750000  1
  Tb  Tb1  1  0.000136  0.531633  0.250000  1
  Tb  Tb2  1  0.468367  0.999864  0.250000  1
  Tb  Tb3  1  0.999864  0.468367  0.750000  1
  Sm  Sm4  1  0.500000  0.500000  0.500000  1
  Sm  Sm5  1  0.500000  0.500000  0.000000  1
  Sb  Sb6  1  0.000000  0.000000  0.500000  1
  Sb  Sb7  1  0.000000  0.000000  0.000000  1
  O  O8  1  0.679591  0.929834  0.471050  1
  O  O9  1  0.929834  0.679591  0.528950  1
  O  O10  1  0.679591  0.929834  0.028950  1
  O  O11  1  0.929834  0.679591  0.971050  1
  O  O12  1  0.320409  0.070166  0.528950  1
  O  O13  1  0.070166  0.320409  0.471050  1
  O  O14  1  0.320409  0.070166  0.971050  1
  O  O15  1  0.070166  0.320409  0.028950  1
  O  O16  1  0.932117  0.067883  0.750000  1
  O  O17  1  0.067883  0.932117  0.250000  1
  O  O18  1  0.367166  0.632834  0.750000  1
  O  O19  1  0.632834  0.367166  0.250000  1
  O  O20  1  0.639005  0.360995  0.750000  1
  O  O21  1  0.360995  0.639005  0.250000  1
