# generated using pymatgen
data_Tm8ReOsI8
_symmetry_space_group_name_H-M   'P 1'
_cell_length_a   11.30490002
_cell_length_b   11.30490073
_cell_length_c   6.11515810
_cell_angle_alpha   89.28333436
_cell_angle_beta   89.28334033
_cell_angle_gamma   88.75132153
_symmetry_Int_Tables_number   1
_chemical_formula_structural   Tm8ReOsI8
_chemical_formula_sum   'Tm8 Re1 Os1 I8'
_cell_volume   781.21670219
_cell_formula_units_Z   1
loop_
 _symmetry_equiv_pos_site_id
 _symmetry_equiv_pos_as_xyz
  1  'x, y, z'
loop_
 _atom_site_type_symbol
 _atom_site_label
 _atom_site_symmetry_multiplicity
 _atom_site_fract_x
 _atom_site_fract_y
 _atom_site_fract_z
 _atom_site_occupancy
  Tm  Tm0  1  0.195877  0.917451  0.996623  1
  Tm  Tm1  1  0.804103  0.082585  0.006139  1
  Tm  Tm2  1  0.082549  0.804123  0.503377  1
  Tm  Tm3  1  0.917415  0.195897  0.493861  1
  Tm  Tm4  1  0.806433  0.922098  0.505076  1
  Tm  Tm5  1  0.193691  0.078000  0.492137  1
  Tm  Tm6  1  0.077902  0.193567  0.994924  1
  Tm  Tm7  1  0.922000  0.806309  0.007863  1
  Re  Re8  1  0.000283  0.999717  0.250000  1
  Os  Os9  1  0.999723  0.000277  0.750000  1
  I  I10  1  0.356647  0.848524  0.511604  1
  I  I11  1  0.643302  0.151432  0.489136  1
  I  I12  1  0.151476  0.643353  0.988396  1
  I  I13  1  0.848568  0.356698  0.010864  1
  I  I14  1  0.352433  0.144689  0.995616  1
  I  I15  1  0.647599  0.855315  0.003699  1
  I  I16  1  0.855311  0.647567  0.504384  1
  I  I17  1  0.144685  0.352401  0.496301  1
