# generated using pymatgen
data_Cs2Sn(AuSe2)2
_symmetry_space_group_name_H-M   'P 1'
_cell_length_a   15.13882014
_cell_length_b   13.48306722
_cell_length_c   8.30936501
_cell_angle_alpha   84.45415639
_cell_angle_beta   62.43169664
_cell_angle_gamma   33.11414674
_symmetry_Int_Tables_number   1
_chemical_formula_structural   Cs2Sn(AuSe2)2
_chemical_formula_sum   'Cs4 Sn2 Au4 Se8'
_cell_volume   656.56143781
_cell_formula_units_Z   2
loop_
 _symmetry_equiv_pos_site_id
 _symmetry_equiv_pos_as_xyz
  1  'x, y, z'
loop_
 _atom_site_type_symbol
 _atom_site_label
 _atom_site_symmetry_multiplicity
 _atom_site_fract_x
 _atom_site_fract_y
 _atom_site_fract_z
 _atom_site_occupancy
  Cs  Cs0  1  0.179708  0.179708  0.820292  1
  Cs  Cs1  1  0.070292  0.070292  0.429708  1
  Cs  Cs2  1  0.820292  0.820292  0.179708  1
  Cs  Cs3  1  0.429708  0.429708  0.070292  1
  Sn  Sn4  1  0.250000  0.250000  0.250000  1
  Sn  Sn5  1  0.000000  0.000000  0.000000  1
  Au  Au6  1  0.439148  0.439148  0.560852  1
  Au  Au7  1  0.689148  0.689148  0.810852  1
  Au  Au8  1  0.810852  0.810852  0.689148  1
  Au  Au9  1  0.560852  0.560852  0.439148  1
  Se  Se10  1  0.050829  0.831687  0.745554  1
  Se  Se11  1  0.878071  0.504446  0.418313  1
  Se  Se12  1  0.745554  0.371929  0.050829  1
  Se  Se13  1  0.504446  0.878071  0.199171  1
  Se  Se14  1  0.418313  0.199171  0.878071  1
  Se  Se15  1  0.199171  0.418313  0.504446  1
  Se  Se16  1  0.371929  0.745554  0.831687  1
  Se  Se17  1  0.831687  0.050829  0.371929  1
