# generated using pymatgen
data_Dy3Er10Tm7Sn16
_symmetry_space_group_name_H-M   'P 1'
_cell_length_a   7.98133736
_cell_length_b   8.10117723
_cell_length_c   15.33209194
_cell_angle_alpha   89.96095403
_cell_angle_beta   90.07682839
_cell_angle_gamma   89.96868016
_symmetry_Int_Tables_number   1
_chemical_formula_structural   Dy3Er10Tm7Sn16
_chemical_formula_sum   'Dy3 Er10 Tm7 Sn16'
_cell_volume   991.34463381
_cell_formula_units_Z   1
loop_
 _symmetry_equiv_pos_site_id
 _symmetry_equiv_pos_as_xyz
  1  'x, y, z'
loop_
 _atom_site_type_symbol
 _atom_site_label
 _atom_site_symmetry_multiplicity
 _atom_site_fract_x
 _atom_site_fract_y
 _atom_site_fract_z
 _atom_site_occupancy
  Dy  Dy0  1  0.979673  0.820915  0.403717  1
  Dy  Dy1  1  0.520392  0.321046  0.596071  1
  Dy  Dy2  1  0.020849  0.178668  0.903493  1
  Er  Er3  1  0.132389  0.337851  0.122488  1
  Er  Er4  1  0.631763  0.162273  0.122854  1
  Er  Er5  1  0.132371  0.337942  0.377278  1
  Er  Er6  1  0.367875  0.837888  0.623078  1
  Er  Er7  1  0.868474  0.661999  0.877257  1
  Er  Er8  1  0.522261  0.321581  0.902935  1
  Er  Er9  1  0.022032  0.179085  0.597082  1
  Er  Er10  1  0.478562  0.679279  0.403535  1
  Er  Er11  1  0.977773  0.820767  0.097012  1
  Er  Er12  1  0.478175  0.678794  0.096358  1
  Tm  Tm13  1  0.367685  0.837860  0.876835  1
  Tm  Tm14  1  0.866757  0.661973  0.623040  1
  Tm  Tm15  1  0.633030  0.161767  0.376888  1
  Tm  Tm16  1  0.198652  0.504228  0.750183  1
  Tm  Tm17  1  0.698711  0.995777  0.749943  1
  Tm  Tm18  1  0.801312  0.495993  0.249994  1
  Tm  Tm19  1  0.301568  0.004114  0.249749  1
  Sn  Sn20  1  0.292962  0.036107  0.041542  1
  Sn  Sn21  1  0.792801  0.462166  0.458406  1
  Sn  Sn22  1  0.707631  0.962584  0.541770  1
  Sn  Sn23  1  0.208440  0.537972  0.958257  1
  Sn  Sn24  1  0.705206  0.961390  0.958502  1
  Sn  Sn25  1  0.204608  0.538825  0.541518  1
  Sn  Sn26  1  0.294877  0.038645  0.458670  1
  Sn  Sn27  1  0.792246  0.462515  0.041629  1
  Sn  Sn28  1  0.564846  0.618998  0.750137  1
  Sn  Sn29  1  0.064327  0.880908  0.750003  1
  Sn  Sn30  1  0.435706  0.382018  0.250399  1
  Sn  Sn31  1  0.935659  0.118444  0.249976  1
  Sn  Sn32  1  0.332517  0.149825  0.750278  1
  Sn  Sn33  1  0.831964  0.349936  0.749518  1
  Sn  Sn34  1  0.667134  0.850115  0.250080  1
  Sn  Sn35  1  0.168771  0.649752  0.249526  1
