# generated using pymatgen
data_Li3La2TmPt3
_symmetry_space_group_name_H-M   'P 1'
_cell_length_a   7.28694139
_cell_length_b   7.32495367
_cell_length_c   4.14356000
_cell_angle_alpha   90.00000000
_cell_angle_beta   90.00000000
_cell_angle_gamma   120.17268542
_symmetry_Int_Tables_number   1
_chemical_formula_structural   Li3La2TmPt3
_chemical_formula_sum   'Li3 La2 Tm1 Pt3'
_cell_volume   191.20360494
_cell_formula_units_Z   1
loop_
 _symmetry_equiv_pos_site_id
 _symmetry_equiv_pos_as_xyz
  1  'x, y, z'
loop_
 _atom_site_type_symbol
 _atom_site_label
 _atom_site_symmetry_multiplicity
 _atom_site_fract_x
 _atom_site_fract_y
 _atom_site_fract_z
 _atom_site_occupancy
  Li  Li0  1  0.777321  0.769163  0.500000  1
  Li  Li1  1  0.222679  0.991842  0.500000  1
  Li  Li2  1  0.000000  0.232078  0.500000  1
  La  La3  1  0.410787  0.412844  0.000000  1
  La  La4  1  0.589213  0.002056  0.000000  1
  Tm  Tm5  1  0.000000  0.594857  0.000000  1
  Pt  Pt6  1  0.000000  0.987079  0.000000  1
  Pt  Pt7  1  0.686682  0.348380  0.500000  1
  Pt  Pt8  1  0.313318  0.661699  0.500000  1
