# generated using pymatgen
data_Hf6Al4Si3Ni16
_symmetry_space_group_name_H-M   'P 1'
_cell_length_a   8.14445463
_cell_length_b   8.16208193
_cell_length_c   8.16208300
_cell_angle_alpha   59.99999971
_cell_angle_beta   59.92837834
_cell_angle_gamma   59.92838049
_symmetry_Int_Tables_number   1
_chemical_formula_structural   Hf6Al4Si3Ni16
_chemical_formula_sum   'Hf6 Al4 Si3 Ni16'
_cell_volume   383.24630252
_cell_formula_units_Z   1
loop_
 _symmetry_equiv_pos_site_id
 _symmetry_equiv_pos_as_xyz
  1  'x, y, z'
loop_
 _atom_site_type_symbol
 _atom_site_label
 _atom_site_symmetry_multiplicity
 _atom_site_fract_x
 _atom_site_fract_y
 _atom_site_fract_z
 _atom_site_occupancy
  Hf  Hf0  1  0.792794  0.205253  0.796700  1
  Hf  Hf1  1  0.792794  0.796700  0.205253  1
  Hf  Hf2  1  0.207206  0.794747  0.794747  1
  Hf  Hf3  1  0.207206  0.203300  0.794747  1
  Hf  Hf4  1  0.792794  0.205253  0.205253  1
  Hf  Hf5  1  0.207206  0.794747  0.203300  1
  Al  Al6  1  0.000000  0.500000  0.000000  1
  Al  Al7  1  0.500000  0.500000  0.500000  1
  Al  Al8  1  0.000000  0.500000  0.500000  1
  Al  Al9  1  0.000000  0.000000  0.500000  1
  Si  Si10  1  0.500000  0.500000  0.000000  1
  Si  Si11  1  0.500000  0.000000  0.500000  1
  Si  Si12  1  0.500000  0.000000  0.000000  1
  Ni  Ni13  1  0.173978  0.164296  0.164296  1
  Ni  Ni14  1  0.615777  0.622337  0.139550  1
  Ni  Ni15  1  0.384223  0.377663  0.377663  1
  Ni  Ni16  1  0.173978  0.497431  0.164296  1
  Ni  Ni17  1  0.173978  0.164296  0.497431  1
  Ni  Ni18  1  0.136349  0.621217  0.621217  1
  Ni  Ni19  1  0.615777  0.139550  0.622337  1
  Ni  Ni20  1  0.826022  0.835704  0.835704  1
  Ni  Ni21  1  0.863651  0.378783  0.378783  1
  Ni  Ni22  1  0.384223  0.377663  0.860450  1
  Ni  Ni23  1  0.384223  0.860450  0.377663  1
  Ni  Ni24  1  0.505072  0.831642  0.831642  1
  Ni  Ni25  1  0.615777  0.622337  0.622337  1
  Ni  Ni26  1  0.826022  0.835704  0.502569  1
  Ni  Ni27  1  0.494928  0.168358  0.168358  1
  Ni  Ni28  1  0.826022  0.502569  0.835704  1
