# generated using pymatgen
data_LuTa5NbSn6
_symmetry_space_group_name_H-M   'P 1'
_cell_length_a   5.78469300
_cell_length_b   5.78469244
_cell_length_c   9.57742900
_cell_angle_alpha   90.00000000
_cell_angle_beta   90.00000000
_cell_angle_gamma   120.01700526
_symmetry_Int_Tables_number   1
_chemical_formula_structural   LuTa5NbSn6
_chemical_formula_sum   'Lu1 Ta5 Nb1 Sn6'
_cell_volume   277.50174446
_cell_formula_units_Z   1
loop_
 _symmetry_equiv_pos_site_id
 _symmetry_equiv_pos_as_xyz
  1  'x, y, z'
loop_
 _atom_site_type_symbol
 _atom_site_label
 _atom_site_symmetry_multiplicity
 _atom_site_fract_x
 _atom_site_fract_y
 _atom_site_fract_z
 _atom_site_occupancy
  Lu  Lu0  1  0.000000  0.000000  0.999957  1
  Ta  Ta1  1  0.000000  0.500000  0.750882  1
  Ta  Ta2  1  0.500000  0.500000  0.750764  1
  Ta  Ta3  1  0.500000  0.000000  0.750882  1
  Ta  Ta4  1  0.000000  0.500000  0.249239  1
  Ta  Ta5  1  0.500000  0.000000  0.249239  1
  Nb  Nb6  1  0.500000  0.500000  0.249351  1
  Sn  Sn7  1  0.666868  0.333132  0.500007  1
  Sn  Sn8  1  0.333132  0.666868  0.500007  1
  Sn  Sn9  1  0.666686  0.333314  0.000044  1
  Sn  Sn10  1  0.333314  0.666686  0.000044  1
  Sn  Sn11  1  0.000000  0.000000  0.668757  1
  Sn  Sn12  1  0.000000  0.000000  0.330825  1
