# generated using pymatgen
data_Tb15YIn6FeCo
_symmetry_space_group_name_H-M   'P 1'
_cell_length_a   10.43280100
_cell_length_b   10.43280151
_cell_length_c   7.07403500
_cell_angle_alpha   90.00000000
_cell_angle_beta   90.00000000
_cell_angle_gamma   120.00000155
_symmetry_Int_Tables_number   1
_chemical_formula_structural   Tb15YIn6FeCo
_chemical_formula_sum   'Tb15 Y1 In6 Fe1 Co1'
_cell_volume   666.80630472
_cell_formula_units_Z   1
loop_
 _symmetry_equiv_pos_site_id
 _symmetry_equiv_pos_as_xyz
  1  'x, y, z'
loop_
 _atom_site_type_symbol
 _atom_site_label
 _atom_site_symmetry_multiplicity
 _atom_site_fract_x
 _atom_site_fract_y
 _atom_site_fract_z
 _atom_site_occupancy
  Tb  Tb0  1  0.463255  0.536745  0.482815  1
  Tb  Tb1  1  0.073489  0.536745  0.482815  1
  Tb  Tb2  1  0.463255  0.926511  0.482815  1
  Tb  Tb3  1  0.535741  0.464259  0.982565  1
  Tb  Tb4  1  0.928519  0.464259  0.982565  1
  Tb  Tb5  1  0.535741  0.071481  0.982565  1
  Tb  Tb6  1  0.821986  0.178014  0.276728  1
  Tb  Tb7  1  0.356028  0.178014  0.276728  1
  Tb  Tb8  1  0.821986  0.643972  0.276728  1
  Tb  Tb9  1  0.178321  0.821679  0.775883  1
  Tb  Tb10  1  0.643358  0.821679  0.775883  1
  Tb  Tb11  1  0.178321  0.356642  0.775883  1
  Tb  Tb12  1  0.333333  0.666667  0.092361  1
  Tb  Tb13  1  0.666667  0.333333  0.592287  1
  Tb  Tb14  1  0.000000  0.000000  0.494938  1
  Y  Y15  1  0.000000  0.000000  0.995090  1
  In  In16  1  0.162324  0.837676  0.233095  1
  In  In17  1  0.675352  0.837676  0.233095  1
  In  In18  1  0.162324  0.324648  0.233095  1
  In  In19  1  0.837075  0.162925  0.734542  1
  In  In20  1  0.325851  0.162925  0.734542  1
  In  In21  1  0.837075  0.674149  0.734542  1
  Fe  Fe22  1  0.333333  0.666667  0.706106  1
  Co  Co23  1  0.666667  0.333333  0.206895  1
