# generated using pymatgen
data_Tb2MnAl20Rh3
_symmetry_space_group_name_H-M   'P 1'
_cell_length_a   6.82418384
_cell_length_b   6.83904075
_cell_length_c   9.13245574
_cell_angle_alpha   90.32867765
_cell_angle_beta   90.19545798
_cell_angle_gamma   97.22802416
_symmetry_Int_Tables_number   1
_chemical_formula_structural   Tb2MnAl20Rh3
_chemical_formula_sum   'Tb2 Mn1 Al20 Rh3'
_cell_volume   422.82199158
_cell_formula_units_Z   1
loop_
 _symmetry_equiv_pos_site_id
 _symmetry_equiv_pos_as_xyz
  1  'x, y, z'
loop_
 _atom_site_type_symbol
 _atom_site_label
 _atom_site_symmetry_multiplicity
 _atom_site_fract_x
 _atom_site_fract_y
 _atom_site_fract_z
 _atom_site_occupancy
  Tb  Tb0  1  0.868485  0.125541  0.748318  1
  Tb  Tb1  1  0.131515  0.874459  0.251682  1
  Mn  Mn2  1  0.500000  0.000000  0.500000  1
  Al  Al3  1  0.618456  0.371558  0.547314  1
  Al  Al4  1  0.381544  0.628442  0.452686  1
  Al  Al5  1  0.378943  0.622701  0.050433  1
  Al  Al6  1  0.621057  0.377299  0.949567  1
  Al  Al7  1  0.226741  0.218490  0.497853  1
  Al  Al8  1  0.773259  0.781510  0.502147  1
  Al  Al9  1  0.776191  0.777172  0.000580  1
  Al  Al10  1  0.223809  0.222828  0.999420  1
  Al  Al11  1  0.844769  0.156235  0.103753  1
  Al  Al12  1  0.155231  0.843765  0.896247  1
  Al  Al13  1  0.160200  0.847404  0.599972  1
  Al  Al14  1  0.839800  0.152596  0.400028  1
  Al  Al15  1  0.856510  0.590338  0.748669  1
  Al  Al16  1  0.143490  0.409662  0.251331  1
  Al  Al17  1  0.412316  0.140502  0.745703  1
  Al  Al18  1  0.587684  0.859498  0.254297  1
  Al  Al19  1  0.224526  0.479898  0.749809  1
  Al  Al20  1  0.775474  0.520102  0.250191  1
  Al  Al21  1  0.518595  0.779002  0.743184  1
  Al  Al22  1  0.481405  0.220998  0.256816  1
  Rh  Rh23  1  0.000000  0.500000  0.500000  1
  Rh  Rh24  1  0.000000  0.500000  0.000000  1
  Rh  Rh25  1  0.500000  0.000000  0.000000  1
