# generated using pymatgen
data_Eu2Ho3ErTa2O14
_symmetry_space_group_name_H-M   'P 1'
_cell_length_a   6.46721496
_cell_length_b   6.46412328
_cell_length_c   7.53892201
_cell_angle_alpha   90.00452587
_cell_angle_beta   89.99645193
_cell_angle_gamma   108.82258627
_symmetry_Int_Tables_number   1
_chemical_formula_structural   Eu2Ho3ErTa2O14
_chemical_formula_sum   'Eu2 Ho3 Er1 Ta2 O14'
_cell_volume   298.30941214
_cell_formula_units_Z   1
loop_
 _symmetry_equiv_pos_site_id
 _symmetry_equiv_pos_as_xyz
  1  'x, y, z'
loop_
 _atom_site_type_symbol
 _atom_site_label
 _atom_site_symmetry_multiplicity
 _atom_site_fract_x
 _atom_site_fract_y
 _atom_site_fract_z
 _atom_site_occupancy
  Eu  Eu0  1  0.502621  0.502718  0.500240  1
  Eu  Eu1  1  0.496326  0.496531  0.999781  1
  Ho  Ho2  1  0.000454  0.533945  0.248723  1
  Ho  Ho3  1  0.534289  0.000399  0.751289  1
  Ho  Ho4  1  0.465853  0.999505  0.251314  1
  Er  Er5  1  0.999343  0.465874  0.748680  1
  Ta  Ta6  1  0.999931  0.999789  0.500232  1
  Ta  Ta7  1  0.000066  0.999926  0.999789  1
  O  O8  1  0.642167  0.359103  0.750093  1
  O  O9  1  0.359003  0.640643  0.249934  1
  O  O10  1  0.932897  0.067741  0.749994  1
  O  O11  1  0.066477  0.932779  0.250019  1
  O  O12  1  0.932457  0.678924  0.533454  1
  O  O13  1  0.068295  0.321782  0.031578  1
  O  O14  1  0.321660  0.069120  0.967843  1
  O  O15  1  0.678503  0.930925  0.467829  1
  O  O16  1  0.364308  0.633526  0.749861  1
  O  O17  1  0.634280  0.365870  0.250088  1
  O  O18  1  0.936228  0.681753  0.963414  1
  O  O19  1  0.064626  0.319039  0.465402  1
  O  O20  1  0.318947  0.065529  0.535169  1
  O  O21  1  0.681268  0.934578  0.035274  1
