# generated using pymatgen
data_La15Th(HgOs)4
_symmetry_space_group_name_H-M   'P 1'
_cell_length_a   10.06643087
_cell_length_b   10.06642991
_cell_length_c   10.06643100
_cell_angle_alpha   59.38463587
_cell_angle_beta   59.38463910
_cell_angle_gamma   59.38463294
_symmetry_Int_Tables_number   1
_chemical_formula_structural   La15Th(HgOs)4
_chemical_formula_sum   'La15 Th1 Hg4 Os4'
_cell_volume   711.19111103
_cell_formula_units_Z   1
loop_
 _symmetry_equiv_pos_site_id
 _symmetry_equiv_pos_as_xyz
  1  'x, y, z'
loop_
 _atom_site_type_symbol
 _atom_site_label
 _atom_site_symmetry_multiplicity
 _atom_site_fract_x
 _atom_site_fract_y
 _atom_site_fract_z
 _atom_site_occupancy
  La  La0  1  0.347061  0.347061  0.957662  1
  La  La1  1  0.347061  0.957662  0.347061  1
  La  La2  1  0.957662  0.347061  0.347061  1
  La  La3  1  0.809856  0.190971  0.190971  1
  La  La4  1  0.191515  0.809794  0.809794  1
  La  La5  1  0.190971  0.809856  0.190971  1
  La  La6  1  0.809794  0.191515  0.809794  1
  La  La7  1  0.190971  0.190971  0.809856  1
  La  La8  1  0.809794  0.809794  0.191515  1
  La  La9  1  0.943393  0.558137  0.558137  1
  La  La10  1  0.558229  0.942240  0.942240  1
  La  La11  1  0.558137  0.943393  0.558137  1
  La  La12  1  0.942240  0.558229  0.942240  1
  La  La13  1  0.558137  0.558137  0.943393  1
  La  La14  1  0.942240  0.942240  0.558229  1
  Th  Th15  1  0.342645  0.342645  0.342645  1
  Hg  Hg16  1  0.581414  0.581414  0.581414  1
  Hg  Hg17  1  0.580073  0.580073  0.254089  1
  Hg  Hg18  1  0.580073  0.254089  0.580073  1
  Hg  Hg19  1  0.254089  0.580073  0.580073  1
  Os  Os20  1  0.138142  0.138142  0.138142  1
  Os  Os21  1  0.142978  0.142978  0.580540  1
  Os  Os22  1  0.142978  0.580540  0.142978  1
  Os  Os23  1  0.580540  0.142978  0.142978  1
