# generated using pymatgen
data_Y2ErMgCd2Ga3
_symmetry_space_group_name_H-M   'P 1'
_cell_length_a   7.24418424
_cell_length_b   7.25426159
_cell_length_c   4.42825500
_cell_angle_alpha   90.00000000
_cell_angle_beta   90.00000000
_cell_angle_gamma   120.07442694
_symmetry_Int_Tables_number   1
_chemical_formula_structural   Y2ErMgCd2Ga3
_chemical_formula_sum   'Y2 Er1 Mg1 Cd2 Ga3'
_cell_volume   201.38158455
_cell_formula_units_Z   1
loop_
 _symmetry_equiv_pos_site_id
 _symmetry_equiv_pos_as_xyz
  1  'x, y, z'
loop_
 _atom_site_type_symbol
 _atom_site_label
 _atom_site_symmetry_multiplicity
 _atom_site_fract_x
 _atom_site_fract_y
 _atom_site_fract_z
 _atom_site_occupancy
  Y  Y0  1  0.425114  0.425232  0.500000  1
  Y  Y1  1  0.572677  0.001238  0.500000  1
  Er  Er2  1  0.001138  0.572713  0.500000  1
  Mg  Mg3  1  0.760101  0.759840  0.000000  1
  Cd  Cd4  1  0.246604  0.997456  0.000000  1
  Cd  Cd5  1  0.997651  0.247183  0.000000  1
  Ga  Ga6  1  0.665808  0.337562  0.000000  1
  Ga  Ga7  1  0.336268  0.664734  0.000000  1
  Ga  Ga8  1  0.994638  0.994042  0.500000  1
