# generated using pymatgen
data_Y3Tm5Mo2(OsC4)2
_symmetry_space_group_name_H-M   'P 1'
_cell_length_a   5.05758300
_cell_length_b   6.57378310
_cell_length_c   9.82287509
_cell_angle_alpha   89.08109577
_cell_angle_beta   90.00000000
_cell_angle_gamma   90.00000000
_symmetry_Int_Tables_number   1
_chemical_formula_structural   Y3Tm5Mo2(OsC4)2
_chemical_formula_sum   'Y3 Tm5 Mo2 Os2 C8'
_cell_volume   326.54358389
_cell_formula_units_Z   1
loop_
 _symmetry_equiv_pos_site_id
 _symmetry_equiv_pos_as_xyz
  1  'x, y, z'
loop_
 _atom_site_type_symbol
 _atom_site_label
 _atom_site_symmetry_multiplicity
 _atom_site_fract_x
 _atom_site_fract_y
 _atom_site_fract_z
 _atom_site_occupancy
  Y  Y0  1  0.750000  0.460399  0.782061  1
  Y  Y1  1  0.750000  0.967325  0.714922  1
  Y  Y2  1  0.250000  0.033178  0.284753  1
  Tm  Tm3  1  0.250000  0.675362  0.558624  1
  Tm  Tm4  1  0.750000  0.325436  0.440863  1
  Tm  Tm5  1  0.750000  0.827137  0.059403  1
  Tm  Tm6  1  0.250000  0.172019  0.941007  1
  Tm  Tm7  1  0.250000  0.539716  0.218280  1
  Mo  Mo8  1  0.250000  0.715059  0.869037  1
  Mo  Mo9  1  0.750000  0.285170  0.131522  1
  Os  Os10  1  0.750000  0.780475  0.367473  1
  Os  Os11  1  0.250000  0.219843  0.631759  1
  C  C12  1  0.250000  0.447254  0.757632  1
  C  C13  1  0.750000  0.553115  0.241846  1
  C  C14  1  0.750000  0.048637  0.260885  1
  C  C15  1  0.250000  0.951589  0.739285  1
  C  C16  1  0.250000  0.824838  0.053889  1
  C  C17  1  0.750000  0.171900  0.947731  1
  C  C18  1  0.750000  0.672395  0.549577  1
  C  C19  1  0.250000  0.329153  0.449452  1
