# generated using pymatgen
data_Ac3Ho(ZnSn)4
_symmetry_space_group_name_H-M   'P 1'
_cell_length_a   4.65401600
_cell_length_b   4.65401629
_cell_length_c   17.58445600
_cell_angle_alpha   90.00000000
_cell_angle_beta   90.00000000
_cell_angle_gamma   119.99998371
_symmetry_Int_Tables_number   1
_chemical_formula_structural   Ac3Ho(ZnSn)4
_chemical_formula_sum   'Ac3 Ho1 Zn4 Sn4'
_cell_volume   329.84918214
_cell_formula_units_Z   1
loop_
 _symmetry_equiv_pos_site_id
 _symmetry_equiv_pos_as_xyz
  1  'x, y, z'
loop_
 _atom_site_type_symbol
 _atom_site_label
 _atom_site_symmetry_multiplicity
 _atom_site_fract_x
 _atom_site_fract_y
 _atom_site_fract_z
 _atom_site_occupancy
  Ac  Ac0  1  0.000000  0.000000  0.250000  1
  Ac  Ac1  1  0.000000  0.000000  0.990323  1
  Ac  Ac2  1  0.000000  0.000000  0.509677  1
  Ho  Ho3  1  0.000000  0.000000  0.750000  1
  Zn  Zn4  1  0.333333  0.666667  0.149317  1
  Zn  Zn5  1  0.666667  0.333333  0.827370  1
  Zn  Zn6  1  0.666667  0.333333  0.672630  1
  Zn  Zn7  1  0.333333  0.666667  0.350683  1
  Sn  Sn8  1  0.333333  0.666667  0.629574  1
  Sn  Sn9  1  0.666667  0.333333  0.386771  1
  Sn  Sn10  1  0.666667  0.333333  0.113229  1
  Sn  Sn11  1  0.333333  0.666667  0.870426  1
