# generated using pymatgen
data_Mg11In(GeRh)8
_symmetry_space_group_name_H-M   'P 1'
_cell_length_a   5.32469116
_cell_length_b   7.26851186
_cell_length_c   13.02760000
_cell_angle_alpha   90.00000000
_cell_angle_beta   90.00000000
_cell_angle_gamma   90.34487163
_symmetry_Int_Tables_number   1
_chemical_formula_structural   Mg11In(GeRh)8
_chemical_formula_sum   'Mg11 In1 Ge8 Rh8'
_cell_volume   504.19260828
_cell_formula_units_Z   1
loop_
 _symmetry_equiv_pos_site_id
 _symmetry_equiv_pos_as_xyz
  1  'x, y, z'
loop_
 _atom_site_type_symbol
 _atom_site_label
 _atom_site_symmetry_multiplicity
 _atom_site_fract_x
 _atom_site_fract_y
 _atom_site_fract_z
 _atom_site_occupancy
  Mg  Mg0  1  0.383935  0.753559  0.750000  1
  Mg  Mg1  1  0.393830  0.742396  0.250000  1
  Mg  Mg2  1  0.612218  0.256239  0.750000  1
  Mg  Mg3  1  0.141851  0.395365  0.093870  1
  Mg  Mg4  1  0.856497  0.606071  0.903831  1
  Mg  Mg5  1  0.856497  0.606071  0.596169  1
  Mg  Mg6  1  0.859307  0.889119  0.409456  1
  Mg  Mg7  1  0.141851  0.395365  0.406130  1
  Mg  Mg8  1  0.141905  0.108007  0.594666  1
  Mg  Mg9  1  0.141905  0.108007  0.905334  1
  Mg  Mg10  1  0.859307  0.889119  0.090544  1
  In  In11  1  0.611925  0.247503  0.250000  1
  Ge  Ge12  1  0.094742  0.082870  0.250000  1
  Ge  Ge13  1  0.896501  0.908285  0.750000  1
  Ge  Ge14  1  0.902062  0.604966  0.250000  1
  Ge  Ge15  1  0.105429  0.403686  0.750000  1
  Ge  Ge16  1  0.629452  0.251215  0.993779  1
  Ge  Ge17  1  0.372203  0.750105  0.003518  1
  Ge  Ge18  1  0.372203  0.750105  0.496482  1
  Ge  Ge19  1  0.629452  0.251215  0.506221  1
  Rh  Rh20  1  0.353194  0.038267  0.097218  1
  Rh  Rh21  1  0.645729  0.963184  0.903465  1
  Rh  Rh22  1  0.645729  0.963184  0.596535  1
  Rh  Rh23  1  0.648994  0.529490  0.402798  1
  Rh  Rh24  1  0.353194  0.038267  0.402782  1
  Rh  Rh25  1  0.350546  0.469424  0.596235  1
  Rh  Rh26  1  0.350546  0.469424  0.903765  1
  Rh  Rh27  1  0.648994  0.529490  0.097202  1
