# generated using pymatgen
data_Dy4Th2TcRu
_symmetry_space_group_name_H-M   'P 1'
_cell_length_a   6.37860900
_cell_length_b   7.28274500
_cell_length_c   9.56549900
_cell_angle_alpha   90.00000000
_cell_angle_beta   90.00000000
_cell_angle_gamma   90.00000000
_symmetry_Int_Tables_number   1
_chemical_formula_structural   Dy4Th2TcRu
_chemical_formula_sum   'Dy8 Th4 Tc2 Ru2'
_cell_volume   444.35361294
_cell_formula_units_Z   2
loop_
 _symmetry_equiv_pos_site_id
 _symmetry_equiv_pos_as_xyz
  1  'x, y, z'
loop_
 _atom_site_type_symbol
 _atom_site_label
 _atom_site_symmetry_multiplicity
 _atom_site_fract_x
 _atom_site_fract_y
 _atom_site_fract_z
 _atom_site_occupancy
  Dy  Dy0  1  0.330069  0.675671  0.067607  1
  Dy  Dy1  1  0.169931  0.175671  0.432393  1
  Dy  Dy2  1  0.664448  0.324812  0.566655  1
  Dy  Dy3  1  0.835552  0.824812  0.933345  1
  Dy  Dy4  1  0.664448  0.324812  0.933345  1
  Dy  Dy5  1  0.835552  0.824812  0.566655  1
  Dy  Dy6  1  0.330069  0.675671  0.432393  1
  Dy  Dy7  1  0.169931  0.175671  0.067607  1
  Th  Th8  1  0.854442  0.547886  0.250000  1
  Th  Th9  1  0.645558  0.047886  0.250000  1
  Th  Th10  1  0.152431  0.450556  0.750000  1
  Th  Th11  1  0.347569  0.950556  0.750000  1
  Tc  Tc12  1  0.015023  0.870920  0.250000  1
  Tc  Tc13  1  0.484977  0.370920  0.250000  1
  Ru  Ru14  1  0.971318  0.129671  0.750000  1
  Ru  Ru15  1  0.528682  0.629671  0.750000  1
