# generated using pymatgen
data_BaLiNdCdBi4
_symmetry_space_group_name_H-M   'P 1'
_cell_length_a   4.63480100
_cell_length_b   4.63615500
_cell_length_c   11.76416600
_cell_angle_alpha   90.00000000
_cell_angle_beta   90.00000000
_cell_angle_gamma   90.00000000
_symmetry_Int_Tables_number   1
_chemical_formula_structural   BaLiNdCdBi4
_chemical_formula_sum   'Ba1 Li1 Nd1 Cd1 Bi4'
_cell_volume   252.78435014
_cell_formula_units_Z   1
loop_
 _symmetry_equiv_pos_site_id
 _symmetry_equiv_pos_as_xyz
  1  'x, y, z'
loop_
 _atom_site_type_symbol
 _atom_site_label
 _atom_site_symmetry_multiplicity
 _atom_site_fract_x
 _atom_site_fract_y
 _atom_site_fract_z
 _atom_site_occupancy
  Ba  Ba0  1  0.000000  0.500000  0.266228  1
  Li  Li1  1  0.500000  0.500000  0.993520  1
  Nd  Nd2  1  0.500000  0.000000  0.740543  1
  Cd  Cd3  1  0.000000  0.000000  0.988831  1
  Bi  Bi4  1  0.000000  0.500000  0.818443  1
  Bi  Bi5  1  0.500000  0.000000  0.145702  1
  Bi  Bi6  1  0.000000  0.000000  0.526921  1
  Bi  Bi7  1  0.500000  0.500000  0.519812  1
