# generated using pymatgen
data_Tb20Ga4Si11Os
_symmetry_space_group_name_H-M   'P 1'
_cell_length_a   7.46860551
_cell_length_b   7.83091426
_cell_length_c   14.81187667
_cell_angle_alpha   89.92719915
_cell_angle_beta   90.03503898
_cell_angle_gamma   90.16994418
_symmetry_Int_Tables_number   1
_chemical_formula_structural   Tb20Ga4Si11Os
_chemical_formula_sum   'Tb20 Ga4 Si11 Os1'
_cell_volume   866.28288886
_cell_formula_units_Z   1
loop_
 _symmetry_equiv_pos_site_id
 _symmetry_equiv_pos_as_xyz
  1  'x, y, z'
loop_
 _atom_site_type_symbol
 _atom_site_label
 _atom_site_symmetry_multiplicity
 _atom_site_fract_x
 _atom_site_fract_y
 _atom_site_fract_z
 _atom_site_occupancy
  Tb  Tb0  1  0.670675  0.182237  0.626379  1
  Tb  Tb1  1  0.189321  0.326046  0.871758  1
  Tb  Tb2  1  0.320054  0.822542  0.125785  1
  Tb  Tb3  1  0.820918  0.676584  0.375680  1
  Tb  Tb4  1  0.318486  0.821541  0.376689  1
  Tb  Tb5  1  0.819144  0.677242  0.122442  1
  Tb  Tb6  1  0.673975  0.183023  0.874872  1
  Tb  Tb7  1  0.191611  0.325511  0.627087  1
  Tb  Tb8  1  0.518620  0.674057  0.598775  1
  Tb  Tb9  1  0.022877  0.815087  0.900389  1
  Tb  Tb10  1  0.475395  0.315516  0.099606  1
  Tb  Tb11  1  0.977063  0.183460  0.401643  1
  Tb  Tb12  1  0.472348  0.317796  0.400645  1
  Tb  Tb13  1  0.973214  0.180631  0.098864  1
  Tb  Tb14  1  0.522158  0.672419  0.900526  1
  Tb  Tb15  1  0.025397  0.819530  0.598918  1
  Tb  Tb16  1  0.836661  0.512203  0.750964  1
  Tb  Tb17  1  0.353955  0.986379  0.748341  1
  Tb  Tb18  1  0.152627  0.483969  0.251332  1
  Tb  Tb19  1  0.650806  0.013031  0.248219  1
  Ga  Ga20  1  0.652541  0.969688  0.460052  1
  Ga  Ga21  1  0.155194  0.530655  0.039903  1
  Ga  Ga22  1  0.344449  0.026891  0.960266  1
  Ga  Ga23  1  0.851145  0.469525  0.540071  1
  Si  Si24  1  0.346132  0.025697  0.539273  1
  Si  Si25  1  0.853547  0.471313  0.960205  1
  Si  Si26  1  0.648189  0.971893  0.040853  1
  Si  Si27  1  0.152001  0.528938  0.460156  1
  Si  Si28  1  0.978508  0.099641  0.750710  1
  Si  Si29  1  0.525493  0.602218  0.249458  1
  Si  Si30  1  0.022428  0.897863  0.250563  1
  Si  Si31  1  0.741425  0.877341  0.750256  1
  Si  Si32  1  0.232296  0.633164  0.750111  1
  Si  Si33  1  0.264897  0.124663  0.250203  1
  Si  Si34  1  0.765953  0.375036  0.249939  1
  Os  Os35  1  0.480496  0.406667  0.749069  1
