# generated using pymatgen
data_Ho15Er5(IrRh2)4
_symmetry_space_group_name_H-M   'P 1'
_cell_length_a   10.82606400
_cell_length_b   10.82597200
_cell_length_c   6.33645300
_cell_angle_alpha   90.00237004
_cell_angle_beta   89.99869799
_cell_angle_gamma   90.00008469
_symmetry_Int_Tables_number   1
_chemical_formula_structural   Ho15Er5(IrRh2)4
_chemical_formula_sum   'Ho15 Er5 Ir4 Rh8'
_cell_volume   742.64918249
_cell_formula_units_Z   1
loop_
 _symmetry_equiv_pos_site_id
 _symmetry_equiv_pos_as_xyz
  1  'x, y, z'
loop_
 _atom_site_type_symbol
 _atom_site_label
 _atom_site_symmetry_multiplicity
 _atom_site_fract_x
 _atom_site_fract_y
 _atom_site_fract_z
 _atom_site_occupancy
  Ho  Ho0  1  0.291037  0.089604  0.377859  1
  Ho  Ho1  1  0.291095  0.910482  0.877941  1
  Ho  Ho2  1  0.708915  0.089523  0.877931  1
  Ho  Ho3  1  0.708910  0.910468  0.377944  1
  Ho  Ho4  1  0.587374  0.789818  0.878682  1
  Ho  Ho5  1  0.587362  0.210167  0.378689  1
  Ho  Ho6  1  0.412628  0.789827  0.378701  1
  Ho  Ho7  1  0.412608  0.210176  0.878720  1
  Ho  Ho8  1  0.210137  0.412568  0.621313  1
  Ho  Ho9  1  0.210146  0.587262  0.121320  1
  Ho  Ho10  1  0.789897  0.412601  0.121318  1
  Ho  Ho11  1  0.789822  0.587372  0.621284  1
  Ho  Ho12  1  0.910481  0.708897  0.122066  1
  Ho  Ho13  1  0.910546  0.291082  0.622057  1
  Ho  Ho14  1  0.089522  0.708922  0.622051  1
  Er  Er15  1  0.089532  0.291240  0.121968  1
  Er  Er16  1  0.000005  0.000030  0.499970  1
  Er  Er17  1  0.000035  0.000105  0.000046  1
  Er  Er18  1  0.499992  0.499990  0.000006  1
  Er  Er19  1  0.500004  0.500005  0.500001  1
  Ir  Ir20  1  0.654383  0.345640  0.749993  1
  Ir  Ir21  1  0.654373  0.654370  0.250001  1
  Ir  Ir22  1  0.345456  0.345579  0.249932  1
  Ir  Ir23  1  0.345626  0.654372  0.749997  1
  Rh  Rh24  1  0.846768  0.153349  0.249948  1
  Rh  Rh25  1  0.846667  0.846680  0.749999  1
  Rh  Rh26  1  0.153264  0.153410  0.750250  1
  Rh  Rh27  1  0.153322  0.846668  0.249996  1
  Rh  Rh28  1  0.499997  0.000019  0.122370  1
  Rh  Rh29  1  0.500002  0.000003  0.622348  1
  Rh  Rh30  1  0.000049  0.499847  0.877781  1
  Rh  Rh31  1  0.000044  0.499924  0.377519  1
