# generated using pymatgen
data_Er3Pu2PaAl18
_symmetry_space_group_name_H-M   'P 1'
_cell_length_a   14.59637077
_cell_length_b   14.59637070
_cell_length_c   14.59637100
_cell_angle_alpha   24.34728901
_cell_angle_beta   24.34728956
_cell_angle_gamma   24.34728984
_symmetry_Int_Tables_number   1
_chemical_formula_structural   Er3Pu2PaAl18
_chemical_formula_sum   'Er3 Pu2 Pa1 Al18'
_cell_volume   464.62634020
_cell_formula_units_Z   1
loop_
 _symmetry_equiv_pos_site_id
 _symmetry_equiv_pos_as_xyz
  1  'x, y, z'
loop_
 _atom_site_type_symbol
 _atom_site_label
 _atom_site_symmetry_multiplicity
 _atom_site_fract_x
 _atom_site_fract_y
 _atom_site_fract_z
 _atom_site_occupancy
  Er  Er0  1  0.999271  0.999271  0.999271  1
  Er  Er1  1  0.499439  0.499439  0.499439  1
  Er  Er2  1  0.610066  0.610066  0.610066  1
  Pu  Pu3  1  0.891083  0.891083  0.891083  1
  Pu  Pu4  1  0.391551  0.391551  0.391551  1
  Pa  Pa5  1  0.109468  0.109468  0.109468  1
  Al  Al6  1  0.917819  0.374385  0.374385  1
  Al  Al7  1  0.417518  0.872745  0.872745  1
  Al  Al8  1  0.374385  0.374385  0.917819  1
  Al  Al9  1  0.872745  0.872745  0.417518  1
  Al  Al10  1  0.374385  0.917819  0.374385  1
  Al  Al11  1  0.872745  0.417518  0.872745  1
  Al  Al12  1  0.580628  0.126503  0.126503  1
  Al  Al13  1  0.079684  0.627599  0.627599  1
  Al  Al14  1  0.126503  0.126503  0.580628  1
  Al  Al15  1  0.627599  0.627599  0.079684  1
  Al  Al16  1  0.126503  0.580628  0.126503  1
  Al  Al17  1  0.627599  0.079684  0.627599  1
  Al  Al18  1  0.494536  0.494536  0.010089  1
  Al  Al19  1  0.999241  0.999241  0.503368  1
  Al  Al20  1  0.494536  0.010089  0.494536  1
  Al  Al21  1  0.999241  0.503368  0.999241  1
  Al  Al22  1  0.010089  0.494536  0.494536  1
  Al  Al23  1  0.503368  0.999241  0.999241  1
