# generated using pymatgen
data_Dy4YBi3C
_symmetry_space_group_name_H-M   'P 1'
_cell_length_a   9.14497300
_cell_length_b   9.14497422
_cell_length_c   6.51194500
_cell_angle_alpha   90.00007518
_cell_angle_beta   90.00007518
_cell_angle_gamma   119.99533823
_symmetry_Int_Tables_number   1
_chemical_formula_structural   Dy4YBi3C
_chemical_formula_sum   'Dy8 Y2 Bi6 C2'
_cell_volume   471.65741626
_cell_formula_units_Z   2
loop_
 _symmetry_equiv_pos_site_id
 _symmetry_equiv_pos_as_xyz
  1  'x, y, z'
loop_
 _atom_site_type_symbol
 _atom_site_label
 _atom_site_symmetry_multiplicity
 _atom_site_fract_x
 _atom_site_fract_y
 _atom_site_fract_z
 _atom_site_occupancy
  Dy  Dy0  1  0.666602  0.333398  0.500001  1
  Dy  Dy1  1  0.333398  0.666602  0.500001  1
  Dy  Dy2  1  0.791798  0.791798  0.249993  1
  Dy  Dy3  1  0.208010  0.999899  0.249995  1
  Dy  Dy4  1  0.999899  0.208010  0.249995  1
  Dy  Dy5  1  0.208202  0.208202  0.750003  1
  Dy  Dy6  1  0.791990  0.000102  0.750003  1
  Dy  Dy7  1  0.000102  0.791990  0.750003  1
  Y  Y8  1  0.333398  0.666602  0.000001  1
  Y  Y9  1  0.666602  0.333398  0.000001  1
  Bi  Bi10  1  0.402071  0.402071  0.250096  1
  Bi  Bi11  1  0.597647  0.000047  0.250099  1
  Bi  Bi12  1  0.000047  0.597647  0.250099  1
  Bi  Bi13  1  0.597930  0.597930  0.749904  1
  Bi  Bi14  1  0.402353  0.999953  0.749907  1
  Bi  Bi15  1  0.999953  0.402353  0.749907  1
  C  C16  1  0.000000  0.000000  0.499996  1
  C  C17  1  0.999999  0.999999  0.999993  1
