# generated using pymatgen
data_La5Bi2Os
_symmetry_space_group_name_H-M   'P 1'
_cell_length_a   8.54899700
_cell_length_b   9.31154800
_cell_length_c   13.11041000
_cell_angle_alpha   90.00000000
_cell_angle_beta   90.00000000
_cell_angle_gamma   90.00000000
_symmetry_Int_Tables_number   1
_chemical_formula_structural   La5Bi2Os
_chemical_formula_sum   'La20 Bi8 Os4'
_cell_volume   1043.64626828
_cell_formula_units_Z   4
loop_
 _symmetry_equiv_pos_site_id
 _symmetry_equiv_pos_as_xyz
  1  'x, y, z'
loop_
 _atom_site_type_symbol
 _atom_site_label
 _atom_site_symmetry_multiplicity
 _atom_site_fract_x
 _atom_site_fract_y
 _atom_site_fract_z
 _atom_site_occupancy
  La  La0  1  0.351334  0.750000  0.702786  1
  La  La1  1  0.648666  0.250000  0.297214  1
  La  La2  1  0.851334  0.250000  0.797214  1
  La  La3  1  0.148666  0.750000  0.202786  1
  La  La4  1  0.877981  0.750000  0.805767  1
  La  La5  1  0.122019  0.250000  0.194233  1
  La  La6  1  0.377981  0.250000  0.694233  1
  La  La7  1  0.622019  0.750000  0.305767  1
  La  La8  1  0.678540  0.536008  0.563940  1
  La  La9  1  0.321460  0.463992  0.436060  1
  La  La10  1  0.178540  0.463992  0.936060  1
  La  La11  1  0.321460  0.036008  0.436060  1
  La  La12  1  0.821460  0.536008  0.063940  1
  La  La13  1  0.678540  0.963992  0.563940  1
  La  La14  1  0.821460  0.963992  0.063940  1
  La  La15  1  0.178540  0.036008  0.936060  1
  La  La16  1  0.058219  0.750000  0.496842  1
  La  La17  1  0.941781  0.250000  0.503158  1
  La  La18  1  0.558219  0.250000  0.003158  1
  La  La19  1  0.441781  0.750000  0.996842  1
  Bi  Bi20  1  0.574820  0.506604  0.827909  1
  Bi  Bi21  1  0.425180  0.493396  0.172091  1
  Bi  Bi22  1  0.074820  0.493396  0.672091  1
  Bi  Bi23  1  0.425180  0.006604  0.172091  1
  Bi  Bi24  1  0.925180  0.506604  0.327909  1
  Bi  Bi25  1  0.574820  0.993396  0.827909  1
  Bi  Bi26  1  0.925180  0.993396  0.327909  1
  Bi  Bi27  1  0.074820  0.006604  0.672091  1
  Os  Os28  1  0.077204  0.750000  0.988062  1
  Os  Os29  1  0.922796  0.250000  0.011938  1
  Os  Os30  1  0.577204  0.250000  0.511938  1
  Os  Os31  1  0.422796  0.750000  0.488062  1
