# generated using pymatgen
data_CrAsI18
_symmetry_space_group_name_H-M   'P 1'
_cell_length_a   10.14560729
_cell_length_b   10.14560973
_cell_length_c   10.14560890
_cell_angle_alpha   92.29456250
_cell_angle_beta   92.29455960
_cell_angle_gamma   92.29457397
_symmetry_Int_Tables_number   1
_chemical_formula_structural   CrAsI18
_chemical_formula_sum   'Cr1 As1 I18'
_cell_volume   1041.74050927
_cell_formula_units_Z   1
loop_
 _symmetry_equiv_pos_site_id
 _symmetry_equiv_pos_as_xyz
  1  'x, y, z'
loop_
 _atom_site_type_symbol
 _atom_site_label
 _atom_site_symmetry_multiplicity
 _atom_site_fract_x
 _atom_site_fract_y
 _atom_site_fract_z
 _atom_site_occupancy
  Cr  Cr0  1  0.500000  0.500000  0.500000  1
  As  As1  1  0.000000  0.000000  0.000000  1
  I  I2  1  0.715352  0.980149  0.021865  1
  I  I3  1  0.736293  0.132287  0.608701  1
  I  I4  1  0.021865  0.715352  0.980149  1
  I  I5  1  0.263707  0.867713  0.391299  1
  I  I6  1  0.132287  0.608701  0.736293  1
  I  I7  1  0.019851  0.978135  0.284648  1
  I  I8  1  0.608701  0.736293  0.132287  1
  I  I9  1  0.978135  0.284648  0.019851  1
  I  I10  1  0.867713  0.391299  0.263707  1
  I  I11  1  0.391299  0.263707  0.867713  1
  I  I12  1  0.980149  0.021865  0.715352  1
  I  I13  1  0.284648  0.019851  0.978135  1
  I  I14  1  0.769114  0.527213  0.498502  1
  I  I15  1  0.501498  0.230886  0.472787  1
  I  I16  1  0.472787  0.501498  0.230886  1
  I  I17  1  0.498502  0.769114  0.527213  1
  I  I18  1  0.527213  0.498502  0.769114  1
  I  I19  1  0.230886  0.472787  0.501498  1
