# generated using pymatgen
data_Cs12LuMgSe8
_symmetry_space_group_name_H-M   'P 1'
_cell_length_a   11.42761200
_cell_length_b   11.42761038
_cell_length_c   8.79241200
_cell_angle_alpha   90.00000000
_cell_angle_beta   90.00000000
_cell_angle_gamma   119.99999891
_symmetry_Int_Tables_number   1
_chemical_formula_structural   Cs12LuMgSe8
_chemical_formula_sum   'Cs12 Lu1 Mg1 Se8'
_cell_volume   994.37358266
_cell_formula_units_Z   1
loop_
 _symmetry_equiv_pos_site_id
 _symmetry_equiv_pos_as_xyz
  1  'x, y, z'
loop_
 _atom_site_type_symbol
 _atom_site_label
 _atom_site_symmetry_multiplicity
 _atom_site_fract_x
 _atom_site_fract_y
 _atom_site_fract_z
 _atom_site_occupancy
  Cs  Cs0  1  0.138471  0.861529  0.543245  1
  Cs  Cs1  1  0.287272  0.143636  0.047140  1
  Cs  Cs2  1  0.856364  0.712728  0.047140  1
  Cs  Cs3  1  0.138471  0.276943  0.543245  1
  Cs  Cs4  1  0.723057  0.861529  0.543245  1
  Cs  Cs5  1  0.856364  0.143636  0.047140  1
  Cs  Cs6  1  0.535626  0.464374  0.368864  1
  Cs  Cs7  1  0.051718  0.525858  0.856424  1
  Cs  Cs8  1  0.474142  0.948282  0.856424  1
  Cs  Cs9  1  0.535626  0.071253  0.368864  1
  Cs  Cs10  1  0.928747  0.464374  0.368864  1
  Cs  Cs11  1  0.474142  0.525858  0.856424  1
  Lu  Lu12  1  0.333333  0.666667  0.252342  1
  Mg  Mg13  1  0.666667  0.333333  0.756739  1
  Se  Se14  1  0.333333  0.666667  0.558779  1
  Se  Se15  1  0.666667  0.333333  0.061554  1
  Se  Se16  1  0.204615  0.795385  0.154355  1
  Se  Se17  1  0.408489  0.204246  0.659970  1
  Se  Se18  1  0.795754  0.591511  0.659970  1
  Se  Se19  1  0.204615  0.409228  0.154355  1
  Se  Se20  1  0.590772  0.795385  0.154355  1
  Se  Se21  1  0.795754  0.204246  0.659970  1
