# generated using pymatgen
data_Pr16MgIn3(IrRh)2
_symmetry_space_group_name_H-M   'P 1'
_cell_length_a   10.06453587
_cell_length_b   10.08312873
_cell_length_c   10.10037963
_cell_angle_alpha   59.94204207
_cell_angle_beta   59.87937879
_cell_angle_gamma   59.80533221
_symmetry_Int_Tables_number   1
_chemical_formula_structural   Pr16MgIn3(IrRh)2
_chemical_formula_sum   'Pr16 Mg1 In3 Ir2 Rh2'
_cell_volume   722.74112320
_cell_formula_units_Z   1
loop_
 _symmetry_equiv_pos_site_id
 _symmetry_equiv_pos_as_xyz
  1  'x, y, z'
loop_
 _atom_site_type_symbol
 _atom_site_label
 _atom_site_symmetry_multiplicity
 _atom_site_fract_x
 _atom_site_fract_y
 _atom_site_fract_z
 _atom_site_occupancy
  Pr  Pr0  1  0.348878  0.347542  0.346998  1
  Pr  Pr1  1  0.348939  0.347428  0.956797  1
  Pr  Pr2  1  0.349364  0.955947  0.347349  1
  Pr  Pr3  1  0.953703  0.349121  0.348663  1
  Pr  Pr4  1  0.807666  0.191553  0.193431  1
  Pr  Pr5  1  0.188021  0.810541  0.810564  1
  Pr  Pr6  1  0.188056  0.810576  0.190705  1
  Pr  Pr7  1  0.807654  0.191553  0.807173  1
  Pr  Pr8  1  0.188705  0.189441  0.810909  1
  Pr  Pr9  1  0.807174  0.807065  0.192805  1
  Pr  Pr10  1  0.938187  0.560832  0.562833  1
  Pr  Pr11  1  0.560104  0.939742  0.938725  1
  Pr  Pr12  1  0.560119  0.939821  0.561265  1
  Pr  Pr13  1  0.938381  0.560535  0.938364  1
  Pr  Pr14  1  0.562211  0.561732  0.938009  1
  Pr  Pr15  1  0.938555  0.939957  0.560634  1
  Mg  Mg16  1  0.273971  0.574981  0.575554  1
  In  In17  1  0.579672  0.581208  0.581520  1
  In  In18  1  0.579836  0.581176  0.257502  1
  In  In19  1  0.579438  0.257327  0.581625  1
  Ir  Ir20  1  0.142051  0.141803  0.141222  1
  Ir  Ir21  1  0.142108  0.141833  0.574963  1
  Rh  Rh22  1  0.141694  0.576263  0.141094  1
  Rh  Rh23  1  0.575514  0.142024  0.141296  1
