# generated using pymatgen
data_Ba5Er2TaAl2O13
_symmetry_space_group_name_H-M   'P 1'
_cell_length_a   5.97502100
_cell_length_b   5.97502077
_cell_length_c   24.92146400
_cell_angle_alpha   90.00000000
_cell_angle_beta   90.00000000
_cell_angle_gamma   119.99999572
_symmetry_Int_Tables_number   1
_chemical_formula_structural   Ba5Er2TaAl2O13
_chemical_formula_sum   'Ba10 Er4 Ta2 Al4 O26'
_cell_volume   770.51847613
_cell_formula_units_Z   2
loop_
 _symmetry_equiv_pos_site_id
 _symmetry_equiv_pos_as_xyz
  1  'x, y, z'
loop_
 _atom_site_type_symbol
 _atom_site_label
 _atom_site_symmetry_multiplicity
 _atom_site_fract_x
 _atom_site_fract_y
 _atom_site_fract_z
 _atom_site_occupancy
  Ba  Ba0  1  0.000000  0.000000  0.356031  1
  Ba  Ba1  1  0.666667  0.333333  0.954734  1
  Ba  Ba2  1  0.000000  0.000000  0.643969  1
  Ba  Ba3  1  0.000000  0.000000  0.856031  1
  Ba  Ba4  1  0.666667  0.333333  0.545266  1
  Ba  Ba5  1  0.333333  0.666667  0.454734  1
  Ba  Ba6  1  0.000000  0.000000  0.143969  1
  Ba  Ba7  1  0.333333  0.666667  0.045266  1
  Ba  Ba8  1  0.666667  0.333333  0.250000  1
  Ba  Ba9  1  0.333333  0.666667  0.750000  1
  Er  Er10  1  0.666667  0.333333  0.102683  1
  Er  Er11  1  0.333333  0.666667  0.897317  1
  Er  Er12  1  0.333333  0.666667  0.602683  1
  Er  Er13  1  0.666667  0.333333  0.397317  1
  Ta  Ta14  1  0.000000  0.000000  0.500000  1
  Ta  Ta15  1  0.000000  0.000000  0.000000  1
  Al  Al16  1  0.666667  0.333333  0.819458  1
  Al  Al17  1  0.333333  0.666667  0.180542  1
  Al  Al18  1  0.666667  0.333333  0.680542  1
  Al  Al19  1  0.333333  0.666667  0.319458  1
  O  O20  1  0.841016  0.682032  0.046780  1
  O  O21  1  0.841016  0.682032  0.453220  1
  O  O22  1  0.158984  0.841016  0.953220  1
  O  O23  1  0.158984  0.317968  0.546780  1
  O  O24  1  0.507000  0.493000  0.846611  1
  O  O25  1  0.841016  0.158984  0.046780  1
  O  O26  1  0.493000  0.985999  0.153389  1
  O  O27  1  0.014001  0.507000  0.153389  1
  O  O28  1  0.841016  0.158984  0.453220  1
  O  O29  1  0.317968  0.158984  0.046780  1
  O  O30  1  0.985999  0.493000  0.653389  1
  O  O31  1  0.507000  0.014001  0.653389  1
  O  O32  1  0.014001  0.507000  0.346611  1
  O  O33  1  0.682032  0.841016  0.546780  1
  O  O34  1  0.666667  0.333333  0.750000  1
  O  O35  1  0.493000  0.507000  0.346611  1
  O  O36  1  0.682032  0.841016  0.953220  1
  O  O37  1  0.507000  0.014001  0.846611  1
  O  O38  1  0.985999  0.493000  0.846611  1
  O  O39  1  0.507000  0.493000  0.653389  1
  O  O40  1  0.158984  0.841016  0.546780  1
  O  O41  1  0.158984  0.317968  0.953220  1
  O  O42  1  0.493000  0.507000  0.153389  1
  O  O43  1  0.317968  0.158984  0.453220  1
  O  O44  1  0.333333  0.666667  0.250000  1
  O  O45  1  0.493000  0.985999  0.346611  1
