# generated using pymatgen
data_Ho4TlPd11
_symmetry_space_group_name_H-M   'P 1'
_cell_length_a   4.19036400
_cell_length_b   5.85122391
_cell_length_c   11.65683400
_cell_angle_alpha   86.77823839
_cell_angle_beta   90.00000000
_cell_angle_gamma   90.00000000
_symmetry_Int_Tables_number   1
_chemical_formula_structural   Ho4TlPd11
_chemical_formula_sum   'Ho4 Tl1 Pd11'
_cell_volume   285.35936532
_cell_formula_units_Z   1
loop_
 _symmetry_equiv_pos_site_id
 _symmetry_equiv_pos_as_xyz
  1  'x, y, z'
loop_
 _atom_site_type_symbol
 _atom_site_label
 _atom_site_symmetry_multiplicity
 _atom_site_fract_x
 _atom_site_fract_y
 _atom_site_fract_z
 _atom_site_occupancy
  Ho  Ho0  1  0.500000  0.756038  0.377878  1
  Ho  Ho1  1  0.500000  0.715618  0.858668  1
  Ho  Ho2  1  0.500000  0.284382  0.141332  1
  Ho  Ho3  1  0.500000  0.243962  0.622122  1
  Tl  Tl4  1  0.000000  0.000000  0.000000  1
  Pd  Pd5  1  0.000000  0.016100  0.252527  1
  Pd  Pd6  1  0.000000  0.983900  0.747473  1
  Pd  Pd7  1  0.000000  0.500000  0.000000  1
  Pd  Pd8  1  0.000000  0.500000  0.500000  1
  Pd  Pd9  1  0.000000  0.519636  0.251234  1
  Pd  Pd10  1  0.000000  0.480364  0.748766  1
  Pd  Pd11  1  0.500000  0.256620  0.377855  1
  Pd  Pd12  1  0.500000  0.230051  0.878542  1
  Pd  Pd13  1  0.500000  0.769949  0.121458  1
  Pd  Pd14  1  0.500000  0.743380  0.622145  1
  Pd  Pd15  1  0.000000  0.000000  0.500000  1
