# generated using pymatgen
data_DyEr4BeP11Ir19
_symmetry_space_group_name_H-M   'P 1'
_cell_length_a   12.69895578
_cell_length_b   12.65188069
_cell_length_c   3.96193100
_cell_angle_alpha   90.00000000
_cell_angle_beta   90.00000000
_cell_angle_gamma   120.18106723
_symmetry_Int_Tables_number   1
_chemical_formula_structural   DyEr4BeP11Ir19
_chemical_formula_sum   'Dy1 Er4 Be1 P11 Ir19'
_cell_volume   550.25671294
_cell_formula_units_Z   1
loop_
 _symmetry_equiv_pos_site_id
 _symmetry_equiv_pos_as_xyz
  1  'x, y, z'
loop_
 _atom_site_type_symbol
 _atom_site_label
 _atom_site_symmetry_multiplicity
 _atom_site_fract_x
 _atom_site_fract_y
 _atom_site_fract_z
 _atom_site_occupancy
  Dy  Dy0  1  0.810587  0.994574  0.000000  1
  Er  Er1  1  0.345103  0.667359  0.500000  1
  Er  Er2  1  0.666859  0.333557  0.500000  1
  Er  Er3  1  0.998612  0.816591  0.000000  1
  Er  Er4  1  0.183042  0.183936  0.000000  1
  Be  Be5  1  0.519899  0.685042  0.000000  1
  P  P6  1  0.001326  0.644089  0.500000  1
  P  P7  1  0.359770  0.363532  0.500000  1
  P  P8  1  0.638724  0.994686  0.500000  1
  P  P9  1  0.315751  0.828023  0.000000  1
  P  P10  1  0.174188  0.484703  0.000000  1
  P  P11  1  0.482940  0.174677  0.000000  1
  P  P12  1  0.689673  0.516992  0.000000  1
  P  P13  1  0.828045  0.311088  0.000000  1
  P  P14  1  0.996605  0.176304  0.500000  1
  P  P15  1  0.818893  0.818383  0.500000  1
  P  P16  1  0.178352  0.999455  0.500000  1
  Ir  Ir17  1  0.510051  0.869326  0.000000  1
  Ir  Ir18  1  0.133585  0.639211  0.000000  1
  Ir  Ir19  1  0.355798  0.484747  0.000000  1
  Ir  Ir20  1  0.493016  0.364788  0.000000  1
  Ir  Ir21  1  0.869147  0.506790  0.000000  1
  Ir  Ir22  1  0.637694  0.134605  0.000000  1
  Ir  Ir23  1  0.000989  0.462922  0.500000  1
  Ir  Ir24  1  0.535733  0.552599  0.500000  1
  Ir  Ir25  1  0.461372  0.001090  0.500000  1
  Ir  Ir26  1  0.999014  0.284360  0.000000  1
  Ir  Ir27  1  0.713820  0.712191  0.000000  1
  Ir  Ir28  1  0.285415  0.999820  0.000000  1
  Ir  Ir29  1  0.625530  0.804593  0.500000  1
  Ir  Ir30  1  0.196634  0.819106  0.500000  1
  Ir  Ir31  1  0.176801  0.374537  0.500000  1
  Ir  Ir32  1  0.374873  0.182234  0.500000  1
  Ir  Ir33  1  0.805705  0.622109  0.500000  1
  Ir  Ir34  1  0.816346  0.192687  0.500000  1
  Ir  Ir35  1  0.000109  0.999298  0.500000  1
