# generated using pymatgen
data_TaZnCo20B6W
_symmetry_space_group_name_H-M   'P 1'
_cell_length_a   7.44166654
_cell_length_b   7.44166646
_cell_length_c   7.44166600
_cell_angle_alpha   60.00001094
_cell_angle_beta   60.00001128
_cell_angle_gamma   60.00000975
_symmetry_Int_Tables_number   1
_chemical_formula_structural   TaZnCo20B6W
_chemical_formula_sum   'Ta1 Zn1 Co20 B6 W1'
_cell_volume   291.40411965
_cell_formula_units_Z   1
loop_
 _symmetry_equiv_pos_site_id
 _symmetry_equiv_pos_as_xyz
  1  'x, y, z'
loop_
 _atom_site_type_symbol
 _atom_site_label
 _atom_site_symmetry_multiplicity
 _atom_site_fract_x
 _atom_site_fract_y
 _atom_site_fract_z
 _atom_site_occupancy
  Ta  Ta0  1  0.250000  0.250000  0.250000  1
  Zn  Zn1  1  0.000000  0.000000  0.000000  1
  Co  Co2  1  0.999630  0.342675  0.658064  1
  Co  Co3  1  0.342675  0.658064  0.999630  1
  Co  Co4  1  0.342675  0.999630  0.999630  1
  Co  Co5  1  0.658064  0.342675  0.999630  1
  Co  Co6  1  0.342675  0.999630  0.658064  1
  Co  Co7  1  0.384288  0.384288  0.847137  1
  Co  Co8  1  0.618628  0.618628  0.618628  1
  Co  Co9  1  0.999630  0.999630  0.658064  1
  Co  Co10  1  0.144116  0.618628  0.618628  1
  Co  Co11  1  0.999630  0.342675  0.999630  1
  Co  Co12  1  0.999630  0.658064  0.342675  1
  Co  Co13  1  0.658064  0.999630  0.342675  1
  Co  Co14  1  0.618628  0.144116  0.618628  1
  Co  Co15  1  0.999630  0.999630  0.342675  1
  Co  Co16  1  0.999630  0.658064  0.999630  1
  Co  Co17  1  0.658064  0.999630  0.999630  1
  Co  Co18  1  0.384288  0.847137  0.384288  1
  Co  Co19  1  0.384288  0.384288  0.384288  1
  Co  Co20  1  0.847137  0.384288  0.384288  1
  Co  Co21  1  0.618628  0.618628  0.144116  1
  B  B22  1  0.724230  0.275770  0.275770  1
  B  B23  1  0.724230  0.724230  0.275770  1
  B  B24  1  0.275770  0.724230  0.724230  1
  B  B25  1  0.724230  0.275770  0.724230  1
  B  B26  1  0.275770  0.275770  0.724230  1
  B  B27  1  0.275770  0.724230  0.275770  1
  W  W28  1  0.750000  0.750000  0.750000  1
