# generated using pymatgen
data_DyHo3Co2(Sn2Ru)2
_symmetry_space_group_name_H-M   'P 1'
_cell_length_a   4.67819300
_cell_length_b   7.29831456
_cell_length_c   7.34332211
_cell_angle_alpha   90.36019202
_cell_angle_beta   90.00000000
_cell_angle_gamma   90.00000000
_symmetry_Int_Tables_number   1
_chemical_formula_structural   DyHo3Co2(Sn2Ru)2
_chemical_formula_sum   'Dy1 Ho3 Co2 Sn4 Ru2'
_cell_volume   250.71753500
_cell_formula_units_Z   1
loop_
 _symmetry_equiv_pos_site_id
 _symmetry_equiv_pos_as_xyz
  1  'x, y, z'
loop_
 _atom_site_type_symbol
 _atom_site_label
 _atom_site_symmetry_multiplicity
 _atom_site_fract_x
 _atom_site_fract_y
 _atom_site_fract_z
 _atom_site_occupancy
  Dy  Dy0  1  0.250000  0.481580  0.697067  1
  Ho  Ho1  1  0.250000  0.970921  0.799874  1
  Ho  Ho2  1  0.750000  0.029323  0.200307  1
  Ho  Ho3  1  0.750000  0.518820  0.302078  1
  Co  Co4  1  0.750000  0.345209  0.947712  1
  Co  Co5  1  0.250000  0.654898  0.052782  1
  Sn  Sn6  1  0.750000  0.699091  0.897382  1
  Sn  Sn7  1  0.250000  0.790700  0.381859  1
  Sn  Sn8  1  0.250000  0.301394  0.103161  1
  Sn  Sn9  1  0.750000  0.208956  0.618094  1
  Ru  Ru10  1  0.750000  0.842736  0.558070  1
  Ru  Ru11  1  0.250000  0.156372  0.441615  1
