# generated using pymatgen
data_Ca2HoNpN4
_symmetry_space_group_name_H-M   'P 1'
_cell_length_a   6.90666265
_cell_length_b   9.17054684
_cell_length_c   6.03324566
_cell_angle_alpha   29.14134968
_cell_angle_beta   55.08381185
_cell_angle_gamma   41.13978385
_symmetry_Int_Tables_number   1
_chemical_formula_structural   Ca2HoNpN4
_chemical_formula_sum   'Ca2 Ho1 Np1 N4'
_cell_volume   117.99561414
_cell_formula_units_Z   1
loop_
 _symmetry_equiv_pos_site_id
 _symmetry_equiv_pos_as_xyz
  1  'x, y, z'
loop_
 _atom_site_type_symbol
 _atom_site_label
 _atom_site_symmetry_multiplicity
 _atom_site_fract_x
 _atom_site_fract_y
 _atom_site_fract_z
 _atom_site_occupancy
  Ca  Ca0  1  0.750002  0.500000  0.999996  1
  Ca  Ca1  1  0.500000  0.000000  0.000002  1
  Ho  Ho2  1  0.249995  0.500001  0.000008  1
  Np  Np3  1  0.000001  0.000001  0.999994  1
  N  N4  1  0.490202  0.500000  0.519598  1
  N  N5  1  0.213055  0.000000  0.573890  1
  N  N6  1  0.009798  0.500000  0.480403  1
  N  N7  1  0.786947  0.999999  0.426110  1
