# generated using pymatgen
data_Na3LiIrO5
_symmetry_space_group_name_H-M   'P 1'
_cell_length_a   5.70553902
_cell_length_b   6.10779595
_cell_length_c   7.59190131
_cell_angle_alpha   76.61490636
_cell_angle_beta   71.60651914
_cell_angle_gamma   73.40237873
_symmetry_Int_Tables_number   1
_chemical_formula_structural   Na3LiIrO5
_chemical_formula_sum   'Na6 Li2 Ir2 O10'
_cell_volume   237.66384345
_cell_formula_units_Z   2
loop_
 _symmetry_equiv_pos_site_id
 _symmetry_equiv_pos_as_xyz
  1  'x, y, z'
loop_
 _atom_site_type_symbol
 _atom_site_label
 _atom_site_symmetry_multiplicity
 _atom_site_fract_x
 _atom_site_fract_y
 _atom_site_fract_z
 _atom_site_occupancy
  Na  Na0  1  0.699885  0.052121  0.593732  1
  Na  Na1  1  0.314549  0.446031  0.392853  1
  Na  Na2  1  0.515102  0.745990  0.993037  1
  Na  Na3  1  0.685451  0.553969  0.607147  1
  Na  Na4  1  0.300115  0.947879  0.406268  1
  Na  Na5  1  0.484898  0.254010  0.006963  1
  Li  Li6  1  0.886600  0.362516  0.155961  1
  Li  Li7  1  0.113400  0.637484  0.844039  1
  Ir  Ir8  1  0.101211  0.155409  0.804524  1
  Ir  Ir9  1  0.898789  0.844591  0.195476  1
  O  O10  1  0.014034  0.227284  0.572989  1
  O  O11  1  0.847343  0.945204  0.926042  1
  O  O12  1  0.845351  0.424916  0.893895  1
  O  O13  1  0.648204  0.660373  0.275327  1
  O  O14  1  0.985966  0.772716  0.427011  1
  O  O15  1  0.351168  0.876452  0.726402  1
  O  O16  1  0.648832  0.123548  0.273598  1
  O  O17  1  0.152657  0.054796  0.073958  1
  O  O18  1  0.154649  0.575084  0.106105  1
  O  O19  1  0.351796  0.339627  0.724673  1
