# generated using pymatgen
data_CsMnSb12Os2Rh
_symmetry_space_group_name_H-M   'P 1'
_cell_length_a   8.22989073
_cell_length_b   8.19010775
_cell_length_c   8.23661868
_cell_angle_alpha   109.36012379
_cell_angle_beta   109.54339674
_cell_angle_gamma   109.44444351
_symmetry_Int_Tables_number   1
_chemical_formula_structural   CsMnSb12Os2Rh
_chemical_formula_sum   'Cs1 Mn1 Sb12 Os2 Rh1'
_cell_volume   427.72195775
_cell_formula_units_Z   1
loop_
 _symmetry_equiv_pos_site_id
 _symmetry_equiv_pos_as_xyz
  1  'x, y, z'
loop_
 _atom_site_type_symbol
 _atom_site_label
 _atom_site_symmetry_multiplicity
 _atom_site_fract_x
 _atom_site_fract_y
 _atom_site_fract_z
 _atom_site_occupancy
  Cs  Cs0  1  0.000000  0.000000  0.000000  1
  Mn  Mn1  1  0.000000  0.500000  0.000000  1
  Sb  Sb2  1  0.340735  0.184751  0.841183  1
  Sb  Sb3  1  0.659265  0.815249  0.158817  1
  Sb  Sb4  1  0.650243  0.498184  0.839000  1
  Sb  Sb5  1  0.349757  0.501816  0.161000  1
  Sb  Sb6  1  0.187985  0.847154  0.349367  1
  Sb  Sb7  1  0.812015  0.152846  0.650633  1
  Sb  Sb8  1  0.499923  0.841291  0.656465  1
  Sb  Sb9  1  0.500077  0.158709  0.343535  1
  Sb  Sb10  1  0.841104  0.344282  0.191645  1
  Sb  Sb11  1  0.158896  0.655718  0.808355  1
  Sb  Sb12  1  0.841558  0.659900  0.501987  1
  Sb  Sb13  1  0.158442  0.340100  0.498013  1
  Os  Os14  1  0.000000  0.000000  0.500000  1
  Os  Os15  1  0.500000  0.500000  0.500000  1
  Rh  Rh16  1  0.500000  0.000000  0.000000  1
