# generated using pymatgen
data_La2Y3(Sn5Rh2)2
_symmetry_space_group_name_H-M   'P 1'
_cell_length_a   14.15969400
_cell_length_b   14.15969400
_cell_length_c   4.57145100
_cell_angle_alpha   90.00000000
_cell_angle_beta   90.00000000
_cell_angle_gamma   90.00000000
_symmetry_Int_Tables_number   1
_chemical_formula_structural   La2Y3(Sn5Rh2)2
_chemical_formula_sum   'La4 Y6 Sn20 Rh8'
_cell_volume   916.56191023
_cell_formula_units_Z   2
loop_
 _symmetry_equiv_pos_site_id
 _symmetry_equiv_pos_as_xyz
  1  'x, y, z'
loop_
 _atom_site_type_symbol
 _atom_site_label
 _atom_site_symmetry_multiplicity
 _atom_site_fract_x
 _atom_site_fract_y
 _atom_site_fract_z
 _atom_site_occupancy
  La  La0  1  0.888343  0.388343  0.500000  1
  La  La1  1  0.111657  0.611657  0.500000  1
  La  La2  1  0.388343  0.111657  0.500000  1
  La  La3  1  0.611657  0.888343  0.500000  1
  Y  Y4  1  0.500000  0.500000  0.000000  1
  Y  Y5  1  0.000000  0.000000  0.000000  1
  Y  Y6  1  0.677240  0.177240  0.500000  1
  Y  Y7  1  0.322760  0.822760  0.500000  1
  Y  Y8  1  0.177240  0.322760  0.500000  1
  Y  Y9  1  0.822760  0.677240  0.500000  1
  Sn  Sn10  1  0.570881  0.070881  0.000000  1
  Sn  Sn11  1  0.429119  0.929119  0.000000  1
  Sn  Sn12  1  0.070881  0.429119  0.000000  1
  Sn  Sn13  1  0.929119  0.570881  0.000000  1
  Sn  Sn14  1  0.654468  0.697697  0.000000  1
  Sn  Sn15  1  0.345532  0.302303  0.000000  1
  Sn  Sn16  1  0.154468  0.802303  0.000000  1
  Sn  Sn17  1  0.845532  0.197697  0.000000  1
  Sn  Sn18  1  0.302303  0.654468  0.000000  1
  Sn  Sn19  1  0.697697  0.345532  0.000000  1
  Sn  Sn20  1  0.197697  0.154468  0.000000  1
  Sn  Sn21  1  0.802303  0.845532  0.000000  1
  Sn  Sn22  1  0.661430  0.505961  0.500000  1
  Sn  Sn23  1  0.338570  0.494039  0.500000  1
  Sn  Sn24  1  0.161430  0.994039  0.500000  1
  Sn  Sn25  1  0.838570  0.005961  0.500000  1
  Sn  Sn26  1  0.494039  0.661430  0.500000  1
  Sn  Sn27  1  0.505961  0.338570  0.500000  1
  Sn  Sn28  1  0.005961  0.161430  0.500000  1
  Sn  Sn29  1  0.994039  0.838570  0.500000  1
  Rh  Rh30  1  0.745809  0.529062  0.000000  1
  Rh  Rh31  1  0.254191  0.470938  0.000000  1
  Rh  Rh32  1  0.245809  0.970938  0.000000  1
  Rh  Rh33  1  0.754191  0.029062  0.000000  1
  Rh  Rh34  1  0.470938  0.745809  0.000000  1
  Rh  Rh35  1  0.529062  0.254191  0.000000  1
  Rh  Rh36  1  0.029062  0.245809  0.000000  1
  Rh  Rh37  1  0.970938  0.754191  0.000000  1
