# generated using pymatgen
data_Zr4Al7Tc
_symmetry_space_group_name_H-M   'P 1'
_cell_length_a   5.32460100
_cell_length_b   5.32460048
_cell_length_c   8.65326700
_cell_angle_alpha   90.00000000
_cell_angle_beta   90.00000000
_cell_angle_gamma   119.99998457
_symmetry_Int_Tables_number   1
_chemical_formula_structural   Zr4Al7Tc
_chemical_formula_sum   'Zr4 Al7 Tc1'
_cell_volume   212.46377814
_cell_formula_units_Z   1
loop_
 _symmetry_equiv_pos_site_id
 _symmetry_equiv_pos_as_xyz
  1  'x, y, z'
loop_
 _atom_site_type_symbol
 _atom_site_label
 _atom_site_symmetry_multiplicity
 _atom_site_fract_x
 _atom_site_fract_y
 _atom_site_fract_z
 _atom_site_occupancy
  Zr  Zr0  1  0.333333  0.666667  0.443532  1
  Zr  Zr1  1  0.666667  0.333333  0.933466  1
  Zr  Zr2  1  0.666667  0.333333  0.556468  1
  Zr  Zr3  1  0.333333  0.666667  0.066534  1
  Al  Al4  1  0.169402  0.338803  0.757491  1
  Al  Al5  1  0.830598  0.169402  0.242509  1
  Al  Al6  1  0.338803  0.169402  0.242509  1
  Al  Al7  1  0.661197  0.830598  0.757491  1
  Al  Al8  1  0.000000  0.000000  0.500000  1
  Al  Al9  1  0.830598  0.661197  0.242509  1
  Al  Al10  1  0.169402  0.830598  0.757491  1
  Tc  Tc11  1  0.000000  0.000000  0.000000  1
