# generated using pymatgen
data_La5Zn2Co2Ru
_symmetry_space_group_name_H-M   'P 1'
_cell_length_a   8.45943279
_cell_length_b   8.44590884
_cell_length_c   8.45005727
_cell_angle_alpha   109.37770428
_cell_angle_beta   109.36594853
_cell_angle_gamma   109.77256505
_symmetry_Int_Tables_number   1
_chemical_formula_structural   La5Zn2Co2Ru
_chemical_formula_sum   'La10 Zn4 Co4 Ru2'
_cell_volume   464.16156984
_cell_formula_units_Z   2
loop_
 _symmetry_equiv_pos_site_id
 _symmetry_equiv_pos_as_xyz
  1  'x, y, z'
loop_
 _atom_site_type_symbol
 _atom_site_label
 _atom_site_symmetry_multiplicity
 _atom_site_fract_x
 _atom_site_fract_y
 _atom_site_fract_z
 _atom_site_occupancy
  La  La0  1  0.247346  0.690512  0.437908  1
  La  La1  1  0.753696  0.810787  0.062061  1
  La  La2  1  0.442009  0.249078  0.691197  1
  La  La3  1  0.691222  0.438258  0.248363  1
  La  La4  1  0.057998  0.750767  0.808587  1
  La  La5  1  0.809654  0.061377  0.752984  1
  La  La6  1  0.217997  0.218690  0.218055  1
  La  La7  1  0.499070  0.000626  0.282579  1
  La  La8  1  0.281781  0.496918  0.998559  1
  La  La9  1  0.996584  0.280936  0.498230  1
  Zn  Zn10  1  0.501064  0.004519  0.914454  1
  Zn  Zn11  1  0.588623  0.582884  0.587089  1
  Zn  Zn12  1  0.911390  0.500561  0.999492  1
  Zn  Zn13  1  0.006036  0.915637  0.502570  1
  Co  Co14  1  0.250800  0.122242  0.874301  1
  Co  Co15  1  0.751618  0.378117  0.628268  1
  Co  Co16  1  0.873639  0.250590  0.121686  1
  Co  Co17  1  0.124519  0.874502  0.250221  1
  Ru  Ru18  1  0.624327  0.752374  0.373692  1
  Ru  Ru19  1  0.370629  0.620629  0.749708  1
