# generated using pymatgen
data_Er5Sc3Cr(FeB8)3
_symmetry_space_group_name_H-M   'P 1'
_cell_length_a   3.44857400
_cell_length_b   8.95512521
_cell_length_c   11.32629705
_cell_angle_alpha   89.90339947
_cell_angle_beta   90.00000000
_cell_angle_gamma   90.00000000
_symmetry_Int_Tables_number   1
_chemical_formula_structural   Er5Sc3Cr(FeB8)3
_chemical_formula_sum   'Er5 Sc3 Cr1 Fe3 B24'
_cell_volume   349.78287444
_cell_formula_units_Z   1
loop_
 _symmetry_equiv_pos_site_id
 _symmetry_equiv_pos_as_xyz
  1  'x, y, z'
loop_
 _atom_site_type_symbol
 _atom_site_label
 _atom_site_symmetry_multiplicity
 _atom_site_fract_x
 _atom_site_fract_y
 _atom_site_fract_z
 _atom_site_occupancy
  Er  Er0  1  0.000000  0.823837  0.084315  1
  Er  Er1  1  0.000000  0.176788  0.912474  1
  Er  Er2  1  0.000000  0.321478  0.416169  1
  Er  Er3  1  0.000000  0.678424  0.586138  1
  Er  Er4  1  0.000000  0.443314  0.130652  1
  Sc  Sc5  1  0.000000  0.557272  0.869086  1
  Sc  Sc6  1  0.000000  0.942543  0.370981  1
  Sc  Sc7  1  0.000000  0.055591  0.628948  1
  Cr  Cr8  1  0.000000  0.360163  0.680335  1
  Fe  Fe9  1  0.000000  0.136434  0.182649  1
  Fe  Fe10  1  0.000000  0.859690  0.817662  1
  Fe  Fe11  1  0.000000  0.644195  0.319716  1
  B  B12  1  0.500000  0.053233  0.068145  1
  B  B13  1  0.500000  0.944269  0.930584  1
  B  B14  1  0.500000  0.556507  0.432695  1
  B  B15  1  0.500000  0.446662  0.566989  1
  B  B16  1  0.500000  0.246059  0.083033  1
  B  B17  1  0.500000  0.749969  0.916162  1
  B  B18  1  0.500000  0.751527  0.418045  1
  B  B19  1  0.500000  0.247369  0.581289  1
  B  B20  1  0.500000  0.288052  0.236624  1
  B  B21  1  0.500000  0.708307  0.764980  1
  B  B22  1  0.500000  0.794006  0.266295  1
  B  B23  1  0.500000  0.205219  0.734676  1
  B  B24  1  0.500000  0.127979  0.317080  1
  B  B25  1  0.500000  0.870485  0.684317  1
  B  B26  1  0.500000  0.633862  0.186025  1
  B  B27  1  0.500000  0.370211  0.815680  1
  B  B28  1  0.500000  0.487085  0.289604  1
  B  B29  1  0.500000  0.519181  0.713416  1
  B  B30  1  0.500000  0.983195  0.213635  1
  B  B31  1  0.500000  0.015844  0.786270  1
  B  B32  1  0.500000  0.097462  0.472908  1
  B  B33  1  0.500000  0.900590  0.527003  1
  B  B34  1  0.500000  0.603509  0.024950  1
  B  B35  1  0.500000  0.399694  0.970471  1
