# generated using pymatgen
data_Pr8Tm12Sn15Ru
_symmetry_space_group_name_H-M   'P 1'
_cell_length_a   7.89836100
_cell_length_b   8.24332316
_cell_length_c   15.35298200
_cell_angle_alpha   90.00000000
_cell_angle_beta   90.00000000
_cell_angle_gamma   89.74419044
_symmetry_Int_Tables_number   1
_chemical_formula_structural   Pr8Tm12Sn15Ru
_chemical_formula_sum   'Pr8 Tm12 Sn15 Ru1'
_cell_volume   999.60338338
_cell_formula_units_Z   1
loop_
 _symmetry_equiv_pos_site_id
 _symmetry_equiv_pos_as_xyz
  1  'x, y, z'
loop_
 _atom_site_type_symbol
 _atom_site_label
 _atom_site_symmetry_multiplicity
 _atom_site_fract_x
 _atom_site_fract_y
 _atom_site_fract_z
 _atom_site_occupancy
  Pr  Pr0  1  0.506424  0.330961  0.902896  1
  Pr  Pr1  1  0.011052  0.178585  0.596709  1
  Pr  Pr2  1  0.491577  0.680763  0.405376  1
  Pr  Pr3  1  0.991502  0.825576  0.094839  1
  Pr  Pr4  1  0.491577  0.680763  0.094624  1
  Pr  Pr5  1  0.991502  0.825576  0.405161  1
  Pr  Pr6  1  0.506424  0.330961  0.597104  1
  Pr  Pr7  1  0.011052  0.178585  0.903291  1
  Tm  Tm8  1  0.372356  0.813551  0.865739  1
  Tm  Tm9  1  0.814883  0.661765  0.633251  1
  Tm  Tm10  1  0.654886  0.168815  0.375646  1
  Tm  Tm11  1  0.155815  0.334487  0.125183  1
  Tm  Tm12  1  0.654886  0.168815  0.124354  1
  Tm  Tm13  1  0.155815  0.334487  0.374817  1
  Tm  Tm14  1  0.372356  0.813551  0.634261  1
  Tm  Tm15  1  0.814883  0.661765  0.866749  1
  Tm  Tm16  1  0.197174  0.503937  0.750000  1
  Tm  Tm17  1  0.681232  0.996070  0.750000  1
  Tm  Tm18  1  0.821413  0.501014  0.250000  1
  Tm  Tm19  1  0.320355  0.000618  0.250000  1
  Sn  Sn20  1  0.320095  0.040081  0.036146  1
  Sn  Sn21  1  0.821536  0.462368  0.460133  1
  Sn  Sn22  1  0.685330  0.966353  0.540619  1
  Sn  Sn23  1  0.171991  0.545137  0.958548  1
  Sn  Sn24  1  0.685330  0.966353  0.959381  1
  Sn  Sn25  1  0.171991  0.545137  0.541452  1
  Sn  Sn26  1  0.320095  0.040081  0.463854  1
  Sn  Sn27  1  0.821536  0.462368  0.039867  1
  Sn  Sn28  1  0.045068  0.876795  0.750000  1
  Sn  Sn29  1  0.457440  0.376469  0.250000  1
  Sn  Sn30  1  0.957487  0.123469  0.250000  1
  Sn  Sn31  1  0.310754  0.137185  0.750000  1
  Sn  Sn32  1  0.804831  0.358865  0.750000  1
  Sn  Sn33  1  0.685696  0.857016  0.250000  1
  Sn  Sn34  1  0.184405  0.645074  0.250000  1
  Ru  Ru35  1  0.539251  0.606606  0.750000  1
