# generated using pymatgen
data_PdCl35
_symmetry_space_group_name_H-M   'P 1'
_cell_length_a   14.38377941
_cell_length_b   10.26025305
_cell_length_c   9.71269500
_cell_angle_alpha   88.81408388
_cell_angle_beta   66.02770759
_cell_angle_gamma   92.31545463
_symmetry_Int_Tables_number   1
_chemical_formula_structural   PdCl35
_chemical_formula_sum   'Pd1 Cl35'
_cell_volume   1307.61722576
_cell_formula_units_Z   1
loop_
 _symmetry_equiv_pos_site_id
 _symmetry_equiv_pos_as_xyz
  1  'x, y, z'
loop_
 _atom_site_type_symbol
 _atom_site_label
 _atom_site_symmetry_multiplicity
 _atom_site_fract_x
 _atom_site_fract_y
 _atom_site_fract_z
 _atom_site_occupancy
  Pd  Pd0  1  0.245690  0.449316  0.427922  1
  Cl  Cl1  1  0.497242  0.269900  0.575637  1
  Cl  Cl2  1  0.767572  0.575395  0.547304  1
  Cl  Cl3  1  0.467069  0.656941  0.782580  1
  Cl  Cl4  1  0.073362  0.899714  0.805389  1
  Cl  Cl5  1  0.896248  0.151912  0.993665  1
  Cl  Cl6  1  0.659628  0.341105  0.277434  1
  Cl  Cl7  1  0.601030  0.335815  0.863165  1
  Cl  Cl8  1  0.333758  0.759160  0.659547  1
  Cl  Cl9  1  0.328670  0.593767  0.216492  1
  Cl  Cl10  1  0.638374  0.147953  0.828442  1
  Cl  Cl11  1  0.911388  0.540528  0.412157  1
  Cl  Cl12  1  0.087526  0.957414  0.598488  1
  Cl  Cl13  1  0.877065  0.084745  0.289725  1
  Cl  Cl14  1  0.905318  0.215461  0.791041  1
  Cl  Cl15  1  0.646132  0.052186  0.250532  1
  Cl  Cl16  1  0.034387  0.813023  0.114245  1
  Cl  Cl17  1  0.354963  0.942996  0.718741  1
  Cl  Cl18  1  0.892844  0.271974  0.343974  1
  Cl  Cl19  1  0.871072  0.928401  0.654637  1
  Cl  Cl20  1  0.871504  0.668814  0.842853  1
  Cl  Cl21  1  0.313946  0.038154  0.276320  1
  Cl  Cl22  1  0.347977  0.304903  0.250018  1
  Cl  Cl23  1  0.569074  0.616144  0.869636  1
  Cl  Cl24  1  0.114711  0.402306  0.352541  1
  Cl  Cl25  1  0.719572  0.891433  0.733652  1
  Cl  Cl26  1  0.883323  0.474477  0.826174  1
  Cl  Cl27  1  0.500737  0.043274  0.262342  1
  Cl  Cl28  1  0.178634  0.289519  0.617831  1
  Cl  Cl29  1  0.667528  0.769635  0.273492  1
  Cl  Cl30  1  0.880307  0.801723  0.184819  1
  Cl  Cl31  1  0.385720  0.219240  0.777374  1
  Cl  Cl32  1  0.370326  0.503799  0.517293  1
  Cl  Cl33  1  0.653740  0.551953  0.234517  1
  Cl  Cl34  1  0.149351  0.603733  0.585135  1
  Cl  Cl35  1  0.304213  0.833186  0.244890  1
