# generated using pymatgen
data_Tb2Dy2(Al8Pt3)3
_symmetry_space_group_name_H-M   'P 1'
_cell_length_a   7.53068465
_cell_length_b   7.55219306
_cell_length_c   13.17955742
_cell_angle_alpha   84.56413614
_cell_angle_beta   79.10967672
_cell_angle_gamma   59.97355402
_symmetry_Int_Tables_number   1
_chemical_formula_structural   Tb2Dy2(Al8Pt3)3
_chemical_formula_sum   'Tb2 Dy2 Al24 Pt9'
_cell_volume   637.28037278
_cell_formula_units_Z   1
loop_
 _symmetry_equiv_pos_site_id
 _symmetry_equiv_pos_as_xyz
  1  'x, y, z'
loop_
 _atom_site_type_symbol
 _atom_site_label
 _atom_site_symmetry_multiplicity
 _atom_site_fract_x
 _atom_site_fract_y
 _atom_site_fract_z
 _atom_site_occupancy
  Tb  Tb0  1  0.393337  0.168449  0.807995  1
  Tb  Tb1  1  0.606663  0.831551  0.192005  1
  Dy  Dy2  1  0.734120  0.498431  0.807549  1
  Dy  Dy3  1  0.265880  0.501569  0.192451  1
  Al  Al4  1  0.684622  0.833514  0.944473  1
  Al  Al5  1  0.315378  0.166486  0.055527  1
  Al  Al6  1  0.146911  0.832344  0.561202  1
  Al  Al7  1  0.853089  0.167656  0.438798  1
  Al  Al8  1  0.479737  0.166855  0.558621  1
  Al  Al9  1  0.520263  0.833145  0.441379  1
  Al  Al10  1  0.216996  0.165386  0.330075  1
  Al  Al11  1  0.783004  0.834614  0.669925  1
  Al  Al12  1  0.437938  0.506260  0.669946  1
  Al  Al13  1  0.562062  0.493740  0.330054  1
  Al  Al14  1  0.109657  0.160018  0.669168  1
  Al  Al15  1  0.890343  0.839982  0.330832  1
  Al  Al16  1  0.353266  0.499132  0.944690  1
  Al  Al17  1  0.646734  0.500868  0.055310  1
  Al  Al18  1  0.014706  0.167910  0.953181  1
  Al  Al19  1  0.985294  0.832090  0.046819  1
  Al  Al20  1  0.186767  0.498889  0.441266  1
  Al  Al21  1  0.813233  0.501111  0.558734  1
  Al  Al22  1  0.734342  0.164096  0.183309  1
  Al  Al23  1  0.265658  0.835904  0.816691  1
  Al  Al24  1  0.061713  0.631743  0.815451  1
  Al  Al25  1  0.938287  0.368257  0.184549  1
  Al  Al26  1  0.855012  0.041643  0.815977  1
  Al  Al27  1  0.144988  0.958357  0.184023  1
  Pt  Pt28  1  0.119997  0.492296  0.638707  1
  Pt  Pt29  1  0.880003  0.507704  0.361293  1
  Pt  Pt30  1  0.657279  0.171210  0.999952  1
  Pt  Pt31  1  0.342721  0.828790  0.000048  1
  Pt  Pt32  1  0.538008  0.166819  0.361310  1
  Pt  Pt33  1  0.461992  0.833181  0.638690  1
  Pt  Pt34  1  0.779116  0.174929  0.637195  1
  Pt  Pt35  1  0.220884  0.825071  0.362805  1
  Pt  Pt36  1  0.000000  0.500000  0.000000  1
