# generated using pymatgen
data_Dy5Mg3(Cu4P3)4
_symmetry_space_group_name_H-M   'P 1'
_cell_length_a   12.76093600
_cell_length_b   12.76093621
_cell_length_c   3.82531100
_cell_angle_alpha   90.00000000
_cell_angle_beta   90.00000000
_cell_angle_gamma   119.99999944
_symmetry_Int_Tables_number   1
_chemical_formula_structural   Dy5Mg3(Cu4P3)4
_chemical_formula_sum   'Dy5 Mg3 Cu16 P12'
_cell_volume   539.46397965
_cell_formula_units_Z   1
loop_
 _symmetry_equiv_pos_site_id
 _symmetry_equiv_pos_as_xyz
  1  'x, y, z'
loop_
 _atom_site_type_symbol
 _atom_site_label
 _atom_site_symmetry_multiplicity
 _atom_site_fract_x
 _atom_site_fract_y
 _atom_site_fract_z
 _atom_site_occupancy
  Dy  Dy0  1  0.333333  0.666667  0.500000  1
  Dy  Dy1  1  0.666667  0.333333  0.500000  1
  Dy  Dy2  1  0.000000  0.821017  0.000000  1
  Dy  Dy3  1  0.178983  0.178983  0.000000  1
  Dy  Dy4  1  0.821017  0.000000  0.000000  1
  Mg  Mg5  1  0.000000  0.442816  0.500000  1
  Mg  Mg6  1  0.557184  0.557184  0.500000  1
  Mg  Mg7  1  0.442816  0.000000  0.500000  1
  Cu  Cu8  1  0.527296  0.880532  0.000000  1
  Cu  Cu9  1  0.119468  0.646766  0.000000  1
  Cu  Cu10  1  0.353234  0.472704  0.000000  1
  Cu  Cu11  1  0.472704  0.353234  0.000000  1
  Cu  Cu12  1  0.880532  0.527296  0.000000  1
  Cu  Cu13  1  0.646766  0.119468  0.000000  1
  Cu  Cu14  1  0.000000  0.283376  0.000000  1
  Cu  Cu15  1  0.716624  0.716624  0.000000  1
  Cu  Cu16  1  0.283376  0.000000  0.000000  1
  Cu  Cu17  1  0.623000  0.803666  0.500000  1
  Cu  Cu18  1  0.196334  0.819335  0.500000  1
  Cu  Cu19  1  0.180665  0.377000  0.500000  1
  Cu  Cu20  1  0.377000  0.180665  0.500000  1
  Cu  Cu21  1  0.803666  0.623000  0.500000  1
  Cu  Cu22  1  0.819335  0.196334  0.500000  1
  Cu  Cu23  1  0.000000  0.000000  0.500000  1
  P  P24  1  0.000000  0.646019  0.500000  1
  P  P25  1  0.353981  0.353981  0.500000  1
  P  P26  1  0.646019  0.000000  0.500000  1
  P  P27  1  0.510227  0.681615  0.000000  1
  P  P28  1  0.318385  0.828612  0.000000  1
  P  P29  1  0.171388  0.489773  0.000000  1
  P  P30  1  0.489773  0.171388  0.000000  1
  P  P31  1  0.681615  0.510227  0.000000  1
  P  P32  1  0.828612  0.318385  0.000000  1
  P  P33  1  0.000000  0.175475  0.500000  1
  P  P34  1  0.824525  0.824525  0.500000  1
  P  P35  1  0.175475  0.000000  0.500000  1
