# generated using pymatgen
data_Ti8Al6Si9Os7
_symmetry_space_group_name_H-M   'P 1'
_cell_length_a   8.51559191
_cell_length_b   8.51559155
_cell_length_c   8.51559163
_cell_angle_alpha   120.16301036
_cell_angle_beta   119.77237079
_cell_angle_gamma   90.05630661
_symmetry_Int_Tables_number   1
_chemical_formula_structural   Ti8Al6Si9Os7
_chemical_formula_sum   'Ti8 Al6 Si9 Os7'
_cell_volume   436.85266502
_cell_formula_units_Z   1
loop_
 _symmetry_equiv_pos_site_id
 _symmetry_equiv_pos_as_xyz
  1  'x, y, z'
loop_
 _atom_site_type_symbol
 _atom_site_label
 _atom_site_symmetry_multiplicity
 _atom_site_fract_x
 _atom_site_fract_y
 _atom_site_fract_z
 _atom_site_occupancy
  Ti  Ti0  1  0.799505  0.296938  0.089844  1
  Ti  Ti1  1  0.207095  0.296938  0.497434  1
  Ti  Ti2  1  0.203035  0.703035  0.500000  1
  Ti  Ti3  1  0.207095  0.709661  0.910156  1
  Ti  Ti4  1  0.799505  0.709661  0.502566  1
  Ti  Ti5  1  0.792412  0.292412  0.500000  1
  Ti  Ti6  1  0.377498  0.123373  0.745875  1
  Ti  Ti7  1  0.377498  0.631624  0.254125  1
  Al  Al8  1  0.381049  0.120082  0.260968  1
  Al  Al9  1  0.859116  0.120082  0.739032  1
  Al  Al10  1  0.620238  0.880204  0.259966  1
  Al  Al11  1  0.620238  0.360273  0.740034  1
  Al  Al12  1  0.621967  0.878917  0.743049  1
  Al  Al13  1  0.135867  0.878917  0.256951  1
  Si  Si14  1  0.998473  0.498473  0.500000  1
  Si  Si15  1  0.155956  0.343407  0.187452  1
  Si  Si16  1  0.155956  0.968504  0.812548  1
  Si  Si17  1  0.151794  0.346358  0.805437  1
  Si  Si18  1  0.540920  0.346358  0.194563  1
  Si  Si19  1  0.844538  0.654815  0.810277  1
  Si  Si20  1  0.844538  0.034261  0.189723  1
  Si  Si21  1  0.843344  0.655534  0.187809  1
  Si  Si22  1  0.467725  0.655534  0.812191  1
  Os  Os23  1  0.999050  0.999517  0.499294  1
  Os  Os24  1  0.500223  0.999517  0.000466  1
  Os  Os25  1  0.500053  0.500053  0.000000  1
  Os  Os26  1  0.500223  0.499757  0.500706  1
  Os  Os27  1  0.999050  0.499757  0.999534  1
  Os  Os28  1  0.000667  0.000667  0.000000  1
  Os  Os29  1  0.495370  0.995370  0.500000  1
