# generated using pymatgen
data_Sc4As6Ru2Rh5
_symmetry_space_group_name_H-M   'P 1'
_cell_length_a   7.08505158
_cell_length_b   7.08545599
_cell_length_c   7.08505122
_cell_angle_alpha   109.48432504
_cell_angle_beta   109.43349082
_cell_angle_gamma   109.48433064
_symmetry_Int_Tables_number   1
_chemical_formula_structural   Sc4As6Ru2Rh5
_chemical_formula_sum   'Sc4 As6 Ru2 Rh5'
_cell_volume   273.83789232
_cell_formula_units_Z   1
loop_
 _symmetry_equiv_pos_site_id
 _symmetry_equiv_pos_as_xyz
  1  'x, y, z'
loop_
 _atom_site_type_symbol
 _atom_site_label
 _atom_site_symmetry_multiplicity
 _atom_site_fract_x
 _atom_site_fract_y
 _atom_site_fract_z
 _atom_site_occupancy
  Sc  Sc0  1  0.000780  0.001482  0.500758  1
  Sc  Sc1  1  0.499242  0.998518  0.999220  1
  Sc  Sc2  1  0.000741  0.500000  0.999259  1
  Sc  Sc3  1  0.499249  0.500000  0.500751  1
  As  As4  1  0.684527  0.686439  0.998001  1
  As  As5  1  0.311613  0.313501  0.998148  1
  As  As6  1  0.001852  0.686499  0.688387  1
  As  As7  1  0.001999  0.313561  0.315473  1
  As  As8  1  0.687718  0.999937  0.687736  1
  As  As9  1  0.312264  0.000063  0.312282  1
  Ru  Ru10  1  0.999986  0.000000  0.000014  1
  Ru  Ru11  1  0.249992  0.500000  0.750008  1
  Rh  Rh12  1  0.749571  0.249171  0.500360  1
  Rh  Rh13  1  0.499671  0.249170  0.748843  1
  Rh  Rh14  1  0.499640  0.750829  0.250429  1
  Rh  Rh15  1  0.749998  0.500000  0.250002  1
  Rh  Rh16  1  0.251157  0.750830  0.500329  1
