# generated using pymatgen
data_Ca2AlGaAu2
_symmetry_space_group_name_H-M   'P 1'
_cell_length_a   4.58461900
_cell_length_b   7.33198344
_cell_length_c   7.78573124
_cell_angle_alpha   90.67286006
_cell_angle_beta   90.00000000
_cell_angle_gamma   90.00000000
_symmetry_Int_Tables_number   1
_chemical_formula_structural   Ca2AlGaAu2
_chemical_formula_sum   'Ca4 Al2 Ga2 Au4'
_cell_volume   261.69425289
_cell_formula_units_Z   2
loop_
 _symmetry_equiv_pos_site_id
 _symmetry_equiv_pos_as_xyz
  1  'x, y, z'
loop_
 _atom_site_type_symbol
 _atom_site_label
 _atom_site_symmetry_multiplicity
 _atom_site_fract_x
 _atom_site_fract_y
 _atom_site_fract_z
 _atom_site_occupancy
  Ca  Ca0  1  0.250000  0.009673  0.302430  1
  Ca  Ca1  1  0.250000  0.511559  0.186810  1
  Ca  Ca2  1  0.750000  0.990327  0.697570  1
  Ca  Ca3  1  0.750000  0.488441  0.813190  1
  Al  Al4  1  0.250000  0.663659  0.570460  1
  Al  Al5  1  0.750000  0.336341  0.429540  1
  Ga  Ga6  1  0.750000  0.825103  0.074802  1
  Ga  Ga7  1  0.250000  0.174897  0.925198  1
  Au  Au8  1  0.250000  0.787455  0.888952  1
  Au  Au9  1  0.750000  0.212545  0.111048  1
  Au  Au10  1  0.750000  0.705441  0.400247  1
  Au  Au11  1  0.250000  0.294559  0.599753  1
