# generated using pymatgen
data_Nd6IrPd3Au4
_symmetry_space_group_name_H-M   'P 1'
_cell_length_a   8.25336242
_cell_length_b   8.27375769
_cell_length_c   8.31421348
_cell_angle_alpha   114.75244655
_cell_angle_beta   114.48556204
_cell_angle_gamma   114.06186483
_symmetry_Int_Tables_number   1
_chemical_formula_structural   Nd6IrPd3Au4
_chemical_formula_sum   'Nd6 Ir1 Pd3 Au4'
_cell_volume   333.55543404
_cell_formula_units_Z   1
loop_
 _symmetry_equiv_pos_site_id
 _symmetry_equiv_pos_as_xyz
  1  'x, y, z'
loop_
 _atom_site_type_symbol
 _atom_site_label
 _atom_site_symmetry_multiplicity
 _atom_site_fract_x
 _atom_site_fract_y
 _atom_site_fract_z
 _atom_site_occupancy
  Nd  Nd0  1  0.978514  0.601939  0.724603  1
  Nd  Nd1  1  0.719972  0.971989  0.605127  1
  Nd  Nd2  1  0.611494  0.732475  0.982724  1
  Nd  Nd3  1  0.028618  0.386253  0.266414  1
  Nd  Nd4  1  0.272143  0.025014  0.378539  1
  Nd  Nd5  1  0.384570  0.273753  0.032955  1
  Ir  Ir6  1  0.989074  0.987705  0.988417  1
  Pd  Pd7  1  0.505749  0.503882  0.506233  1
  Pd  Pd8  1  0.564140  0.063295  0.227385  1
  Pd  Pd9  1  0.229995  0.568737  0.067216  1
  Au  Au10  1  0.941259  0.777275  0.440239  1
  Au  Au11  1  0.436933  0.937242  0.778955  1
  Au  Au12  1  0.775868  0.437927  0.934317  1
  Au  Au13  1  0.061668  0.232512  0.566875  1
