# generated using pymatgen
data_La3Cd4RhAu
_symmetry_space_group_name_H-M   'P 1'
_cell_length_a   8.20494200
_cell_length_b   8.20494319
_cell_length_c   3.95879200
_cell_angle_alpha   90.00000000
_cell_angle_beta   90.00000000
_cell_angle_gamma   120.00000328
_symmetry_Int_Tables_number   1
_chemical_formula_structural   La3Cd4RhAu
_chemical_formula_sum   'La3 Cd4 Rh1 Au1'
_cell_volume   230.80456528
_cell_formula_units_Z   1
loop_
 _symmetry_equiv_pos_site_id
 _symmetry_equiv_pos_as_xyz
  1  'x, y, z'
loop_
 _atom_site_type_symbol
 _atom_site_label
 _atom_site_symmetry_multiplicity
 _atom_site_fract_x
 _atom_site_fract_y
 _atom_site_fract_z
 _atom_site_occupancy
  La  La0  1  0.401895  0.422495  0.500000  1
  La  La1  1  0.577505  0.979400  0.500000  1
  La  La2  1  0.020600  0.598105  0.500000  1
  Cd  Cd3  1  0.731253  0.731376  0.000000  1
  Cd  Cd4  1  0.268624  0.999877  0.000000  1
  Cd  Cd5  1  0.000123  0.268747  0.000000  1
  Cd  Cd6  1  0.000000  0.000000  0.500000  1
  Rh  Rh7  1  0.333333  0.666667  0.000000  1
  Au  Au8  1  0.666667  0.333333  0.000000  1
