# generated using pymatgen
data_Eu6Cd23As
_symmetry_space_group_name_H-M   'P 1'
_cell_length_a   10.29618631
_cell_length_b   10.29618631
_cell_length_c   10.29618600
_cell_angle_alpha   60.00000099
_cell_angle_beta   60.00000101
_cell_angle_gamma   60.00000065
_symmetry_Int_Tables_number   1
_chemical_formula_structural   Eu6Cd23As
_chemical_formula_sum   'Eu6 Cd23 As1'
_cell_volume   771.81670747
_cell_formula_units_Z   1
loop_
 _symmetry_equiv_pos_site_id
 _symmetry_equiv_pos_as_xyz
  1  'x, y, z'
loop_
 _atom_site_type_symbol
 _atom_site_label
 _atom_site_symmetry_multiplicity
 _atom_site_fract_x
 _atom_site_fract_y
 _atom_site_fract_z
 _atom_site_occupancy
  Eu  Eu0  1  0.792888  0.792888  0.207112  1
  Eu  Eu1  1  0.207112  0.792888  0.207112  1
  Eu  Eu2  1  0.792888  0.207112  0.207112  1
  Eu  Eu3  1  0.207112  0.207112  0.792888  1
  Eu  Eu4  1  0.792888  0.207112  0.792888  1
  Eu  Eu5  1  0.207112  0.792888  0.792888  1
  Cd  Cd6  1  0.830167  0.830167  0.509500  1
  Cd  Cd7  1  0.830167  0.509500  0.830167  1
  Cd  Cd8  1  0.509500  0.830167  0.830167  1
  Cd  Cd9  1  0.830167  0.830167  0.830167  1
  Cd  Cd10  1  0.169833  0.169833  0.490500  1
  Cd  Cd11  1  0.169833  0.490500  0.169833  1
  Cd  Cd12  1  0.490500  0.169833  0.169833  1
  Cd  Cd13  1  0.169833  0.169833  0.169833  1
  Cd  Cd14  1  0.620757  0.620757  0.137729  1
  Cd  Cd15  1  0.620757  0.137729  0.620757  1
  Cd  Cd16  1  0.137729  0.620757  0.620757  1
  Cd  Cd17  1  0.620757  0.620757  0.620757  1
  Cd  Cd18  1  0.379243  0.379243  0.862271  1
  Cd  Cd19  1  0.379243  0.862271  0.379243  1
  Cd  Cd20  1  0.862271  0.379243  0.379243  1
  Cd  Cd21  1  0.379243  0.379243  0.379243  1
  Cd  Cd22  1  0.000000  0.000000  0.500000  1
  Cd  Cd23  1  0.500000  0.000000  0.500000  1
  Cd  Cd24  1  0.000000  0.500000  0.500000  1
  Cd  Cd25  1  0.500000  0.500000  0.000000  1
  Cd  Cd26  1  0.000000  0.500000  0.000000  1
  Cd  Cd27  1  0.500000  0.000000  0.000000  1
  Cd  Cd28  1  0.500000  0.500000  0.500000  1
  As  As29  1  0.000000  0.000000  0.000000  1
