# generated using pymatgen
data_Y5Zr3Fe2(As6Pd7)2
_symmetry_space_group_name_H-M   'P 1'
_cell_length_a   13.54026399
_cell_length_b   13.57013246
_cell_length_c   4.05599000
_cell_angle_alpha   90.00000000
_cell_angle_beta   90.00000000
_cell_angle_gamma   120.07300157
_symmetry_Int_Tables_number   1
_chemical_formula_structural   Y5Zr3Fe2(As6Pd7)2
_chemical_formula_sum   'Y5 Zr3 Fe2 As12 Pd14'
_cell_volume   644.93921302
_cell_formula_units_Z   1
loop_
 _symmetry_equiv_pos_site_id
 _symmetry_equiv_pos_as_xyz
  1  'x, y, z'
loop_
 _atom_site_type_symbol
 _atom_site_label
 _atom_site_symmetry_multiplicity
 _atom_site_fract_x
 _atom_site_fract_y
 _atom_site_fract_z
 _atom_site_occupancy
  Y  Y0  1  0.188541  0.189802  0.500000  1
  Y  Y1  1  0.811459  0.001260  0.500000  1
  Y  Y2  1  0.000000  0.811426  0.500000  1
  Y  Y3  1  0.333720  0.666759  0.000000  1
  Y  Y4  1  0.666280  0.333038  0.000000  1
  Zr  Zr5  1  0.558619  0.559261  0.000000  1
  Zr  Zr6  1  0.441381  0.000642  0.000000  1
  Zr  Zr7  1  0.000000  0.444118  0.000000  1
  Fe  Fe8  1  0.716110  0.715039  0.500000  1
  Fe  Fe9  1  0.283890  0.998929  0.500000  1
  As  As10  1  0.819565  0.818455  0.000000  1
  As  As11  1  0.180435  0.998890  0.000000  1
  As  As12  1  0.000000  0.169821  0.000000  1
  As  As13  1  0.167412  0.485387  0.500000  1
  As  As14  1  0.523798  0.685341  0.500000  1
  As  As15  1  0.316722  0.839302  0.500000  1
  As  As16  1  0.683278  0.522581  0.500000  1
  As  As17  1  0.832588  0.317975  0.500000  1
  As  As18  1  0.476202  0.161543  0.500000  1
  As  As19  1  0.358374  0.359860  0.000000  1
  As  As20  1  0.641626  0.001486  0.000000  1
  As  As21  1  0.000000  0.641774  0.000000  1
  Pd  Pd22  1  0.000000  0.276542  0.500000  1
  Pd  Pd23  1  0.179930  0.371209  0.000000  1
  Pd  Pd24  1  0.631112  0.811134  0.000000  1
  Pd  Pd25  1  0.190719  0.819867  0.000000  1
  Pd  Pd26  1  0.809281  0.629149  0.000000  1
  Pd  Pd27  1  0.820070  0.191279  0.000000  1
  Pd  Pd28  1  0.368888  0.180022  0.000000  1
  Pd  Pd29  1  0.359524  0.487593  0.500000  1
  Pd  Pd30  1  0.512872  0.869020  0.500000  1
  Pd  Pd31  1  0.132195  0.647769  0.500000  1
  Pd  Pd32  1  0.867805  0.515574  0.500000  1
  Pd  Pd33  1  0.640476  0.128069  0.500000  1
  Pd  Pd34  1  0.487128  0.356148  0.500000  1
  Pd  Pd35  1  0.000000  0.993933  0.000000  1
