# generated using pymatgen
data_Pr17Er3Sn9Pb7
_symmetry_space_group_name_H-M   'P 1'
_cell_length_a   8.32818016
_cell_length_b   8.51182150
_cell_length_c   16.15768338
_cell_angle_alpha   90.01048735
_cell_angle_beta   89.97740867
_cell_angle_gamma   90.07606850
_symmetry_Int_Tables_number   1
_chemical_formula_structural   Pr17Er3Sn9Pb7
_chemical_formula_sum   'Pr17 Er3 Sn9 Pb7'
_cell_volume   1145.38446722
_cell_formula_units_Z   1
loop_
 _symmetry_equiv_pos_site_id
 _symmetry_equiv_pos_as_xyz
  1  'x, y, z'
loop_
 _atom_site_type_symbol
 _atom_site_label
 _atom_site_symmetry_multiplicity
 _atom_site_fract_x
 _atom_site_fract_y
 _atom_site_fract_z
 _atom_site_occupancy
  Pr  Pr0  1  0.365783  0.838580  0.875939  1
  Pr  Pr1  1  0.865820  0.660893  0.622503  1
  Pr  Pr2  1  0.634812  0.162703  0.377441  1
  Pr  Pr3  1  0.130924  0.339042  0.121156  1
  Pr  Pr4  1  0.635522  0.164814  0.121763  1
  Pr  Pr5  1  0.132873  0.338874  0.378215  1
  Pr  Pr6  1  0.365650  0.838532  0.624347  1
  Pr  Pr7  1  0.865503  0.659537  0.878872  1
  Pr  Pr8  1  0.521232  0.320345  0.899606  1
  Pr  Pr9  1  0.019520  0.180577  0.602551  1
  Pr  Pr10  1  0.480990  0.680115  0.398974  1
  Pr  Pr11  1  0.979222  0.816508  0.100367  1
  Pr  Pr12  1  0.482662  0.678219  0.100480  1
  Pr  Pr13  1  0.980202  0.818637  0.399161  1
  Pr  Pr14  1  0.519416  0.319018  0.601219  1
  Pr  Pr15  1  0.018767  0.181793  0.897964  1
  Pr  Pr16  1  0.304612  0.001352  0.249803  1
  Er  Er17  1  0.198710  0.500999  0.750309  1
  Er  Er18  1  0.698311  0.998342  0.750050  1
  Er  Er19  1  0.801658  0.497754  0.247914  1
  Sn  Sn20  1  0.791291  0.466483  0.044859  1
  Sn  Sn21  1  0.562544  0.616474  0.750023  1
  Sn  Sn22  1  0.060124  0.881605  0.750381  1
  Sn  Sn23  1  0.438535  0.385576  0.250175  1
  Sn  Sn24  1  0.934083  0.117902  0.250181  1
  Sn  Sn25  1  0.324859  0.149559  0.750155  1
  Sn  Sn26  1  0.822937  0.352472  0.749897  1
  Sn  Sn27  1  0.678952  0.850894  0.249865  1
  Sn  Sn28  1  0.174903  0.642345  0.249930  1
  Pb  Pb29  1  0.291677  0.036081  0.040962  1
  Pb  Pb30  1  0.791485  0.465630  0.455846  1
  Pb  Pb31  1  0.708067  0.965614  0.544345  1
  Pb  Pb32  1  0.209293  0.535163  0.955537  1
  Pb  Pb33  1  0.708038  0.965755  0.955551  1
  Pb  Pb34  1  0.209029  0.535295  0.544507  1
  Pb  Pb35  1  0.291998  0.036521  0.459153  1
