# generated using pymatgen
data_Np4Si10Pt5Rh
_symmetry_space_group_name_H-M   'P 1'
_cell_length_a   8.18210401
_cell_length_b   8.18210372
_cell_length_c   8.18210365
_cell_angle_alpha   136.87764018
_cell_angle_beta   104.54158861
_cell_angle_gamma   91.08992364
_symmetry_Int_Tables_number   1
_chemical_formula_structural   Np4Si10Pt5Rh
_chemical_formula_sum   'Np4 Si10 Pt5 Rh1'
_cell_volume   345.08212350
_cell_formula_units_Z   1
loop_
 _symmetry_equiv_pos_site_id
 _symmetry_equiv_pos_as_xyz
  1  'x, y, z'
loop_
 _atom_site_type_symbol
 _atom_site_label
 _atom_site_symmetry_multiplicity
 _atom_site_fract_x
 _atom_site_fract_y
 _atom_site_fract_z
 _atom_site_occupancy
  Np  Np0  1  0.639737  0.869416  0.770675  1
  Np  Np1  1  0.360263  0.130939  0.229680  1
  Np  Np2  1  0.098742  0.369061  0.729325  1
  Np  Np3  1  0.901258  0.630583  0.270320  1
  Si  Si4  1  0.275758  0.025758  0.750000  1
  Si  Si5  1  0.726802  0.976802  0.250000  1
  Si  Si6  1  0.724242  0.474242  0.750000  1
  Si  Si7  1  0.273198  0.523198  0.250000  1
  Si  Si8  1  0.457390  0.603888  0.844244  1
  Si  Si9  1  0.542610  0.386853  0.146496  1
  Si  Si10  1  0.759643  0.113147  0.655756  1
  Si  Si11  1  0.240357  0.896112  0.353504  1
  Si  Si12  1  0.000000  0.750000  0.750000  1
  Si  Si13  1  0.000000  0.250000  0.250000  1
  Pt  Pt14  1  0.250448  0.639635  0.613196  1
  Pt  Pt15  1  0.749552  0.362747  0.389187  1
  Pt  Pt16  1  0.026439  0.137253  0.886804  1
  Pt  Pt17  1  0.973561  0.860365  0.110813  1
  Pt  Pt18  1  0.500000  0.750000  0.250000  1
  Rh  Rh19  1  0.500000  0.250000  0.750000  1
