# generated using pymatgen
data_Be2Cr19(OsC3)2
_symmetry_space_group_name_H-M   'P 1'
_cell_length_a   7.45649690
_cell_length_b   7.45649589
_cell_length_c   7.44016797
_cell_angle_alpha   59.92737404
_cell_angle_beta   59.92738266
_cell_angle_gamma   59.99999307
_symmetry_Int_Tables_number   1
_chemical_formula_structural   Be2Cr19(OsC3)2
_chemical_formula_sum   'Be2 Cr19 Os2 C6'
_cell_volume   292.18623794
_cell_formula_units_Z   1
loop_
 _symmetry_equiv_pos_site_id
 _symmetry_equiv_pos_as_xyz
  1  'x, y, z'
loop_
 _atom_site_type_symbol
 _atom_site_label
 _atom_site_symmetry_multiplicity
 _atom_site_fract_x
 _atom_site_fract_y
 _atom_site_fract_z
 _atom_site_occupancy
  Be  Be0  1  0.000581  0.000581  0.998256  1
  Be  Be1  1  0.621478  0.621478  0.135565  1
  Cr  Cr2  1  0.617364  0.145972  0.619299  1
  Cr  Cr3  1  0.145972  0.617364  0.619299  1
  Cr  Cr4  1  0.617364  0.617364  0.619299  1
  Cr  Cr5  1  0.384986  0.384986  0.845043  1
  Cr  Cr6  1  0.387348  0.841171  0.384132  1
  Cr  Cr7  1  0.841171  0.387348  0.384132  1
  Cr  Cr8  1  0.387348  0.387348  0.384132  1
  Cr  Cr9  1  0.000770  0.000770  0.336226  1
  Cr  Cr10  1  0.662233  0.000770  0.336226  1
  Cr  Cr11  1  0.000770  0.662233  0.336226  1
  Cr  Cr12  1  0.661584  0.337484  0.003244  1
  Cr  Cr13  1  0.997688  0.337484  0.003244  1
  Cr  Cr14  1  0.000966  0.337579  0.660490  1
  Cr  Cr15  1  0.337484  0.661584  0.003244  1
  Cr  Cr16  1  0.337579  0.000966  0.660490  1
  Cr  Cr17  1  0.337484  0.997688  0.003244  1
  Cr  Cr18  1  0.000966  0.000966  0.660490  1
  Cr  Cr19  1  0.997688  0.661584  0.003244  1
  Cr  Cr20  1  0.661584  0.997688  0.003244  1
  Os  Os21  1  0.750522  0.750522  0.748433  1
  Os  Os22  1  0.249840  0.249840  0.250481  1
  C  C23  1  0.722354  0.722354  0.275128  1
  C  C24  1  0.280164  0.722354  0.275128  1
  C  C25  1  0.722354  0.280164  0.275128  1
  C  C26  1  0.275482  0.275482  0.725645  1
  C  C27  1  0.723390  0.275482  0.725645  1
  C  C28  1  0.275482  0.723390  0.725645  1
