# generated using pymatgen
data_HfZr3(Pd5Pt)2
_symmetry_space_group_name_H-M   'P 1'
_cell_length_a   5.69600600
_cell_length_b   5.69168827
_cell_length_c   9.26673200
_cell_angle_alpha   90.00000000
_cell_angle_beta   90.00000000
_cell_angle_gamma   119.97491729
_symmetry_Int_Tables_number   1
_chemical_formula_structural   HfZr3(Pd5Pt)2
_chemical_formula_sum   'Hf1 Zr3 Pd10 Pt2'
_cell_volume   260.24266116
_cell_formula_units_Z   1
loop_
 _symmetry_equiv_pos_site_id
 _symmetry_equiv_pos_as_xyz
  1  'x, y, z'
loop_
 _atom_site_type_symbol
 _atom_site_label
 _atom_site_symmetry_multiplicity
 _atom_site_fract_x
 _atom_site_fract_y
 _atom_site_fract_z
 _atom_site_occupancy
  Hf  Hf0  1  0.333246  0.666624  0.250000  1
  Zr  Zr1  1  0.001968  0.000985  0.501704  1
  Zr  Zr2  1  0.001968  0.000985  0.998296  1
  Zr  Zr3  1  0.664002  0.332001  0.750000  1
  Pd  Pd4  1  0.500438  0.501332  0.497240  1
  Pd  Pd5  1  0.500438  0.999107  0.497240  1
  Pd  Pd6  1  0.001259  0.500629  0.497844  1
  Pd  Pd7  1  0.500438  0.501332  0.002760  1
  Pd  Pd8  1  0.500438  0.999107  0.002760  1
  Pd  Pd9  1  0.001259  0.500629  0.002156  1
  Pd  Pd10  1  0.830394  0.169456  0.250000  1
  Pd  Pd11  1  0.830394  0.660937  0.250000  1
  Pd  Pd12  1  0.337823  0.168911  0.250000  1
  Pd  Pd13  1  0.659581  0.829791  0.750000  1
  Pt  Pt14  1  0.168175  0.829697  0.750000  1
  Pt  Pt15  1  0.168175  0.338477  0.750000  1
