# generated using pymatgen
data_NaDy6PtBr12
_symmetry_space_group_name_H-M   'P 1'
_cell_length_a   9.24411336
_cell_length_b   9.30563493
_cell_length_c   9.29796367
_cell_angle_alpha   107.11097674
_cell_angle_beta   107.23406808
_cell_angle_gamma   107.24897986
_symmetry_Int_Tables_number   1
_chemical_formula_structural   NaDy6PtBr12
_chemical_formula_sum   'Na1 Dy6 Pt1 Br12'
_cell_volume   662.47650296
_cell_formula_units_Z   1
loop_
 _symmetry_equiv_pos_site_id
 _symmetry_equiv_pos_as_xyz
  1  'x, y, z'
loop_
 _atom_site_type_symbol
 _atom_site_label
 _atom_site_symmetry_multiplicity
 _atom_site_fract_x
 _atom_site_fract_y
 _atom_site_fract_z
 _atom_site_occupancy
  Na  Na0  1  0.500000  0.500000  0.500000  1
  Dy  Dy1  1  0.106999  0.320878  0.030630  1
  Dy  Dy2  1  0.316349  0.027862  0.107216  1
  Dy  Dy3  1  0.029273  0.109361  0.322439  1
  Dy  Dy4  1  0.970728  0.890639  0.677562  1
  Dy  Dy5  1  0.683651  0.972139  0.892784  1
  Dy  Dy6  1  0.893001  0.679122  0.969370  1
  Pt  Pt7  1  0.000000  0.000000  0.000000  1
  Br  Br8  1  0.221396  0.681127  0.074713  1
  Br  Br9  1  0.447394  0.366436  0.145142  1
  Br  Br10  1  0.678721  0.071345  0.216990  1
  Br  Br11  1  0.923910  0.780753  0.318634  1
  Br  Br12  1  0.147163  0.449434  0.370149  1
  Br  Br13  1  0.370437  0.148001  0.449166  1
  Br  Br14  1  0.629563  0.851999  0.550835  1
  Br  Br15  1  0.852838  0.550566  0.629851  1
  Br  Br16  1  0.076091  0.219247  0.681367  1
  Br  Br17  1  0.321280  0.928656  0.783010  1
  Br  Br18  1  0.552606  0.633564  0.854859  1
  Br  Br19  1  0.778604  0.318873  0.925287  1
