# generated using pymatgen
data_RbDy3Se5
_symmetry_space_group_name_H-M   'P 1'
_cell_length_a   4.14593300
_cell_length_b   12.33001900
_cell_length_c   22.18601700
_cell_angle_alpha   90.00000000
_cell_angle_beta   90.00000000
_cell_angle_gamma   90.00000000
_symmetry_Int_Tables_number   1
_chemical_formula_structural   RbDy3Se5
_chemical_formula_sum   'Rb4 Dy12 Se20'
_cell_volume   1134.13660209
_cell_formula_units_Z   4
loop_
 _symmetry_equiv_pos_site_id
 _symmetry_equiv_pos_as_xyz
  1  'x, y, z'
loop_
 _atom_site_type_symbol
 _atom_site_label
 _atom_site_symmetry_multiplicity
 _atom_site_fract_x
 _atom_site_fract_y
 _atom_site_fract_z
 _atom_site_occupancy
  Rb  Rb0  1  0.250000  0.845610  0.097844  1
  Rb  Rb1  1  0.750000  0.154390  0.902156  1
  Rb  Rb2  1  0.750000  0.345610  0.402156  1
  Rb  Rb3  1  0.250000  0.654390  0.597844  1
  Dy  Dy4  1  0.750000  0.803665  0.828548  1
  Dy  Dy5  1  0.250000  0.196335  0.171452  1
  Dy  Dy6  1  0.250000  0.303665  0.671452  1
  Dy  Dy7  1  0.750000  0.696335  0.328548  1
  Dy  Dy8  1  0.250000  0.959709  0.698690  1
  Dy  Dy9  1  0.750000  0.040291  0.301310  1
  Dy  Dy10  1  0.750000  0.459709  0.801310  1
  Dy  Dy11  1  0.250000  0.540291  0.198690  1
  Dy  Dy12  1  0.750000  0.388591  0.052658  1
  Dy  Dy13  1  0.250000  0.611409  0.947342  1
  Dy  Dy14  1  0.250000  0.888591  0.447342  1
  Dy  Dy15  1  0.750000  0.111409  0.552658  1
  Se  Se16  1  0.250000  0.948368  0.569782  1
  Se  Se17  1  0.750000  0.051632  0.430218  1
  Se  Se18  1  0.750000  0.448368  0.930218  1
  Se  Se19  1  0.250000  0.551632  0.069782  1
  Se  Se20  1  0.750000  0.769626  0.955911  1
  Se  Se21  1  0.250000  0.230374  0.044089  1
  Se  Se22  1  0.250000  0.269626  0.544089  1
  Se  Se23  1  0.750000  0.730374  0.455911  1
  Se  Se24  1  0.250000  0.958384  0.827368  1
  Se  Se25  1  0.750000  0.041616  0.172632  1
  Se  Se26  1  0.750000  0.458384  0.672632  1
  Se  Se27  1  0.250000  0.541616  0.327368  1
  Se  Se28  1  0.750000  0.130683  0.683266  1
  Se  Se29  1  0.250000  0.869317  0.316734  1
  Se  Se30  1  0.250000  0.630683  0.816734  1
  Se  Se31  1  0.750000  0.369317  0.183266  1
  Se  Se32  1  0.750000  0.693658  0.199733  1
  Se  Se33  1  0.250000  0.306342  0.800267  1
  Se  Se34  1  0.250000  0.193658  0.300267  1
  Se  Se35  1  0.750000  0.806342  0.699733  1
