# generated using pymatgen
data_TmHf3(NiPt3)3
_symmetry_space_group_name_H-M   'P 1'
_cell_length_a   5.65502900
_cell_length_b   5.65341612
_cell_length_c   9.17445500
_cell_angle_alpha   90.00000000
_cell_angle_beta   90.00000000
_cell_angle_gamma   120.00944373
_symmetry_Int_Tables_number   1
_chemical_formula_structural   TmHf3(NiPt3)3
_chemical_formula_sum   'Tm1 Hf3 Ni3 Pt9'
_cell_volume   253.98926412
_cell_formula_units_Z   1
loop_
 _symmetry_equiv_pos_site_id
 _symmetry_equiv_pos_as_xyz
  1  'x, y, z'
loop_
 _atom_site_type_symbol
 _atom_site_label
 _atom_site_symmetry_multiplicity
 _atom_site_fract_x
 _atom_site_fract_y
 _atom_site_fract_z
 _atom_site_occupancy
  Tm  Tm0  1  0.333016  0.666035  0.250000  1
  Hf  Hf1  1  0.000117  0.000236  0.500552  1
  Hf  Hf2  1  0.665617  0.331233  0.750000  1
  Hf  Hf3  1  0.000117  0.000236  0.999448  1
  Ni  Ni4  1  0.176391  0.352781  0.750000  1
  Ni  Ni5  1  0.501967  0.003934  0.505068  1
  Ni  Ni6  1  0.501967  0.003934  0.994932  1
  Pt  Pt7  1  0.996826  0.492597  0.991202  1
  Pt  Pt8  1  0.828617  0.657234  0.250000  1
  Pt  Pt9  1  0.340409  0.163717  0.250000  1
  Pt  Pt10  1  0.495771  0.492597  0.991202  1
  Pt  Pt11  1  0.823307  0.163717  0.250000  1
  Pt  Pt12  1  0.495771  0.492597  0.508798  1
  Pt  Pt13  1  0.179530  0.843279  0.750000  1
  Pt  Pt14  1  0.663751  0.843279  0.750000  1
  Pt  Pt15  1  0.996826  0.492597  0.508798  1
