# generated using pymatgen
data_Th3Ga2Ir7
_symmetry_space_group_name_H-M   'P 1'
_cell_length_a   5.54185830
_cell_length_b   5.54185708
_cell_length_c   8.93060122
_cell_angle_alpha   71.92428624
_cell_angle_beta   71.92429248
_cell_angle_gamma   59.99999431
_symmetry_Int_Tables_number   1
_chemical_formula_structural   Th3Ga2Ir7
_chemical_formula_sum   'Th3 Ga2 Ir7'
_cell_volume   221.76384787
_cell_formula_units_Z   1
loop_
 _symmetry_equiv_pos_site_id
 _symmetry_equiv_pos_as_xyz
  1  'x, y, z'
loop_
 _atom_site_type_symbol
 _atom_site_label
 _atom_site_symmetry_multiplicity
 _atom_site_fract_x
 _atom_site_fract_y
 _atom_site_fract_z
 _atom_site_occupancy
  Th  Th0  1  0.860034  0.860034  0.419898  1
  Th  Th1  1  0.139966  0.139966  0.580102  1
  Th  Th2  1  0.000000  0.000000  0.000000  1
  Ga  Ga3  1  0.665549  0.665549  0.003351  1
  Ga  Ga4  1  0.334451  0.334451  0.996649  1
  Ir  Ir5  1  0.418209  0.418209  0.242433  1
  Ir  Ir6  1  0.921149  0.418209  0.242433  1
  Ir  Ir7  1  0.418209  0.921149  0.242433  1
  Ir  Ir8  1  0.581791  0.581791  0.757567  1
  Ir  Ir9  1  0.078851  0.581791  0.757567  1
  Ir  Ir10  1  0.581791  0.078851  0.757567  1
  Ir  Ir11  1  0.500000  0.500000  0.500000  1
