# generated using pymatgen
data_Yb4Ga(Si2Pt)5
_symmetry_space_group_name_H-M   'P 1'
_cell_length_a   8.28449719
_cell_length_b   8.28449839
_cell_length_c   8.28449758
_cell_angle_alpha   138.39875217
_cell_angle_beta   103.43319638
_cell_angle_gamma   91.14053804
_symmetry_Int_Tables_number   1
_chemical_formula_structural   Yb4Ga(Si2Pt)5
_chemical_formula_sum   'Yb4 Ga1 Si10 Pt5'
_cell_volume   350.28926597
_cell_formula_units_Z   1
loop_
 _symmetry_equiv_pos_site_id
 _symmetry_equiv_pos_as_xyz
  1  'x, y, z'
loop_
 _atom_site_type_symbol
 _atom_site_label
 _atom_site_symmetry_multiplicity
 _atom_site_fract_x
 _atom_site_fract_y
 _atom_site_fract_z
 _atom_site_occupancy
  Yb  Yb0  1  0.111577  0.875809  0.237358  1
  Yb  Yb1  1  0.888423  0.125782  0.764232  1
  Yb  Yb2  1  0.638450  0.374218  0.262642  1
  Yb  Yb3  1  0.361550  0.624191  0.735768  1
  Ga  Ga4  1  0.500000  0.750000  0.250000  1
  Si  Si5  1  0.000000  0.750000  0.750000  1
  Si  Si6  1  0.000000  0.250000  0.250000  1
  Si  Si7  1  0.269288  0.019288  0.750000  1
  Si  Si8  1  0.730712  0.480712  0.750000  1
  Si  Si9  1  0.739881  0.989881  0.250000  1
  Si  Si10  1  0.260119  0.510119  0.250000  1
  Si  Si11  1  0.768644  0.619664  0.148820  1
  Si  Si12  1  0.231356  0.380176  0.851021  1
  Si  Si13  1  0.470844  0.119824  0.351180  1
  Si  Si14  1  0.529156  0.880336  0.648979  1
  Pt  Pt15  1  0.500000  0.250000  0.750000  1
  Pt  Pt16  1  0.015374  0.638352  0.384950  1
  Pt  Pt17  1  0.984626  0.369576  0.622977  1
  Pt  Pt18  1  0.253401  0.130424  0.115050  1
  Pt  Pt19  1  0.746599  0.861648  0.877023  1
