# generated using pymatgen
data_PrYMg4(PaRh2)2
_symmetry_space_group_name_H-M   'P 1'
_cell_length_a   3.83553000
_cell_length_b   7.45959035
_cell_length_c   9.10687368
_cell_angle_alpha   88.27227489
_cell_angle_beta   90.00000000
_cell_angle_gamma   90.00000000
_symmetry_Int_Tables_number   1
_chemical_formula_structural   PrYMg4(PaRh2)2
_chemical_formula_sum   'Pr1 Y1 Mg4 Pa2 Rh4'
_cell_volume   260.44270314
_cell_formula_units_Z   1
loop_
 _symmetry_equiv_pos_site_id
 _symmetry_equiv_pos_as_xyz
  1  'x, y, z'
loop_
 _atom_site_type_symbol
 _atom_site_label
 _atom_site_symmetry_multiplicity
 _atom_site_fract_x
 _atom_site_fract_y
 _atom_site_fract_z
 _atom_site_occupancy
  Pr  Pr0  1  0.750000  0.466930  0.822178  1
  Y  Y1  1  0.250000  0.533204  0.187503  1
  Mg  Mg2  1  0.250000  0.139953  0.951679  1
  Mg  Mg3  1  0.750000  0.854204  0.050928  1
  Mg  Mg4  1  0.250000  0.640666  0.552420  1
  Mg  Mg5  1  0.750000  0.362306  0.444775  1
  Pa  Pa6  1  0.250000  0.033582  0.313148  1
  Pa  Pa7  1  0.750000  0.967980  0.684576  1
  Rh  Rh8  1  0.750000  0.227750  0.167579  1
  Rh  Rh9  1  0.250000  0.778000  0.830720  1
  Rh  Rh10  1  0.750000  0.785583  0.364989  1
  Rh  Rh11  1  0.250000  0.209843  0.629505  1
