# generated using pymatgen
data_Tm6Ga7Co16
_symmetry_space_group_name_H-M   'P 1'
_cell_length_a   8.39880073
_cell_length_b   8.39880132
_cell_length_c   8.39880100
_cell_angle_alpha   60.00000519
_cell_angle_beta   60.00000286
_cell_angle_gamma   60.00000424
_symmetry_Int_Tables_number   1
_chemical_formula_structural   Tm6Ga7Co16
_chemical_formula_sum   'Tm6 Ga7 Co16'
_cell_volume   418.92561766
_cell_formula_units_Z   1
loop_
 _symmetry_equiv_pos_site_id
 _symmetry_equiv_pos_as_xyz
  1  'x, y, z'
loop_
 _atom_site_type_symbol
 _atom_site_label
 _atom_site_symmetry_multiplicity
 _atom_site_fract_x
 _atom_site_fract_y
 _atom_site_fract_z
 _atom_site_occupancy
  Tm  Tm0  1  0.718577  0.281423  0.281423  1
  Tm  Tm1  1  0.281423  0.718577  0.718577  1
  Tm  Tm2  1  0.281423  0.718577  0.281423  1
  Tm  Tm3  1  0.281423  0.281423  0.718577  1
  Tm  Tm4  1  0.718577  0.281423  0.718577  1
  Tm  Tm5  1  0.718577  0.718577  0.281423  1
  Ga  Ga6  1  0.500000  0.000000  0.000000  1
  Ga  Ga7  1  0.000000  0.500000  0.500000  1
  Ga  Ga8  1  0.000000  0.500000  0.000000  1
  Ga  Ga9  1  0.000000  0.000000  0.500000  1
  Ga  Ga10  1  0.500000  0.000000  0.500000  1
  Ga  Ga11  1  0.500000  0.500000  0.000000  1
  Ga  Ga12  1  0.000000  0.000000  0.000000  1
  Co  Co13  1  0.321974  0.321974  0.321974  1
  Co  Co14  1  0.321974  0.321974  0.034080  1
  Co  Co15  1  0.034080  0.321974  0.321974  1
  Co  Co16  1  0.321974  0.034080  0.321974  1
  Co  Co17  1  0.678026  0.678026  0.678026  1
  Co  Co18  1  0.678026  0.678026  0.965920  1
  Co  Co19  1  0.678026  0.965920  0.678026  1
  Co  Co20  1  0.965920  0.678026  0.678026  1
  Co  Co21  1  0.125355  0.125355  0.125355  1
  Co  Co22  1  0.125355  0.125355  0.623935  1
  Co  Co23  1  0.623935  0.125355  0.125355  1
  Co  Co24  1  0.125355  0.623935  0.125355  1
  Co  Co25  1  0.874645  0.874645  0.874645  1
  Co  Co26  1  0.874645  0.874645  0.376065  1
  Co  Co27  1  0.874645  0.376065  0.874645  1
  Co  Co28  1  0.376065  0.874645  0.874645  1
