# generated using pymatgen
data_La2LuPa(Pt2Pb)2
_symmetry_space_group_name_H-M   'P 1'
_cell_length_a   8.05165100
_cell_length_b   8.05165070
_cell_length_c   7.39631600
_cell_angle_alpha   90.00000000
_cell_angle_beta   90.00000000
_cell_angle_gamma   92.62623608
_symmetry_Int_Tables_number   1
_chemical_formula_structural   La2LuPa(Pt2Pb)2
_chemical_formula_sum   'La4 Lu2 Pa2 Pt8 Pb4'
_cell_volume   478.99275401
_cell_formula_units_Z   2
loop_
 _symmetry_equiv_pos_site_id
 _symmetry_equiv_pos_as_xyz
  1  'x, y, z'
loop_
 _atom_site_type_symbol
 _atom_site_label
 _atom_site_symmetry_multiplicity
 _atom_site_fract_x
 _atom_site_fract_y
 _atom_site_fract_z
 _atom_site_occupancy
  La  La0  1  0.667906  0.667906  0.000000  1
  La  La1  1  0.332094  0.332094  0.000000  1
  La  La2  1  0.826474  0.173526  0.000000  1
  La  La3  1  0.173526  0.826474  0.000000  1
  Lu  Lu4  1  0.836195  0.163805  0.500000  1
  Lu  Lu5  1  0.163805  0.836195  0.500000  1
  Pa  Pa6  1  0.326556  0.326556  0.500000  1
  Pa  Pa7  1  0.673444  0.673444  0.500000  1
  Pt  Pt8  1  0.870341  0.870341  0.727810  1
  Pt  Pt9  1  0.129659  0.129659  0.727810  1
  Pt  Pt10  1  0.626404  0.373596  0.713012  1
  Pt  Pt11  1  0.626404  0.373596  0.286988  1
  Pt  Pt12  1  0.373596  0.626404  0.286988  1
  Pt  Pt13  1  0.129659  0.129659  0.272190  1
  Pt  Pt14  1  0.870341  0.870341  0.272190  1
  Pt  Pt15  1  0.373596  0.626404  0.713012  1
  Pb  Pb16  1  0.500000  0.000000  0.739972  1
  Pb  Pb17  1  0.500000  0.000000  0.260028  1
  Pb  Pb18  1  0.000000  0.500000  0.739972  1
  Pb  Pb19  1  0.000000  0.500000  0.260028  1
