# generated using pymatgen
data_Dy7Th(Si4W3)4
_symmetry_space_group_name_H-M   'P 1'
_cell_length_a   6.80322746
_cell_length_b   6.95675792
_cell_length_c   12.97098985
_cell_angle_alpha   89.91511245
_cell_angle_beta   90.02448834
_cell_angle_gamma   90.00852248
_symmetry_Int_Tables_number   1
_chemical_formula_structural   Dy7Th(Si4W3)4
_chemical_formula_sum   'Dy7 Th1 Si16 W12'
_cell_volume   613.89554408
_cell_formula_units_Z   1
loop_
 _symmetry_equiv_pos_site_id
 _symmetry_equiv_pos_as_xyz
  1  'x, y, z'
loop_
 _atom_site_type_symbol
 _atom_site_label
 _atom_site_symmetry_multiplicity
 _atom_site_fract_x
 _atom_site_fract_y
 _atom_site_fract_z
 _atom_site_occupancy
  Dy  Dy0  1  0.494522  0.667611  0.593487  1
  Dy  Dy1  1  0.995514  0.832960  0.906739  1
  Dy  Dy2  1  0.504253  0.332647  0.093894  1
  Dy  Dy3  1  0.004655  0.167183  0.404300  1
  Dy  Dy4  1  0.504854  0.332228  0.404396  1
  Dy  Dy5  1  0.003999  0.167834  0.093734  1
  Dy  Dy6  1  0.495741  0.666548  0.908552  1
  Th  Th7  1  0.996308  0.832365  0.593507  1
  Si  Si8  1  0.659827  0.957484  0.451053  1
  Si  Si9  1  0.160819  0.542482  0.047196  1
  Si  Si10  1  0.338820  0.041870  0.953585  1
  Si  Si11  1  0.835543  0.450636  0.545338  1
  Si  Si12  1  0.343733  0.047127  0.545393  1
  Si  Si13  1  0.840556  0.458344  0.953195  1
  Si  Si14  1  0.660642  0.958105  0.047230  1
  Si  Si15  1  0.163385  0.539077  0.451378  1
  Si  Si16  1  0.463752  0.369285  0.750045  1
  Si  Si17  1  0.962215  0.134928  0.752995  1
  Si  Si18  1  0.536736  0.631248  0.249189  1
  Si  Si19  1  0.036863  0.869386  0.249122  1
  Si  Si20  1  0.690681  0.868696  0.753112  1
  Si  Si21  1  0.199987  0.628535  0.753376  1
  Si  Si22  1  0.303822  0.131889  0.249110  1
  Si  Si23  1  0.803425  0.368036  0.248931  1
  W  W24  1  0.667001  0.162493  0.626803  1
  W  W25  1  0.168901  0.335904  0.876020  1
  W  W26  1  0.332274  0.835479  0.125116  1
  W  W27  1  0.833647  0.663457  0.373675  1
  W  W28  1  0.333324  0.836168  0.373854  1
  W  W29  1  0.833565  0.664355  0.125011  1
  W  W30  1  0.665519  0.166113  0.875652  1
  W  W31  1  0.166377  0.337475  0.626725  1
  W  W32  1  0.833821  0.501876  0.749305  1
  W  W33  1  0.332976  0.000928  0.749844  1
  W  W34  1  0.165931  0.500042  0.249891  1
  W  W35  1  0.666011  0.999204  0.249251  1
