# generated using pymatgen
data_Tb3Ho(CoOs)4
_symmetry_space_group_name_H-M   'P 1'
_cell_length_a   5.26998200
_cell_length_b   5.25136519
_cell_length_c   9.07060655
_cell_angle_alpha   71.69713968
_cell_angle_beta   90.00000000
_cell_angle_gamma   120.11734166
_symmetry_Int_Tables_number   1
_chemical_formula_structural   Tb3Ho(CoOs)4
_chemical_formula_sum   'Tb3 Ho1 Co4 Os4'
_cell_volume   202.32138056
_cell_formula_units_Z   1
loop_
 _symmetry_equiv_pos_site_id
 _symmetry_equiv_pos_as_xyz
  1  'x, y, z'
loop_
 _atom_site_type_symbol
 _atom_site_label
 _atom_site_symmetry_multiplicity
 _atom_site_fract_x
 _atom_site_fract_y
 _atom_site_fract_z
 _atom_site_occupancy
  Tb  Tb0  1  0.811243  0.122486  0.561139  1
  Tb  Tb1  1  0.189000  0.877998  0.438573  1
  Tb  Tb2  1  0.688644  0.877289  0.938869  1
  Ho  Ho3  1  0.310917  0.121835  0.061134  1
  Co  Co4  1  0.750282  0.500735  0.249015  1
  Co  Co5  1  0.250237  0.499384  0.751053  1
  Co  Co6  1  0.250453  0.500735  0.249015  1
  Co  Co7  1  0.749147  0.499384  0.751053  1
  Os  Os8  1  0.999885  0.499770  0.000155  1
  Os  Os9  1  0.500157  0.500315  0.499924  1
  Os  Os10  1  0.749548  0.999098  0.249368  1
  Os  Os11  1  0.250485  0.000971  0.750705  1
