# generated using pymatgen
data_AcGd3Cr6O24
_symmetry_space_group_name_H-M   'P 1'
_cell_length_a   9.47689273
_cell_length_b   9.47689182
_cell_length_c   10.09437400
_cell_angle_alpha   117.99630105
_cell_angle_beta   62.00368818
_cell_angle_gamma   120.00001373
_symmetry_Int_Tables_number   1
_chemical_formula_structural   AcGd3Cr6O24
_chemical_formula_sum   'Ac1 Gd3 Cr6 O24'
_cell_volume   659.78991989
_cell_formula_units_Z   1
loop_
 _symmetry_equiv_pos_site_id
 _symmetry_equiv_pos_as_xyz
  1  'x, y, z'
loop_
 _atom_site_type_symbol
 _atom_site_label
 _atom_site_symmetry_multiplicity
 _atom_site_fract_x
 _atom_site_fract_y
 _atom_site_fract_z
 _atom_site_occupancy
  Ac  Ac0  1  0.357800  0.642090  0.926489  1
  Gd  Gd1  1  0.644990  0.355001  0.065020  1
  Gd  Gd2  1  0.861516  0.138535  0.415633  1
  Gd  Gd3  1  0.139951  0.860235  0.580376  1
  Cr  Cr4  1  0.250949  0.040141  0.254152  1
  Cr  Cr5  1  0.959717  0.464896  0.254322  1
  Cr  Cr6  1  0.535108  0.749061  0.254230  1
  Cr  Cr7  1  0.467665  0.237726  0.747235  1
  Cr  Cr8  1  0.022823  0.532467  0.747283  1
  Cr  Cr9  1  0.762342  0.977191  0.747266  1
  O  O10  1  0.146322  0.475538  0.114441  1
  O  O11  1  0.524500  0.785218  0.114337  1
  O  O12  1  0.214716  0.853592  0.114308  1
  O  O13  1  0.456092  0.164548  0.202455  1
  O  O14  1  0.835331  0.494004  0.202632  1
  O  O15  1  0.506031  0.543954  0.202518  1
  O  O16  1  0.129801  0.134905  0.277351  1
  O  O17  1  0.865033  0.272195  0.277445  1
  O  O18  1  0.727835  0.870292  0.277349  1
  O  O19  1  0.201629  0.006812  0.420666  1
  O  O20  1  0.993054  0.615517  0.420848  1
  O  O21  1  0.384543  0.798364  0.420709  1
  O  O22  1  0.604578  0.167364  0.579287  1
  O  O23  1  0.983412  0.395443  0.579430  1
  O  O24  1  0.832528  0.016486  0.579377  1
  O  O25  1  0.269267  0.119941  0.736758  1
  O  O26  1  0.113816  0.730748  0.736755  1
  O  O27  1  0.880187  0.886179  0.736734  1
  O  O28  1  0.509492  0.440469  0.775874  1
  O  O29  1  0.155018  0.490566  0.775996  1
  O  O30  1  0.559544  0.844874  0.775993  1
  O  O31  1  0.776736  0.158474  0.895573  1
  O  O32  1  0.486211  0.223304  0.895527  1
  O  O33  1  0.841463  0.513871  0.895635  1
