# generated using pymatgen
data_NdSb12IrRu3
_symmetry_space_group_name_H-M   'P 1'
_cell_length_a   8.15006808
_cell_length_b   8.13696512
_cell_length_c   8.13696532
_cell_angle_alpha   109.43857618
_cell_angle_beta   109.50384085
_cell_angle_gamma   109.50384299
_symmetry_Int_Tables_number   1
_chemical_formula_structural   NdSb12IrRu3
_chemical_formula_sum   'Nd1 Sb12 Ir1 Ru3'
_cell_volume   415.23053464
_cell_formula_units_Z   1
loop_
 _symmetry_equiv_pos_site_id
 _symmetry_equiv_pos_as_xyz
  1  'x, y, z'
loop_
 _atom_site_type_symbol
 _atom_site_label
 _atom_site_symmetry_multiplicity
 _atom_site_fract_x
 _atom_site_fract_y
 _atom_site_fract_z
 _atom_site_occupancy
  Nd  Nd0  1  0.000000  0.000000  0.000000  1
  Sb  Sb1  1  0.337465  0.182921  0.841537  1
  Sb  Sb2  1  0.662535  0.817079  0.158463  1
  Sb  Sb3  1  0.661811  0.503926  0.842383  1
  Sb  Sb4  1  0.338189  0.496074  0.157617  1
  Sb  Sb5  1  0.180571  0.842383  0.338457  1
  Sb  Sb6  1  0.819429  0.157617  0.661543  1
  Sb  Sb7  1  0.504072  0.841537  0.658615  1
  Sb  Sb8  1  0.495928  0.158463  0.341385  1
  Sb  Sb9  1  0.845457  0.341385  0.182921  1
  Sb  Sb10  1  0.154543  0.658615  0.817079  1
  Sb  Sb11  1  0.842114  0.661543  0.503926  1
  Sb  Sb12  1  0.157886  0.338457  0.496074  1
  Ir  Ir13  1  0.500000  0.000000  0.000000  1
  Ru  Ru14  1  0.000000  0.000000  0.500000  1
  Ru  Ru15  1  0.000000  0.500000  0.000000  1
  Ru  Ru16  1  0.500000  0.500000  0.500000  1
