# generated using pymatgen
data_LaPr7Cd2IrPt
_symmetry_space_group_name_H-M   'P 1'
_cell_length_a   10.07956363
_cell_length_b   10.07956354
_cell_length_c   10.07117000
_cell_angle_alpha   60.02754262
_cell_angle_beta   60.02754290
_cell_angle_gamma   60.06084866
_symmetry_Int_Tables_number   1
_chemical_formula_structural   LaPr7Cd2IrPt
_chemical_formula_sum   'La2 Pr14 Cd4 Ir2 Pt2'
_cell_volume   724.15001907
_cell_formula_units_Z   2
loop_
 _symmetry_equiv_pos_site_id
 _symmetry_equiv_pos_as_xyz
  1  'x, y, z'
loop_
 _atom_site_type_symbol
 _atom_site_label
 _atom_site_symmetry_multiplicity
 _atom_site_fract_x
 _atom_site_fract_y
 _atom_site_fract_z
 _atom_site_occupancy
  La  La0  1  0.348887  0.348887  0.344009  1
  La  La1  1  0.348887  0.348887  0.958217  1
  Pr  Pr2  1  0.353235  0.948573  0.349096  1
  Pr  Pr3  1  0.948573  0.353235  0.349096  1
  Pr  Pr4  1  0.806608  0.190258  0.190743  1
  Pr  Pr5  1  0.190258  0.806608  0.812389  1
  Pr  Pr6  1  0.190258  0.806608  0.190743  1
  Pr  Pr7  1  0.806608  0.190258  0.812389  1
  Pr  Pr8  1  0.190967  0.190967  0.809033  1
  Pr  Pr9  1  0.810477  0.810477  0.189523  1
  Pr  Pr10  1  0.938490  0.563586  0.561895  1
  Pr  Pr11  1  0.563586  0.938490  0.936030  1
  Pr  Pr12  1  0.563586  0.938490  0.561895  1
  Pr  Pr13  1  0.938490  0.563586  0.936030  1
  Pr  Pr14  1  0.563413  0.563413  0.936587  1
  Pr  Pr15  1  0.937352  0.937352  0.562648  1
  Cd  Cd16  1  0.580412  0.580412  0.579220  1
  Cd  Cd17  1  0.580412  0.580412  0.259953  1
  Cd  Cd18  1  0.580632  0.259721  0.579823  1
  Cd  Cd19  1  0.259721  0.580632  0.579823  1
  Ir  Ir20  1  0.142965  0.571741  0.142647  1
  Ir  Ir21  1  0.571741  0.142965  0.142647  1
  Pt  Pt22  1  0.142219  0.142219  0.143910  1
  Pt  Pt23  1  0.142219  0.142219  0.571653  1
