# generated using pymatgen
data_Ho4Zn10SiSn
_symmetry_space_group_name_H-M   'P 1'
_cell_length_a   8.24924679
_cell_length_b   8.24924681
_cell_length_c   8.85759600
_cell_angle_alpha   90.00000000
_cell_angle_beta   90.00000000
_cell_angle_gamma   149.73778770
_symmetry_Int_Tables_number   1
_chemical_formula_structural   Ho4Zn10SiSn
_chemical_formula_sum   'Ho4 Zn10 Si1 Sn1'
_cell_volume   303.76580325
_cell_formula_units_Z   1
loop_
 _symmetry_equiv_pos_site_id
 _symmetry_equiv_pos_as_xyz
  1  'x, y, z'
loop_
 _atom_site_type_symbol
 _atom_site_label
 _atom_site_symmetry_multiplicity
 _atom_site_fract_x
 _atom_site_fract_y
 _atom_site_fract_z
 _atom_site_occupancy
  Ho  Ho0  1  0.197461  0.802539  0.250000  1
  Ho  Ho1  1  0.799463  0.200537  0.750000  1
  Ho  Ho2  1  0.000078  0.999922  0.481218  1
  Ho  Ho3  1  0.000078  0.999922  0.018782  1
  Zn  Zn4  1  0.811112  0.188888  0.391405  1
  Zn  Zn5  1  0.187675  0.812325  0.605279  1
  Zn  Zn6  1  0.811112  0.188888  0.108595  1
  Zn  Zn7  1  0.187675  0.812325  0.894721  1
  Zn  Zn8  1  0.647682  0.352318  0.472146  1
  Zn  Zn9  1  0.346258  0.653742  0.517715  1
  Zn  Zn10  1  0.647682  0.352318  0.027854  1
  Zn  Zn11  1  0.346258  0.653742  0.982285  1
  Zn  Zn12  1  0.400712  0.599288  0.250000  1
  Zn  Zn13  1  0.611926  0.388074  0.750000  1
  Si  Si14  1  0.553982  0.446018  0.250000  1
  Sn  Sn15  1  0.450843  0.549157  0.750000  1
