# generated using pymatgen
data_Li3ZnIr2
_symmetry_space_group_name_H-M   'P 1'
_cell_length_a   4.61852900
_cell_length_b   4.61853198
_cell_length_c   4.42957300
_cell_angle_alpha   90.00402340
_cell_angle_beta   90.00377468
_cell_angle_gamma   59.99935441
_symmetry_Int_Tables_number   1
_chemical_formula_structural   Li3ZnIr2
_chemical_formula_sum   'Li3 Zn1 Ir2'
_cell_volume   81.82712619
_cell_formula_units_Z   1
loop_
 _symmetry_equiv_pos_site_id
 _symmetry_equiv_pos_as_xyz
  1  'x, y, z'
loop_
 _atom_site_type_symbol
 _atom_site_label
 _atom_site_symmetry_multiplicity
 _atom_site_fract_x
 _atom_site_fract_y
 _atom_site_fract_z
 _atom_site_occupancy
  Li  Li0  1  0.666639  0.030570  0.499988  1
  Li  Li1  1  0.030574  0.302782  0.500001  1
  Li  Li2  1  0.302790  0.666637  0.500011  1
  Zn  Zn3  1  0.666662  0.666669  0.999999  1
  Ir  Ir4  1  0.999990  0.999993  0.000002  1
  Ir  Ir5  1  0.333339  0.333339  0.999998  1
