# generated using pymatgen
data_YTa2Nb3(B2Ru5)2
_symmetry_space_group_name_H-M   'P 1'
_cell_length_a   9.53494573
_cell_length_b   9.53494577
_cell_length_c   3.05355000
_cell_angle_alpha   90.00000000
_cell_angle_beta   90.00000000
_cell_angle_gamma   90.30331979
_symmetry_Int_Tables_number   1
_chemical_formula_structural   YTa2Nb3(B2Ru5)2
_chemical_formula_sum   'Y1 Ta2 Nb3 B4 Ru10'
_cell_volume   277.61018983
_cell_formula_units_Z   1
loop_
 _symmetry_equiv_pos_site_id
 _symmetry_equiv_pos_as_xyz
  1  'x, y, z'
loop_
 _atom_site_type_symbol
 _atom_site_label
 _atom_site_symmetry_multiplicity
 _atom_site_fract_x
 _atom_site_fract_y
 _atom_site_fract_z
 _atom_site_occupancy
  Y  Y0  1  0.824439  0.675561  0.000000  1
  Ta  Ta1  1  0.501354  0.500738  0.000000  1
  Ta  Ta2  1  0.999262  0.998646  0.000000  1
  Nb  Nb3  1  0.178512  0.321488  0.000000  1
  Nb  Nb4  1  0.324125  0.823545  0.000000  1
  Nb  Nb5  1  0.676455  0.175875  0.000000  1
  B  B6  1  0.617941  0.882059  0.000000  1
  B  B7  1  0.376820  0.123180  0.000000  1
  B  B8  1  0.123492  0.619212  0.000000  1
  B  B9  1  0.880788  0.376508  0.000000  1
  Ru  Ru10  1  0.558443  0.724961  0.500000  1
  Ru  Ru11  1  0.427256  0.283181  0.500000  1
  Ru  Ru12  1  0.081645  0.782304  0.500000  1
  Ru  Ru13  1  0.930655  0.215831  0.500000  1
  Ru  Ru14  1  0.284169  0.569345  0.500000  1
  Ru  Ru15  1  0.717696  0.418355  0.500000  1
  Ru  Ru16  1  0.216819  0.072744  0.500000  1
  Ru  Ru17  1  0.775039  0.941557  0.500000  1
  Ru  Ru18  1  0.495861  0.004139  0.500000  1
  Ru  Ru19  1  0.009227  0.490773  0.500000  1
