# generated using pymatgen
data_Ho5Bi2Pt
_symmetry_space_group_name_H-M   'P 1'
_cell_length_a   8.03384700
_cell_length_b   9.03010300
_cell_length_c   12.32318700
_cell_angle_alpha   90.00000000
_cell_angle_beta   90.00000000
_cell_angle_gamma   90.00000000
_symmetry_Int_Tables_number   1
_chemical_formula_structural   Ho5Bi2Pt
_chemical_formula_sum   'Ho20 Bi8 Pt4'
_cell_volume   894.00366543
_cell_formula_units_Z   4
loop_
 _symmetry_equiv_pos_site_id
 _symmetry_equiv_pos_as_xyz
  1  'x, y, z'
loop_
 _atom_site_type_symbol
 _atom_site_label
 _atom_site_symmetry_multiplicity
 _atom_site_fract_x
 _atom_site_fract_y
 _atom_site_fract_z
 _atom_site_occupancy
  Ho  Ho0  1  0.166074  0.750000  0.211070  1
  Ho  Ho1  1  0.333926  0.750000  0.711070  1
  Ho  Ho2  1  0.833926  0.250000  0.788930  1
  Ho  Ho3  1  0.666074  0.250000  0.288930  1
  Ho  Ho4  1  0.453890  0.750000  0.999873  1
  Ho  Ho5  1  0.046110  0.750000  0.499873  1
  Ho  Ho6  1  0.546110  0.250000  0.000127  1
  Ho  Ho7  1  0.953890  0.250000  0.500127  1
  Ho  Ho8  1  0.628319  0.750000  0.303462  1
  Ho  Ho9  1  0.871681  0.750000  0.803462  1
  Ho  Ho10  1  0.371681  0.250000  0.696538  1
  Ho  Ho11  1  0.128319  0.250000  0.196538  1
  Ho  Ho12  1  0.822410  0.548539  0.066421  1
  Ho  Ho13  1  0.677590  0.951461  0.566421  1
  Ho  Ho14  1  0.177590  0.048539  0.933579  1
  Ho  Ho15  1  0.322410  0.451461  0.433579  1
  Ho  Ho16  1  0.177590  0.451461  0.933579  1
  Ho  Ho17  1  0.322410  0.048539  0.433579  1
  Ho  Ho18  1  0.822410  0.951461  0.066421  1
  Ho  Ho19  1  0.677590  0.548539  0.566421  1
  Bi  Bi20  1  0.932329  0.509134  0.326752  1
  Bi  Bi21  1  0.567671  0.990866  0.826752  1
  Bi  Bi22  1  0.067671  0.009134  0.673248  1
  Bi  Bi23  1  0.432329  0.490866  0.173248  1
  Bi  Bi24  1  0.067671  0.490866  0.673248  1
  Bi  Bi25  1  0.432329  0.009134  0.173248  1
  Bi  Bi26  1  0.932329  0.990866  0.326752  1
  Bi  Bi27  1  0.567671  0.509134  0.826752  1
  Pt  Pt28  1  0.416670  0.750000  0.487056  1
  Pt  Pt29  1  0.083330  0.750000  0.987056  1
  Pt  Pt30  1  0.583330  0.250000  0.512944  1
  Pt  Pt31  1  0.916670  0.250000  0.012944  1
