# generated using pymatgen
data_Er10Ir3Os2Au
_symmetry_space_group_name_H-M   'P 1'
_cell_length_a   10.87427262
_cell_length_b   10.84158500
_cell_length_c   6.40688235
_cell_angle_alpha   90.00000000
_cell_angle_beta   89.88313159
_cell_angle_gamma   90.00000000
_symmetry_Int_Tables_number   1
_chemical_formula_structural   Er10Ir3Os2Au
_chemical_formula_sum   'Er20 Ir6 Os4 Au2'
_cell_volume   755.33366514
_cell_formula_units_Z   2
loop_
 _symmetry_equiv_pos_site_id
 _symmetry_equiv_pos_as_xyz
  1  'x, y, z'
loop_
 _atom_site_type_symbol
 _atom_site_label
 _atom_site_symmetry_multiplicity
 _atom_site_fract_x
 _atom_site_fract_y
 _atom_site_fract_z
 _atom_site_occupancy
  Er  Er0  1  0.294152  0.086208  0.374332  1
  Er  Er1  1  0.294152  0.913792  0.874332  1
  Er  Er2  1  0.698449  0.090096  0.867507  1
  Er  Er3  1  0.698449  0.909904  0.367507  1
  Er  Er4  1  0.578125  0.792570  0.877664  1
  Er  Er5  1  0.578125  0.207430  0.377664  1
  Er  Er6  1  0.412036  0.793219  0.376725  1
  Er  Er7  1  0.412036  0.206781  0.876725  1
  Er  Er8  1  0.206987  0.413348  0.622645  1
  Er  Er9  1  0.206987  0.586652  0.122645  1
  Er  Er10  1  0.792647  0.420733  0.122916  1
  Er  Er11  1  0.792647  0.579267  0.622916  1
  Er  Er12  1  0.917706  0.703151  0.135107  1
  Er  Er13  1  0.917706  0.296849  0.635107  1
  Er  Er14  1  0.092968  0.702355  0.622255  1
  Er  Er15  1  0.092968  0.297645  0.122255  1
  Er  Er16  1  0.008754  0.999377  0.500522  1
  Er  Er17  1  0.008754  0.000623  0.000522  1
  Er  Er18  1  0.499341  0.499782  0.000328  1
  Er  Er19  1  0.499341  0.500218  0.500328  1
  Ir  Ir20  1  0.151852  0.152339  0.749380  1
  Ir  Ir21  1  0.151852  0.847661  0.249380  1
  Ir  Ir22  1  0.653216  0.347056  0.749484  1
  Ir  Ir23  1  0.653216  0.652944  0.249484  1
  Ir  Ir24  1  0.347986  0.347629  0.250238  1
  Ir  Ir25  1  0.347986  0.652371  0.750238  1
  Os  Os26  1  0.500482  0.000132  0.124167  1
  Os  Os27  1  0.500482  0.999868  0.624167  1
  Os  Os28  1  0.000134  0.500654  0.876143  1
  Os  Os29  1  0.000134  0.499346  0.376143  1
  Au  Au30  1  0.845166  0.154103  0.250588  1
  Au  Au31  1  0.845166  0.845897  0.750588  1
