# generated using pymatgen
data_Tb6Dy13ErPb16
_symmetry_space_group_name_H-M   'P 1'
_cell_length_a   8.21702500
_cell_length_b   8.29939259
_cell_length_c   15.66793909
_cell_angle_alpha   90.01227754
_cell_angle_beta   89.99819719
_cell_angle_gamma   90.02129002
_symmetry_Int_Tables_number   1
_chemical_formula_structural   Tb6Dy13ErPb16
_chemical_formula_sum   'Tb6 Dy13 Er1 Pb16'
_cell_volume   1068.49563271
_cell_formula_units_Z   1
loop_
 _symmetry_equiv_pos_site_id
 _symmetry_equiv_pos_as_xyz
  1  'x, y, z'
loop_
 _atom_site_type_symbol
 _atom_site_label
 _atom_site_symmetry_multiplicity
 _atom_site_fract_x
 _atom_site_fract_y
 _atom_site_fract_z
 _atom_site_occupancy
  Tb  Tb0  1  0.465297  0.676929  0.399832  1
  Tb  Tb1  1  0.965535  0.823398  0.100171  1
  Tb  Tb2  1  0.465294  0.676939  0.100150  1
  Tb  Tb3  1  0.965533  0.823388  0.399841  1
  Tb  Tb4  1  0.534594  0.323241  0.600146  1
  Tb  Tb5  1  0.034566  0.176753  0.899941  1
  Dy  Dy6  1  0.377420  0.840601  0.879603  1
  Dy  Dy7  1  0.877433  0.659404  0.620502  1
  Dy  Dy8  1  0.622325  0.159293  0.379429  1
  Dy  Dy9  1  0.122719  0.340459  0.120543  1
  Dy  Dy10  1  0.622321  0.159298  0.120524  1
  Dy  Dy11  1  0.122718  0.340448  0.379491  1
  Dy  Dy12  1  0.377377  0.840619  0.620410  1
  Dy  Dy13  1  0.877395  0.659378  0.879490  1
  Dy  Dy14  1  0.534644  0.323273  0.899797  1
  Dy  Dy15  1  0.034613  0.176717  0.600125  1
  Dy  Dy16  1  0.208933  0.503823  0.750014  1
  Dy  Dy17  1  0.708921  0.996252  0.749992  1
  Dy  Dy18  1  0.791127  0.496175  0.250004  1
  Er  Er19  1  0.291053  0.004025  0.250017  1
  Pb  Pb20  1  0.281028  0.032869  0.043070  1
  Pb  Pb21  1  0.780969  0.466979  0.457272  1
  Pb  Pb22  1  0.719130  0.967022  0.542590  1
  Pb  Pb23  1  0.219113  0.532913  0.957402  1
  Pb  Pb24  1  0.718913  0.966997  0.957427  1
  Pb  Pb25  1  0.218891  0.532942  0.542581  1
  Pb  Pb26  1  0.280950  0.032960  0.457004  1
  Pb  Pb27  1  0.780882  0.466890  0.042643  1
  Pb  Pb28  1  0.572937  0.626286  0.749995  1
  Pb  Pb29  1  0.072943  0.873749  0.750001  1
  Pb  Pb30  1  0.426845  0.373266  0.249986  1
  Pb  Pb31  1  0.927746  0.125838  0.250009  1
  Pb  Pb32  1  0.345929  0.151942  0.750068  1
  Pb  Pb33  1  0.845987  0.347827  0.749936  1
  Pb  Pb34  1  0.653727  0.848262  0.249994  1
  Pb  Pb35  1  0.154190  0.652844  0.250001  1
