# generated using pymatgen
data_Hf4TiGeSb2
_symmetry_space_group_name_H-M   'P 1'
_cell_length_a   5.38747936
_cell_length_b   8.16984906
_cell_length_c   8.16984819
_cell_angle_alpha   83.75883976
_cell_angle_beta   70.74838518
_cell_angle_gamma   70.74838775
_symmetry_Int_Tables_number   1
_chemical_formula_structural   Hf4TiGeSb2
_chemical_formula_sum   'Hf8 Ti2 Ge2 Sb4'
_cell_volume   320.50218187
_cell_formula_units_Z   2
loop_
 _symmetry_equiv_pos_site_id
 _symmetry_equiv_pos_as_xyz
  1  'x, y, z'
loop_
 _atom_site_type_symbol
 _atom_site_label
 _atom_site_symmetry_multiplicity
 _atom_site_fract_x
 _atom_site_fract_y
 _atom_site_fract_z
 _atom_site_occupancy
  Hf  Hf0  1  0.077998  0.134540  0.709465  1
  Hf  Hf1  1  0.922002  0.865460  0.290535  1
  Hf  Hf2  1  0.787462  0.290535  0.134540  1
  Hf  Hf3  1  0.422002  0.290535  0.865460  1
  Hf  Hf4  1  0.212538  0.709465  0.865460  1
  Hf  Hf5  1  0.577998  0.709465  0.134540  1
  Hf  Hf6  1  0.712538  0.865460  0.709465  1
  Hf  Hf7  1  0.287462  0.134540  0.290535  1
  Ti  Ti8  1  0.250000  0.500000  0.500000  1
  Ti  Ti9  1  0.750000  0.500000  0.500000  1
  Ge  Ge10  1  0.250000  0.000000  0.000000  1
  Ge  Ge11  1  0.750000  0.000000  0.000000  1
  Sb  Sb12  1  0.157975  0.500000  0.184052  1
  Sb  Sb13  1  0.842025  0.500000  0.815948  1
  Sb  Sb14  1  0.342025  0.815948  0.500000  1
  Sb  Sb15  1  0.657975  0.184052  0.500000  1
