# generated using pymatgen
data_Sr2EuV2O8
_symmetry_space_group_name_H-M   'P 1'
_cell_length_a   7.45947769
_cell_length_b   7.45947815
_cell_length_c   7.45947759
_cell_angle_alpha   44.96837030
_cell_angle_beta   44.96836664
_cell_angle_gamma   44.96836790
_symmetry_Int_Tables_number   1
_chemical_formula_structural   Sr2EuV2O8
_chemical_formula_sum   'Sr2 Eu1 V2 O8'
_cell_volume   188.67465528
_cell_formula_units_Z   1
loop_
 _symmetry_equiv_pos_site_id
 _symmetry_equiv_pos_as_xyz
  1  'x, y, z'
loop_
 _atom_site_type_symbol
 _atom_site_label
 _atom_site_symmetry_multiplicity
 _atom_site_fract_x
 _atom_site_fract_y
 _atom_site_fract_z
 _atom_site_occupancy
  Sr  Sr0  1  0.201160  0.201160  0.201160  1
  Sr  Sr1  1  0.999906  0.999906  0.999906  1
  Eu  Eu2  1  0.799107  0.799107  0.799107  1
  V  V3  1  0.594160  0.594160  0.594160  1
  V  V4  1  0.406105  0.406105  0.406105  1
  O  O5  1  0.230291  0.731684  0.731684  1
  O  O6  1  0.731684  0.230291  0.731684  1
  O  O7  1  0.731684  0.731684  0.230291  1
  O  O8  1  0.769132  0.267783  0.267783  1
  O  O9  1  0.267783  0.769132  0.267783  1
  O  O10  1  0.320543  0.320543  0.320543  1
  O  O11  1  0.680661  0.680661  0.680661  1
  O  O12  1  0.267783  0.267783  0.769132  1
