# generated using pymatgen
data_ThCu3NiIr
_symmetry_space_group_name_H-M   'P 1'
_cell_length_a   5.24235149
_cell_length_b   5.24235177
_cell_length_c   4.09465500
_cell_angle_alpha   90.00000000
_cell_angle_beta   90.00000000
_cell_angle_gamma   124.49197016
_symmetry_Int_Tables_number   1
_chemical_formula_structural   ThCu3NiIr
_chemical_formula_sum   'Th1 Cu3 Ni1 Ir1'
_cell_volume   92.74812774
_cell_formula_units_Z   1
loop_
 _symmetry_equiv_pos_site_id
 _symmetry_equiv_pos_as_xyz
  1  'x, y, z'
loop_
 _atom_site_type_symbol
 _atom_site_label
 _atom_site_symmetry_multiplicity
 _atom_site_fract_x
 _atom_site_fract_y
 _atom_site_fract_z
 _atom_site_occupancy
  Th  Th0  1  0.002056  0.997944  0.000000  1
  Cu  Cu1  1  0.678080  0.321920  0.000000  1
  Cu  Cu2  1  0.498347  0.000428  0.500000  1
  Cu  Cu3  1  0.999572  0.501653  0.500000  1
  Ni  Ni4  1  0.324901  0.675099  0.000000  1
  Ir  Ir5  1  0.497043  0.502957  0.500000  1
