# generated using pymatgen
data_Nd8Sc12Si15Pt
_symmetry_space_group_name_H-M   'P 1'
_cell_length_a   7.22795347
_cell_length_b   7.57442596
_cell_length_c   14.18942300
_cell_angle_alpha   90.00000000
_cell_angle_beta   90.00000000
_cell_angle_gamma   90.28755860
_symmetry_Int_Tables_number   1
_chemical_formula_structural   Nd8Sc12Si15Pt
_chemical_formula_sum   'Nd8 Sc12 Si15 Pt1'
_cell_volume   776.82704775
_cell_formula_units_Z   1
loop_
 _symmetry_equiv_pos_site_id
 _symmetry_equiv_pos_as_xyz
  1  'x, y, z'
loop_
 _atom_site_type_symbol
 _atom_site_label
 _atom_site_symmetry_multiplicity
 _atom_site_fract_x
 _atom_site_fract_y
 _atom_site_fract_z
 _atom_site_occupancy
  Nd  Nd0  1  0.012401  0.175963  0.097266  1
  Nd  Nd1  1  0.990392  0.824122  0.904329  1
  Nd  Nd2  1  0.487912  0.674453  0.903618  1
  Nd  Nd3  1  0.990392  0.824122  0.595671  1
  Nd  Nd4  1  0.511667  0.325703  0.097101  1
  Nd  Nd5  1  0.012401  0.175963  0.402734  1
  Nd  Nd6  1  0.511667  0.325703  0.402899  1
  Nd  Nd7  1  0.487912  0.674453  0.596382  1
  Sc  Sc8  1  0.156914  0.497364  0.750000  1
  Sc  Sc9  1  0.840011  0.500632  0.250000  1
  Sc  Sc10  1  0.340108  0.000827  0.250000  1
  Sc  Sc11  1  0.665361  0.002709  0.750000  1
  Sc  Sc12  1  0.323631  0.172813  0.625749  1
  Sc  Sc13  1  0.671959  0.826272  0.373435  1
  Sc  Sc14  1  0.171798  0.676227  0.373573  1
  Sc  Sc15  1  0.671959  0.826272  0.126565  1
  Sc  Sc16  1  0.829011  0.323540  0.625685  1
  Sc  Sc17  1  0.323631  0.172813  0.874251  1
  Sc  Sc18  1  0.829011  0.323540  0.874315  1
  Sc  Sc19  1  0.171798  0.676227  0.126427  1
  Si  Si20  1  0.969110  0.877218  0.250000  1
  Si  Si21  1  0.468243  0.621848  0.250000  1
  Si  Si22  1  0.531026  0.381139  0.750000  1
  Si  Si23  1  0.288040  0.877239  0.750000  1
  Si  Si24  1  0.711375  0.121730  0.250000  1
  Si  Si25  1  0.211406  0.379880  0.250000  1
  Si  Si26  1  0.782291  0.618963  0.750000  1
  Si  Si27  1  0.153778  0.465073  0.538372  1
  Si  Si28  1  0.848071  0.536960  0.460138  1
  Si  Si29  1  0.349708  0.963654  0.460122  1
  Si  Si30  1  0.848071  0.536960  0.039862  1
  Si  Si31  1  0.653375  0.035734  0.538870  1
  Si  Si32  1  0.153778  0.465073  0.961628  1
  Si  Si33  1  0.653375  0.035734  0.961130  1
  Si  Si34  1  0.349708  0.963654  0.039878  1
  Pt  Pt35  1  0.028709  0.119423  0.750000  1
