# generated using pymatgen
data_Tb8Tm12Sn11Bi5
_symmetry_space_group_name_H-M   'P 1'
_cell_length_a   8.11039051
_cell_length_b   8.14516634
_cell_length_c   15.36389618
_cell_angle_alpha   90.10331621
_cell_angle_beta   90.03955746
_cell_angle_gamma   89.98898445
_symmetry_Int_Tables_number   1
_chemical_formula_structural   Tb8Tm12Sn11Bi5
_chemical_formula_sum   'Tb8 Tm12 Sn11 Bi5'
_cell_volume   1014.94444353
_cell_formula_units_Z   1
loop_
 _symmetry_equiv_pos_site_id
 _symmetry_equiv_pos_as_xyz
  1  'x, y, z'
loop_
 _atom_site_type_symbol
 _atom_site_label
 _atom_site_symmetry_multiplicity
 _atom_site_fract_x
 _atom_site_fract_y
 _atom_site_fract_z
 _atom_site_occupancy
  Tb  Tb0  1  0.536197  0.328482  0.897204  1
  Tb  Tb1  1  0.037074  0.176693  0.601856  1
  Tb  Tb2  1  0.463134  0.677162  0.398105  1
  Tb  Tb3  1  0.967375  0.819979  0.104298  1
  Tb  Tb4  1  0.475956  0.671669  0.102602  1
  Tb  Tb5  1  0.979600  0.824451  0.399059  1
  Tb  Tb6  1  0.520182  0.324696  0.600555  1
  Tb  Tb7  1  0.027792  0.179773  0.897199  1
  Tm  Tm8  1  0.367871  0.840250  0.873142  1
  Tm  Tm9  1  0.872077  0.659148  0.626410  1
  Tm  Tm10  1  0.627660  0.159127  0.373499  1
  Tm  Tm11  1  0.126664  0.340072  0.126533  1
  Tm  Tm12  1  0.635048  0.164939  0.126334  1
  Tm  Tm13  1  0.136748  0.337503  0.375939  1
  Tm  Tm14  1  0.362137  0.838099  0.624554  1
  Tm  Tm15  1  0.865811  0.657043  0.874422  1
  Tm  Tm16  1  0.197998  0.501684  0.745841  1
  Tm  Tm17  1  0.697237  0.998492  0.749216  1
  Tm  Tm18  1  0.802518  0.498452  0.247472  1
  Tm  Tm19  1  0.302599  0.001754  0.253411  1
  Sn  Sn20  1  0.209817  0.536161  0.542135  1
  Sn  Sn21  1  0.290101  0.036099  0.458053  1
  Sn  Sn22  1  0.789115  0.464288  0.041883  1
  Sn  Sn23  1  0.562638  0.624032  0.749257  1
  Sn  Sn24  1  0.061479  0.877680  0.751780  1
  Sn  Sn25  1  0.436352  0.377577  0.249497  1
  Sn  Sn26  1  0.937088  0.122508  0.251305  1
  Sn  Sn27  1  0.336732  0.148684  0.751227  1
  Sn  Sn28  1  0.835160  0.350270  0.748766  1
  Sn  Sn29  1  0.664670  0.851602  0.250562  1
  Sn  Sn30  1  0.165296  0.647536  0.249838  1
  Bi  Bi31  1  0.286226  0.034521  0.042598  1
  Bi  Bi32  1  0.787616  0.464522  0.457706  1
  Bi  Bi33  1  0.711680  0.964348  0.541744  1
  Bi  Bi34  1  0.211814  0.535792  0.957963  1
  Bi  Bi35  1  0.712539  0.964912  0.958037  1
