# generated using pymatgen
data_Zr6Fe15Si7Os
_symmetry_space_group_name_H-M   'P 1'
_cell_length_a   8.13385830
_cell_length_b   8.13385793
_cell_length_c   8.14101157
_cell_angle_alpha   60.02905713
_cell_angle_beta   60.02906290
_cell_angle_gamma   59.99999696
_symmetry_Int_Tables_number   1
_chemical_formula_structural   Zr6Fe15Si7Os
_chemical_formula_sum   'Zr6 Fe15 Si7 Os1'
_cell_volume   381.01947069
_cell_formula_units_Z   1
loop_
 _symmetry_equiv_pos_site_id
 _symmetry_equiv_pos_as_xyz
  1  'x, y, z'
loop_
 _atom_site_type_symbol
 _atom_site_label
 _atom_site_symmetry_multiplicity
 _atom_site_fract_x
 _atom_site_fract_y
 _atom_site_fract_z
 _atom_site_occupancy
  Zr  Zr0  1  0.703572  0.703572  0.294313  1
  Zr  Zr1  1  0.298544  0.703572  0.294313  1
  Zr  Zr2  1  0.703572  0.298544  0.294313  1
  Zr  Zr3  1  0.293114  0.293114  0.707706  1
  Zr  Zr4  1  0.706065  0.293114  0.707706  1
  Zr  Zr5  1  0.293114  0.706065  0.707706  1
  Fe  Fe6  1  0.877128  0.366156  0.879588  1
  Fe  Fe7  1  0.366156  0.877128  0.879588  1
  Fe  Fe8  1  0.877128  0.877128  0.879588  1
  Fe  Fe9  1  0.122361  0.122361  0.632916  1
  Fe  Fe10  1  0.123033  0.634647  0.119287  1
  Fe  Fe11  1  0.634647  0.123033  0.119287  1
  Fe  Fe12  1  0.123033  0.123033  0.119287  1
  Fe  Fe13  1  0.676168  0.676168  0.971496  1
  Fe  Fe14  1  0.674220  0.971763  0.679797  1
  Fe  Fe15  1  0.971763  0.674220  0.679797  1
  Fe  Fe16  1  0.674220  0.674220  0.679797  1
  Fe  Fe17  1  0.323523  0.323523  0.029431  1
  Fe  Fe18  1  0.324384  0.028370  0.322862  1
  Fe  Fe19  1  0.028370  0.324384  0.322862  1
  Fe  Fe20  1  0.324384  0.324384  0.322862  1
  Si  Si21  1  0.004663  0.004663  0.986010  1
  Si  Si22  1  0.000685  0.000685  0.503519  1
  Si  Si23  1  0.495112  0.000685  0.503519  1
  Si  Si24  1  0.000685  0.495112  0.503519  1
  Si  Si25  1  0.499766  0.499766  0.000742  1
  Si  Si26  1  0.999727  0.499766  0.000742  1
  Si  Si27  1  0.499766  0.999727  0.000742  1
  Os  Os28  1  0.881098  0.881098  0.356706  1
