# generated using pymatgen
data_Nd3ZnHg2Pd2Rh
_symmetry_space_group_name_H-M   'P 1'
_cell_length_a   7.68633878
_cell_length_b   7.62875691
_cell_length_c   3.98628100
_cell_angle_alpha   90.00000000
_cell_angle_beta   90.00000000
_cell_angle_gamma   119.83760165
_symmetry_Int_Tables_number   1
_chemical_formula_structural   Nd3ZnHg2Pd2Rh
_chemical_formula_sum   'Nd3 Zn1 Hg2 Pd2 Rh1'
_cell_volume   202.75903277
_cell_formula_units_Z   1
loop_
 _symmetry_equiv_pos_site_id
 _symmetry_equiv_pos_as_xyz
  1  'x, y, z'
loop_
 _atom_site_type_symbol
 _atom_site_label
 _atom_site_symmetry_multiplicity
 _atom_site_fract_x
 _atom_site_fract_y
 _atom_site_fract_z
 _atom_site_occupancy
  Nd  Nd0  1  0.408028  0.399226  0.000000  1
  Nd  Nd1  1  0.603442  0.011865  0.000000  1
  Nd  Nd2  1  0.988945  0.582334  0.000000  1
  Zn  Zn3  1  0.997807  0.258073  0.500000  1
  Hg  Hg4  1  0.743686  0.743715  0.500000  1
  Hg  Hg5  1  0.255535  0.996275  0.500000  1
  Pd  Pd6  1  0.001911  0.028639  0.000000  1
  Pd  Pd7  1  0.322605  0.650833  0.500000  1
  Rh  Rh8  1  0.678040  0.329041  0.500000  1
