# generated using pymatgen
data_Tb10Si3HgIr2
_symmetry_space_group_name_H-M   'P 1'
_cell_length_a   7.68944522
_cell_length_b   8.81076658
_cell_length_c   12.01900753
_cell_angle_alpha   90.36619320
_cell_angle_beta   90.12979919
_cell_angle_gamma   90.18269128
_symmetry_Int_Tables_number   1
_chemical_formula_structural   Tb10Si3HgIr2
_chemical_formula_sum   'Tb20 Si6 Hg2 Ir4'
_cell_volume   814.26374416
_cell_formula_units_Z   2
loop_
 _symmetry_equiv_pos_site_id
 _symmetry_equiv_pos_as_xyz
  1  'x, y, z'
loop_
 _atom_site_type_symbol
 _atom_site_label
 _atom_site_symmetry_multiplicity
 _atom_site_fract_x
 _atom_site_fract_y
 _atom_site_fract_z
 _atom_site_occupancy
  Tb  Tb0  1  0.665258  0.736164  0.723829  1
  Tb  Tb1  1  0.334742  0.263836  0.276171  1
  Tb  Tb2  1  0.170737  0.255725  0.787238  1
  Tb  Tb3  1  0.829263  0.744275  0.212762  1
  Tb  Tb4  1  0.149919  0.740648  0.804848  1
  Tb  Tb5  1  0.850081  0.259352  0.195152  1
  Tb  Tb6  1  0.629202  0.259888  0.701762  1
  Tb  Tb7  1  0.370798  0.740112  0.298238  1
  Tb  Tb8  1  0.533912  0.753739  0.998510  1
  Tb  Tb9  1  0.466088  0.246261  0.001490  1
  Tb  Tb10  1  0.041417  0.266683  0.501634  1
  Tb  Tb11  1  0.958583  0.733317  0.498366  1
  Tb  Tb12  1  0.816917  0.465478  0.922541  1
  Tb  Tb13  1  0.183083  0.534522  0.077459  1
  Tb  Tb14  1  0.321753  0.536277  0.580637  1
  Tb  Tb15  1  0.185263  0.964307  0.075660  1
  Tb  Tb16  1  0.678247  0.463723  0.419363  1
  Tb  Tb17  1  0.814737  0.035693  0.924340  1
  Tb  Tb18  1  0.668398  0.035409  0.412367  1
  Tb  Tb19  1  0.331602  0.964591  0.587633  1
  Si  Si20  1  0.439680  0.994507  0.830412  1
  Si  Si21  1  0.058448  0.505160  0.327405  1
  Si  Si22  1  0.560320  0.005493  0.169588  1
  Si  Si23  1  0.941552  0.494840  0.672595  1
  Si  Si24  1  0.562368  0.497276  0.167924  1
  Si  Si25  1  0.437632  0.502724  0.832076  1
  Hg  Hg26  1  0.928166  0.007356  0.662111  1
  Hg  Hg27  1  0.071834  0.992644  0.337889  1
  Ir  Ir28  1  0.932229  0.750126  0.990560  1
  Ir  Ir29  1  0.067771  0.249874  0.009440  1
  Ir  Ir30  1  0.424273  0.250452  0.506218  1
  Ir  Ir31  1  0.575727  0.749548  0.493782  1
