# generated using pymatgen
data_PrLu(Si7Rh3)2
_symmetry_space_group_name_H-M   'P 1'
_cell_length_a   8.02390645
_cell_length_b   8.02390595
_cell_length_c   8.02390774
_cell_angle_alpha   57.06225375
_cell_angle_beta   57.06225326
_cell_angle_gamma   57.06225320
_symmetry_Int_Tables_number   1
_chemical_formula_structural   PrLu(Si7Rh3)2
_chemical_formula_sum   'Pr1 Lu1 Si14 Rh6'
_cell_volume   340.55752916
_cell_formula_units_Z   1
loop_
 _symmetry_equiv_pos_site_id
 _symmetry_equiv_pos_as_xyz
  1  'x, y, z'
loop_
 _atom_site_type_symbol
 _atom_site_label
 _atom_site_symmetry_multiplicity
 _atom_site_fract_x
 _atom_site_fract_y
 _atom_site_fract_z
 _atom_site_occupancy
  Pr  Pr0  1  0.500000  0.500000  0.500000  1
  Lu  Lu1  1  0.000000  0.000000  0.000000  1
  Si  Si2  1  0.749969  0.749969  0.749969  1
  Si  Si3  1  0.250031  0.250031  0.250031  1
  Si  Si4  1  0.853004  0.063646  0.673224  1
  Si  Si5  1  0.673224  0.853004  0.063646  1
  Si  Si6  1  0.063646  0.673224  0.853004  1
  Si  Si7  1  0.649562  0.828715  0.434015  1
  Si  Si8  1  0.434015  0.649562  0.828715  1
  Si  Si9  1  0.828715  0.434015  0.649562  1
  Si  Si10  1  0.171285  0.565985  0.350438  1
  Si  Si11  1  0.565985  0.350438  0.171285  1
  Si  Si12  1  0.350438  0.171285  0.565985  1
  Si  Si13  1  0.936354  0.326776  0.146996  1
  Si  Si14  1  0.326776  0.146996  0.936354  1
  Si  Si15  1  0.146996  0.936354  0.326776  1
  Rh  Rh16  1  0.066776  0.428143  0.752915  1
  Rh  Rh17  1  0.247085  0.933224  0.571857  1
  Rh  Rh18  1  0.571857  0.247085  0.933224  1
  Rh  Rh19  1  0.933224  0.571857  0.247085  1
  Rh  Rh20  1  0.428143  0.752915  0.066776  1
  Rh  Rh21  1  0.752915  0.066776  0.428143  1
