# generated using pymatgen
data_TiZn3P6N13
_symmetry_space_group_name_H-M   'P 1'
_cell_length_a   7.01919762
_cell_length_b   7.01475105
_cell_length_c   7.01919818
_cell_angle_alpha   109.45837285
_cell_angle_beta   109.48404481
_cell_angle_gamma   109.45838782
_symmetry_Int_Tables_number   1
_chemical_formula_structural   TiZn3P6N13
_chemical_formula_sum   'Ti1 Zn3 P6 N13'
_cell_volume   266.09346711
_cell_formula_units_Z   1
loop_
 _symmetry_equiv_pos_site_id
 _symmetry_equiv_pos_as_xyz
  1  'x, y, z'
loop_
 _atom_site_type_symbol
 _atom_site_label
 _atom_site_symmetry_multiplicity
 _atom_site_fract_x
 _atom_site_fract_y
 _atom_site_fract_z
 _atom_site_occupancy
  Ti  Ti0  1  0.000000  0.708539  0.000000  1
  Zn  Zn1  1  0.714177  0.000858  0.000000  1
  Zn  Zn2  1  0.000000  0.000858  0.714177  1
  Zn  Zn3  1  0.285823  0.286681  0.285823  1
  P  P4  1  0.497905  0.248397  0.748163  1
  P  P5  1  0.502095  0.750492  0.250258  1
  P  P6  1  0.749742  0.500234  0.251837  1
  P  P7  1  0.250258  0.750492  0.502095  1
  P  P8  1  0.748163  0.248397  0.497905  1
  P  P9  1  0.251837  0.500234  0.749742  1
  N  N10  1  0.000000  0.737758  0.455614  1
  N  N11  1  0.275842  0.541089  0.540655  1
  N  N12  1  0.734637  0.458972  0.000000  1
  N  N13  1  0.265363  0.724336  0.265363  1
  N  N14  1  0.459345  0.000434  0.735188  1
  N  N15  1  0.724158  0.265246  0.264812  1
  N  N16  1  0.544386  0.282143  0.544386  1
  N  N17  1  0.735188  0.000434  0.459345  1
  N  N18  1  0.264812  0.265246  0.724158  1
  N  N19  1  0.455614  0.737758  0.000000  1
  N  N20  1  0.540655  0.541089  0.275842  1
  N  N21  1  0.000000  0.458972  0.734637  1
  N  N22  1  0.000000  0.991343  0.000000  1
