# generated using pymatgen
data_Nd6Sm2Sc12Si15As
_symmetry_space_group_name_H-M   'P 1'
_cell_length_a   7.25398897
_cell_length_b   7.49542683
_cell_length_c   14.16403460
_cell_angle_alpha   90.09287223
_cell_angle_beta   89.16547845
_cell_angle_gamma   90.28763307
_symmetry_Int_Tables_number   1
_chemical_formula_structural   Nd6Sm2Sc12Si15As
_chemical_formula_sum   'Nd6 Sm2 Sc12 Si15 As1'
_cell_volume   770.03094440
_cell_formula_units_Z   1
loop_
 _symmetry_equiv_pos_site_id
 _symmetry_equiv_pos_as_xyz
  1  'x, y, z'
loop_
 _atom_site_type_symbol
 _atom_site_label
 _atom_site_symmetry_multiplicity
 _atom_site_fract_x
 _atom_site_fract_y
 _atom_site_fract_z
 _atom_site_occupancy
  Nd  Nd0  1  0.012125  0.173254  0.097859  1
  Nd  Nd1  1  0.988498  0.827369  0.901870  1
  Nd  Nd2  1  0.488287  0.672746  0.902477  1
  Nd  Nd3  1  0.991612  0.823319  0.596131  1
  Nd  Nd4  1  0.512340  0.327854  0.097529  1
  Nd  Nd5  1  0.008055  0.176808  0.403570  1
  Sm  Sm6  1  0.505114  0.324267  0.401468  1
  Sm  Sm7  1  0.498492  0.674506  0.598254  1
  Sc  Sc8  1  0.163015  0.498988  0.749941  1
  Sc  Sc9  1  0.836827  0.500921  0.252926  1
  Sc  Sc10  1  0.337742  0.997888  0.251243  1
  Sc  Sc11  1  0.662623  0.001917  0.749200  1
  Sc  Sc12  1  0.338245  0.171672  0.627135  1
  Sc  Sc13  1  0.662862  0.826915  0.373315  1
  Sc  Sc14  1  0.160563  0.671922  0.377235  1
  Sc  Sc15  1  0.668730  0.824779  0.126019  1
  Sc  Sc16  1  0.836159  0.329060  0.622418  1
  Sc  Sc17  1  0.330819  0.174898  0.873446  1
  Sc  Sc18  1  0.831470  0.323715  0.874103  1
  Sc  Sc19  1  0.168824  0.676517  0.125365  1
  Si  Si20  1  0.035174  0.123616  0.748403  1
  Si  Si21  1  0.964332  0.876856  0.250575  1
  Si  Si22  1  0.459816  0.622960  0.249535  1
  Si  Si23  1  0.539005  0.377286  0.750293  1
  Si  Si24  1  0.290377  0.877887  0.749360  1
  Si  Si25  1  0.710551  0.120731  0.250212  1
  Si  Si26  1  0.211275  0.382064  0.250716  1
  Si  Si27  1  0.790258  0.618750  0.749329  1
  Si  Si28  1  0.816390  0.541091  0.455459  1
  Si  Si29  1  0.343265  0.961795  0.461133  1
  Si  Si30  1  0.848475  0.536840  0.039528  1
  Si  Si31  1  0.656848  0.037841  0.539856  1
  Si  Si32  1  0.151347  0.463797  0.959926  1
  Si  Si33  1  0.651622  0.036314  0.959824  1
  Si  Si34  1  0.348320  0.964349  0.039876  1
  As  As35  1  0.180545  0.458509  0.544469  1
