# generated using pymatgen
data_Zr3Ta2GaSn3
_symmetry_space_group_name_H-M   'P 1'
_cell_length_a   8.57106600
_cell_length_b   8.57106559
_cell_length_c   5.74914200
_cell_angle_alpha   90.00000000
_cell_angle_beta   90.00000000
_cell_angle_gamma   119.99999385
_symmetry_Int_Tables_number   1
_chemical_formula_structural   Zr3Ta2GaSn3
_chemical_formula_sum   'Zr6 Ta4 Ga2 Sn6'
_cell_volume   365.76601619
_cell_formula_units_Z   2
loop_
 _symmetry_equiv_pos_site_id
 _symmetry_equiv_pos_as_xyz
  1  'x, y, z'
loop_
 _atom_site_type_symbol
 _atom_site_label
 _atom_site_symmetry_multiplicity
 _atom_site_fract_x
 _atom_site_fract_y
 _atom_site_fract_z
 _atom_site_occupancy
  Zr  Zr0  1  0.000000  0.269684  0.250000  1
  Zr  Zr1  1  0.730316  0.000000  0.750000  1
  Zr  Zr2  1  0.730316  0.730316  0.250000  1
  Zr  Zr3  1  0.000000  0.730316  0.750000  1
  Zr  Zr4  1  0.269684  0.269684  0.750000  1
  Zr  Zr5  1  0.269684  0.000000  0.250000  1
  Ta  Ta6  1  0.666667  0.333333  0.500000  1
  Ta  Ta7  1  0.333333  0.666667  0.000000  1
  Ta  Ta8  1  0.666667  0.333333  0.000000  1
  Ta  Ta9  1  0.333333  0.666667  0.500000  1
  Ga  Ga10  1  0.000000  0.000000  0.000000  1
  Ga  Ga11  1  0.000000  0.000000  0.500000  1
  Sn  Sn12  1  0.609813  0.000000  0.250000  1
  Sn  Sn13  1  0.390187  0.000000  0.750000  1
  Sn  Sn14  1  0.390187  0.390187  0.250000  1
  Sn  Sn15  1  0.000000  0.609813  0.250000  1
  Sn  Sn16  1  0.000000  0.390187  0.750000  1
  Sn  Sn17  1  0.609813  0.609813  0.750000  1
