# generated using pymatgen
data_Pr3NdIrPd3O14
_symmetry_space_group_name_H-M   'P 1'
_cell_length_a   7.43718629
_cell_length_b   7.43718563
_cell_length_c   7.46643907
_cell_angle_alpha   60.12952064
_cell_angle_beta   60.12952004
_cell_angle_gamma   60.00000275
_symmetry_Int_Tables_number   1
_chemical_formula_structural   Pr3NdIrPd3O14
_chemical_formula_sum   'Pr3 Nd1 Ir1 Pd3 O14'
_cell_volume   292.59255237
_cell_formula_units_Z   1
loop_
 _symmetry_equiv_pos_site_id
 _symmetry_equiv_pos_as_xyz
  1  'x, y, z'
loop_
 _atom_site_type_symbol
 _atom_site_label
 _atom_site_symmetry_multiplicity
 _atom_site_fract_x
 _atom_site_fract_y
 _atom_site_fract_z
 _atom_site_occupancy
  Pr  Pr0  1  0.625000  0.125000  0.125000  1
  Pr  Pr1  1  0.125000  0.625000  0.125000  1
  Pr  Pr2  1  0.125000  0.125000  0.125000  1
  Nd  Nd3  1  0.125000  0.125000  0.625000  1
  Ir  Ir4  1  0.625000  0.625000  0.125000  1
  Pd  Pd5  1  0.125000  0.625000  0.625000  1
  Pd  Pd6  1  0.625000  0.125000  0.625000  1
  Pd  Pd7  1  0.625000  0.625000  0.625000  1
  O  O8  1  0.706267  0.706267  0.288613  1
  O  O9  1  0.289318  0.289318  0.712282  1
  O  O10  1  0.709082  0.289318  0.712282  1
  O  O11  1  0.298854  0.706267  0.288613  1
  O  O12  1  0.289318  0.709082  0.712282  1
  O  O13  1  0.706267  0.298854  0.288613  1
  O  O14  1  0.543733  0.543733  0.961387  1
  O  O15  1  0.960682  0.960682  0.537718  1
  O  O16  1  0.540918  0.960682  0.537718  1
  O  O17  1  0.951146  0.543733  0.961387  1
  O  O18  1  0.960682  0.540918  0.537718  1
  O  O19  1  0.543733  0.951146  0.961387  1
  O  O20  1  0.249223  0.249223  0.252332  1
  O  O21  1  0.000777  0.000777  0.997668  1
