# generated using pymatgen
data_Lu3Sc(Co4As3)2
_symmetry_space_group_name_H-M   'P 1'
_cell_length_a   3.80566900
_cell_length_b   10.99014000
_cell_length_c   12.71628900
_cell_angle_alpha   90.00000000
_cell_angle_beta   90.00000000
_cell_angle_gamma   90.00000000
_symmetry_Int_Tables_number   1
_chemical_formula_structural   Lu3Sc(Co4As3)2
_chemical_formula_sum   'Lu6 Sc2 Co16 As12'
_cell_volume   531.85669056
_cell_formula_units_Z   2
loop_
 _symmetry_equiv_pos_site_id
 _symmetry_equiv_pos_as_xyz
  1  'x, y, z'
loop_
 _atom_site_type_symbol
 _atom_site_label
 _atom_site_symmetry_multiplicity
 _atom_site_fract_x
 _atom_site_fract_y
 _atom_site_fract_z
 _atom_site_occupancy
  Lu  Lu0  1  0.000000  0.500000  0.530500  1
  Lu  Lu1  1  0.500000  0.000000  0.469500  1
  Lu  Lu2  1  0.500000  0.825506  0.205828  1
  Lu  Lu3  1  0.500000  0.174494  0.205828  1
  Lu  Lu4  1  0.000000  0.674494  0.794172  1
  Lu  Lu5  1  0.000000  0.325506  0.794172  1
  Sc  Sc6  1  0.500000  0.500000  0.158920  1
  Sc  Sc7  1  0.000000  0.000000  0.841080  1
  Co  Co8  1  0.500000  0.500000  0.705436  1
  Co  Co9  1  0.000000  0.000000  0.294564  1
  Co  Co10  1  0.000000  0.500000  0.990991  1
  Co  Co11  1  0.500000  0.000000  0.009009  1
  Co  Co12  1  0.500000  0.331043  0.997990  1
  Co  Co13  1  0.500000  0.668957  0.997990  1
  Co  Co14  1  0.000000  0.168957  0.002010  1
  Co  Co15  1  0.000000  0.831043  0.002010  1
  Co  Co16  1  0.500000  0.295285  0.433191  1
  Co  Co17  1  0.500000  0.704715  0.433191  1
  Co  Co18  1  0.000000  0.204715  0.566809  1
  Co  Co19  1  0.000000  0.795285  0.566809  1
  Co  Co20  1  0.500000  0.878183  0.700858  1
  Co  Co21  1  0.500000  0.121817  0.700858  1
  Co  Co22  1  0.000000  0.621817  0.299142  1
  Co  Co23  1  0.000000  0.378183  0.299142  1
  As  As24  1  0.500000  0.500000  0.885429  1
  As  As25  1  0.000000  0.000000  0.114571  1
  As  As26  1  0.500000  0.500000  0.364292  1
  As  As27  1  0.000000  0.000000  0.635708  1
  As  As28  1  0.500000  0.313693  0.616995  1
  As  As29  1  0.500000  0.686307  0.616995  1
  As  As30  1  0.000000  0.186307  0.383005  1
  As  As31  1  0.000000  0.813693  0.383005  1
  As  As32  1  0.500000  0.836590  0.887057  1
  As  As33  1  0.500000  0.163410  0.887057  1
  As  As34  1  0.000000  0.663410  0.112943  1
  As  As35  1  0.000000  0.336590  0.112943  1
