# generated using pymatgen
data_LiTm3In3AgPt
_symmetry_space_group_name_H-M   'P 1'
_cell_length_a   7.96002900
_cell_length_b   7.96002760
_cell_length_c   3.61389600
_cell_angle_alpha   90.00000000
_cell_angle_beta   90.00000000
_cell_angle_gamma   120.00000167
_symmetry_Int_Tables_number   1
_chemical_formula_structural   LiTm3In3AgPt
_chemical_formula_sum   'Li1 Tm3 In3 Ag1 Pt1'
_cell_volume   198.30583732
_cell_formula_units_Z   1
loop_
 _symmetry_equiv_pos_site_id
 _symmetry_equiv_pos_as_xyz
  1  'x, y, z'
loop_
 _atom_site_type_symbol
 _atom_site_label
 _atom_site_symmetry_multiplicity
 _atom_site_fract_x
 _atom_site_fract_y
 _atom_site_fract_z
 _atom_site_occupancy
  Li  Li0  1  0.000000  0.000000  0.500000  1
  Tm  Tm1  1  0.389210  0.415984  0.500000  1
  Tm  Tm2  1  0.584016  0.973225  0.500000  1
  Tm  Tm3  1  0.026775  0.610790  0.500000  1
  In  In4  1  0.987211  0.255700  0.000000  1
  In  In5  1  0.744300  0.731510  0.000000  1
  In  In6  1  0.268490  0.012789  0.000000  1
  Ag  Ag7  1  0.666667  0.333333  0.000000  1
  Pt  Pt8  1  0.333333  0.666667  0.000000  1
