# generated using pymatgen
data_NaSc3Sn2(B2Rh5)2
_symmetry_space_group_name_H-M   'P 1'
_cell_length_a   9.57058620
_cell_length_b   9.57058620
_cell_length_c   3.11561600
_cell_angle_alpha   90.00000000
_cell_angle_beta   90.00000000
_cell_angle_gamma   88.60005819
_symmetry_Int_Tables_number   1
_chemical_formula_structural   NaSc3Sn2(B2Rh5)2
_chemical_formula_sum   'Na1 Sc3 Sn2 B4 Rh10'
_cell_volume   285.29315621
_cell_formula_units_Z   1
loop_
 _symmetry_equiv_pos_site_id
 _symmetry_equiv_pos_as_xyz
  1  'x, y, z'
loop_
 _atom_site_type_symbol
 _atom_site_label
 _atom_site_symmetry_multiplicity
 _atom_site_fract_x
 _atom_site_fract_y
 _atom_site_fract_z
 _atom_site_occupancy
  Na  Na0  1  0.822316  0.322316  0.000000  1
  Sc  Sc1  1  0.324575  0.173285  0.000000  1
  Sc  Sc2  1  0.673285  0.824575  0.000000  1
  Sc  Sc3  1  0.173765  0.673765  0.000000  1
  Sn  Sn4  1  0.996072  0.011367  0.000000  1
  Sn  Sn5  1  0.511367  0.496072  0.000000  1
  B  B6  1  0.614631  0.114631  0.000000  1
  B  B7  1  0.129872  0.383605  0.000000  1
  B  B8  1  0.883605  0.629872  0.000000  1
  B  B9  1  0.373917  0.873917  0.000000  1
  Rh  Rh10  1  0.087682  0.227073  0.500000  1
  Rh  Rh11  1  0.218888  0.926053  0.500000  1
  Rh  Rh12  1  0.764627  0.055773  0.500000  1
  Rh  Rh13  1  0.932998  0.783715  0.500000  1
  Rh  Rh14  1  0.426053  0.718888  0.500000  1
  Rh  Rh15  1  0.555773  0.264627  0.500000  1
  Rh  Rh16  1  0.727073  0.587682  0.500000  1
  Rh  Rh17  1  0.283715  0.432998  0.500000  1
  Rh  Rh18  1  0.492444  0.992444  0.500000  1
  Rh  Rh19  1  0.007341  0.507341  0.500000  1
