# generated using pymatgen
data_Dy2(AlGa)3
_symmetry_space_group_name_H-M   'P 1'
_cell_length_a   6.27315800
_cell_length_b   6.27315697
_cell_length_c   4.57605400
_cell_angle_alpha   90.00000000
_cell_angle_beta   90.00000000
_cell_angle_gamma   120.00000543
_symmetry_Int_Tables_number   1
_chemical_formula_structural   Dy2(AlGa)3
_chemical_formula_sum   'Dy2 Al3 Ga3'
_cell_volume   155.95314221
_cell_formula_units_Z   1
loop_
 _symmetry_equiv_pos_site_id
 _symmetry_equiv_pos_as_xyz
  1  'x, y, z'
loop_
 _atom_site_type_symbol
 _atom_site_label
 _atom_site_symmetry_multiplicity
 _atom_site_fract_x
 _atom_site_fract_y
 _atom_site_fract_z
 _atom_site_occupancy
  Dy  Dy0  1  0.333333  0.666667  0.750000  1
  Dy  Dy1  1  0.666667  0.333333  0.250000  1
  Al  Al2  1  0.147296  0.294591  0.250000  1
  Al  Al3  1  0.705409  0.852704  0.250000  1
  Al  Al4  1  0.147296  0.852704  0.250000  1
  Ga  Ga5  1  0.851450  0.702900  0.750000  1
  Ga  Ga6  1  0.297100  0.148550  0.750000  1
  Ga  Ga7  1  0.851450  0.148550  0.750000  1
