# generated using pymatgen
data_Dy3Y(IrOs3)2
_symmetry_space_group_name_H-M   'P 1'
_cell_length_a   5.28594900
_cell_length_b   5.28594965
_cell_length_c   9.01005000
_cell_angle_alpha   90.00000000
_cell_angle_beta   90.00000000
_cell_angle_gamma   120.00001472
_symmetry_Int_Tables_number   1
_chemical_formula_structural   Dy3Y(IrOs3)2
_chemical_formula_sum   'Dy3 Y1 Ir2 Os6'
_cell_volume   218.02372676
_cell_formula_units_Z   1
loop_
 _symmetry_equiv_pos_site_id
 _symmetry_equiv_pos_as_xyz
  1  'x, y, z'
loop_
 _atom_site_type_symbol
 _atom_site_label
 _atom_site_symmetry_multiplicity
 _atom_site_fract_x
 _atom_site_fract_y
 _atom_site_fract_z
 _atom_site_occupancy
  Dy  Dy0  1  0.666667  0.333333  0.568050  1
  Dy  Dy1  1  0.666667  0.333333  0.932013  1
  Dy  Dy2  1  0.333333  0.666667  0.067926  1
  Y  Y3  1  0.333333  0.666667  0.432182  1
  Ir  Ir4  1  0.000000  0.000000  0.500014  1
  Ir  Ir5  1  0.000000  0.000000  0.000031  1
  Os  Os6  1  0.829118  0.170882  0.249868  1
  Os  Os7  1  0.829118  0.658235  0.249868  1
  Os  Os8  1  0.341765  0.170882  0.249868  1
  Os  Os9  1  0.170814  0.829186  0.750060  1
  Os  Os10  1  0.170814  0.341628  0.750060  1
  Os  Os11  1  0.658372  0.829186  0.750060  1
