# generated using pymatgen
data_NpIn6RhCl12
_symmetry_space_group_name_H-M   'P 1'
_cell_length_a   8.90170938
_cell_length_b   8.90170802
_cell_length_c   8.90170900
_cell_angle_alpha   104.00344232
_cell_angle_beta   104.00344677
_cell_angle_gamma   104.00345149
_symmetry_Int_Tables_number   1
_chemical_formula_structural   NpIn6RhCl12
_chemical_formula_sum   'Np1 In6 Rh1 Cl12'
_cell_volume   629.32691131
_cell_formula_units_Z   1
loop_
 _symmetry_equiv_pos_site_id
 _symmetry_equiv_pos_as_xyz
  1  'x, y, z'
loop_
 _atom_site_type_symbol
 _atom_site_label
 _atom_site_symmetry_multiplicity
 _atom_site_fract_x
 _atom_site_fract_y
 _atom_site_fract_z
 _atom_site_occupancy
  Np  Np0  1  0.500000  0.500000  0.500000  1
  In  In1  1  0.046781  0.059709  0.313797  1
  In  In2  1  0.313797  0.046781  0.059709  1
  In  In3  1  0.059709  0.313797  0.046781  1
  In  In4  1  0.953219  0.940291  0.686203  1
  In  In5  1  0.686203  0.953219  0.940291  1
  In  In6  1  0.940291  0.686203  0.953219  1
  Rh  Rh7  1  0.000000  0.000000  0.000000  1
  Cl  Cl8  1  0.981709  0.557067  0.188908  1
  Cl  Cl9  1  0.188908  0.981709  0.557067  1
  Cl  Cl10  1  0.557067  0.188908  0.981709  1
  Cl  Cl11  1  0.018291  0.442933  0.811092  1
  Cl  Cl12  1  0.811092  0.018291  0.442933  1
  Cl  Cl13  1  0.442933  0.811092  0.018291  1
  Cl  Cl14  1  0.482565  0.180911  0.372894  1
  Cl  Cl15  1  0.372894  0.482565  0.180911  1
  Cl  Cl16  1  0.180911  0.372894  0.482565  1
  Cl  Cl17  1  0.517435  0.819089  0.627106  1
  Cl  Cl18  1  0.627106  0.517435  0.819089  1
  Cl  Cl19  1  0.819089  0.627106  0.517435  1
