# generated using pymatgen
data_Tb2Sc2B12IrRh
_symmetry_space_group_name_H-M   'P 1'
_cell_length_a   3.55994500
_cell_length_b   9.02248558
_cell_length_c   11.39329873
_cell_angle_alpha   89.95891996
_cell_angle_beta   90.00000000
_cell_angle_gamma   90.00000000
_symmetry_Int_Tables_number   1
_chemical_formula_structural   Tb2Sc2B12IrRh
_chemical_formula_sum   'Tb4 Sc4 B24 Ir2 Rh2'
_cell_volume   365.94756189
_cell_formula_units_Z   2
loop_
 _symmetry_equiv_pos_site_id
 _symmetry_equiv_pos_as_xyz
  1  'x, y, z'
loop_
 _atom_site_type_symbol
 _atom_site_label
 _atom_site_symmetry_multiplicity
 _atom_site_fract_x
 _atom_site_fract_y
 _atom_site_fract_z
 _atom_site_occupancy
  Tb  Tb0  1  0.500000  0.319735  0.413542  1
  Tb  Tb1  1  0.500000  0.680265  0.586458  1
  Tb  Tb2  1  0.500000  0.179145  0.914408  1
  Tb  Tb3  1  0.500000  0.820855  0.085592  1
  Sc  Sc4  1  0.500000  0.444562  0.124351  1
  Sc  Sc5  1  0.500000  0.555438  0.875649  1
  Sc  Sc6  1  0.500000  0.054572  0.624664  1
  Sc  Sc7  1  0.500000  0.945428  0.375336  1
  B  B8  1  0.000000  0.099732  0.473047  1
  B  B9  1  0.000000  0.900268  0.526953  1
  B  B10  1  0.000000  0.400100  0.973017  1
  B  B11  1  0.000000  0.599900  0.026983  1
  B  B12  1  0.000000  0.130092  0.318273  1
  B  B13  1  0.000000  0.869908  0.681727  1
  B  B14  1  0.000000  0.370345  0.818303  1
  B  B15  1  0.000000  0.629655  0.181697  1
  B  B16  1  0.000000  0.054737  0.065971  1
  B  B17  1  0.000000  0.945263  0.934029  1
  B  B18  1  0.000000  0.444999  0.566281  1
  B  B19  1  0.000000  0.555001  0.433719  1
  B  B20  1  0.000000  0.481829  0.284895  1
  B  B21  1  0.000000  0.518171  0.715105  1
  B  B22  1  0.000000  0.017749  0.785008  1
  B  B23  1  0.000000  0.982251  0.214992  1
  B  B24  1  0.000000  0.253923  0.080701  1
  B  B25  1  0.000000  0.746077  0.919299  1
  B  B26  1  0.000000  0.245672  0.580566  1
  B  B27  1  0.000000  0.754328  0.419434  1
  B  B28  1  0.000000  0.295619  0.235295  1
  B  B29  1  0.000000  0.704381  0.764705  1
  B  B30  1  0.000000  0.204131  0.735097  1
  B  B31  1  0.000000  0.795869  0.264903  1
  Ir  Ir32  1  0.500000  0.358542  0.681357  1
  Ir  Ir33  1  0.500000  0.641458  0.318643  1
  Rh  Rh34  1  0.500000  0.141801  0.182049  1
  Rh  Rh35  1  0.500000  0.858199  0.817951  1
