# generated using pymatgen
data_Er3U2O10
_symmetry_space_group_name_H-M   'P 1'
_cell_length_a   6.41685042
_cell_length_b   6.41685065
_cell_length_c   8.30496906
_cell_angle_alpha   51.52568542
_cell_angle_beta   51.52568545
_cell_angle_gamma   48.98701264
_symmetry_Int_Tables_number   1
_chemical_formula_structural   Er3U2O10
_chemical_formula_sum   'Er3 U2 O10'
_cell_volume   188.30573601
_cell_formula_units_Z   1
loop_
 _symmetry_equiv_pos_site_id
 _symmetry_equiv_pos_as_xyz
  1  'x, y, z'
loop_
 _atom_site_type_symbol
 _atom_site_label
 _atom_site_symmetry_multiplicity
 _atom_site_fract_x
 _atom_site_fract_y
 _atom_site_fract_z
 _atom_site_occupancy
  Er  Er0  1  0.102676  0.102676  0.595871  1
  Er  Er1  1  0.500000  0.500000  0.000000  1
  Er  Er2  1  0.897324  0.897324  0.404129  1
  U  U3  1  0.302539  0.302539  0.794358  1
  U  U4  1  0.697461  0.697461  0.205642  1
  O  O5  1  0.552666  0.040169  0.291945  1
  O  O6  1  0.959831  0.447334  0.708055  1
  O  O7  1  0.040169  0.552666  0.291945  1
  O  O8  1  0.354614  0.853253  0.106487  1
  O  O9  1  0.447334  0.959831  0.708055  1
  O  O10  1  0.736529  0.263471  0.500000  1
  O  O11  1  0.853253  0.354614  0.106487  1
  O  O12  1  0.146747  0.645386  0.893513  1
  O  O13  1  0.263471  0.736529  0.500000  1
  O  O14  1  0.645386  0.146747  0.893513  1
