# generated using pymatgen
data_Ac3TbAu5
_symmetry_space_group_name_H-M   'P 1'
_cell_length_a   8.54197236
_cell_length_b   8.54197095
_cell_length_c   8.54197092
_cell_angle_alpha   65.92122473
_cell_angle_beta   65.92122361
_cell_angle_gamma   65.92120584
_symmetry_Int_Tables_number   1
_chemical_formula_structural   Ac3TbAu5
_chemical_formula_sum   'Ac6 Tb2 Au10'
_cell_volume   497.23046957
_cell_formula_units_Z   2
loop_
 _symmetry_equiv_pos_site_id
 _symmetry_equiv_pos_as_xyz
  1  'x, y, z'
loop_
 _atom_site_type_symbol
 _atom_site_label
 _atom_site_symmetry_multiplicity
 _atom_site_fract_x
 _atom_site_fract_y
 _atom_site_fract_z
 _atom_site_occupancy
  Ac  Ac0  1  0.890932  0.186107  0.624299  1
  Ac  Ac1  1  0.624299  0.890932  0.186107  1
  Ac  Ac2  1  0.186107  0.624299  0.890932  1
  Ac  Ac3  1  0.109068  0.813893  0.375701  1
  Ac  Ac4  1  0.375701  0.109068  0.813893  1
  Ac  Ac5  1  0.813893  0.375701  0.109068  1
  Tb  Tb6  1  0.657215  0.657215  0.657215  1
  Tb  Tb7  1  0.342785  0.342785  0.342785  1
  Au  Au8  1  0.000000  0.000000  0.000000  1
  Au  Au9  1  0.500000  0.500000  0.500000  1
  Au  Au10  1  0.802903  0.802903  0.802903  1
  Au  Au11  1  0.197097  0.197097  0.197097  1
  Au  Au12  1  0.942131  0.546442  0.324113  1
  Au  Au13  1  0.324113  0.942131  0.546442  1
  Au  Au14  1  0.546442  0.324113  0.942131  1
  Au  Au15  1  0.057869  0.453558  0.675887  1
  Au  Au16  1  0.675887  0.057869  0.453558  1
  Au  Au17  1  0.453558  0.675887  0.057869  1
