# generated using pymatgen
data_Ho8Tm2Ir3Os
_symmetry_space_group_name_H-M   'P 1'
_cell_length_a   6.45205639
_cell_length_b   7.22883781
_cell_length_c   8.38040074
_cell_angle_alpha   96.44656911
_cell_angle_beta   112.34872725
_cell_angle_gamma   89.98230130
_symmetry_Int_Tables_number   1
_chemical_formula_structural   Ho8Tm2Ir3Os
_chemical_formula_sum   'Ho8 Tm2 Ir3 Os1'
_cell_volume   358.84166108
_cell_formula_units_Z   1
loop_
 _symmetry_equiv_pos_site_id
 _symmetry_equiv_pos_as_xyz
  1  'x, y, z'
loop_
 _atom_site_type_symbol
 _atom_site_label
 _atom_site_symmetry_multiplicity
 _atom_site_fract_x
 _atom_site_fract_y
 _atom_site_fract_z
 _atom_site_occupancy
  Ho  Ho0  1  0.970016  0.917441  0.182316  1
  Ho  Ho1  1  0.789090  0.581558  0.821655  1
  Ho  Ho2  1  0.030025  0.081488  0.818964  1
  Ho  Ho3  1  0.211476  0.419022  0.182798  1
  Ho  Ho4  1  0.655791  0.816742  0.439846  1
  Ho  Ho5  1  0.210653  0.681791  0.557069  1
  Ho  Ho6  1  0.346243  0.181998  0.559030  1
  Ho  Ho7  1  0.786796  0.319191  0.440047  1
  Tm  Tm8  1  0.427548  0.749596  0.000399  1
  Tm  Tm9  1  0.574702  0.251432  0.000943  1
  Ir  Ir10  1  0.607142  0.927459  0.781300  1
  Ir  Ir11  1  0.174290  0.425721  0.782184  1
  Ir  Ir12  1  0.391304  0.073270  0.217891  1
  Os  Os13  1  0.824924  0.573293  0.215558  1
