# generated using pymatgen
data_YbB13C2
_symmetry_space_group_name_H-M   'P 1'
_cell_length_a   5.61801479
_cell_length_b   7.35717754
_cell_length_c   7.33356287
_cell_angle_alpha   66.34220111
_cell_angle_beta   67.75404859
_cell_angle_gamma   67.29238754
_symmetry_Int_Tables_number   1
_chemical_formula_structural   YbB13C2
_chemical_formula_sum   'Yb2 B26 C4'
_cell_volume   246.98367097
_cell_formula_units_Z   2
loop_
 _symmetry_equiv_pos_site_id
 _symmetry_equiv_pos_as_xyz
  1  'x, y, z'
loop_
 _atom_site_type_symbol
 _atom_site_label
 _atom_site_symmetry_multiplicity
 _atom_site_fract_x
 _atom_site_fract_y
 _atom_site_fract_z
 _atom_site_occupancy
  Yb  Yb0  1  0.745797  0.872784  0.629093  1
  Yb  Yb1  1  0.250243  0.131443  0.370417  1
  B  B2  1  0.667654  0.322235  0.347535  1
  B  B3  1  0.822603  0.487965  0.380750  1
  B  B4  1  0.189349  0.121114  0.013925  1
  B  B5  1  0.173645  0.516361  0.618705  1
  B  B6  1  0.901768  0.094523  0.775424  1
  B  B7  1  0.269804  0.726470  0.407379  1
  B  B8  1  0.678339  0.525151  0.632738  1
  B  B9  1  0.661844  0.135151  0.022705  1
  B  B10  1  0.407963  0.274981  0.588359  1
  B  B11  1  0.328485  0.682036  0.651947  1
  B  B12  1  0.423722  0.397401  0.751616  1
  B  B13  1  0.588190  0.729358  0.411129  1
  B  B14  1  0.806597  0.883215  0.985511  1
  B  B15  1  0.835530  0.154416  0.179617  1
  B  B16  1  0.317540  0.479192  0.366736  1
  B  B17  1  0.860091  0.560169  0.941720  1
  B  B18  1  0.769292  0.913583  0.226888  1
  B  B19  1  0.160501  0.849966  0.819790  1
  B  B20  1  0.925345  0.254105  0.894931  1
  B  B21  1  0.726211  0.277852  0.592114  1
  B  B22  1  0.226688  0.090773  0.772574  1
  B  B23  1  0.070779  0.750158  0.104612  1
  B  B24  1  0.334408  0.869185  0.976737  1
  B  B25  1  0.572346  0.606999  0.247766  1
  B  B26  1  0.136100  0.444130  0.057749  1
  B  B27  1  0.094330  0.909874  0.224020  1
  C  C28  1  0.114091  0.512082  0.241477  1
  C  C29  1  0.365742  0.260647  0.989893  1
  C  C30  1  0.630250  0.743798  0.009662  1
  C  C31  1  0.881857  0.492282  0.758070  1
