# generated using pymatgen
data_Ta6Be17Co6
_symmetry_space_group_name_H-M   'P 1'
_cell_length_a   7.52869813
_cell_length_b   7.50922810
_cell_length_c   7.50922600
_cell_angle_alpha   60.00000043
_cell_angle_beta   60.08551139
_cell_angle_gamma   60.08551132
_symmetry_Int_Tables_number   1
_chemical_formula_structural   Ta6Be17Co6
_chemical_formula_sum   'Ta6 Be17 Co6'
_cell_volume   300.57681546
_cell_formula_units_Z   1
loop_
 _symmetry_equiv_pos_site_id
 _symmetry_equiv_pos_as_xyz
  1  'x, y, z'
loop_
 _atom_site_type_symbol
 _atom_site_label
 _atom_site_symmetry_multiplicity
 _atom_site_fract_x
 _atom_site_fract_y
 _atom_site_fract_z
 _atom_site_occupancy
  Ta  Ta0  1  0.713723  0.293847  0.293847  1
  Ta  Ta1  1  0.286277  0.706153  0.706153  1
  Ta  Ta2  1  0.286277  0.706153  0.301418  1
  Ta  Ta3  1  0.713723  0.293847  0.698582  1
  Ta  Ta4  1  0.286277  0.301418  0.706153  1
  Ta  Ta5  1  0.713723  0.698582  0.293847  1
  Be  Be6  1  0.324923  0.326727  0.326727  1
  Be  Be7  1  0.675077  0.673273  0.673273  1
  Be  Be8  1  0.324923  0.326727  0.021621  1
  Be  Be9  1  0.324923  0.021621  0.326727  1
  Be  Be10  1  0.675077  0.673273  0.978379  1
  Be  Be11  1  0.675077  0.978379  0.673273  1
  Be  Be12  1  0.026712  0.324429  0.324429  1
  Be  Be13  1  0.973288  0.675571  0.675571  1
  Be  Be14  1  0.500000  0.000000  0.000000  1
  Be  Be15  1  0.000000  0.500000  0.500000  1
  Be  Be16  1  0.000000  0.500000  0.000000  1
  Be  Be17  1  0.500000  0.000000  0.500000  1
  Be  Be18  1  0.000000  0.000000  0.500000  1
  Be  Be19  1  0.500000  0.500000  0.000000  1
  Be  Be20  1  0.000000  0.000000  0.000000  1
  Be  Be21  1  0.636848  0.121051  0.121051  1
  Be  Be22  1  0.363152  0.878949  0.878949  1
  Co  Co23  1  0.128129  0.118005  0.118005  1
  Co  Co24  1  0.871871  0.881996  0.881995  1
  Co  Co25  1  0.128129  0.118005  0.635862  1
  Co  Co26  1  0.128129  0.635862  0.118004  1
  Co  Co27  1  0.871871  0.881996  0.364138  1
  Co  Co28  1  0.871871  0.364138  0.881995  1
