# generated using pymatgen
data_Er16Cd4Ir2OsRh
_symmetry_space_group_name_H-M   'P 1'
_cell_length_a   9.61919764
_cell_length_b   9.61919773
_cell_length_c   9.59806314
_cell_angle_alpha   59.23521388
_cell_angle_beta   59.23521710
_cell_angle_gamma   59.30886901
_symmetry_Int_Tables_number   1
_chemical_formula_structural   Er16Cd4Ir2OsRh
_chemical_formula_sum   'Er16 Cd4 Ir2 Os1 Rh1'
_cell_volume   617.39274890
_cell_formula_units_Z   1
loop_
 _symmetry_equiv_pos_site_id
 _symmetry_equiv_pos_as_xyz
  1  'x, y, z'
loop_
 _atom_site_type_symbol
 _atom_site_label
 _atom_site_symmetry_multiplicity
 _atom_site_fract_x
 _atom_site_fract_y
 _atom_site_fract_z
 _atom_site_occupancy
  Er  Er0  1  0.599857  0.599857  0.600491  1
  Er  Er1  1  0.598897  0.598897  0.207228  1
  Er  Er2  1  0.599443  0.206126  0.598613  1
  Er  Er3  1  0.206126  0.599443  0.598613  1
  Er  Er4  1  0.061640  0.439367  0.438591  1
  Er  Er5  1  0.437515  0.059177  0.060172  1
  Er  Er6  1  0.439367  0.061640  0.438591  1
  Er  Er7  1  0.059177  0.437515  0.060172  1
  Er  Er8  1  0.438901  0.438901  0.061334  1
  Er  Er9  1  0.059532  0.059532  0.436976  1
  Er  Er10  1  0.187710  0.813586  0.811023  1
  Er  Er11  1  0.806907  0.188977  0.188481  1
  Er  Er12  1  0.813586  0.187710  0.811023  1
  Er  Er13  1  0.188977  0.806907  0.188481  1
  Er  Er14  1  0.811381  0.811381  0.188527  1
  Er  Er15  1  0.188495  0.188495  0.807227  1
  Cd  Cd16  1  0.829416  0.829416  0.829713  1
  Cd  Cd17  1  0.830880  0.830880  0.505073  1
  Cd  Cd18  1  0.830257  0.505531  0.830601  1
  Cd  Cd19  1  0.505531  0.830257  0.830601  1
  Ir  Ir20  1  0.394116  0.826640  0.394868  1
  Ir  Ir21  1  0.826640  0.394116  0.394868  1
  Os  Os22  1  0.392149  0.392149  0.391554  1
  Rh  Rh23  1  0.393499  0.393499  0.827180  1
