# generated using pymatgen
data_Sr2Ni7P4
_symmetry_space_group_name_H-M   'P 1'
_cell_length_a   3.70387900
_cell_length_b   9.38134400
_cell_length_c   11.14635900
_cell_angle_alpha   90.00000000
_cell_angle_beta   90.00000000
_cell_angle_gamma   90.00000000
_symmetry_Int_Tables_number   1
_chemical_formula_structural   Sr2Ni7P4
_chemical_formula_sum   'Sr4 Ni14 P8'
_cell_volume   387.30658267
_cell_formula_units_Z   2
loop_
 _symmetry_equiv_pos_site_id
 _symmetry_equiv_pos_as_xyz
  1  'x, y, z'
loop_
 _atom_site_type_symbol
 _atom_site_label
 _atom_site_symmetry_multiplicity
 _atom_site_fract_x
 _atom_site_fract_y
 _atom_site_fract_z
 _atom_site_occupancy
  Sr  Sr0  1  0.000000  0.578689  0.983592  1
  Sr  Sr1  1  0.500000  0.421311  0.483592  1
  Sr  Sr2  1  0.000000  0.910743  0.795636  1
  Sr  Sr3  1  0.500000  0.089257  0.295636  1
  Ni  Ni4  1  0.000000  0.597684  0.297471  1
  Ni  Ni5  1  0.500000  0.402316  0.797471  1
  Ni  Ni6  1  0.000000  0.360079  0.209279  1
  Ni  Ni7  1  0.500000  0.639921  0.709279  1
  Ni  Ni8  1  0.000000  0.247045  0.905113  1
  Ni  Ni9  1  0.500000  0.752955  0.405113  1
  Ni  Ni10  1  0.000000  0.923454  0.104203  1
  Ni  Ni11  1  0.500000  0.076546  0.604203  1
  Ni  Ni12  1  0.000000  0.926728  0.484964  1
  Ni  Ni13  1  0.500000  0.073272  0.984964  1
  Ni  Ni14  1  0.000000  0.258783  0.686303  1
  Ni  Ni15  1  0.500000  0.741217  0.186303  1
  Ni  Ni16  1  0.000000  0.682136  0.565423  1
  Ni  Ni17  1  0.500000  0.317864  0.065423  1
  P  P18  1  0.000000  0.505867  0.706985  1
  P  P19  1  0.500000  0.494133  0.206985  1
  P  P20  1  0.000000  0.829378  0.296348  1
  P  P21  1  0.500000  0.170622  0.796348  1
  P  P22  1  0.000000  0.170817  0.088974  1
  P  P23  1  0.500000  0.829183  0.588974  1
  P  P24  1  0.000000  0.160977  0.506908  1
  P  P25  1  0.500000  0.839023  0.006908  1
