# generated using pymatgen
data_HoTm3Al4(CoO5)4
_symmetry_space_group_name_H-M   'P 1'
_cell_length_a   5.61546100
_cell_length_b   7.14204600
_cell_length_c   8.27599791
_cell_angle_alpha   90.03682909
_cell_angle_beta   90.00000000
_cell_angle_gamma   90.00000000
_symmetry_Int_Tables_number   1
_chemical_formula_structural   HoTm3Al4(CoO5)4
_chemical_formula_sum   'Ho1 Tm3 Al4 Co4 O20'
_cell_volume   331.91611706
_cell_formula_units_Z   1
loop_
 _symmetry_equiv_pos_site_id
 _symmetry_equiv_pos_as_xyz
  1  'x, y, z'
loop_
 _atom_site_type_symbol
 _atom_site_label
 _atom_site_symmetry_multiplicity
 _atom_site_fract_x
 _atom_site_fract_y
 _atom_site_fract_z
 _atom_site_occupancy
  Ho  Ho0  1  0.500000  0.365564  0.330715  1
  Tm  Tm1  1  0.500000  0.635322  0.669501  1
  Tm  Tm2  1  0.500000  0.134837  0.830833  1
  Tm  Tm3  1  0.500000  0.865056  0.169120  1
  Al  Al4  1  0.000000  0.107601  0.143327  1
  Al  Al5  1  0.000000  0.892098  0.856443  1
  Al  Al6  1  0.000000  0.392048  0.643909  1
  Al  Al7  1  0.000000  0.608425  0.356623  1
  Co  Co8  1  0.246754  0.999620  0.500151  1
  Co  Co9  1  0.753246  0.999620  0.500151  1
  Co  Co10  1  0.753280  0.500091  0.999676  1
  Co  Co11  1  0.246720  0.500091  0.999676  1
  O  O12  1  0.500000  0.338115  0.054461  1
  O  O13  1  0.500000  0.661972  0.943600  1
  O  O14  1  0.500000  0.160809  0.557263  1
  O  O15  1  0.500000  0.838001  0.443613  1
  O  O16  1  0.223392  0.999966  0.999895  1
  O  O17  1  0.776608  0.999966  0.999895  1
  O  O18  1  0.777749  0.501051  0.500989  1
  O  O19  1  0.222251  0.501051  0.500989  1
  O  O20  1  0.251932  0.104126  0.291223  1
  O  O21  1  0.747335  0.894156  0.708707  1
  O  O22  1  0.252665  0.894156  0.708707  1
  O  O23  1  0.747239  0.394339  0.791315  1
  O  O24  1  0.748068  0.104126  0.291223  1
  O  O25  1  0.251876  0.606761  0.208188  1
  O  O26  1  0.748124  0.606761  0.208188  1
  O  O27  1  0.252761  0.394339  0.791315  1
  O  O28  1  0.000000  0.346144  0.071247  1
  O  O29  1  0.000000  0.653674  0.928932  1
  O  O30  1  0.000000  0.153712  0.571140  1
  O  O31  1  0.000000  0.846401  0.428985  1
