# generated using pymatgen
data_PrTh4Sn3Se
_symmetry_space_group_name_H-M   'P 1'
_cell_length_a   9.50473100
_cell_length_b   9.52514499
_cell_length_c   6.71718600
_cell_angle_alpha   90.00000000
_cell_angle_beta   90.00000000
_cell_angle_gamma   119.92911943
_symmetry_Int_Tables_number   1
_chemical_formula_structural   PrTh4Sn3Se
_chemical_formula_sum   'Pr2 Th8 Sn6 Se2'
_cell_volume   527.03466182
_cell_formula_units_Z   2
loop_
 _symmetry_equiv_pos_site_id
 _symmetry_equiv_pos_as_xyz
  1  'x, y, z'
loop_
 _atom_site_type_symbol
 _atom_site_label
 _atom_site_symmetry_multiplicity
 _atom_site_fract_x
 _atom_site_fract_y
 _atom_site_fract_z
 _atom_site_occupancy
  Pr  Pr0  1  0.000127  0.737103  0.750000  1
  Pr  Pr1  1  0.263024  0.262897  0.750000  1
  Th  Th2  1  0.334934  0.667900  0.497414  1
  Th  Th3  1  0.667035  0.332100  0.497414  1
  Th  Th4  1  0.737735  0.737962  0.250000  1
  Th  Th5  1  0.737495  0.000000  0.750000  1
  Th  Th6  1  0.999773  0.262038  0.250000  1
  Th  Th7  1  0.261192  0.000000  0.250000  1
  Th  Th8  1  0.334934  0.667900  0.002586  1
  Th  Th9  1  0.667035  0.332100  0.002586  1
  Sn  Sn10  1  0.612077  0.612068  0.750000  1
  Sn  Sn11  1  0.000009  0.387932  0.750000  1
  Sn  Sn12  1  0.388242  0.000000  0.750000  1
  Sn  Sn13  1  0.611477  0.000000  0.250000  1
  Sn  Sn14  1  0.388232  0.388138  0.250000  1
  Sn  Sn15  1  0.000095  0.611862  0.250000  1
  Se  Se16  1  0.998293  0.000000  0.002037  1
  Se  Se17  1  0.998293  0.000000  0.497963  1
