# generated using pymatgen
data_CaNdZnIr2
_symmetry_space_group_name_H-M   'P 1'
_cell_length_a   5.70419681
_cell_length_b   5.70419588
_cell_length_c   5.70419600
_cell_angle_alpha   137.75286552
_cell_angle_beta   118.44137713
_cell_angle_gamma   77.49579964
_symmetry_Int_Tables_number   1
_chemical_formula_structural   CaNdZnIr2
_chemical_formula_sum   'Ca1 Nd1 Zn1 Ir2'
_cell_volume   106.78023727
_cell_formula_units_Z   1
loop_
 _symmetry_equiv_pos_site_id
 _symmetry_equiv_pos_as_xyz
  1  'x, y, z'
loop_
 _atom_site_type_symbol
 _atom_site_label
 _atom_site_symmetry_multiplicity
 _atom_site_fract_x
 _atom_site_fract_y
 _atom_site_fract_z
 _atom_site_occupancy
  Ca  Ca0  1  0.294516  0.794516  0.500000  1
  Nd  Nd1  1  0.699924  0.199925  0.500000  1
  Zn  Zn2  1  0.004027  0.004027  0.000000  1
  Ir  Ir3  1  0.726223  0.500765  0.225457  1
  Ir  Ir4  1  0.275308  0.500765  0.774543  1
