# generated using pymatgen
data_Tb6Er5Tm5(CdPt)4
_symmetry_space_group_name_H-M   'P 1'
_cell_length_a   9.63716104
_cell_length_b   9.63376931
_cell_length_c   9.63376930
_cell_angle_alpha   60.00757826
_cell_angle_beta   59.98834609
_cell_angle_gamma   59.98834819
_symmetry_Int_Tables_number   1
_chemical_formula_structural   Tb6Er5Tm5(CdPt)4
_chemical_formula_sum   'Tb6 Er5 Tm5 Cd4 Pt4'
_cell_volume   632.37536792
_cell_formula_units_Z   1
loop_
 _symmetry_equiv_pos_site_id
 _symmetry_equiv_pos_as_xyz
  1  'x, y, z'
loop_
 _atom_site_type_symbol
 _atom_site_label
 _atom_site_symmetry_multiplicity
 _atom_site_fract_x
 _atom_site_fract_y
 _atom_site_fract_z
 _atom_site_occupancy
  Tb  Tb0  1  0.935761  0.564239  0.564239  1
  Tb  Tb1  1  0.563297  0.936703  0.936703  1
  Tb  Tb2  1  0.563814  0.936241  0.563852  1
  Tb  Tb3  1  0.936094  0.563852  0.936241  1
  Tb  Tb4  1  0.563814  0.563852  0.936241  1
  Tb  Tb5  1  0.936094  0.936241  0.563852  1
  Er  Er6  1  0.350785  0.351819  0.351819  1
  Er  Er7  1  0.351797  0.352599  0.943808  1
  Er  Er8  1  0.351797  0.943808  0.352599  1
  Er  Er9  1  0.945577  0.351819  0.351819  1
  Er  Er10  1  0.810864  0.189136  0.189136  1
  Tm  Tm11  1  0.188455  0.811545  0.811545  1
  Tm  Tm12  1  0.189204  0.811192  0.188492  1
  Tm  Tm13  1  0.811112  0.188492  0.811192  1
  Tm  Tm14  1  0.189204  0.188492  0.811192  1
  Tm  Tm15  1  0.811112  0.811192  0.188492  1
  Cd  Cd16  1  0.581372  0.581110  0.581110  1
  Cd  Cd17  1  0.581454  0.581294  0.255797  1
  Cd  Cd18  1  0.581454  0.255797  0.581294  1
  Cd  Cd19  1  0.256407  0.581110  0.581110  1
  Pt  Pt20  1  0.143779  0.142569  0.142569  1
  Pt  Pt21  1  0.142835  0.142312  0.572021  1
  Pt  Pt22  1  0.142835  0.572021  0.142312  1
  Pt  Pt23  1  0.571086  0.142569  0.142569  1
