# generated using pymatgen
data_Sm2MgZnIr2
_symmetry_space_group_name_H-M   'P 1'
_cell_length_a   4.12197300
_cell_length_b   7.20913200
_cell_length_c   8.51725700
_cell_angle_alpha   90.00000000
_cell_angle_beta   90.00000000
_cell_angle_gamma   90.00000000
_symmetry_Int_Tables_number   1
_chemical_formula_structural   Sm2MgZnIr2
_chemical_formula_sum   'Sm4 Mg2 Zn2 Ir4'
_cell_volume   253.09750977
_cell_formula_units_Z   2
loop_
 _symmetry_equiv_pos_site_id
 _symmetry_equiv_pos_as_xyz
  1  'x, y, z'
loop_
 _atom_site_type_symbol
 _atom_site_label
 _atom_site_symmetry_multiplicity
 _atom_site_fract_x
 _atom_site_fract_y
 _atom_site_fract_z
 _atom_site_occupancy
  Sm  Sm0  1  0.250000  0.043098  0.320806  1
  Sm  Sm1  1  0.250000  0.543098  0.179194  1
  Sm  Sm2  1  0.750000  0.959879  0.678536  1
  Sm  Sm3  1  0.750000  0.459879  0.821464  1
  Mg  Mg4  1  0.250000  0.630343  0.558176  1
  Mg  Mg5  1  0.250000  0.130343  0.941824  1
  Zn  Zn6  1  0.750000  0.365833  0.438206  1
  Zn  Zn7  1  0.750000  0.865833  0.061794  1
  Ir  Ir8  1  0.250000  0.254757  0.624518  1
  Ir  Ir9  1  0.250000  0.754757  0.875482  1
  Ir  Ir10  1  0.750000  0.746093  0.370629  1
  Ir  Ir11  1  0.750000  0.246093  0.129371  1
