# generated using pymatgen
data_HfMg2(Co3B2)3
_symmetry_space_group_name_H-M   'P 1'
_cell_length_a   5.67221572
_cell_length_b   5.67221485
_cell_length_c   5.67221516
_cell_angle_alpha   95.41931655
_cell_angle_beta   95.41931564
_cell_angle_gamma   95.41931540
_symmetry_Int_Tables_number   1
_chemical_formula_structural   HfMg2(Co3B2)3
_chemical_formula_sum   'Hf1 Mg2 Co9 B6'
_cell_volume   179.88380880
_cell_formula_units_Z   1
loop_
 _symmetry_equiv_pos_site_id
 _symmetry_equiv_pos_as_xyz
  1  'x, y, z'
loop_
 _atom_site_type_symbol
 _atom_site_label
 _atom_site_symmetry_multiplicity
 _atom_site_fract_x
 _atom_site_fract_y
 _atom_site_fract_z
 _atom_site_occupancy
  Hf  Hf0  1  0.326995  0.326995  0.326995  1
  Mg  Mg1  1  0.993026  0.993026  0.993026  1
  Mg  Mg2  1  0.675794  0.675794  0.675794  1
  Co  Co3  1  0.497225  0.997204  0.997204  1
  Co  Co4  1  0.997204  0.497225  0.997204  1
  Co  Co5  1  0.997204  0.997204  0.497225  1
  Co  Co6  1  0.701345  0.207553  0.701345  1
  Co  Co7  1  0.701345  0.701345  0.207553  1
  Co  Co8  1  0.207553  0.701345  0.701345  1
  Co  Co9  1  0.296435  0.802617  0.296435  1
  Co  Co10  1  0.296435  0.296435  0.802617  1
  Co  Co11  1  0.802617  0.296435  0.296435  1
  B  B12  1  0.387022  0.001503  0.614885  1
  B  B13  1  0.614885  0.387022  0.001503  1
  B  B14  1  0.001503  0.614885  0.387022  1
  B  B15  1  0.614885  0.001503  0.387022  1
  B  B16  1  0.387022  0.614885  0.001503  1
  B  B17  1  0.001503  0.387022  0.614885  1
