# generated using pymatgen
data_YbNi2B2N
_symmetry_space_group_name_H-M   'P 1'
_cell_length_a   3.48038664
_cell_length_b   3.48038731
_cell_length_c   5.70361802
_cell_angle_alpha   107.76437766
_cell_angle_beta   107.76438628
_cell_angle_gamma   89.99999435
_symmetry_Int_Tables_number   1
_chemical_formula_structural   YbNi2B2N
_chemical_formula_sum   'Yb1 Ni2 B2 N1'
_cell_volume   62.32621082
_cell_formula_units_Z   1
loop_
 _symmetry_equiv_pos_site_id
 _symmetry_equiv_pos_as_xyz
  1  'x, y, z'
loop_
 _atom_site_type_symbol
 _atom_site_label
 _atom_site_symmetry_multiplicity
 _atom_site_fract_x
 _atom_site_fract_y
 _atom_site_fract_z
 _atom_site_occupancy
  Yb  Yb0  1  0.000000  0.000000  0.000000  1
  Ni  Ni1  1  0.750000  0.250000  0.500000  1
  Ni  Ni2  1  0.250000  0.750000  0.500000  1
  B  B3  1  0.637169  0.637169  0.274340  1
  B  B4  1  0.362831  0.362831  0.725661  1
  N  N5  1  0.500000  0.500000  0.000000  1
