# generated using pymatgen
data_Cs4NdEr3(SiSe4)4
_symmetry_space_group_name_H-M   'P 1'
_cell_length_a   7.09858423
_cell_length_b   9.91331514
_cell_length_c   13.39853644
_cell_angle_alpha   71.24392901
_cell_angle_beta   89.66814647
_cell_angle_gamma   89.85201736
_symmetry_Int_Tables_number   1
_chemical_formula_structural   Cs4NdEr3(SiSe4)4
_chemical_formula_sum   'Cs4 Nd1 Er3 Si4 Se16'
_cell_volume   892.77684025
_cell_formula_units_Z   1
loop_
 _symmetry_equiv_pos_site_id
 _symmetry_equiv_pos_as_xyz
  1  'x, y, z'
loop_
 _atom_site_type_symbol
 _atom_site_label
 _atom_site_symmetry_multiplicity
 _atom_site_fract_x
 _atom_site_fract_y
 _atom_site_fract_z
 _atom_site_occupancy
  Cs  Cs0  1  0.252265  0.438126  0.381825  1
  Cs  Cs1  1  0.752359  0.561557  0.118477  1
  Cs  Cs2  1  0.750390  0.563026  0.614394  1
  Cs  Cs3  1  0.247766  0.437808  0.882896  1
  Nd  Nd4  1  0.304397  0.953236  0.865337  1
  Er  Er5  1  0.184706  0.954903  0.364889  1
  Er  Er6  1  0.685428  0.046015  0.135918  1
  Er  Er7  1  0.816098  0.047084  0.632618  1
  Si  Si8  1  0.742266  0.158615  0.357799  1
  Si  Si9  1  0.242066  0.838970  0.146955  1
  Si  Si10  1  0.257731  0.838562  0.639766  1
  Si  Si11  1  0.757767  0.163514  0.855687  1
  Se  Se12  1  0.027629  0.196925  0.753483  1
  Se  Se13  1  0.783322  0.929150  0.462808  1
  Se  Se14  1  0.531988  0.201302  0.727064  1
  Se  Se15  1  0.730498  0.932986  0.962374  1
  Se  Se16  1  0.757023  0.305722  0.456981  1
  Se  Se17  1  0.966872  0.812652  0.243424  1
  Se  Se18  1  0.256253  0.685136  0.052771  1
  Se  Se19  1  0.217651  0.070223  0.537644  1
  Se  Se20  1  0.741338  0.306374  0.958324  1
  Se  Se21  1  0.471785  0.802198  0.273334  1
  Se  Se22  1  0.022873  0.797440  0.765916  1
  Se  Se23  1  0.243642  0.693995  0.539006  1
  Se  Se24  1  0.468964  0.187284  0.260808  1
  Se  Se25  1  0.969931  0.196867  0.228626  1
  Se  Se26  1  0.531980  0.809604  0.736103  1
  Se  Se27  1  0.285012  0.070726  0.044771  1
