# generated using pymatgen
data_Hf2MnAlRe2
_symmetry_space_group_name_H-M   'P 1'
_cell_length_a   5.20189000
_cell_length_b   5.14081987
_cell_length_c   8.53323700
_cell_angle_alpha   90.00000000
_cell_angle_beta   90.00000000
_cell_angle_gamma   119.61238095
_symmetry_Int_Tables_number   1
_chemical_formula_structural   Hf2MnAlRe2
_chemical_formula_sum   'Hf4 Mn2 Al2 Re4'
_cell_volume   198.39059835
_cell_formula_units_Z   2
loop_
 _symmetry_equiv_pos_site_id
 _symmetry_equiv_pos_as_xyz
  1  'x, y, z'
loop_
 _atom_site_type_symbol
 _atom_site_label
 _atom_site_symmetry_multiplicity
 _atom_site_fract_x
 _atom_site_fract_y
 _atom_site_fract_z
 _atom_site_occupancy
  Hf  Hf0  1  0.333584  0.666067  0.065901  1
  Hf  Hf1  1  0.666416  0.332482  0.565901  1
  Hf  Hf2  1  0.666416  0.332482  0.934099  1
  Hf  Hf3  1  0.333584  0.666067  0.434099  1
  Mn  Mn4  1  0.830628  0.661864  0.250000  1
  Mn  Mn5  1  0.169372  0.831237  0.750000  1
  Al  Al6  1  0.000000  0.989553  0.000000  1
  Al  Al7  1  0.000000  0.989553  0.500000  1
  Re  Re8  1  0.654523  0.831336  0.750000  1
  Re  Re9  1  0.345477  0.176813  0.250000  1
  Re  Re10  1  0.832329  0.177437  0.250000  1
  Re  Re11  1  0.167671  0.345109  0.750000  1
