# generated using pymatgen
data_BeVRuRh
_symmetry_space_group_name_H-M   'P 1'
_cell_length_a   4.09108205
_cell_length_b   4.09108172
_cell_length_c   4.09108200
_cell_angle_alpha   59.99999775
_cell_angle_beta   60.00000041
_cell_angle_gamma   59.99999295
_symmetry_Int_Tables_number   1
_chemical_formula_structural   BeVRuRh
_chemical_formula_sum   'Be1 V1 Ru1 Rh1'
_cell_volume   48.41718125
_cell_formula_units_Z   1
loop_
 _symmetry_equiv_pos_site_id
 _symmetry_equiv_pos_as_xyz
  1  'x, y, z'
loop_
 _atom_site_type_symbol
 _atom_site_label
 _atom_site_symmetry_multiplicity
 _atom_site_fract_x
 _atom_site_fract_y
 _atom_site_fract_z
 _atom_site_occupancy
  Be  Be0  1  0.499999  0.499999  0.499999  1
  V  V1  1  0.000000  0.000000  0.000000  1
  Ru  Ru2  1  0.750000  0.750000  0.750000  1
  Rh  Rh3  1  0.249999  0.249999  0.249999  1
