# generated using pymatgen
data_Tb10AlSn2Bi3
_symmetry_space_group_name_H-M   'P 1'
_cell_length_a   9.09694036
_cell_length_b   9.09543846
_cell_length_c   6.52037300
_cell_angle_alpha   90.00000000
_cell_angle_beta   90.00000000
_cell_angle_gamma   120.10890400
_symmetry_Int_Tables_number   1
_chemical_formula_structural   Tb10AlSn2Bi3
_chemical_formula_sum   'Tb10 Al1 Sn2 Bi3'
_cell_volume   466.70711618
_cell_formula_units_Z   1
loop_
 _symmetry_equiv_pos_site_id
 _symmetry_equiv_pos_as_xyz
  1  'x, y, z'
loop_
 _atom_site_type_symbol
 _atom_site_label
 _atom_site_symmetry_multiplicity
 _atom_site_fract_x
 _atom_site_fract_y
 _atom_site_fract_z
 _atom_site_occupancy
  Tb  Tb0  1  0.654653  0.334272  0.000103  1
  Tb  Tb1  1  0.338963  0.661458  0.000200  1
  Tb  Tb2  1  0.338963  0.661458  0.499800  1
  Tb  Tb3  1  0.654653  0.334272  0.499897  1
  Tb  Tb4  1  0.753707  0.754200  0.750000  1
  Tb  Tb5  1  0.243525  0.013484  0.750000  1
  Tb  Tb6  1  0.012885  0.242152  0.750000  1
  Tb  Tb7  1  0.243358  0.238045  0.250000  1
  Tb  Tb8  1  0.755332  0.994144  0.250000  1
  Tb  Tb9  1  0.999677  0.763203  0.250000  1
  Al  Al10  1  0.398457  0.399645  0.750000  1
  Sn  Sn11  1  0.605622  0.604995  0.250000  1
  Sn  Sn12  1  0.392012  0.995290  0.250000  1
  Bi  Bi13  1  0.609855  0.003399  0.750000  1
  Bi  Bi14  1  0.002493  0.609505  0.750000  1
  Bi  Bi15  1  0.995846  0.390480  0.250000  1
