# generated using pymatgen
data_TbCu7O12
_symmetry_space_group_name_H-M   'P 1'
_cell_length_a   6.34365988
_cell_length_b   6.34365932
_cell_length_c   6.34366000
_cell_angle_alpha   109.47121963
_cell_angle_beta   109.47121781
_cell_angle_gamma   109.47122527
_symmetry_Int_Tables_number   1
_chemical_formula_structural   TbCu7O12
_chemical_formula_sum   'Tb1 Cu7 O12'
_cell_volume   196.51592257
_cell_formula_units_Z   1
loop_
 _symmetry_equiv_pos_site_id
 _symmetry_equiv_pos_as_xyz
  1  'x, y, z'
loop_
 _atom_site_type_symbol
 _atom_site_label
 _atom_site_symmetry_multiplicity
 _atom_site_fract_x
 _atom_site_fract_y
 _atom_site_fract_z
 _atom_site_occupancy
  Tb  Tb0  1  0.000000  0.000000  0.000000  1
  Cu  Cu1  1  0.000000  0.500000  0.500000  1
  Cu  Cu2  1  0.500000  0.000000  0.500000  1
  Cu  Cu3  1  0.500000  0.500000  0.000000  1
  Cu  Cu4  1  0.000000  0.000000  0.500000  1
  Cu  Cu5  1  0.000000  0.500000  0.000000  1
  Cu  Cu6  1  0.500000  0.000000  0.000000  1
  Cu  Cu7  1  0.500000  0.500000  0.500000  1
  O  O8  1  0.305896  0.137172  0.831275  1
  O  O9  1  0.694104  0.862828  0.168725  1
  O  O10  1  0.694104  0.525379  0.831275  1
  O  O11  1  0.474621  0.168725  0.305896  1
  O  O12  1  0.168725  0.305896  0.474621  1
  O  O13  1  0.831275  0.305896  0.137172  1
  O  O14  1  0.862828  0.168725  0.694104  1
  O  O15  1  0.831275  0.694104  0.525379  1
  O  O16  1  0.305896  0.474621  0.168725  1
  O  O17  1  0.525379  0.831275  0.694104  1
  O  O18  1  0.168725  0.694104  0.862828  1
  O  O19  1  0.137172  0.831275  0.305896  1
