# generated using pymatgen
data_PrNd7(ZrSe5)4
_symmetry_space_group_name_H-M   'P 1'
_cell_length_a   7.76812314
_cell_length_b   8.36055818
_cell_length_c   12.26748404
_cell_angle_alpha   89.99096418
_cell_angle_beta   89.99601658
_cell_angle_gamma   89.97818618
_symmetry_Int_Tables_number   1
_chemical_formula_structural   PrNd7(ZrSe5)4
_chemical_formula_sum   'Pr1 Nd7 Zr4 Se20'
_cell_volume   796.72205377
_cell_formula_units_Z   1
loop_
 _symmetry_equiv_pos_site_id
 _symmetry_equiv_pos_as_xyz
  1  'x, y, z'
loop_
 _atom_site_type_symbol
 _atom_site_label
 _atom_site_symmetry_multiplicity
 _atom_site_fract_x
 _atom_site_fract_y
 _atom_site_fract_z
 _atom_site_occupancy
  Pr  Pr0  1  0.466312  0.497403  0.176934  1
  Nd  Nd1  1  0.032182  0.003189  0.677730  1
  Nd  Nd2  1  0.532068  0.996570  0.821633  1
  Nd  Nd3  1  0.967734  0.503251  0.322432  1
  Nd  Nd4  1  0.532510  0.503152  0.822149  1
  Nd  Nd5  1  0.967518  0.996868  0.322869  1
  Nd  Nd6  1  0.468164  0.003442  0.177829  1
  Nd  Nd7  1  0.032794  0.496579  0.677751  1
  Zr  Zr8  1  0.921381  0.750677  0.007847  1
  Zr  Zr9  1  0.578760  0.750097  0.508409  1
  Zr  Zr10  1  0.078656  0.249313  0.991577  1
  Zr  Zr11  1  0.421552  0.249736  0.492053  1
  Se  Se12  1  0.160381  0.751146  0.182703  1
  Se  Se13  1  0.338615  0.749890  0.682232  1
  Se  Se14  1  0.838709  0.250184  0.817556  1
  Se  Se15  1  0.661733  0.249781  0.318008  1
  Se  Se16  1  0.681344  0.750619  0.293145  1
  Se  Se17  1  0.819370  0.749488  0.792501  1
  Se  Se18  1  0.319048  0.250097  0.707258  1
  Se  Se19  1  0.179975  0.249047  0.207275  1
  Se  Se20  1  0.554274  0.751513  0.003545  1
  Se  Se21  1  0.946017  0.749831  0.504746  1
  Se  Se22  1  0.446118  0.248383  0.994627  1
  Se  Se23  1  0.053893  0.249875  0.495531  1
  Se  Se24  1  0.835610  0.462738  0.087107  1
  Se  Se25  1  0.665378  0.037721  0.587232  1
  Se  Se26  1  0.164971  0.961874  0.912181  1
  Se  Se27  1  0.334083  0.537723  0.413734  1
  Se  Se28  1  0.165703  0.537404  0.913449  1
  Se  Se29  1  0.334885  0.962276  0.412860  1
  Se  Se30  1  0.834860  0.037982  0.087745  1
  Se  Se31  1  0.665398  0.462153  0.587351  1
