# generated using pymatgen
data_Sc4Al2Fe3B4Ru7
_symmetry_space_group_name_H-M   'P 1'
_cell_length_a   9.11617910
_cell_length_b   9.29711642
_cell_length_c   3.05218700
_cell_angle_alpha   90.00000000
_cell_angle_beta   90.00000000
_cell_angle_gamma   90.37864509
_symmetry_Int_Tables_number   1
_chemical_formula_structural   Sc4Al2Fe3B4Ru7
_chemical_formula_sum   'Sc4 Al2 Fe3 B4 Ru7'
_cell_volume   258.67995255
_cell_formula_units_Z   1
loop_
 _symmetry_equiv_pos_site_id
 _symmetry_equiv_pos_as_xyz
  1  'x, y, z'
loop_
 _atom_site_type_symbol
 _atom_site_label
 _atom_site_symmetry_multiplicity
 _atom_site_fract_x
 _atom_site_fract_y
 _atom_site_fract_z
 _atom_site_occupancy
  Sc  Sc0  1  0.677856  0.178139  0.000000  1
  Sc  Sc1  1  0.325653  0.806594  0.000000  1
  Sc  Sc2  1  0.180769  0.324421  0.000000  1
  Sc  Sc3  1  0.821144  0.690587  0.000000  1
  Al  Al4  1  0.003293  0.000195  0.000000  1
  Al  Al5  1  0.500454  0.499813  0.000000  1
  Fe  Fe6  1  0.229360  0.060146  0.500000  1
  Fe  Fe7  1  0.486373  0.997899  0.500000  1
  Fe  Fe8  1  0.995219  0.502240  0.500000  1
  B  B9  1  0.113899  0.619498  0.000000  1
  B  B10  1  0.884868  0.375315  0.000000  1
  B  B11  1  0.612978  0.884338  0.000000  1
  B  B12  1  0.381583  0.120376  0.000000  1
  Ru  Ru13  1  0.775460  0.942981  0.500000  1
  Ru  Ru14  1  0.066406  0.782523  0.500000  1
  Ru  Ru15  1  0.724940  0.439609  0.500000  1
  Ru  Ru16  1  0.944787  0.219121  0.500000  1
  Ru  Ru17  1  0.275885  0.558613  0.500000  1
  Ru  Ru18  1  0.564443  0.720478  0.500000  1
  Ru  Ru19  1  0.434630  0.277112  0.500000  1
