# generated using pymatgen
data_Cr3Ir5
_symmetry_space_group_name_H-M   'P 1'
_cell_length_a   5.40200100
_cell_length_b   5.39702315
_cell_length_c   4.27174900
_cell_angle_alpha   90.00000000
_cell_angle_beta   90.00000000
_cell_angle_gamma   120.03052133
_symmetry_Int_Tables_number   1
_chemical_formula_structural   Cr3Ir5
_chemical_formula_sum   'Cr3 Ir5'
_cell_volume   107.82305894
_cell_formula_units_Z   1
loop_
 _symmetry_equiv_pos_site_id
 _symmetry_equiv_pos_as_xyz
  1  'x, y, z'
loop_
 _atom_site_type_symbol
 _atom_site_label
 _atom_site_symmetry_multiplicity
 _atom_site_fract_x
 _atom_site_fract_y
 _atom_site_fract_z
 _atom_site_occupancy
  Cr  Cr0  1  0.170202  0.340403  0.250000  1
  Cr  Cr1  1  0.330957  0.661916  0.750000  1
  Cr  Cr2  1  0.669070  0.338137  0.250000  1
  Ir  Ir3  1  0.659033  0.823681  0.250000  1
  Ir  Ir4  1  0.164649  0.823681  0.250000  1
  Ir  Ir5  1  0.831207  0.662415  0.750000  1
  Ir  Ir6  1  0.337888  0.174883  0.750000  1
  Ir  Ir7  1  0.836995  0.174883  0.750000  1
