# generated using pymatgen
data_ErCo4As3Ru
_symmetry_space_group_name_H-M   'P 1'
_cell_length_a   3.79988100
_cell_length_b   10.73881100
_cell_length_c   12.21932800
_cell_angle_alpha   90.00000000
_cell_angle_beta   90.00000000
_cell_angle_gamma   90.00000000
_symmetry_Int_Tables_number   1
_chemical_formula_structural   ErCo4As3Ru
_chemical_formula_sum   'Er4 Co16 As12 Ru4'
_cell_volume   498.62438966
_cell_formula_units_Z   4
loop_
 _symmetry_equiv_pos_site_id
 _symmetry_equiv_pos_as_xyz
  1  'x, y, z'
loop_
 _atom_site_type_symbol
 _atom_site_label
 _atom_site_symmetry_multiplicity
 _atom_site_fract_x
 _atom_site_fract_y
 _atom_site_fract_z
 _atom_site_occupancy
  Er  Er0  1  0.250000  0.582672  0.703998  1
  Er  Er1  1  0.250000  0.917328  0.203998  1
  Er  Er2  1  0.750000  0.417328  0.296002  1
  Er  Er3  1  0.750000  0.082672  0.796002  1
  Co  Co4  1  0.250000  0.407307  0.487424  1
  Co  Co5  1  0.250000  0.092693  0.987424  1
  Co  Co6  1  0.750000  0.592693  0.512576  1
  Co  Co7  1  0.750000  0.907307  0.012576  1
  Co  Co8  1  0.250000  0.216152  0.176118  1
  Co  Co9  1  0.250000  0.283848  0.676118  1
  Co  Co10  1  0.750000  0.783848  0.823882  1
  Co  Co11  1  0.750000  0.716152  0.323882  1
  Co  Co12  1  0.250000  0.885546  0.700299  1
  Co  Co13  1  0.250000  0.614454  0.200299  1
  Co  Co14  1  0.750000  0.114454  0.299701  1
  Co  Co15  1  0.750000  0.385546  0.799701  1
  Co  Co16  1  0.250000  0.464956  0.931017  1
  Co  Co17  1  0.250000  0.035044  0.431017  1
  Co  Co18  1  0.750000  0.535044  0.068983  1
  Co  Co19  1  0.750000  0.964956  0.568983  1
  As  As20  1  0.250000  0.417471  0.114467  1
  As  As21  1  0.250000  0.082529  0.614467  1
  As  As22  1  0.750000  0.582529  0.885533  1
  As  As23  1  0.750000  0.917471  0.385533  1
  As  As24  1  0.250000  0.267247  0.866602  1
  As  As25  1  0.250000  0.232753  0.366602  1
  As  As26  1  0.750000  0.732753  0.133398  1
  As  As27  1  0.750000  0.767247  0.633398  1
  As  As28  1  0.250000  0.595466  0.389759  1
  As  As29  1  0.250000  0.904534  0.889759  1
  As  As30  1  0.750000  0.404534  0.610241  1
  As  As31  1  0.750000  0.095466  0.110241  1
  Ru  Ru32  1  0.250000  0.710224  0.990634  1
  Ru  Ru33  1  0.250000  0.789776  0.490634  1
  Ru  Ru34  1  0.750000  0.289776  0.009366  1
  Ru  Ru35  1  0.750000  0.210224  0.509366  1
