# generated using pymatgen
data_Tb4Nd2TaCo2(P4Rh5)3
_symmetry_space_group_name_H-M   'P 1'
_cell_length_a   3.88918800
_cell_length_b   11.16960000
_cell_length_c   12.85452900
_cell_angle_alpha   90.00000000
_cell_angle_beta   90.00000000
_cell_angle_gamma   90.00000000
_symmetry_Int_Tables_number   1
_chemical_formula_structural   Tb4Nd2TaCo2(P4Rh5)3
_chemical_formula_sum   'Tb4 Nd2 Ta1 Co2 P12 Rh15'
_cell_volume   558.40940737
_cell_formula_units_Z   1
loop_
 _symmetry_equiv_pos_site_id
 _symmetry_equiv_pos_as_xyz
  1  'x, y, z'
loop_
 _atom_site_type_symbol
 _atom_site_label
 _atom_site_symmetry_multiplicity
 _atom_site_fract_x
 _atom_site_fract_y
 _atom_site_fract_z
 _atom_site_occupancy
  Tb  Tb0  1  0.500000  0.817324  0.202582  1
  Tb  Tb1  1  0.500000  0.182676  0.202582  1
  Tb  Tb2  1  0.000000  0.682671  0.801405  1
  Tb  Tb3  1  0.000000  0.317329  0.801405  1
  Nd  Nd4  1  0.000000  0.500000  0.522920  1
  Nd  Nd5  1  0.500000  0.000000  0.477483  1
  Ta  Ta6  1  0.500000  0.500000  0.154002  1
  Co  Co7  1  0.000000  0.500000  0.988479  1
  Co  Co8  1  0.500000  0.000000  0.019012  1
  P  P9  1  0.500000  0.500000  0.882498  1
  P  P10  1  0.000000  0.000000  0.117003  1
  P  P11  1  0.500000  0.500000  0.347390  1
  P  P12  1  0.000000  0.000000  0.653245  1
  P  P13  1  0.500000  0.313987  0.620342  1
  P  P14  1  0.500000  0.686013  0.620342  1
  P  P15  1  0.000000  0.186670  0.381125  1
  P  P16  1  0.000000  0.813330  0.381125  1
  P  P17  1  0.500000  0.855563  0.893190  1
  P  P18  1  0.500000  0.144437  0.893190  1
  P  P19  1  0.000000  0.652181  0.104046  1
  P  P20  1  0.000000  0.347819  0.104046  1
  Rh  Rh21  1  0.000000  0.000000  0.834750  1
  Rh  Rh22  1  0.500000  0.500000  0.705054  1
  Rh  Rh23  1  0.000000  0.000000  0.293837  1
  Rh  Rh24  1  0.500000  0.333441  0.990133  1
  Rh  Rh25  1  0.500000  0.666559  0.990133  1
  Rh  Rh26  1  0.000000  0.163086  0.007602  1
  Rh  Rh27  1  0.000000  0.836914  0.007602  1
  Rh  Rh28  1  0.500000  0.291211  0.431189  1
  Rh  Rh29  1  0.500000  0.708789  0.431189  1
  Rh  Rh30  1  0.000000  0.206509  0.571703  1
  Rh  Rh31  1  0.000000  0.793491  0.571703  1
  Rh  Rh32  1  0.500000  0.873900  0.711903  1
  Rh  Rh33  1  0.500000  0.126100  0.711903  1
  Rh  Rh34  1  0.000000  0.626773  0.286943  1
  Rh  Rh35  1  0.000000  0.373227  0.286943  1
