# generated using pymatgen
data_Tb4Ho6IrRu3
_symmetry_space_group_name_H-M   'P 1'
_cell_length_a   6.35742129
_cell_length_b   7.30338100
_cell_length_c   8.47358598
_cell_angle_alpha   96.79831640
_cell_angle_beta   112.09462876
_cell_angle_gamma   90.02594542
_symmetry_Int_Tables_number   1
_chemical_formula_structural   Tb4Ho6IrRu3
_chemical_formula_sum   'Tb4 Ho6 Ir1 Ru3'
_cell_volume   361.54608942
_cell_formula_units_Z   1
loop_
 _symmetry_equiv_pos_site_id
 _symmetry_equiv_pos_as_xyz
  1  'x, y, z'
loop_
 _atom_site_type_symbol
 _atom_site_label
 _atom_site_symmetry_multiplicity
 _atom_site_fract_x
 _atom_site_fract_y
 _atom_site_fract_z
 _atom_site_occupancy
  Tb  Tb0  1  0.978439  0.917765  0.186175  1
  Tb  Tb1  1  0.790861  0.584927  0.812203  1
  Tb  Tb2  1  0.021869  0.084605  0.813239  1
  Tb  Tb3  1  0.210114  0.414611  0.186075  1
  Ho  Ho4  1  0.640961  0.815811  0.435190  1
  Ho  Ho5  1  0.207382  0.684770  0.566154  1
  Ho  Ho6  1  0.358571  0.185180  0.565538  1
  Ho  Ho7  1  0.793412  0.314033  0.435780  1
  Ho  Ho8  1  0.420700  0.750165  0.000105  1
  Ho  Ho9  1  0.578373  0.248713  0.998828  1
  Ir  Ir10  1  0.821468  0.575756  0.221807  1
  Ru  Ru11  1  0.603326  0.923332  0.779309  1
  Ru  Ru12  1  0.176022  0.424746  0.778715  1
  Ru  Ru13  1  0.398503  0.075587  0.220884  1
