# generated using pymatgen
data_Ho2Er3Zn2Bi
_symmetry_space_group_name_H-M   'P 1'
_cell_length_a   8.57971083
_cell_length_b   8.57971072
_cell_length_c   8.57971000
_cell_angle_alpha   123.54823284
_cell_angle_beta   123.54822848
_cell_angle_gamma   83.95684406
_symmetry_Int_Tables_number   1
_chemical_formula_structural   Ho2Er3Zn2Bi
_chemical_formula_sum   'Ho4 Er6 Zn4 Bi2'
_cell_volume   420.07510346
_cell_formula_units_Z   2
loop_
 _symmetry_equiv_pos_site_id
 _symmetry_equiv_pos_as_xyz
  1  'x, y, z'
loop_
 _atom_site_type_symbol
 _atom_site_label
 _atom_site_symmetry_multiplicity
 _atom_site_fract_x
 _atom_site_fract_y
 _atom_site_fract_z
 _atom_site_occupancy
  Ho  Ho0  1  0.510136  0.010136  0.804672  1
  Ho  Ho1  1  0.205463  0.705463  0.195328  1
  Ho  Ho2  1  0.010136  0.205463  0.500000  1
  Ho  Ho3  1  0.705463  0.510136  0.500000  1
  Er  Er4  1  0.500121  0.500121  0.000000  1
  Er  Er5  1  0.000121  0.000121  0.000000  1
  Er  Er6  1  0.489786  0.989786  0.195754  1
  Er  Er7  1  0.794033  0.294033  0.804246  1
  Er  Er8  1  0.989786  0.794033  0.500000  1
  Er  Er9  1  0.294033  0.489786  0.500000  1
  Zn  Zn10  1  0.139355  0.639355  0.778273  1
  Zn  Zn11  1  0.861083  0.361083  0.221727  1
  Zn  Zn12  1  0.639355  0.861083  0.500000  1
  Zn  Zn13  1  0.361083  0.139355  0.500000  1
  Bi  Bi14  1  0.250023  0.250023  0.000000  1
  Bi  Bi15  1  0.750023  0.750023  0.000000  1
