# generated using pymatgen
data_Tm3Zn3CuGe2
_symmetry_space_group_name_H-M   'P 1'
_cell_length_a   6.78500700
_cell_length_b   6.78500638
_cell_length_c   4.22524700
_cell_angle_alpha   90.00000000
_cell_angle_beta   90.00000000
_cell_angle_gamma   119.99999815
_symmetry_Int_Tables_number   1
_chemical_formula_structural   Tm3Zn3CuGe2
_chemical_formula_sum   'Tm3 Zn3 Cu1 Ge2'
_cell_volume   168.45476583
_cell_formula_units_Z   1
loop_
 _symmetry_equiv_pos_site_id
 _symmetry_equiv_pos_as_xyz
  1  'x, y, z'
loop_
 _atom_site_type_symbol
 _atom_site_label
 _atom_site_symmetry_multiplicity
 _atom_site_fract_x
 _atom_site_fract_y
 _atom_site_fract_z
 _atom_site_occupancy
  Tm  Tm0  1  0.414996  0.000000  0.000000  1
  Tm  Tm1  1  0.000000  0.414996  0.000000  1
  Tm  Tm2  1  0.585003  0.585004  0.000000  1
  Zn  Zn3  1  0.767557  0.000000  0.499999  1
  Zn  Zn4  1  0.232443  0.232443  0.499999  1
  Zn  Zn5  1  0.000000  0.767558  0.499999  1
  Cu  Cu6  1  0.000000  0.000000  0.000000  1
  Ge  Ge7  1  0.666666  0.333333  0.499999  1
  Ge  Ge8  1  0.333333  0.666666  0.499999  1
