# generated using pymatgen
data_Pr2HoSn6Ru
_symmetry_space_group_name_H-M   'P 1'
_cell_length_a   8.59946058
_cell_length_b   8.59945960
_cell_length_c   13.49366300
_cell_angle_alpha   90.00000000
_cell_angle_beta   90.00000000
_cell_angle_gamma   148.30128071
_symmetry_Int_Tables_number   1
_chemical_formula_structural   Pr2HoSn6Ru
_chemical_formula_sum   'Pr4 Ho2 Sn12 Ru2'
_cell_volume   524.33132335
_cell_formula_units_Z   2
loop_
 _symmetry_equiv_pos_site_id
 _symmetry_equiv_pos_as_xyz
  1  'x, y, z'
loop_
 _atom_site_type_symbol
 _atom_site_label
 _atom_site_symmetry_multiplicity
 _atom_site_fract_x
 _atom_site_fract_y
 _atom_site_fract_z
 _atom_site_occupancy
  Pr  Pr0  1  0.400566  0.599434  0.404738  1
  Pr  Pr1  1  0.599434  0.400566  0.595262  1
  Pr  Pr2  1  0.400566  0.599434  0.095262  1
  Pr  Pr3  1  0.599434  0.400566  0.904738  1
  Ho  Ho4  1  0.603456  0.396544  0.250000  1
  Ho  Ho5  1  0.396544  0.603456  0.750000  1
  Sn  Sn6  1  0.925673  0.074327  0.921475  1
  Sn  Sn7  1  0.074327  0.925673  0.078525  1
  Sn  Sn8  1  0.925673  0.074327  0.578525  1
  Sn  Sn9  1  0.074327  0.925673  0.421475  1
  Sn  Sn10  1  0.960696  0.039304  0.250000  1
  Sn  Sn11  1  0.039304  0.960696  0.750000  1
  Sn  Sn12  1  0.744504  0.255497  0.432287  1
  Sn  Sn13  1  0.255497  0.744503  0.567713  1
  Sn  Sn14  1  0.744504  0.255497  0.067713  1
  Sn  Sn15  1  0.255497  0.744503  0.932287  1
  Sn  Sn16  1  0.230752  0.769248  0.250000  1
  Sn  Sn17  1  0.769248  0.230752  0.750000  1
  Ru  Ru18  1  0.799769  0.200231  0.250000  1
  Ru  Ru19  1  0.200231  0.799769  0.750000  1
