# generated using pymatgen
data_Y11Ho5(CdRu)4
_symmetry_space_group_name_H-M   'P 1'
_cell_length_a   9.64793313
_cell_length_b   9.64467318
_cell_length_c   9.64467422
_cell_angle_alpha   59.74342725
_cell_angle_beta   59.98882449
_cell_angle_gamma   59.98882067
_symmetry_Int_Tables_number   1
_chemical_formula_structural   Y11Ho5(CdRu)4
_chemical_formula_sum   'Y11 Ho5 Cd4 Ru4'
_cell_volume   633.24541753
_cell_formula_units_Z   1
loop_
 _symmetry_equiv_pos_site_id
 _symmetry_equiv_pos_as_xyz
  1  'x, y, z'
loop_
 _atom_site_type_symbol
 _atom_site_label
 _atom_site_symmetry_multiplicity
 _atom_site_fract_x
 _atom_site_fract_y
 _atom_site_fract_z
 _atom_site_occupancy
  Y  Y0  1  0.559109  0.557306  0.941935  1
  Y  Y1  1  0.941650  0.557306  0.941935  1
  Y  Y2  1  0.565464  0.934536  0.934536  1
  Y  Y3  1  0.941650  0.941935  0.557306  1
  Y  Y4  1  0.559109  0.941935  0.557306  1
  Y  Y5  1  0.938042  0.561958  0.561958  1
  Y  Y6  1  0.189850  0.187582  0.810905  1
  Y  Y7  1  0.811662  0.187582  0.810905  1
  Y  Y8  1  0.191535  0.808465  0.808464  1
  Y  Y9  1  0.811662  0.810906  0.187582  1
  Y  Y10  1  0.189849  0.810905  0.187581  1
  Ho  Ho11  1  0.809481  0.190519  0.190519  1
  Ho  Ho12  1  0.347603  0.340221  0.964573  1
  Ho  Ho13  1  0.347603  0.964573  0.340221  1
  Ho  Ho14  1  0.956407  0.348817  0.348817  1
  Ho  Ho15  1  0.345961  0.348817  0.348817  1
  Cd  Cd16  1  0.579258  0.582151  0.259332  1
  Cd  Cd17  1  0.579258  0.259332  0.582151  1
  Cd  Cd18  1  0.260347  0.579731  0.579731  1
  Cd  Cd19  1  0.580188  0.579731  0.579731  1
  Ru  Ru20  1  0.141788  0.140481  0.575944  1
  Ru  Ru21  1  0.141788  0.575944  0.140481  1
  Ru  Ru22  1  0.579783  0.144633  0.144633  1
  Ru  Ru23  1  0.130951  0.144633  0.144633  1
