# generated using pymatgen
data_Ho2Er2Ga3SiRu4
_symmetry_space_group_name_H-M   'P 1'
_cell_length_a   4.43916600
_cell_length_b   7.08653594
_cell_length_c   7.13202700
_cell_angle_alpha   90.20131566
_cell_angle_beta   90.00000000
_cell_angle_gamma   90.00000000
_symmetry_Int_Tables_number   1
_chemical_formula_structural   Ho2Er2Ga3SiRu4
_chemical_formula_sum   'Ho2 Er2 Ga3 Si1 Ru4'
_cell_volume   224.36012698
_cell_formula_units_Z   1
loop_
 _symmetry_equiv_pos_site_id
 _symmetry_equiv_pos_as_xyz
  1  'x, y, z'
loop_
 _atom_site_type_symbol
 _atom_site_label
 _atom_site_symmetry_multiplicity
 _atom_site_fract_x
 _atom_site_fract_y
 _atom_site_fract_z
 _atom_site_occupancy
  Ho  Ho0  1  0.750000  0.015464  0.195889  1
  Ho  Ho1  1  0.750000  0.514116  0.306030  1
  Er  Er2  1  0.250000  0.985747  0.806935  1
  Er  Er3  1  0.250000  0.477958  0.694886  1
  Ga  Ga4  1  0.250000  0.301292  0.106993  1
  Ga  Ga5  1  0.750000  0.696071  0.892218  1
  Ga  Ga6  1  0.250000  0.799997  0.396613  1
  Si  Si7  1  0.750000  0.197018  0.602281  1
  Ru  Ru8  1  0.750000  0.856409  0.565289  1
  Ru  Ru9  1  0.250000  0.163555  0.447130  1
  Ru  Ru10  1  0.750000  0.331638  0.921626  1
  Ru  Ru11  1  0.250000  0.660734  0.064109  1
