# generated using pymatgen
data_CaTbPr5RhBr12
_symmetry_space_group_name_H-M   'P 1'
_cell_length_a   9.67709491
_cell_length_b   9.52032540
_cell_length_c   9.60126325
_cell_angle_alpha   107.00631663
_cell_angle_beta   106.66958824
_cell_angle_gamma   107.37543292
_symmetry_Int_Tables_number   1
_chemical_formula_structural   CaTbPr5RhBr12
_chemical_formula_sum   'Ca1 Tb1 Pr5 Rh1 Br12'
_cell_volume   736.30064234
_cell_formula_units_Z   1
loop_
 _symmetry_equiv_pos_site_id
 _symmetry_equiv_pos_as_xyz
  1  'x, y, z'
loop_
 _atom_site_type_symbol
 _atom_site_label
 _atom_site_symmetry_multiplicity
 _atom_site_fract_x
 _atom_site_fract_y
 _atom_site_fract_z
 _atom_site_occupancy
  Ca  Ca0  1  0.500519  0.501897  0.499044  1
  Tb  Tb1  1  0.893600  0.974796  0.688212  1
  Pr  Pr2  1  0.318708  0.108966  0.023194  1
  Pr  Pr3  1  0.023605  0.308089  0.102130  1
  Pr  Pr4  1  0.108541  0.024091  0.321880  1
  Pr  Pr5  1  0.680857  0.890650  0.977887  1
  Pr  Pr6  1  0.974763  0.689496  0.892352  1
  Rh  Rh7  1  0.999274  0.998302  0.999741  1
  Br  Br8  1  0.683547  0.221157  0.072409  1
  Br  Br9  1  0.070434  0.679532  0.217214  1
  Br  Br10  1  0.206942  0.068911  0.680816  1
  Br  Br11  1  0.316333  0.778291  0.926586  1
  Br  Br12  1  0.926032  0.307267  0.773376  1
  Br  Br13  1  0.783940  0.930439  0.327474  1
  Br  Br14  1  0.457662  0.166596  0.377257  1
  Br  Br15  1  0.378186  0.460904  0.167663  1
  Br  Br16  1  0.169290  0.380276  0.458352  1
  Br  Br17  1  0.553385  0.840663  0.623475  1
  Br  Br18  1  0.621241  0.538810  0.829999  1
  Br  Br19  1  0.833140  0.630867  0.540938  1
