# generated using pymatgen
data_Tb13Ho7(Bi2Rh)4
_symmetry_space_group_name_H-M   'P 1'
_cell_length_a   8.01912230
_cell_length_b   9.01114014
_cell_length_c   12.53227040
_cell_angle_alpha   90.01207716
_cell_angle_beta   89.97351298
_cell_angle_gamma   90.01633131
_symmetry_Int_Tables_number   1
_chemical_formula_structural   Tb13Ho7(Bi2Rh)4
_chemical_formula_sum   'Tb13 Ho7 Bi8 Rh4'
_cell_volume   905.59968730
_cell_formula_units_Z   1
loop_
 _symmetry_equiv_pos_site_id
 _symmetry_equiv_pos_as_xyz
  1  'x, y, z'
loop_
 _atom_site_type_symbol
 _atom_site_label
 _atom_site_symmetry_multiplicity
 _atom_site_fract_x
 _atom_site_fract_y
 _atom_site_fract_z
 _atom_site_occupancy
  Tb  Tb0  1  0.840197  0.749969  0.793965  1
  Tb  Tb1  1  0.159845  0.249995  0.206080  1
  Tb  Tb2  1  0.339988  0.250050  0.706152  1
  Tb  Tb3  1  0.659872  0.749976  0.293830  1
  Tb  Tb4  1  0.374364  0.749955  0.690692  1
  Tb  Tb5  1  0.625394  0.250102  0.309272  1
  Tb  Tb6  1  0.874573  0.249989  0.809455  1
  Tb  Tb7  1  0.125459  0.749991  0.190583  1
  Tb  Tb8  1  0.953483  0.749908  0.501715  1
  Tb  Tb9  1  0.046823  0.250089  0.498250  1
  Tb  Tb10  1  0.453237  0.250006  0.998265  1
  Tb  Tb11  1  0.546728  0.750009  0.001743  1
  Tb  Tb12  1  0.677835  0.041791  0.566492  1
  Ho  Ho13  1  0.322776  0.958124  0.433504  1
  Ho  Ho14  1  0.176954  0.958139  0.933623  1
  Ho  Ho15  1  0.322999  0.541953  0.433591  1
  Ho  Ho16  1  0.823072  0.041876  0.066368  1
  Ho  Ho17  1  0.677072  0.458183  0.566387  1
  Ho  Ho18  1  0.823021  0.458134  0.066387  1
  Ho  Ho19  1  0.176965  0.541898  0.933630  1
  Bi  Bi20  1  0.566807  0.492109  0.825850  1
  Bi  Bi21  1  0.433166  0.507893  0.174123  1
  Bi  Bi22  1  0.066816  0.507897  0.674159  1
  Bi  Bi23  1  0.433182  0.992093  0.174155  1
  Bi  Bi24  1  0.933170  0.492103  0.325839  1
  Bi  Bi25  1  0.566733  0.007861  0.825959  1
  Bi  Bi26  1  0.933108  0.007876  0.325838  1
  Bi  Bi27  1  0.067098  0.992055  0.674265  1
  Rh  Rh28  1  0.571470  0.749682  0.508945  1
  Rh  Rh29  1  0.427834  0.250297  0.490872  1
  Rh  Rh30  1  0.071649  0.249977  0.991035  1
  Rh  Rh31  1  0.928308  0.750022  0.008975  1
