# generated using pymatgen
data_Yb2Ho4Si24Os7Ru
_symmetry_space_group_name_H-M   'P 1'
_cell_length_a   10.14127007
_cell_length_b   10.14127002
_cell_length_c   8.13540103
_cell_angle_alpha   89.97986612
_cell_angle_beta   89.97985458
_cell_angle_gamma   132.58111661
_symmetry_Int_Tables_number   1
_chemical_formula_structural   Yb2Ho4Si24Os7Ru
_chemical_formula_sum   'Yb2 Ho4 Si24 Os7 Ru1'
_cell_volume   616.07015299
_cell_formula_units_Z   1
loop_
 _symmetry_equiv_pos_site_id
 _symmetry_equiv_pos_as_xyz
  1  'x, y, z'
loop_
 _atom_site_type_symbol
 _atom_site_label
 _atom_site_symmetry_multiplicity
 _atom_site_fract_x
 _atom_site_fract_y
 _atom_site_fract_z
 _atom_site_occupancy
  Yb  Yb0  1  0.500124  0.500124  0.499421  1
  Yb  Yb1  1  0.000656  0.000656  0.999886  1
  Ho  Ho2  1  0.500541  0.000604  0.750066  1
  Ho  Ho3  1  0.999091  0.499531  0.250003  1
  Ho  Ho4  1  0.499531  0.999091  0.250003  1
  Ho  Ho5  1  0.000604  0.500541  0.750066  1
  Si  Si6  1  0.796937  0.202930  0.500122  1
  Si  Si7  1  0.296960  0.702932  0.000175  1
  Si  Si8  1  0.202930  0.796937  0.500122  1
  Si  Si9  1  0.702932  0.296960  0.000175  1
  Si  Si10  1  0.334312  0.334312  0.831309  1
  Si  Si11  1  0.668511  0.668511  0.165958  1
  Si  Si12  1  0.167599  0.167599  0.332065  1
  Si  Si13  1  0.832149  0.832149  0.668230  1
  Si  Si14  1  0.121529  0.889555  0.730510  1
  Si  Si15  1  0.110277  0.877699  0.269572  1
  Si  Si16  1  0.609315  0.376696  0.230400  1
  Si  Si17  1  0.622194  0.390323  0.769973  1
  Si  Si18  1  0.877699  0.110277  0.269572  1
  Si  Si19  1  0.889555  0.121529  0.730510  1
  Si  Si20  1  0.390323  0.622194  0.769973  1
  Si  Si21  1  0.376696  0.609315  0.230400  1
  Si  Si22  1  0.347118  0.114729  0.506166  1
  Si  Si23  1  0.884752  0.652762  0.494141  1
  Si  Si24  1  0.385352  0.152836  0.007186  1
  Si  Si25  1  0.846659  0.614805  0.993607  1
  Si  Si26  1  0.652762  0.884752  0.494141  1
  Si  Si27  1  0.114729  0.347118  0.506166  1
  Si  Si28  1  0.614805  0.846659  0.993607  1
  Si  Si29  1  0.152836  0.385352  0.007186  1
  Os  Os30  1  0.671739  0.328155  0.500185  1
  Os  Os31  1  0.171761  0.828086  0.999752  1
  Os  Os32  1  0.328155  0.671739  0.500185  1
  Os  Os33  1  0.828086  0.171761  0.999752  1
  Os  Os34  1  0.126615  0.126615  0.626461  1
  Os  Os35  1  0.873628  0.873628  0.373328  1
  Os  Os36  1  0.374050  0.374050  0.126178  1
  Ru  Ru37  1  0.626484  0.626484  0.873446  1
