# generated using pymatgen
data_NdLu4(FeB3)2
_symmetry_space_group_name_H-M   'P 1'
_cell_length_a   8.18676009
_cell_length_b   8.18676003
_cell_length_c   8.18675901
_cell_angle_alpha   38.31440904
_cell_angle_beta   38.31441102
_cell_angle_gamma   38.31439916
_symmetry_Int_Tables_number   1
_chemical_formula_structural   NdLu4(FeB3)2
_chemical_formula_sum   'Nd1 Lu4 Fe2 B6'
_cell_volume   189.42744463
_cell_formula_units_Z   1
loop_
 _symmetry_equiv_pos_site_id
 _symmetry_equiv_pos_as_xyz
  1  'x, y, z'
loop_
 _atom_site_type_symbol
 _atom_site_label
 _atom_site_symmetry_multiplicity
 _atom_site_fract_x
 _atom_site_fract_y
 _atom_site_fract_z
 _atom_site_occupancy
  Nd  Nd0  1  0.000000  0.000000  0.000000  1
  Lu  Lu1  1  0.581848  0.581848  0.581848  1
  Lu  Lu2  1  0.418152  0.418152  0.418152  1
  Lu  Lu3  1  0.750707  0.750707  0.750707  1
  Lu  Lu4  1  0.249293  0.249293  0.249293  1
  Fe  Fe5  1  0.884120  0.884120  0.884120  1
  Fe  Fe6  1  0.115880  0.115880  0.115880  1
  B  B7  1  0.500000  0.831531  0.168469  1
  B  B8  1  0.168469  0.500000  0.831531  1
  B  B9  1  0.831531  0.168469  0.500000  1
  B  B10  1  0.500000  0.168469  0.831531  1
  B  B11  1  0.831531  0.500000  0.168469  1
  B  B12  1  0.168469  0.831531  0.500000  1
