# generated using pymatgen
data_Tb4CeBi3Se
_symmetry_space_group_name_H-M   'P 1'
_cell_length_a   9.46298000
_cell_length_b   9.46298043
_cell_length_c   6.75385700
_cell_angle_alpha   90.00000000
_cell_angle_beta   90.00000000
_cell_angle_gamma   120.00000547
_symmetry_Int_Tables_number   1
_chemical_formula_structural   Tb4CeBi3Se
_chemical_formula_sum   'Tb8 Ce2 Bi6 Se2'
_cell_volume   523.76724239
_cell_formula_units_Z   2
loop_
 _symmetry_equiv_pos_site_id
 _symmetry_equiv_pos_as_xyz
  1  'x, y, z'
loop_
 _atom_site_type_symbol
 _atom_site_label
 _atom_site_symmetry_multiplicity
 _atom_site_fract_x
 _atom_site_fract_y
 _atom_site_fract_z
 _atom_site_occupancy
  Tb  Tb0  1  0.333333  0.666667  0.000000  1
  Tb  Tb1  1  0.666667  0.333333  0.000000  1
  Tb  Tb2  1  0.746919  0.746919  0.248820  1
  Tb  Tb3  1  0.253081  0.000000  0.248820  1
  Tb  Tb4  1  0.000000  0.253081  0.248820  1
  Tb  Tb5  1  0.253081  0.253081  0.751180  1
  Tb  Tb6  1  0.746919  0.000000  0.751180  1
  Tb  Tb7  1  0.000000  0.746919  0.751180  1
  Ce  Ce8  1  0.666667  0.333333  0.500000  1
  Ce  Ce9  1  0.333333  0.666667  0.500000  1
  Bi  Bi10  1  0.392539  0.392539  0.245567  1
  Bi  Bi11  1  0.607461  0.000000  0.245567  1
  Bi  Bi12  1  0.000000  0.607461  0.245567  1
  Bi  Bi13  1  0.607461  0.607461  0.754433  1
  Bi  Bi14  1  0.392539  0.000000  0.754433  1
  Bi  Bi15  1  0.000000  0.392539  0.754433  1
  Se  Se16  1  0.000000  0.000000  0.500000  1
  Se  Se17  1  0.000000  0.000000  0.000000  1
