# generated using pymatgen
data_Th3Ge2Ir3Pb
_symmetry_space_group_name_H-M   'P 1'
_cell_length_a   7.42549692
_cell_length_b   7.42549533
_cell_length_c   4.07982500
_cell_angle_alpha   90.00000000
_cell_angle_beta   90.00000000
_cell_angle_gamma   118.61476908
_symmetry_Int_Tables_number   1
_chemical_formula_structural   Th3Ge2Ir3Pb
_chemical_formula_sum   'Th3 Ge2 Ir3 Pb1'
_cell_volume   197.47745740
_cell_formula_units_Z   1
loop_
 _symmetry_equiv_pos_site_id
 _symmetry_equiv_pos_as_xyz
  1  'x, y, z'
loop_
 _atom_site_type_symbol
 _atom_site_label
 _atom_site_symmetry_multiplicity
 _atom_site_fract_x
 _atom_site_fract_y
 _atom_site_fract_z
 _atom_site_occupancy
  Th  Th0  1  0.412884  0.991834  0.500000  1
  Th  Th1  1  0.991834  0.412884  0.500000  1
  Th  Th2  1  0.594267  0.594267  0.500000  1
  Ge  Ge3  1  0.749434  0.999247  0.000000  1
  Ge  Ge4  1  0.999247  0.749434  0.000000  1
  Ir  Ir5  1  0.344690  0.689324  0.000000  1
  Ir  Ir6  1  0.689324  0.344690  0.000000  1
  Ir  Ir7  1  0.972050  0.972050  0.500000  1
  Pb  Pb8  1  0.246267  0.246267  0.000000  1
