# generated using pymatgen
data_Dy5Ti2P12Ir16Ru
_symmetry_space_group_name_H-M   'P 1'
_cell_length_a   12.63234400
_cell_length_b   12.76785185
_cell_length_c   3.96328900
_cell_angle_alpha   90.00000000
_cell_angle_beta   90.00000000
_cell_angle_gamma   119.64953459
_symmetry_Int_Tables_number   1
_chemical_formula_structural   Dy5Ti2P12Ir16Ru
_chemical_formula_sum   'Dy5 Ti2 P12 Ir16 Ru1'
_cell_volume   555.53453896
_cell_formula_units_Z   1
loop_
 _symmetry_equiv_pos_site_id
 _symmetry_equiv_pos_as_xyz
  1  'x, y, z'
loop_
 _atom_site_type_symbol
 _atom_site_label
 _atom_site_symmetry_multiplicity
 _atom_site_fract_x
 _atom_site_fract_y
 _atom_site_fract_z
 _atom_site_occupancy
  Dy  Dy0  1  0.331012  0.662095  0.500000  1
  Dy  Dy1  1  0.668918  0.337905  0.500000  1
  Dy  Dy2  1  0.000170  0.812556  0.000000  1
  Dy  Dy3  1  0.187615  0.187444  0.000000  1
  Dy  Dy4  1  0.812037  0.000000  0.000000  1
  Ti  Ti5  1  0.998679  0.446790  0.500000  1
  Ti  Ti6  1  0.551889  0.553210  0.500000  1
  P  P7  1  0.001821  0.639817  0.500000  1
  P  P8  1  0.362004  0.360183  0.500000  1
  P  P9  1  0.640096  0.000000  0.500000  1
  P  P10  1  0.514908  0.683338  0.000000  1
  P  P11  1  0.311975  0.827023  0.000000  1
  P  P12  1  0.163229  0.480637  0.000000  1
  P  P13  1  0.484952  0.172977  0.000000  1
  P  P14  1  0.682593  0.519363  0.000000  1
  P  P15  1  0.831569  0.316662  0.000000  1
  P  P16  1  0.999176  0.175180  0.500000  1
  P  P17  1  0.823996  0.824820  0.500000  1
  P  P18  1  0.180796  0.000000  0.500000  1
  Ir  Ir19  1  0.506905  0.865605  0.000000  1
  Ir  Ir20  1  0.128844  0.641634  0.000000  1
  Ir  Ir21  1  0.355495  0.492283  0.000000  1
  Ir  Ir22  1  0.487211  0.358366  0.000000  1
  Ir  Ir23  1  0.863213  0.507717  0.000000  1
  Ir  Ir24  1  0.641301  0.134395  0.000000  1
  Ir  Ir25  1  0.997220  0.281224  0.000000  1
  Ir  Ir26  1  0.715997  0.718776  0.000000  1
  Ir  Ir27  1  0.289492  0.000000  0.000000  1
  Ir  Ir28  1  0.623535  0.805992  0.500000  1
  Ir  Ir29  1  0.200783  0.823132  0.500000  1
  Ir  Ir30  1  0.177239  0.369014  0.500000  1
  Ir  Ir31  1  0.377652  0.176868  0.500000  1
  Ir  Ir32  1  0.808225  0.630986  0.500000  1
  Ir  Ir33  1  0.817543  0.194008  0.500000  1
  Ir  Ir34  1  0.002854  0.000000  0.500000  1
  Ru  Ru35  1  0.459054  0.000000  0.500000  1
