# generated using pymatgen
data_V19Si12Ru
_symmetry_space_group_name_H-M   'P 1'
_cell_length_a   7.04143918
_cell_length_b   7.04155016
_cell_length_c   13.29233877
_cell_angle_alpha   90.01583802
_cell_angle_beta   89.98457518
_cell_angle_gamma   140.67800277
_symmetry_Int_Tables_number   1
_chemical_formula_structural   V19Si12Ru
_chemical_formula_sum   'V19 Si12 Ru1'
_cell_volume   417.63767471
_cell_formula_units_Z   1
loop_
 _symmetry_equiv_pos_site_id
 _symmetry_equiv_pos_as_xyz
  1  'x, y, z'
loop_
 _atom_site_type_symbol
 _atom_site_label
 _atom_site_symmetry_multiplicity
 _atom_site_fract_x
 _atom_site_fract_y
 _atom_site_fract_z
 _atom_site_occupancy
  V  V0  1  0.499472  0.499937  0.999693  1
  V  V1  1  0.502085  0.499032  0.500739  1
  V  V2  1  0.000657  0.001130  0.999687  1
  V  V3  1  0.575461  0.925044  0.900010  1
  V  V4  1  0.424367  0.075057  0.601129  1
  V  V5  1  0.925622  0.574816  0.101866  1
  V  V6  1  0.849782  0.650088  0.673700  1
  V  V7  1  0.350076  0.150249  0.174913  1
  V  V8  1  0.652615  0.846958  0.325383  1
  V  V9  1  0.149711  0.350509  0.824956  1
  V  V10  1  0.649401  0.850447  0.673431  1
  V  V11  1  0.149959  0.350369  0.173076  1
  V  V12  1  0.846530  0.653177  0.324606  1
  V  V13  1  0.349838  0.150387  0.825429  1
  V  V14  1  0.424151  0.075277  0.400131  1
  V  V15  1  0.924426  0.576049  0.899367  1
  V  V16  1  0.075846  0.423786  0.602639  1
  V  V17  1  0.574896  0.925589  0.100770  1
  V  V18  1  0.000390  0.997263  0.500775  1
  Si  Si19  1  0.249278  0.749972  0.750610  1
  Si  Si20  1  0.749191  0.249999  0.250229  1
  Si  Si21  1  0.750040  0.250769  0.750594  1
  Si  Si22  1  0.250027  0.750819  0.250217  1
  Si  Si23  1  0.249824  0.249934  0.666274  1
  Si  Si24  1  0.749847  0.750740  0.164698  1
  Si  Si25  1  0.250737  0.248637  0.334091  1
  Si  Si26  1  0.749944  0.750470  0.833808  1
  Si  Si27  1  0.582024  0.917403  0.500350  1
  Si  Si28  1  0.083635  0.417095  0.999499  1
  Si  Si29  1  0.917798  0.581184  0.498894  1
  Si  Si30  1  0.416283  0.084344  0.000136  1
  Ru  Ru31  1  0.076086  0.423473  0.398298  1
