# generated using pymatgen
data_KIn6Ag3Au
_symmetry_space_group_name_H-M   'P 1'
_cell_length_a   8.29997800
_cell_length_b   8.29997867
_cell_length_c   4.56202100
_cell_angle_alpha   90.00000000
_cell_angle_beta   90.00000000
_cell_angle_gamma   120.00000528
_symmetry_Int_Tables_number   1
_chemical_formula_structural   KIn6Ag3Au
_chemical_formula_sum   'K1 In6 Ag3 Au1'
_cell_volume   272.17097333
_cell_formula_units_Z   1
loop_
 _symmetry_equiv_pos_site_id
 _symmetry_equiv_pos_as_xyz
  1  'x, y, z'
loop_
 _atom_site_type_symbol
 _atom_site_label
 _atom_site_symmetry_multiplicity
 _atom_site_fract_x
 _atom_site_fract_y
 _atom_site_fract_z
 _atom_site_occupancy
  K  K0  1  0.000000  0.000000  0.000000  1
  In  In1  1  0.933506  0.466753  0.000000  1
  In  In2  1  0.198338  0.801662  0.500000  1
  In  In3  1  0.533247  0.066494  0.000000  1
  In  In4  1  0.533247  0.466753  0.000000  1
  In  In5  1  0.198338  0.396675  0.500000  1
  In  In6  1  0.603325  0.801662  0.500000  1
  Ag  Ag7  1  0.412635  0.206317  0.500000  1
  Ag  Ag8  1  0.793683  0.206317  0.500000  1
  Ag  Ag9  1  0.793683  0.587365  0.500000  1
  Au  Au10  1  0.333333  0.666667  0.000000  1
