# generated using pymatgen
data_ScPa2(Ni10B3)2
_symmetry_space_group_name_H-M   'P 1'
_cell_length_a   7.60691866
_cell_length_b   7.60691835
_cell_length_c   7.60691800
_cell_angle_alpha   60.00000154
_cell_angle_beta   60.00000289
_cell_angle_gamma   60.00000309
_symmetry_Int_Tables_number   1
_chemical_formula_structural   ScPa2(Ni10B3)2
_chemical_formula_sum   'Sc1 Pa2 Ni20 B6'
_cell_volume   311.25138258
_cell_formula_units_Z   1
loop_
 _symmetry_equiv_pos_site_id
 _symmetry_equiv_pos_as_xyz
  1  'x, y, z'
loop_
 _atom_site_type_symbol
 _atom_site_label
 _atom_site_symmetry_multiplicity
 _atom_site_fract_x
 _atom_site_fract_y
 _atom_site_fract_z
 _atom_site_occupancy
  Sc  Sc0  1  0.000000  0.000000  0.000000  1
  Pa  Pa1  1  0.750000  0.750000  0.750000  1
  Pa  Pa2  1  0.250000  0.250000  0.250000  1
  Ni  Ni3  1  0.613418  0.613418  0.159747  1
  Ni  Ni4  1  0.613418  0.159747  0.613418  1
  Ni  Ni5  1  0.159747  0.613418  0.613418  1
  Ni  Ni6  1  0.613418  0.613418  0.613418  1
  Ni  Ni7  1  0.386582  0.386582  0.840253  1
  Ni  Ni8  1  0.386582  0.840253  0.386582  1
  Ni  Ni9  1  0.840253  0.386582  0.386582  1
  Ni  Ni10  1  0.386582  0.386582  0.386582  1
  Ni  Ni11  1  0.000000  0.000000  0.344334  1
  Ni  Ni12  1  0.655666  0.000000  0.344334  1
  Ni  Ni13  1  0.000000  0.655666  0.344334  1
  Ni  Ni14  1  0.655666  0.344334  0.000000  1
  Ni  Ni15  1  0.000000  0.344334  0.000000  1
  Ni  Ni16  1  0.000000  0.344334  0.655666  1
  Ni  Ni17  1  0.344334  0.655666  0.000000  1
  Ni  Ni18  1  0.344334  0.000000  0.655666  1
  Ni  Ni19  1  0.344334  0.000000  0.000000  1
  Ni  Ni20  1  0.000000  0.000000  0.655666  1
  Ni  Ni21  1  0.000000  0.655666  0.000000  1
  Ni  Ni22  1  0.655666  0.000000  0.000000  1
  B  B23  1  0.736243  0.736243  0.263757  1
  B  B24  1  0.263757  0.736243  0.263757  1
  B  B25  1  0.736243  0.263757  0.263757  1
  B  B26  1  0.263757  0.263757  0.736243  1
  B  B27  1  0.736243  0.263757  0.736243  1
  B  B28  1  0.263757  0.736243  0.736243  1
