# generated using pymatgen
data_Ho2Lu2Co3Si4Ru
_symmetry_space_group_name_H-M   'P 1'
_cell_length_a   4.18340600
_cell_length_b   6.79470380
_cell_length_c   7.02097727
_cell_angle_alpha   90.27623716
_cell_angle_beta   90.00000000
_cell_angle_gamma   90.00000000
_symmetry_Int_Tables_number   1
_chemical_formula_structural   Ho2Lu2Co3Si4Ru
_chemical_formula_sum   'Ho2 Lu2 Co3 Si4 Ru1'
_cell_volume   199.56899228
_cell_formula_units_Z   1
loop_
 _symmetry_equiv_pos_site_id
 _symmetry_equiv_pos_as_xyz
  1  'x, y, z'
loop_
 _atom_site_type_symbol
 _atom_site_label
 _atom_site_symmetry_multiplicity
 _atom_site_fract_x
 _atom_site_fract_y
 _atom_site_fract_z
 _atom_site_occupancy
  Ho  Ho0  1  0.250000  0.490208  0.307489  1
  Ho  Ho1  1  0.250000  0.992533  0.184292  1
  Lu  Lu2  1  0.750000  0.018174  0.809228  1
  Lu  Lu3  1  0.750000  0.514267  0.698184  1
  Co  Co4  1  0.250000  0.148504  0.570538  1
  Co  Co5  1  0.750000  0.344128  0.059509  1
  Co  Co6  1  0.250000  0.646023  0.928724  1
  Si  Si7  1  0.750000  0.202073  0.403607  1
  Si  Si8  1  0.250000  0.303150  0.890191  1
  Si  Si9  1  0.750000  0.696366  0.097259  1
  Si  Si10  1  0.250000  0.802085  0.614134  1
  Ru  Ru11  1  0.750000  0.842487  0.436843  1
