# generated using pymatgen
data_CeTh3(Tc3Os)2
_symmetry_space_group_name_H-M   'P 1'
_cell_length_a   5.27292000
_cell_length_b   5.27292078
_cell_length_c   9.61437300
_cell_angle_alpha   90.00000000
_cell_angle_beta   90.00000000
_cell_angle_gamma   120.00000763
_symmetry_Int_Tables_number   1
_chemical_formula_structural   CeTh3(Tc3Os)2
_chemical_formula_sum   'Ce1 Th3 Tc6 Os2'
_cell_volume   231.50159874
_cell_formula_units_Z   1
loop_
 _symmetry_equiv_pos_site_id
 _symmetry_equiv_pos_as_xyz
  1  'x, y, z'
loop_
 _atom_site_type_symbol
 _atom_site_label
 _atom_site_symmetry_multiplicity
 _atom_site_fract_x
 _atom_site_fract_y
 _atom_site_fract_z
 _atom_site_occupancy
  Ce  Ce0  1  0.333333  0.666667  0.436763  1
  Th  Th1  1  0.666667  0.333333  0.560229  1
  Th  Th2  1  0.666667  0.333333  0.935048  1
  Th  Th3  1  0.333333  0.666667  0.067714  1
  Tc  Tc4  1  0.830697  0.169303  0.251338  1
  Tc  Tc5  1  0.830697  0.661394  0.251338  1
  Tc  Tc6  1  0.338606  0.169303  0.251338  1
  Tc  Tc7  1  0.169406  0.830594  0.748891  1
  Tc  Tc8  1  0.169406  0.338812  0.748891  1
  Tc  Tc9  1  0.661188  0.830594  0.748891  1
  Os  Os10  1  0.000000  0.000000  0.498937  1
  Os  Os11  1  0.000000  0.000000  0.000620  1
