# generated using pymatgen
data_Sc4TaSb3Ru8
_symmetry_space_group_name_H-M   'P 1'
_cell_length_a   6.39834000
_cell_length_b   4.51755900
_cell_length_c   9.05882900
_cell_angle_alpha   90.00000000
_cell_angle_beta   89.99929288
_cell_angle_gamma   90.00000000
_symmetry_Int_Tables_number   1
_chemical_formula_structural   Sc4TaSb3Ru8
_chemical_formula_sum   'Sc4 Ta1 Sb3 Ru8'
_cell_volume   261.84435115
_cell_formula_units_Z   1
loop_
 _symmetry_equiv_pos_site_id
 _symmetry_equiv_pos_as_xyz
  1  'x, y, z'
loop_
 _atom_site_type_symbol
 _atom_site_label
 _atom_site_symmetry_multiplicity
 _atom_site_fract_x
 _atom_site_fract_y
 _atom_site_fract_z
 _atom_site_occupancy
  Sc  Sc0  1  0.750045  0.250000  0.128342  1
  Sc  Sc1  1  0.250031  0.750000  0.374972  1
  Sc  Sc2  1  0.749959  0.250000  0.621668  1
  Sc  Sc3  1  0.249978  0.750000  0.874995  1
  Ta  Ta4  1  0.749972  0.750000  0.874997  1
  Sb  Sb5  1  0.250017  0.250000  0.123254  1
  Sb  Sb6  1  0.750024  0.750000  0.375021  1
  Sb  Sb7  1  0.249967  0.250000  0.626712  1
  Ru  Ru8  1  0.504505  0.750000  0.119258  1
  Ru  Ru9  1  0.995553  0.750000  0.119269  1
  Ru  Ru10  1  0.498574  0.250000  0.374964  1
  Ru  Ru11  1  0.001458  0.250000  0.374956  1
  Ru  Ru12  1  0.995586  0.750000  0.630711  1
  Ru  Ru13  1  0.504377  0.750000  0.630719  1
  Ru  Ru14  1  0.990874  0.250000  0.875081  1
  Ru  Ru15  1  0.509080  0.250000  0.875079  1
