# generated using pymatgen
data_Dy5LuAl18
_symmetry_space_group_name_H-M   'P 1'
_cell_length_a   14.40696117
_cell_length_b   14.40696109
_cell_length_c   14.40696268
_cell_angle_alpha   24.85865548
_cell_angle_beta   24.85865877
_cell_angle_gamma   24.85865480
_symmetry_Int_Tables_number   1
_chemical_formula_structural   Dy5LuAl18
_chemical_formula_sum   'Dy5 Lu1 Al18'
_cell_volume   464.82513429
_cell_formula_units_Z   1
loop_
 _symmetry_equiv_pos_site_id
 _symmetry_equiv_pos_as_xyz
  1  'x, y, z'
loop_
 _atom_site_type_symbol
 _atom_site_label
 _atom_site_symmetry_multiplicity
 _atom_site_fract_x
 _atom_site_fract_y
 _atom_site_fract_z
 _atom_site_occupancy
  Dy  Dy0  1  0.999966  0.999966  0.999966  1
  Dy  Dy1  1  0.500032  0.500032  0.500032  1
  Dy  Dy2  1  0.108609  0.108609  0.108609  1
  Dy  Dy3  1  0.891509  0.891509  0.891509  1
  Dy  Dy4  1  0.391226  0.391226  0.391226  1
  Lu  Lu5  1  0.608568  0.608568  0.608568  1
  Al  Al6  1  0.925379  0.370074  0.370074  1
  Al  Al7  1  0.426259  0.869165  0.869165  1
  Al  Al8  1  0.370074  0.370074  0.925379  1
  Al  Al9  1  0.869165  0.869165  0.426259  1
  Al  Al10  1  0.370074  0.925379  0.370074  1
  Al  Al11  1  0.869165  0.426259  0.869165  1
  Al  Al12  1  0.573053  0.131079  0.131079  1
  Al  Al13  1  0.073701  0.630804  0.630804  1
  Al  Al14  1  0.131079  0.131079  0.573053  1
  Al  Al15  1  0.630804  0.630804  0.073701  1
  Al  Al16  1  0.131079  0.573053  0.131079  1
  Al  Al17  1  0.630804  0.073701  0.630804  1
  Al  Al18  1  0.500900  0.500900  0.997296  1
  Al  Al19  1  0.000452  0.000452  0.499462  1
  Al  Al20  1  0.500900  0.997296  0.500900  1
  Al  Al21  1  0.000452  0.499462  0.000452  1
  Al  Al22  1  0.997296  0.500900  0.500900  1
  Al  Al23  1  0.499462  0.000452  0.000452  1
