# generated using pymatgen
data_Nd6Ho10Cd4Os3Pd
_symmetry_space_group_name_H-M   'P 1'
_cell_length_a   9.63952233
_cell_length_b   9.81344525
_cell_length_c   9.81344500
_cell_angle_alpha   60.00000421
_cell_angle_beta   59.40134031
_cell_angle_gamma   59.40134196
_symmetry_Int_Tables_number   1
_chemical_formula_structural   Nd6Ho10Cd4Os3Pd
_chemical_formula_sum   'Nd6 Ho10 Cd4 Os3 Pd1'
_cell_volume   650.41997021
_cell_formula_units_Z   1
loop_
 _symmetry_equiv_pos_site_id
 _symmetry_equiv_pos_as_xyz
  1  'x, y, z'
loop_
 _atom_site_type_symbol
 _atom_site_label
 _atom_site_symmetry_multiplicity
 _atom_site_fract_x
 _atom_site_fract_y
 _atom_site_fract_z
 _atom_site_occupancy
  Nd  Nd0  1  0.936473  0.560550  0.560550  1
  Nd  Nd1  1  0.553130  0.941736  0.941736  1
  Nd  Nd2  1  0.553130  0.941736  0.563398  1
  Nd  Nd3  1  0.936473  0.560550  0.942428  1
  Nd  Nd4  1  0.553130  0.563398  0.941736  1
  Nd  Nd5  1  0.936473  0.942428  0.560550  1
  Ho  Ho6  1  0.343173  0.349938  0.349938  1
  Ho  Ho7  1  0.343173  0.349938  0.956950  1
  Ho  Ho8  1  0.343173  0.956950  0.349938  1
  Ho  Ho9  1  0.972416  0.342528  0.342528  1
  Ho  Ho10  1  0.818376  0.187542  0.187542  1
  Ho  Ho11  1  0.184189  0.813207  0.813207  1
  Ho  Ho12  1  0.184189  0.813207  0.189396  1
  Ho  Ho13  1  0.818376  0.187542  0.806539  1
  Ho  Ho14  1  0.184189  0.189396  0.813207  1
  Ho  Ho15  1  0.818376  0.806539  0.187542  1
  Cd  Cd16  1  0.579289  0.578216  0.578216  1
  Cd  Cd17  1  0.579289  0.578216  0.264280  1
  Cd  Cd18  1  0.579289  0.264280  0.578216  1
  Cd  Cd19  1  0.259930  0.580024  0.580024  1
  Os  Os20  1  0.148514  0.136524  0.136524  1
  Os  Os21  1  0.148514  0.136524  0.578438  1
  Os  Os22  1  0.148514  0.578438  0.136524  1
  Pd  Pd23  1  0.578224  0.140592  0.140592  1
