# generated using pymatgen
data_Tb(ZnAu)6
_symmetry_space_group_name_H-M   'P 1'
_cell_length_a   7.06299356
_cell_length_b   7.06298448
_cell_length_c   7.06299220
_cell_angle_alpha   95.65386594
_cell_angle_beta   100.33687566
_cell_angle_gamma   136.22373387
_symmetry_Int_Tables_number   1
_chemical_formula_structural   Tb(ZnAu)6
_chemical_formula_sum   'Tb1 Zn6 Au6'
_cell_volume   225.94428487
_cell_formula_units_Z   1
loop_
 _symmetry_equiv_pos_site_id
 _symmetry_equiv_pos_as_xyz
  1  'x, y, z'
loop_
 _atom_site_type_symbol
 _atom_site_label
 _atom_site_symmetry_multiplicity
 _atom_site_fract_x
 _atom_site_fract_y
 _atom_site_fract_z
 _atom_site_occupancy
  Tb  Tb0  1  0.000000  0.000000  0.000000  1
  Zn  Zn1  1  0.000000  0.000000  0.500000  1
  Zn  Zn2  1  0.500000  0.500000  0.500000  1
  Zn  Zn3  1  0.500000  0.000000  0.000000  1
  Zn  Zn4  1  0.000000  0.500000  0.000000  1
  Zn  Zn5  1  0.742955  0.500000  0.242955  1
  Zn  Zn6  1  0.257045  0.500000  0.757045  1
  Au  Au7  1  0.000000  0.338317  0.338317  1
  Au  Au8  1  0.000000  0.661683  0.661683  1
  Au  Au9  1  0.665571  0.000000  0.665571  1
  Au  Au10  1  0.334429  0.000000  0.334429  1
  Au  Au11  1  0.500000  0.325408  0.825408  1
  Au  Au12  1  0.500000  0.674592  0.174592  1
