# generated using pymatgen
data_Dy5Er2Co6AgSn22
_symmetry_space_group_name_H-M   'P 1'
_cell_length_a   9.66396111
_cell_length_b   9.66396042
_cell_length_c   9.98520313
_cell_angle_alpha   89.98400207
_cell_angle_beta   90.01599706
_cell_angle_gamma   120.00579463
_symmetry_Int_Tables_number   1
_chemical_formula_structural   Dy5Er2Co6AgSn22
_chemical_formula_sum   'Dy5 Er2 Co6 Ag1 Sn22'
_cell_volume   807.55566398
_cell_formula_units_Z   1
loop_
 _symmetry_equiv_pos_site_id
 _symmetry_equiv_pos_as_xyz
  1  'x, y, z'
loop_
 _atom_site_type_symbol
 _atom_site_label
 _atom_site_symmetry_multiplicity
 _atom_site_fract_x
 _atom_site_fract_y
 _atom_site_fract_z
 _atom_site_occupancy
  Dy  Dy0  1  0.000000  0.000000  0.000000  1
  Dy  Dy1  1  0.478863  0.957694  0.306170  1
  Dy  Dy2  1  0.521137  0.042306  0.693830  1
  Dy  Dy3  1  0.042306  0.521137  0.306170  1
  Dy  Dy4  1  0.957694  0.478863  0.693830  1
  Er  Er5  1  0.478969  0.521031  0.306321  1
  Er  Er6  1  0.521031  0.478969  0.693679  1
  Co  Co7  1  0.832220  0.167780  0.196898  1
  Co  Co8  1  0.167780  0.832220  0.803102  1
  Co  Co9  1  0.831931  0.664272  0.197004  1
  Co  Co10  1  0.168069  0.335728  0.802996  1
  Co  Co11  1  0.335728  0.168069  0.197004  1
  Co  Co12  1  0.664272  0.831931  0.802996  1
  Ag  Ag13  1  0.000000  0.000000  0.500000  1
  Sn  Sn14  1  0.345615  0.000053  0.000015  1
  Sn  Sn15  1  0.654385  0.999947  0.999985  1
  Sn  Sn16  1  0.000053  0.345615  0.999985  1
  Sn  Sn17  1  0.999947  0.654385  0.000015  1
  Sn  Sn18  1  0.654334  0.654334  0.000000  1
  Sn  Sn19  1  0.345666  0.345666  0.000000  1
  Sn  Sn20  1  0.333422  0.666578  0.818834  1
  Sn  Sn21  1  0.666578  0.333422  0.181166  1
  Sn  Sn22  1  0.782440  0.217560  0.453013  1
  Sn  Sn23  1  0.217560  0.782440  0.546987  1
  Sn  Sn24  1  0.781911  0.564883  0.452962  1
  Sn  Sn25  1  0.218089  0.435117  0.547038  1
  Sn  Sn26  1  0.435117  0.218089  0.452962  1
  Sn  Sn27  1  0.564883  0.781911  0.547038  1
  Sn  Sn28  1  0.333578  0.666422  0.117334  1
  Sn  Sn29  1  0.666422  0.333578  0.882666  1
  Sn  Sn30  1  0.114448  0.885552  0.275662  1
  Sn  Sn31  1  0.885552  0.114448  0.724338  1
  Sn  Sn32  1  0.114799  0.229169  0.275705  1
  Sn  Sn33  1  0.885201  0.770831  0.724295  1
  Sn  Sn34  1  0.770831  0.885201  0.275705  1
  Sn  Sn35  1  0.229169  0.114799  0.724295  1
