# generated using pymatgen
data_PuNp(CoP)2
_symmetry_space_group_name_H-M   'P 1'
_cell_length_a   3.89043900
_cell_length_b   3.89043838
_cell_length_c   14.65028200
_cell_angle_alpha   90.00000000
_cell_angle_beta   90.00000000
_cell_angle_gamma   120.00001378
_symmetry_Int_Tables_number   1
_chemical_formula_structural   PuNp(CoP)2
_chemical_formula_sum   'Pu2 Np2 Co4 P4'
_cell_volume   192.03204500
_cell_formula_units_Z   2
loop_
 _symmetry_equiv_pos_site_id
 _symmetry_equiv_pos_as_xyz
  1  'x, y, z'
loop_
 _atom_site_type_symbol
 _atom_site_label
 _atom_site_symmetry_multiplicity
 _atom_site_fract_x
 _atom_site_fract_y
 _atom_site_fract_z
 _atom_site_occupancy
  Pu  Pu0  1  0.000000  0.000000  0.000000  1
  Pu  Pu1  1  0.000000  0.000000  0.500000  1
  Np  Np2  1  0.000000  0.000000  0.250000  1
  Np  Np3  1  0.000000  0.000000  0.750000  1
  Co  Co4  1  0.333333  0.666667  0.138889  1
  Co  Co5  1  0.666667  0.333333  0.861111  1
  Co  Co6  1  0.666667  0.333333  0.638889  1
  Co  Co7  1  0.333333  0.666667  0.361111  1
  P  P8  1  0.333333  0.666667  0.618824  1
  P  P9  1  0.666667  0.333333  0.381176  1
  P  P10  1  0.666667  0.333333  0.118824  1
  P  P11  1  0.333333  0.666667  0.881176  1
