# generated using pymatgen
data_CeHo7(NiHg)2
_symmetry_space_group_name_H-M   'P 1'
_cell_length_a   9.47126128
_cell_length_b   9.47126121
_cell_length_c   9.52118900
_cell_angle_alpha   59.82546281
_cell_angle_beta   59.82546304
_cell_angle_gamma   59.69341239
_symmetry_Int_Tables_number   1
_chemical_formula_structural   CeHo7(NiHg)2
_chemical_formula_sum   'Ce2 Ho14 Ni4 Hg4'
_cell_volume   600.93841804
_cell_formula_units_Z   2
loop_
 _symmetry_equiv_pos_site_id
 _symmetry_equiv_pos_as_xyz
  1  'x, y, z'
loop_
 _atom_site_type_symbol
 _atom_site_label
 _atom_site_symmetry_multiplicity
 _atom_site_fract_x
 _atom_site_fract_y
 _atom_site_fract_z
 _atom_site_occupancy
  Ce  Ce0  1  0.346571  0.346571  0.351397  1
  Ce  Ce1  1  0.346571  0.346571  0.955461  1
  Ho  Ho2  1  0.351018  0.944545  0.352218  1
  Ho  Ho3  1  0.944545  0.351018  0.352218  1
  Ho  Ho4  1  0.812865  0.188920  0.187259  1
  Ho  Ho5  1  0.188920  0.812865  0.810956  1
  Ho  Ho6  1  0.188920  0.812865  0.187259  1
  Ho  Ho7  1  0.812865  0.188920  0.810956  1
  Ho  Ho8  1  0.188498  0.188498  0.811502  1
  Ho  Ho9  1  0.811473  0.811473  0.188527  1
  Ho  Ho10  1  0.938282  0.562736  0.564475  1
  Ho  Ho11  1  0.562736  0.938282  0.934507  1
  Ho  Ho12  1  0.562736  0.938282  0.564475  1
  Ho  Ho13  1  0.938282  0.562736  0.934507  1
  Ho  Ho14  1  0.563504  0.563504  0.936496  1
  Ho  Ho15  1  0.935551  0.935551  0.564449  1
  Ni  Ni16  1  0.144766  0.144766  0.141578  1
  Ni  Ni17  1  0.144766  0.144766  0.568891  1
  Ni  Ni18  1  0.147084  0.568372  0.142272  1
  Ni  Ni19  1  0.568372  0.147084  0.142272  1
  Hg  Hg20  1  0.586040  0.586040  0.585235  1
  Hg  Hg21  1  0.586040  0.586040  0.242688  1
  Hg  Hg22  1  0.586630  0.242968  0.585202  1
  Hg  Hg23  1  0.242968  0.586630  0.585202  1
