# generated using pymatgen
data_K4Hf4Zr2GeI18
_symmetry_space_group_name_H-M   'P 1'
_cell_length_a   11.26866222
_cell_length_b   11.40987832
_cell_length_c   11.52796319
_cell_angle_alpha   118.53084957
_cell_angle_beta   100.09505031
_cell_angle_gamma   103.83006854
_symmetry_Int_Tables_number   1
_chemical_formula_structural   K4Hf4Zr2GeI18
_chemical_formula_sum   'K4 Hf4 Zr2 Ge1 I18'
_cell_volume   1189.43625528
_cell_formula_units_Z   1
loop_
 _symmetry_equiv_pos_site_id
 _symmetry_equiv_pos_as_xyz
  1  'x, y, z'
loop_
 _atom_site_type_symbol
 _atom_site_label
 _atom_site_symmetry_multiplicity
 _atom_site_fract_x
 _atom_site_fract_y
 _atom_site_fract_z
 _atom_site_occupancy
  K  K0  1  0.652084  0.538226  0.226949  1
  K  K1  1  0.347916  0.461774  0.773051  1
  K  K2  1  0.686158  0.224617  0.563909  1
  K  K3  1  0.313842  0.775383  0.436091  1
  Hf  Hf4  1  0.150096  0.056096  0.230390  1
  Hf  Hf5  1  0.849904  0.943904  0.769610  1
  Hf  Hf6  1  0.861820  0.126580  0.132915  1
  Hf  Hf7  1  0.138180  0.873420  0.867085  1
  Zr  Zr8  1  0.146116  0.240352  0.045468  1
  Zr  Zr9  1  0.853884  0.759648  0.954532  1
  Ge  Ge10  1  0.000000  0.000000  0.000000  1
  I  I11  1  0.005324  0.411152  0.198913  1
  I  I12  1  0.994676  0.588848  0.801087  1
  I  I13  1  0.330249  0.333468  0.314288  1
  I  I14  1  0.669751  0.666532  0.685712  1
  I  I15  1  0.324006  0.526255  0.100928  1
  I  I16  1  0.675994  0.473745  0.899072  1
  I  I17  1  0.006555  0.796806  0.212424  1
  I  I18  1  0.993445  0.203194  0.787576  1
  I  I19  1  0.701282  0.276636  0.289318  1
  I  I20  1  0.298718  0.723364  0.710682  1
  I  I21  1  0.318437  0.124922  0.901001  1
  I  I22  1  0.681563  0.875078  0.098999  1
  I  I23  1  0.014108  0.204700  0.408132  1
  I  I24  1  0.985892  0.795300  0.591868  1
  I  I25  1  0.320719  0.922681  0.109804  1
  I  I26  1  0.679281  0.077319  0.890196  1
  I  I27  1  0.332733  0.121132  0.502924  1
  I  I28  1  0.667267  0.878868  0.497076  1
