# generated using pymatgen
data_YbY7Er2(In2Pt)4
_symmetry_space_group_name_H-M   'P 1'
_cell_length_a   3.60324600
_cell_length_b   8.20406008
_cell_length_c   18.36001494
_cell_angle_alpha   90.07876430
_cell_angle_beta   90.00000000
_cell_angle_gamma   90.00000000
_symmetry_Int_Tables_number   1
_chemical_formula_structural   YbY7Er2(In2Pt)4
_chemical_formula_sum   'Yb1 Y7 Er2 In8 Pt4'
_cell_volume   542.74441725
_cell_formula_units_Z   1
loop_
 _symmetry_equiv_pos_site_id
 _symmetry_equiv_pos_as_xyz
  1  'x, y, z'
loop_
 _atom_site_type_symbol
 _atom_site_label
 _atom_site_symmetry_multiplicity
 _atom_site_fract_x
 _atom_site_fract_y
 _atom_site_fract_z
 _atom_site_occupancy
  Yb  Yb0  1  0.000000  0.000000  0.000000  1
  Y  Y1  1  0.000000  0.117278  0.415106  1
  Y  Y2  1  0.000000  0.882722  0.584894  1
  Y  Y3  1  0.000000  0.380168  0.914593  1
  Y  Y4  1  0.000000  0.619832  0.085407  1
  Y  Y5  1  0.000000  0.242367  0.220857  1
  Y  Y6  1  0.000000  0.757633  0.779143  1
  Y  Y7  1  0.000000  0.500000  0.500000  1
  Er  Er8  1  0.000000  0.257175  0.721107  1
  Er  Er9  1  0.000000  0.742825  0.278893  1
  In  In10  1  0.500000  0.425158  0.351499  1
  In  In11  1  0.500000  0.574842  0.648501  1
  In  In12  1  0.500000  0.074600  0.850798  1
  In  In13  1  0.500000  0.925400  0.149202  1
  In  In14  1  0.500000  0.293044  0.067576  1
  In  In15  1  0.500000  0.706956  0.932424  1
  In  In16  1  0.500000  0.208592  0.567270  1
  In  In17  1  0.500000  0.791408  0.432730  1
  Pt  Pt18  1  0.500000  0.020594  0.303344  1
  Pt  Pt19  1  0.500000  0.979406  0.696656  1
  Pt  Pt20  1  0.500000  0.475103  0.802142  1
  Pt  Pt21  1  0.500000  0.524897  0.197858  1
