# generated using pymatgen
data_TbPrHo8(In2Pd)4
_symmetry_space_group_name_H-M   'P 1'
_cell_length_a   3.61779700
_cell_length_b   8.16965425
_cell_length_c   18.33489963
_cell_angle_alpha   90.11714218
_cell_angle_beta   90.00000000
_cell_angle_gamma   90.00000000
_symmetry_Int_Tables_number   1
_chemical_formula_structural   TbPrHo8(In2Pd)4
_chemical_formula_sum   'Tb1 Pr1 Ho8 In8 Pd4'
_cell_volume   541.90792254
_cell_formula_units_Z   1
loop_
 _symmetry_equiv_pos_site_id
 _symmetry_equiv_pos_as_xyz
  1  'x, y, z'
loop_
 _atom_site_type_symbol
 _atom_site_label
 _atom_site_symmetry_multiplicity
 _atom_site_fract_x
 _atom_site_fract_y
 _atom_site_fract_z
 _atom_site_occupancy
  Tb  Tb0  1  0.000000  0.000000  0.000000  1
  Pr  Pr1  1  0.000000  0.500000  0.500000  1
  Ho  Ho2  1  0.000000  0.740412  0.280527  1
  Ho  Ho3  1  0.000000  0.259588  0.719473  1
  Ho  Ho4  1  0.000000  0.761039  0.782338  1
  Ho  Ho5  1  0.000000  0.238961  0.217662  1
  Ho  Ho6  1  0.000000  0.618784  0.083487  1
  Ho  Ho7  1  0.000000  0.381216  0.916513  1
  Ho  Ho8  1  0.000000  0.877726  0.584212  1
  Ho  Ho9  1  0.000000  0.122274  0.415788  1
  In  In10  1  0.500000  0.705688  0.932832  1
  In  In11  1  0.500000  0.294312  0.067168  1
  In  In12  1  0.500000  0.800905  0.431137  1
  In  In13  1  0.500000  0.199095  0.568863  1
  In  In14  1  0.500000  0.581060  0.654253  1
  In  In15  1  0.500000  0.418940  0.345747  1
  In  In16  1  0.500000  0.919370  0.150705  1
  In  In17  1  0.500000  0.080630  0.849295  1
  Pd  Pd18  1  0.500000  0.524236  0.194717  1
  Pd  Pd19  1  0.500000  0.475764  0.805283  1
  Pd  Pd20  1  0.500000  0.975280  0.696432  1
  Pd  Pd21  1  0.500000  0.024720  0.303568  1
