# generated using pymatgen
data_Lu8B24RuW3
_symmetry_space_group_name_H-M   'P 1'
_cell_length_a   9.17360850
_cell_length_b   11.54982942
_cell_length_c   3.55099800
_cell_angle_alpha   90.00000000
_cell_angle_beta   90.00000000
_cell_angle_gamma   89.89982948
_symmetry_Int_Tables_number   1
_chemical_formula_structural   Lu8B24RuW3
_chemical_formula_sum   'Lu8 B24 Ru1 W3'
_cell_volume   376.24049403
_cell_formula_units_Z   1
loop_
 _symmetry_equiv_pos_site_id
 _symmetry_equiv_pos_as_xyz
  1  'x, y, z'
loop_
 _atom_site_type_symbol
 _atom_site_label
 _atom_site_symmetry_multiplicity
 _atom_site_fract_x
 _atom_site_fract_y
 _atom_site_fract_z
 _atom_site_occupancy
  Lu  Lu0  1  0.820511  0.085601  0.000000  1
  Lu  Lu1  1  0.445356  0.126407  0.000000  1
  Lu  Lu2  1  0.944022  0.373345  0.000000  1
  Lu  Lu3  1  0.320503  0.413253  0.000000  1
  Lu  Lu4  1  0.678823  0.585697  0.000000  1
  Lu  Lu5  1  0.054359  0.629920  0.000000  1
  Lu  Lu6  1  0.559311  0.871320  0.000000  1
  Lu  Lu7  1  0.178602  0.913405  0.000000  1
  B  B8  1  0.603377  0.026933  0.500000  1
  B  B9  1  0.049787  0.062633  0.500000  1
  B  B10  1  0.253428  0.076557  0.500000  1
  B  B11  1  0.631865  0.181807  0.500000  1
  B  B12  1  0.977071  0.212437  0.500000  1
  B  B13  1  0.295126  0.236111  0.500000  1
  B  B14  1  0.795617  0.264073  0.500000  1
  B  B15  1  0.477434  0.286911  0.500000  1
  B  B16  1  0.130453  0.317502  0.500000  1
  B  B17  1  0.752116  0.423196  0.500000  1
  B  B18  1  0.550709  0.435463  0.500000  1
  B  B19  1  0.100335  0.472815  0.500000  1
  B  B20  1  0.897763  0.530134  0.500000  1
  B  B21  1  0.448381  0.565013  0.500000  1
  B  B22  1  0.247048  0.578139  0.500000  1
  B  B23  1  0.868920  0.685511  0.500000  1
  B  B24  1  0.524056  0.712668  0.500000  1
  B  B25  1  0.203371  0.738174  0.500000  1
  B  B26  1  0.709185  0.765037  0.500000  1
  B  B27  1  0.016709  0.788368  0.500000  1
  B  B28  1  0.369607  0.818791  0.500000  1
  B  B29  1  0.751286  0.918961  0.500000  1
  B  B30  1  0.945162  0.932328  0.500000  1
  B  B31  1  0.401000  0.971549  0.500000  1
  Ru  Ru32  1  0.861091  0.820583  0.000000  1
  W  W33  1  0.138298  0.178091  0.000000  1
  W  W34  1  0.638871  0.320395  0.000000  1
  W  W35  1  0.360447  0.680875  0.000000  1
