# generated using pymatgen
data_Nd2V3Co9As7
_symmetry_space_group_name_H-M   'P 1'
_cell_length_a   3.81606000
_cell_length_b   9.44860032
_cell_length_c   9.44860100
_cell_angle_alpha   119.99999888
_cell_angle_beta   90.00000000
_cell_angle_gamma   90.00000000
_symmetry_Int_Tables_number   1
_chemical_formula_structural   Nd2V3Co9As7
_chemical_formula_sum   'Nd2 V3 Co9 As7'
_cell_volume   295.03994569
_cell_formula_units_Z   1
loop_
 _symmetry_equiv_pos_site_id
 _symmetry_equiv_pos_as_xyz
  1  'x, y, z'
loop_
 _atom_site_type_symbol
 _atom_site_label
 _atom_site_symmetry_multiplicity
 _atom_site_fract_x
 _atom_site_fract_y
 _atom_site_fract_z
 _atom_site_occupancy
  Nd  Nd0  1  0.000000  0.666667  0.333333  1
  Nd  Nd1  1  0.500000  0.333333  0.666667  1
  V  V2  1  0.500000  0.784264  0.898150  1
  V  V3  1  0.500000  0.113886  0.215736  1
  V  V4  1  0.500000  0.101850  0.886114  1
  Co  Co5  1  0.000000  0.570984  0.941989  1
  Co  Co6  1  0.000000  0.371005  0.429016  1
  Co  Co7  1  0.000000  0.058011  0.628995  1
  Co  Co8  1  0.000000  0.877888  0.155353  1
  Co  Co9  1  0.000000  0.277465  0.122112  1
  Co  Co10  1  0.000000  0.844647  0.722535  1
  Co  Co11  1  0.500000  0.950983  0.381275  1
  Co  Co12  1  0.500000  0.430291  0.049017  1
  Co  Co13  1  0.500000  0.618725  0.569709  1
  As  As14  1  0.000000  0.000000  0.000000  1
  As  As15  1  0.500000  0.707472  0.112757  1
  As  As16  1  0.500000  0.405285  0.292528  1
  As  As17  1  0.500000  0.887243  0.594715  1
  As  As18  1  0.000000  0.590809  0.701700  1
  As  As19  1  0.000000  0.110891  0.409191  1
  As  As20  1  0.000000  0.298300  0.889109  1
