# generated using pymatgen
data_NdPa3Ge4RuPt3
_symmetry_space_group_name_H-M   'P 1'
_cell_length_a   4.29829500
_cell_length_b   7.31187340
_cell_length_c   7.68329477
_cell_angle_alpha   91.67047104
_cell_angle_beta   90.00000000
_cell_angle_gamma   90.00000000
_symmetry_Int_Tables_number   1
_chemical_formula_structural   NdPa3Ge4RuPt3
_chemical_formula_sum   'Nd1 Pa3 Ge4 Ru1 Pt3'
_cell_volume   241.37248960
_cell_formula_units_Z   1
loop_
 _symmetry_equiv_pos_site_id
 _symmetry_equiv_pos_as_xyz
  1  'x, y, z'
loop_
 _atom_site_type_symbol
 _atom_site_label
 _atom_site_symmetry_multiplicity
 _atom_site_fract_x
 _atom_site_fract_y
 _atom_site_fract_z
 _atom_site_occupancy
  Nd  Nd0  1  0.750000  0.000462  0.204904  1
  Pa  Pa1  1  0.250000  0.494447  0.706791  1
  Pa  Pa2  1  0.750000  0.491817  0.304563  1
  Pa  Pa3  1  0.250000  0.000153  0.781059  1
  Ge  Ge4  1  0.250000  0.263857  0.080490  1
  Ge  Ge5  1  0.750000  0.734763  0.907207  1
  Ge  Ge6  1  0.250000  0.795222  0.397504  1
  Ge  Ge7  1  0.750000  0.203799  0.614110  1
  Ru  Ru8  1  0.750000  0.372873  0.927736  1
  Pt  Pt9  1  0.750000  0.774683  0.577558  1
  Pt  Pt10  1  0.250000  0.227007  0.421737  1
  Pt  Pt11  1  0.250000  0.640915  0.076339  1
