# generated using pymatgen
data_YHo5LuCo17P12
_symmetry_space_group_name_H-M   'P 1'
_cell_length_a   3.70524400
_cell_length_b   10.57758700
_cell_length_c   12.30250500
_cell_angle_alpha   90.00000000
_cell_angle_beta   90.00000000
_cell_angle_gamma   90.00000000
_symmetry_Int_Tables_number   1
_chemical_formula_structural   YHo5LuCo17P12
_chemical_formula_sum   'Y1 Ho5 Lu1 Co17 P12'
_cell_volume   482.16642874
_cell_formula_units_Z   1
loop_
 _symmetry_equiv_pos_site_id
 _symmetry_equiv_pos_as_xyz
  1  'x, y, z'
loop_
 _atom_site_type_symbol
 _atom_site_label
 _atom_site_symmetry_multiplicity
 _atom_site_fract_x
 _atom_site_fract_y
 _atom_site_fract_z
 _atom_site_occupancy
  Y  Y0  1  0.500000  0.000000  0.477828  1
  Ho  Ho1  1  0.000000  0.500000  0.531065  1
  Ho  Ho2  1  0.500000  0.822574  0.207695  1
  Ho  Ho3  1  0.500000  0.177426  0.207695  1
  Ho  Ho4  1  0.000000  0.683022  0.795324  1
  Ho  Ho5  1  0.000000  0.316978  0.795324  1
  Lu  Lu6  1  0.500000  0.500000  0.154740  1
  Co  Co7  1  0.000000  0.500000  0.982225  1
  Co  Co8  1  0.500000  0.000000  0.012892  1
  Co  Co9  1  0.500000  0.293679  0.436078  1
  Co  Co10  1  0.500000  0.706321  0.436078  1
  Co  Co11  1  0.000000  0.201614  0.571087  1
  Co  Co12  1  0.000000  0.798386  0.571087  1
  Co  Co13  1  0.500000  0.880479  0.707450  1
  Co  Co14  1  0.500000  0.119521  0.707450  1
  Co  Co15  1  0.000000  0.622839  0.301902  1
  Co  Co16  1  0.000000  0.377161  0.301902  1
  Co  Co17  1  0.500000  0.324758  0.987054  1
  Co  Co18  1  0.500000  0.675242  0.987054  1
  Co  Co19  1  0.000000  0.160129  0.999218  1
  Co  Co20  1  0.000000  0.839871  0.999218  1
  Co  Co21  1  0.000000  0.000000  0.835316  1
  Co  Co22  1  0.500000  0.500000  0.703328  1
  Co  Co23  1  0.000000  0.000000  0.294641  1
  P  P24  1  0.500000  0.308720  0.618725  1
  P  P25  1  0.500000  0.691280  0.618725  1
  P  P26  1  0.000000  0.188103  0.386781  1
  P  P27  1  0.000000  0.811897  0.386781  1
  P  P28  1  0.500000  0.500000  0.881838  1
  P  P29  1  0.000000  0.000000  0.115599  1
  P  P30  1  0.500000  0.853107  0.887152  1
  P  P31  1  0.500000  0.146893  0.887152  1
  P  P32  1  0.000000  0.667665  0.097502  1
  P  P33  1  0.000000  0.332335  0.097502  1
  P  P34  1  0.500000  0.500000  0.364250  1
  P  P35  1  0.000000  0.000000  0.654339  1
