# generated using pymatgen
data_NdTm3(MoN3)4
_symmetry_space_group_name_H-M   'P 1'
_cell_length_a   7.30945520
_cell_length_b   7.30945456
_cell_length_c   6.24391773
_cell_angle_alpha   73.98574059
_cell_angle_beta   73.98574093
_cell_angle_gamma   82.09490392
_symmetry_Int_Tables_number   1
_chemical_formula_structural   NdTm3(MoN3)4
_chemical_formula_sum   'Nd1 Tm3 Mo4 N12'
_cell_volume   307.52926096
_cell_formula_units_Z   1
loop_
 _symmetry_equiv_pos_site_id
 _symmetry_equiv_pos_as_xyz
  1  'x, y, z'
loop_
 _atom_site_type_symbol
 _atom_site_label
 _atom_site_symmetry_multiplicity
 _atom_site_fract_x
 _atom_site_fract_y
 _atom_site_fract_z
 _atom_site_occupancy
  Nd  Nd0  1  0.297132  0.702868  0.750000  1
  Tm  Tm1  1  0.910153  0.089847  0.750000  1
  Tm  Tm2  1  0.708287  0.291713  0.250000  1
  Tm  Tm3  1  0.083145  0.916855  0.250000  1
  Mo  Mo4  1  0.801741  0.618726  0.766634  1
  Mo  Mo5  1  0.198260  0.378361  0.239270  1
  Mo  Mo6  1  0.621639  0.801740  0.260730  1
  Mo  Mo7  1  0.381274  0.198259  0.733366  1
  N  N8  1  0.209946  0.006387  0.851586  1
  N  N9  1  0.370029  0.348359  0.437895  1
  N  N10  1  0.642083  0.652557  0.553149  1
  N  N11  1  0.624063  0.107631  0.664030  1
  N  N12  1  0.993613  0.790054  0.648414  1
  N  N13  1  0.782192  0.004650  0.148812  1
  N  N14  1  0.111924  0.622283  0.176298  1
  N  N15  1  0.892369  0.375937  0.835970  1
  N  N16  1  0.995350  0.217808  0.351188  1
  N  N17  1  0.347443  0.357917  0.946851  1
  N  N18  1  0.651641  0.629971  0.062105  1
  N  N19  1  0.377717  0.888076  0.323702  1
