# generated using pymatgen
data_Y8InHg3Au8
_symmetry_space_group_name_H-M   'P 1'
_cell_length_a   7.98582400
_cell_length_b   7.98582400
_cell_length_c   7.47152700
_cell_angle_alpha   90.00000000
_cell_angle_beta   90.00000000
_cell_angle_gamma   90.00000000
_symmetry_Int_Tables_number   1
_chemical_formula_structural   Y8InHg3Au8
_chemical_formula_sum   'Y8 In1 Hg3 Au8'
_cell_volume   476.48456760
_cell_formula_units_Z   1
loop_
 _symmetry_equiv_pos_site_id
 _symmetry_equiv_pos_as_xyz
  1  'x, y, z'
loop_
 _atom_site_type_symbol
 _atom_site_label
 _atom_site_symmetry_multiplicity
 _atom_site_fract_x
 _atom_site_fract_y
 _atom_site_fract_z
 _atom_site_occupancy
  Y  Y0  1  0.833317  0.159810  0.500412  1
  Y  Y1  1  0.166683  0.840190  0.500412  1
  Y  Y2  1  0.340190  0.333317  0.999588  1
  Y  Y3  1  0.659810  0.666683  0.999588  1
  Y  Y4  1  0.675666  0.685915  0.500764  1
  Y  Y5  1  0.324334  0.314085  0.500764  1
  Y  Y6  1  0.185915  0.824334  0.999236  1
  Y  Y7  1  0.814085  0.175666  0.999236  1
  In  In8  1  0.000000  0.500000  0.250000  1
  Hg  Hg9  1  0.500000  0.000000  0.250000  1
  Hg  Hg10  1  0.000000  0.500000  0.750000  1
  Hg  Hg11  1  0.500000  0.000000  0.750000  1
  Au  Au12  1  0.632429  0.377310  0.268343  1
  Au  Au13  1  0.367571  0.622690  0.268343  1
  Au  Au14  1  0.125121  0.128555  0.768293  1
  Au  Au15  1  0.874879  0.871445  0.768293  1
  Au  Au16  1  0.371445  0.625121  0.731707  1
  Au  Au17  1  0.628555  0.374879  0.731707  1
  Au  Au18  1  0.877310  0.867571  0.231657  1
  Au  Au19  1  0.122690  0.132429  0.231657  1
