# generated using pymatgen
data_Ce4ZnSiRh9Au2
_symmetry_space_group_name_H-M   'P 1'
_cell_length_a   7.27436775
_cell_length_b   7.27230582
_cell_length_c   7.36159160
_cell_angle_alpha   110.65373870
_cell_angle_beta   109.24969187
_cell_angle_gamma   108.74663433
_symmetry_Int_Tables_number   1
_chemical_formula_structural   Ce4ZnSiRh9Au2
_chemical_formula_sum   'Ce4 Zn1 Si1 Rh9 Au2'
_cell_volume   298.84533259
_cell_formula_units_Z   1
loop_
 _symmetry_equiv_pos_site_id
 _symmetry_equiv_pos_as_xyz
  1  'x, y, z'
loop_
 _atom_site_type_symbol
 _atom_site_label
 _atom_site_symmetry_multiplicity
 _atom_site_fract_x
 _atom_site_fract_y
 _atom_site_fract_z
 _atom_site_occupancy
  Ce  Ce0  1  0.998461  0.999231  0.499231  1
  Ce  Ce1  1  0.040168  0.520084  0.020084  1
  Ce  Ce2  1  0.481992  0.962251  0.983496  1
  Ce  Ce3  1  0.481992  0.519742  0.498497  1
  Zn  Zn4  1  0.506285  0.253143  0.753143  1
  Si  Si5  1  0.998566  0.999283  0.999283  1
  Rh  Rh6  1  0.249934  0.487239  0.743746  1
  Rh  Rh7  1  0.249934  0.762694  0.506188  1
  Rh  Rh8  1  0.506665  0.753332  0.253332  1
  Rh  Rh9  1  0.730281  0.710494  0.991070  1
  Rh  Rh10  1  0.275325  0.017685  0.289423  1
  Rh  Rh11  1  0.993883  0.271610  0.273148  1
  Rh  Rh12  1  0.275325  0.257640  0.985902  1
  Rh  Rh13  1  0.730281  0.019787  0.739211  1
  Rh  Rh14  1  0.993883  0.722273  0.720735  1
  Au  Au15  1  0.743514  0.253380  0.502757  1
  Au  Au16  1  0.743514  0.490135  0.240758  1
