# generated using pymatgen
data_Na2TiSe2O
_symmetry_space_group_name_H-M   'P 1'
_cell_length_a   14.19172000
_cell_length_b   5.94376219
_cell_length_c   7.23363163
_cell_angle_alpha   67.52946639
_cell_angle_beta   90.00000000
_cell_angle_gamma   90.00000000
_symmetry_Int_Tables_number   1
_chemical_formula_structural   Na2TiSe2O
_chemical_formula_sum   'Na8 Ti4 Se8 O4'
_cell_volume   563.84617852
_cell_formula_units_Z   4
loop_
 _symmetry_equiv_pos_site_id
 _symmetry_equiv_pos_as_xyz
  1  'x, y, z'
loop_
 _atom_site_type_symbol
 _atom_site_label
 _atom_site_symmetry_multiplicity
 _atom_site_fract_x
 _atom_site_fract_y
 _atom_site_fract_z
 _atom_site_occupancy
  Na  Na0  1  0.359832  0.453621  0.604145  1
  Na  Na1  1  0.940894  0.354110  0.793364  1
  Na  Na2  1  0.140168  0.953621  0.604145  1
  Na  Na3  1  0.440894  0.145890  0.206636  1
  Na  Na4  1  0.559106  0.854110  0.793364  1
  Na  Na5  1  0.859832  0.046379  0.395855  1
  Na  Na6  1  0.059106  0.645890  0.206636  1
  Na  Na7  1  0.640168  0.546379  0.395855  1
  Ti  Ti8  1  0.312343  0.839689  0.980126  1
  Ti  Ti9  1  0.687657  0.160311  0.019874  1
  Ti  Ti10  1  0.187657  0.339689  0.980126  1
  Ti  Ti11  1  0.812343  0.660311  0.019874  1
  Se  Se12  1  0.559466  0.352994  0.806698  1
  Se  Se13  1  0.355946  0.941100  0.638822  1
  Se  Se14  1  0.855946  0.558900  0.361178  1
  Se  Se15  1  0.940534  0.852994  0.806698  1
  Se  Se16  1  0.644054  0.058900  0.361178  1
  Se  Se17  1  0.144054  0.441100  0.638822  1
  Se  Se18  1  0.440534  0.647006  0.193302  1
  Se  Se19  1  0.059466  0.147006  0.193302  1
  O  O20  1  0.711317  0.872282  0.980207  1
  O  O21  1  0.211317  0.627718  0.019793  1
  O  O22  1  0.788683  0.372282  0.980207  1
  O  O23  1  0.288683  0.127718  0.019793  1
