# generated using pymatgen
data_Ba4TaMnO7F
_symmetry_space_group_name_H-M   'P 1'
_cell_length_a   7.48246328
_cell_length_b   7.48246242
_cell_length_c   5.90121700
_cell_angle_alpha   90.00000000
_cell_angle_beta   90.00000000
_cell_angle_gamma   133.73400699
_symmetry_Int_Tables_number   1
_chemical_formula_structural   Ba4TaMnO7F
_chemical_formula_sum   'Ba4 Ta1 Mn1 O7 F1'
_cell_volume   238.72769776
_cell_formula_units_Z   1
loop_
 _symmetry_equiv_pos_site_id
 _symmetry_equiv_pos_as_xyz
  1  'x, y, z'
loop_
 _atom_site_type_symbol
 _atom_site_label
 _atom_site_symmetry_multiplicity
 _atom_site_fract_x
 _atom_site_fract_y
 _atom_site_fract_z
 _atom_site_occupancy
  Ba  Ba0  1  0.646068  0.353932  0.000000  1
  Ba  Ba1  1  0.136510  0.863490  0.500000  1
  Ba  Ba2  1  0.858009  0.141991  0.500000  1
  Ba  Ba3  1  0.360814  0.639186  0.000000  1
  Ta  Ta4  1  0.998803  0.001197  0.000000  1
  Mn  Mn5  1  0.518094  0.481906  0.500000  1
  O  O6  1  0.754404  0.761380  0.760607  1
  O  O7  1  0.238620  0.245596  0.239393  1
  O  O8  1  0.238620  0.245596  0.760607  1
  O  O9  1  0.754404  0.761380  0.239393  1
  O  O10  1  0.849094  0.150906  0.000000  1
  O  O11  1  0.670588  0.329412  0.500000  1
  O  O12  1  0.147703  0.852297  0.000000  1
  F  F13  1  0.328271  0.671729  0.500000  1
