# generated using pymatgen
data_Cs2NbAgTe4
_symmetry_space_group_name_H-M   'P 1'
_cell_length_a   15.93731769
_cell_length_b   14.19234387
_cell_length_c   8.56364228
_cell_angle_alpha   85.10055150
_cell_angle_beta   62.53048987
_cell_angle_gamma   32.36896159
_symmetry_Int_Tables_number   1
_chemical_formula_structural   Cs2NbAgTe4
_chemical_formula_sum   'Cs4 Nb2 Ag2 Te8'
_cell_volume   706.66956857
_cell_formula_units_Z   2
loop_
 _symmetry_equiv_pos_site_id
 _symmetry_equiv_pos_as_xyz
  1  'x, y, z'
loop_
 _atom_site_type_symbol
 _atom_site_label
 _atom_site_symmetry_multiplicity
 _atom_site_fract_x
 _atom_site_fract_y
 _atom_site_fract_z
 _atom_site_occupancy
  Cs  Cs0  1  0.929559  0.929559  0.570441  1
  Cs  Cs1  1  0.570441  0.570441  0.929559  1
  Cs  Cs2  1  0.679559  0.679559  0.320441  1
  Cs  Cs3  1  0.320441  0.320441  0.679559  1
  Nb  Nb4  1  0.750000  0.750000  0.750000  1
  Nb  Nb5  1  0.500000  0.500000  0.500000  1
  Ag  Ag6  1  0.000000  0.000000  0.000000  1
  Ag  Ag7  1  0.250000  0.250000  0.250000  1
  Te  Te8  1  0.572805  0.314544  0.229897  1
  Te  Te9  1  0.882754  0.229897  0.314544  1
  Te  Te10  1  0.229897  0.882754  0.572805  1
  Te  Te11  1  0.314544  0.572805  0.882754  1
  Te  Te12  1  0.935456  0.677195  0.367246  1
  Te  Te13  1  0.367246  0.020103  0.935456  1
  Te  Te14  1  0.020103  0.367246  0.677195  1
  Te  Te15  1  0.677195  0.935456  0.020103  1
