# generated using pymatgen
data_LuBi(BrO3)6
_symmetry_space_group_name_H-M   'P 1'
_cell_length_a   9.87862400
_cell_length_b   9.87862271
_cell_length_c   5.90033600
_cell_angle_alpha   90.00000000
_cell_angle_beta   90.00000000
_cell_angle_gamma   119.99999094
_symmetry_Int_Tables_number   1
_chemical_formula_structural   LuBi(BrO3)6
_chemical_formula_sum   'Lu1 Bi1 Br6 O18'
_cell_volume   498.65510492
_cell_formula_units_Z   1
loop_
 _symmetry_equiv_pos_site_id
 _symmetry_equiv_pos_as_xyz
  1  'x, y, z'
loop_
 _atom_site_type_symbol
 _atom_site_label
 _atom_site_symmetry_multiplicity
 _atom_site_fract_x
 _atom_site_fract_y
 _atom_site_fract_z
 _atom_site_occupancy
  Lu  Lu0  1  0.333333  0.666667  0.199176  1
  Bi  Bi1  1  0.666667  0.333333  0.695206  1
  Br  Br2  1  0.679846  0.013823  0.361037  1
  Br  Br3  1  0.313750  0.974147  0.872858  1
  Br  Br4  1  0.025853  0.339601  0.872858  1
  Br  Br5  1  0.333975  0.320154  0.361037  1
  Br  Br6  1  0.986177  0.666025  0.361037  1
  Br  Br7  1  0.660399  0.686250  0.872858  1
  O  O8  1  0.771755  0.830489  0.043252  1
  O  O9  1  0.953264  0.771584  0.542256  1
  O  O10  1  0.818320  0.046736  0.542256  1
  O  O11  1  0.169511  0.941266  0.043252  1
  O  O12  1  0.058734  0.228245  0.043252  1
  O  O13  1  0.228416  0.181680  0.542256  1
  O  O14  1  0.706300  0.543287  0.935183  1
  O  O15  1  0.175398  0.710124  0.413223  1
  O  O16  1  0.524420  0.409424  0.457423  1
  O  O17  1  0.129979  0.527213  0.975776  1
  O  O18  1  0.397235  0.870021  0.975776  1
  O  O19  1  0.590576  0.114996  0.457423  1
  O  O20  1  0.885004  0.475580  0.457423  1
  O  O21  1  0.472787  0.602765  0.975776  1
  O  O22  1  0.289876  0.465273  0.413223  1
  O  O23  1  0.836987  0.293700  0.935183  1
  O  O24  1  0.456713  0.163013  0.935183  1
  O  O25  1  0.534727  0.824602  0.413223  1
