# generated using pymatgen
data_SrLaCrO4
_symmetry_space_group_name_H-M   'P 1'
_cell_length_a   5.56291496
_cell_length_b   5.56282688
_cell_length_c   13.08378939
_cell_angle_alpha   77.73090702
_cell_angle_beta   102.27058840
_cell_angle_gamma   90.01164374
_symmetry_Int_Tables_number   1
_chemical_formula_structural   SrLaCrO4
_chemical_formula_sum   'Sr4 La4 Cr4 O16'
_cell_volume   386.17018187
_cell_formula_units_Z   4
loop_
 _symmetry_equiv_pos_site_id
 _symmetry_equiv_pos_as_xyz
  1  'x, y, z'
loop_
 _atom_site_type_symbol
 _atom_site_label
 _atom_site_symmetry_multiplicity
 _atom_site_fract_x
 _atom_site_fract_y
 _atom_site_fract_z
 _atom_site_occupancy
  Sr  Sr0  1  0.821116  0.178879  0.642854  1
  Sr  Sr1  1  0.321201  0.678843  0.642881  1
  Sr  Sr2  1  0.571121  0.928840  0.142897  1
  Sr  Sr3  1  0.071171  0.428838  0.142845  1
  La  La4  1  0.930080  0.569868  0.859584  1
  La  La5  1  0.429982  0.070030  0.859660  1
  La  La6  1  0.680114  0.319984  0.359604  1
  La  La7  1  0.180024  0.819966  0.359654  1
  Cr  Cr8  1  0.751557  0.748434  0.503197  1
  Cr  Cr9  1  0.501605  0.498350  0.003177  1
  Cr  Cr10  1  0.251622  0.248244  0.503245  1
  Cr  Cr11  1  0.001688  0.998440  0.003206  1
  O  O12  1  0.918675  0.081814  0.836609  1
  O  O13  1  0.418340  0.581452  0.836600  1
  O  O14  1  0.668511  0.831437  0.336622  1
  O  O15  1  0.168182  0.331497  0.336627  1
  O  O16  1  0.834836  0.664847  0.670413  1
  O  O17  1  0.335076  0.164885  0.670502  1
  O  O18  1  0.584962  0.415163  0.170424  1
  O  O19  1  0.085151  0.915068  0.170481  1
  O  O20  1  0.746870  0.753203  0.993472  1
  O  O21  1  0.246958  0.253099  0.993575  1
  O  O22  1  0.496579  0.503373  0.493593  1
  O  O23  1  0.997166  0.002816  0.493671  1
  O  O24  1  0.246805  0.753052  0.993671  1
  O  O25  1  0.746957  0.253181  0.993713  1
  O  O26  1  0.996563  0.502867  0.493648  1
  O  O27  1  0.497089  0.003528  0.493582  1
