# generated using pymatgen
data_Cs6VWSe8
_symmetry_space_group_name_H-M   'P 1'
_cell_length_a   10.35343000
_cell_length_b   10.41479600
_cell_length_c   12.25206200
_cell_angle_alpha   90.00000000
_cell_angle_beta   90.00000000
_cell_angle_gamma   90.00000000
_symmetry_Int_Tables_number   1
_chemical_formula_structural   Cs6VWSe8
_chemical_formula_sum   'Cs12 V2 W2 Se16'
_cell_volume   1321.12589465
_cell_formula_units_Z   2
loop_
 _symmetry_equiv_pos_site_id
 _symmetry_equiv_pos_as_xyz
  1  'x, y, z'
loop_
 _atom_site_type_symbol
 _atom_site_label
 _atom_site_symmetry_multiplicity
 _atom_site_fract_x
 _atom_site_fract_y
 _atom_site_fract_z
 _atom_site_occupancy
  Cs  Cs0  1  0.545730  0.210363  0.048714  1
  Cs  Cs1  1  0.045730  0.289637  0.451286  1
  Cs  Cs2  1  0.453586  0.791841  0.535194  1
  Cs  Cs3  1  0.953586  0.708159  0.964806  1
  Cs  Cs4  1  0.453586  0.791841  0.964806  1
  Cs  Cs5  1  0.953586  0.708159  0.535194  1
  Cs  Cs6  1  0.545730  0.210363  0.451286  1
  Cs  Cs7  1  0.045730  0.289637  0.048714  1
  Cs  Cs8  1  0.649182  0.414169  0.750000  1
  Cs  Cs9  1  0.149182  0.085831  0.750000  1
  Cs  Cs10  1  0.352551  0.585752  0.250000  1
  Cs  Cs11  1  0.852551  0.914248  0.250000  1
  V  V12  1  0.276919  0.016949  0.250000  1
  V  V13  1  0.776919  0.483051  0.250000  1
  W  W14  1  0.722636  0.982848  0.750000  1
  W  W15  1  0.222636  0.517152  0.750000  1
  Se  Se16  1  0.832962  0.049751  0.590609  1
  Se  Se17  1  0.332962  0.450249  0.909391  1
  Se  Se18  1  0.169802  0.952438  0.093563  1
  Se  Se19  1  0.669802  0.547562  0.406437  1
  Se  Se20  1  0.169802  0.952438  0.406437  1
  Se  Se21  1  0.669802  0.547562  0.093563  1
  Se  Se22  1  0.832962  0.049751  0.909391  1
  Se  Se23  1  0.332962  0.450249  0.590609  1
  Se  Se24  1  0.510838  0.070697  0.750000  1
  Se  Se25  1  0.010838  0.429303  0.750000  1
  Se  Se26  1  0.484134  0.932207  0.250000  1
  Se  Se27  1  0.984134  0.567793  0.250000  1
  Se  Se28  1  0.709106  0.755613  0.750000  1
  Se  Se29  1  0.209106  0.744387  0.750000  1
  Se  Se30  1  0.290474  0.239011  0.250000  1
  Se  Se31  1  0.790474  0.260989  0.250000  1
