# generated using pymatgen
data_Nd10Sn6Cl
_symmetry_space_group_name_H-M   'P 1'
_cell_length_a   6.80680108
_cell_length_b   9.38859771
_cell_length_c   9.38931604
_cell_angle_alpha   119.99747512
_cell_angle_beta   89.99639216
_cell_angle_gamma   90.00721845
_symmetry_Int_Tables_number   1
_chemical_formula_structural   Nd10Sn6Cl
_chemical_formula_sum   'Nd10 Sn6 Cl1'
_cell_volume   519.66016208
_cell_formula_units_Z   1
loop_
 _symmetry_equiv_pos_site_id
 _symmetry_equiv_pos_as_xyz
  1  'x, y, z'
loop_
 _atom_site_type_symbol
 _atom_site_label
 _atom_site_symmetry_multiplicity
 _atom_site_fract_x
 _atom_site_fract_y
 _atom_site_fract_z
 _atom_site_occupancy
  Nd  Nd0  1  0.500000  0.333339  0.666676  1
  Nd  Nd1  1  0.500000  0.666662  0.333324  1
  Nd  Nd2  1  0.000000  0.666668  0.333339  1
  Nd  Nd3  1  0.000000  0.333329  0.666661  1
  Nd  Nd4  1  0.758158  0.250891  0.000000  1
  Nd  Nd5  1  0.758126  0.749127  0.749107  1
  Nd  Nd6  1  0.758126  0.000019  0.250893  1
  Nd  Nd7  1  0.241855  0.749113  0.000000  1
  Nd  Nd8  1  0.241877  0.250868  0.250891  1
  Nd  Nd9  1  0.241877  0.999977  0.749109  1
  Sn  Sn10  1  0.751402  0.609479  0.000000  1
  Sn  Sn11  1  0.751442  0.390523  0.390521  1
  Sn  Sn12  1  0.751442  0.000002  0.609479  1
  Sn  Sn13  1  0.248603  0.390516  0.000000  1
  Sn  Sn14  1  0.248546  0.609482  0.609472  1
  Sn  Sn15  1  0.248546  0.000010  0.390528  1
  Cl  Cl16  1  0.500002  0.999998  0.000000  1
