# generated using pymatgen
data_DyY5Al24Ir5Ru3
_symmetry_space_group_name_H-M   'P 1'
_cell_length_a   8.82170676
_cell_length_b   8.78227023
_cell_length_c   9.55335901
_cell_angle_alpha   90.00000269
_cell_angle_beta   90.10319830
_cell_angle_gamma   119.85222998
_symmetry_Int_Tables_number   1
_chemical_formula_structural   DyY5Al24Ir5Ru3
_chemical_formula_sum   'Dy1 Y5 Al24 Ir5 Ru3'
_cell_volume   641.93338148
_cell_formula_units_Z   1
loop_
 _symmetry_equiv_pos_site_id
 _symmetry_equiv_pos_as_xyz
  1  'x, y, z'
loop_
 _atom_site_type_symbol
 _atom_site_label
 _atom_site_symmetry_multiplicity
 _atom_site_fract_x
 _atom_site_fract_y
 _atom_site_fract_z
 _atom_site_occupancy
  Dy  Dy0  1  0.385092  0.192547  0.750190  1
  Y  Y1  1  0.190913  0.806171  0.249992  1
  Y  Y2  1  0.190913  0.384742  0.249992  1
  Y  Y3  1  0.615378  0.807689  0.249846  1
  Y  Y4  1  0.809004  0.193791  0.750004  1
  Y  Y5  1  0.809004  0.615213  0.750004  1
  Al  Al6  1  0.561700  0.436702  0.250226  1
  Al  Al7  1  0.561700  0.124998  0.250226  1
  Al  Al8  1  0.875613  0.437806  0.248689  1
  Al  Al9  1  0.438196  0.563200  0.749766  1
  Al  Al10  1  0.438196  0.874996  0.749766  1
  Al  Al11  1  0.124324  0.562163  0.751324  1
  Al  Al12  1  0.325977  0.162989  0.423953  1
  Al  Al13  1  0.835215  0.162671  0.423467  1
  Al  Al14  1  0.835215  0.672543  0.423467  1
  Al  Al15  1  0.673976  0.836988  0.576290  1
  Al  Al16  1  0.164761  0.837485  0.576747  1
  Al  Al17  1  0.164761  0.327277  0.576747  1
  Al  Al18  1  0.673121  0.836561  0.924574  1
  Al  Al19  1  0.162595  0.835207  0.923499  1
  Al  Al20  1  0.162595  0.327389  0.923499  1
  Al  Al21  1  0.326808  0.163404  0.075185  1
  Al  Al22  1  0.837381  0.164944  0.076282  1
  Al  Al23  1  0.837381  0.672437  0.076282  1
  Al  Al24  1  0.667274  0.333636  0.528869  1
  Al  Al25  1  0.332697  0.666350  0.471330  1
  Al  Al26  1  0.330366  0.665183  0.028080  1
  Al  Al27  1  0.669631  0.334815  0.971739  1
  Al  Al28  1  0.998146  0.999073  0.250032  1
  Al  Al29  1  0.002738  0.001369  0.749963  1
  Ir  Ir30  1  0.499893  0.499824  0.500131  1
  Ir  Ir31  1  0.499893  0.000070  0.500131  1
  Ir  Ir32  1  0.999995  0.499998  0.500025  1
  Ir  Ir33  1  0.499896  0.499809  0.999847  1
  Ir  Ir34  1  0.499896  0.000087  0.999847  1
  Ru  Ru35  1  0.999879  0.999939  0.499960  1
  Ru  Ru36  1  0.999875  0.999937  0.000037  1
  Ru  Ru37  1  0.000000  0.500000  0.999990  1
