# generated using pymatgen
data_NdLuTh7Se17
_symmetry_space_group_name_H-M   'P 1'
_cell_length_a   8.49356974
_cell_length_b   8.45346560
_cell_length_c   11.24568100
_cell_angle_alpha   80.54545725
_cell_angle_beta   80.57469621
_cell_angle_gamma   65.00635409
_symmetry_Int_Tables_number   1
_chemical_formula_structural   NdLuTh7Se17
_chemical_formula_sum   'Nd1 Lu1 Th7 Se17'
_cell_volume   717.85529234
_cell_formula_units_Z   1
loop_
 _symmetry_equiv_pos_site_id
 _symmetry_equiv_pos_as_xyz
  1  'x, y, z'
loop_
 _atom_site_type_symbol
 _atom_site_label
 _atom_site_symmetry_multiplicity
 _atom_site_fract_x
 _atom_site_fract_y
 _atom_site_fract_z
 _atom_site_occupancy
  Nd  Nd0  1  0.812222  0.305038  0.299545  1
  Lu  Lu1  1  0.998372  0.002722  0.001671  1
  Th  Th2  1  0.303016  0.812775  0.297131  1
  Th  Th3  1  0.186153  0.697184  0.700904  1
  Th  Th4  1  0.697474  0.187665  0.700431  1
  Th  Th5  1  0.205661  0.204439  0.538495  1
  Th  Th6  1  0.793883  0.794212  0.459650  1
  Th  Th7  1  0.682398  0.681470  0.981601  1
  Th  Th8  1  0.316278  0.318537  0.021311  1
  Se  Se9  1  0.824558  0.430955  0.536059  1
  Se  Se10  1  0.431604  0.819666  0.532652  1
  Se  Se11  1  0.177841  0.567356  0.467530  1
  Se  Se12  1  0.569106  0.175142  0.470561  1
  Se  Se13  1  0.944035  0.333466  0.032411  1
  Se  Se14  1  0.331579  0.944034  0.032963  1
  Se  Se15  1  0.057163  0.669619  0.963049  1
  Se  Se16  1  0.667651  0.058905  0.964203  1
  Se  Se17  1  0.214290  0.204965  0.277110  1
  Se  Se18  1  0.791141  0.790650  0.723855  1
  Se  Se19  1  0.064087  0.062953  0.764305  1
  Se  Se20  1  0.941102  0.931321  0.237055  1
  Se  Se21  1  0.304715  0.303160  0.753013  1
  Se  Se22  1  0.690723  0.703044  0.245795  1
  Se  Se23  1  0.519248  0.521845  0.831905  1
  Se  Se24  1  0.474227  0.484030  0.163452  1
  Se  Se25  1  0.001475  0.994850  0.503344  1
