# generated using pymatgen
data_Gd4HS3
_symmetry_space_group_name_H-M   'P 1'
_cell_length_a   6.01667729
_cell_length_b   9.45304153
_cell_length_c   14.23834480
_cell_angle_alpha   83.97668260
_cell_angle_beta   82.91206618
_cell_angle_gamma   126.22439355
_symmetry_Int_Tables_number   1
_chemical_formula_structural   Gd4HS3
_chemical_formula_sum   'Gd4 H1 S3'
_cell_volume   632.09406488
_cell_formula_units_Z   1
loop_
 _symmetry_equiv_pos_site_id
 _symmetry_equiv_pos_as_xyz
  1  'x, y, z'
loop_
 _atom_site_type_symbol
 _atom_site_label
 _atom_site_symmetry_multiplicity
 _atom_site_fract_x
 _atom_site_fract_y
 _atom_site_fract_z
 _atom_site_occupancy
  Gd  Gd0  1  0.291336  0.570619  0.236655  1
  Gd  Gd1  1  0.906562  0.672120  0.905418  1
  Gd  Gd2  1  0.768779  0.564510  0.237792  1
  Gd  Gd3  1  0.320331  0.267900  0.087143  1
  H  H4  1  0.706458  0.725195  0.155171  1
  S  S5  1  0.346178  0.448710  0.944448  1
  S  S6  1  0.209517  0.784471  0.294111  1
  S  S7  1  0.971943  0.938961  0.844825  1
