# generated using pymatgen
data_HfZr9CuSn6Se
_symmetry_space_group_name_H-M   'P 1'
_cell_length_a   8.69440700
_cell_length_b   8.69440646
_cell_length_c   5.89941700
_cell_angle_alpha   90.00000000
_cell_angle_beta   90.00000000
_cell_angle_gamma   119.99999824
_symmetry_Int_Tables_number   1
_chemical_formula_structural   HfZr9CuSn6Se
_chemical_formula_sum   'Hf1 Zr9 Cu1 Sn6 Se1'
_cell_volume   386.20655494
_cell_formula_units_Z   1
loop_
 _symmetry_equiv_pos_site_id
 _symmetry_equiv_pos_as_xyz
  1  'x, y, z'
loop_
 _atom_site_type_symbol
 _atom_site_label
 _atom_site_symmetry_multiplicity
 _atom_site_fract_x
 _atom_site_fract_y
 _atom_site_fract_z
 _atom_site_occupancy
  Hf  Hf0  1  0.666667  0.333333  0.500000  1
  Zr  Zr1  1  0.333333  0.666667  0.500000  1
  Zr  Zr2  1  0.333333  0.666667  0.000000  1
  Zr  Zr3  1  0.666667  0.333333  0.000000  1
  Zr  Zr4  1  0.736699  0.736469  0.247989  1
  Zr  Zr5  1  0.263531  0.000230  0.247989  1
  Zr  Zr6  1  0.999770  0.263301  0.247989  1
  Zr  Zr7  1  0.263531  0.263301  0.752011  1
  Zr  Zr8  1  0.736699  0.000230  0.752011  1
  Zr  Zr9  1  0.999770  0.736469  0.752011  1
  Cu  Cu10  1  0.000000  0.000000  0.000000  1
  Sn  Sn11  1  0.390975  0.390608  0.247061  1
  Sn  Sn12  1  0.609392  0.000367  0.247061  1
  Sn  Sn13  1  0.999633  0.609025  0.247061  1
  Sn  Sn14  1  0.609392  0.609025  0.752939  1
  Sn  Sn15  1  0.390975  0.000367  0.752939  1
  Sn  Sn16  1  0.999633  0.390608  0.752939  1
  Se  Se17  1  0.000000  0.000000  0.500000  1
