# generated using pymatgen
data_Sm6ErSn23Ru6
_symmetry_space_group_name_H-M   'P 1'
_cell_length_a   9.91818019
_cell_length_b   9.94114292
_cell_length_c   10.13199343
_cell_angle_alpha   89.99999877
_cell_angle_beta   89.97089641
_cell_angle_gamma   120.07662082
_symmetry_Int_Tables_number   1
_chemical_formula_structural   Sm6ErSn23Ru6
_chemical_formula_sum   'Sm6 Er1 Sn23 Ru6'
_cell_volume   864.48594958
_cell_formula_units_Z   1
loop_
 _symmetry_equiv_pos_site_id
 _symmetry_equiv_pos_as_xyz
  1  'x, y, z'
loop_
 _atom_site_type_symbol
 _atom_site_label
 _atom_site_symmetry_multiplicity
 _atom_site_fract_x
 _atom_site_fract_y
 _atom_site_fract_z
 _atom_site_occupancy
  Sm  Sm0  1  0.483389  0.516287  0.303950  1
  Sm  Sm1  1  0.516200  0.483541  0.696250  1
  Sm  Sm2  1  0.483389  0.967104  0.303950  1
  Sm  Sm3  1  0.516200  0.032658  0.696250  1
  Sm  Sm4  1  0.033494  0.516748  0.304402  1
  Sm  Sm5  1  0.999498  0.999749  0.999652  1
  Er  Er6  1  0.970173  0.485086  0.696810  1
  Sn  Sn7  1  0.116641  0.882935  0.274743  1
  Sn  Sn8  1  0.883283  0.118662  0.724973  1
  Sn  Sn9  1  0.116641  0.233707  0.274743  1
  Sn  Sn10  1  0.883283  0.764620  0.724973  1
  Sn  Sn11  1  0.766298  0.883149  0.273041  1
  Sn  Sn12  1  0.233330  0.116665  0.726966  1
  Sn  Sn13  1  0.781367  0.221918  0.463506  1
  Sn  Sn14  1  0.217742  0.777315  0.538503  1
  Sn  Sn15  1  0.781367  0.559450  0.463506  1
  Sn  Sn16  1  0.217742  0.440426  0.538503  1
  Sn  Sn17  1  0.439718  0.219859  0.462425  1
  Sn  Sn18  1  0.559899  0.779949  0.537622  1
  Sn  Sn19  1  0.348086  0.999946  0.999675  1
  Sn  Sn20  1  0.651488  0.999729  0.999996  1
  Sn  Sn21  1  0.999630  0.348176  0.999679  1
  Sn  Sn22  1  0.999630  0.651453  0.999679  1
  Sn  Sn23  1  0.651488  0.651759  0.999996  1
  Sn  Sn24  1  0.348086  0.348140  0.999675  1
  Sn  Sn25  1  0.333392  0.666697  0.123194  1
  Sn  Sn26  1  0.670801  0.335400  0.874690  1
  Sn  Sn27  1  0.332680  0.666341  0.821018  1
  Sn  Sn28  1  0.666829  0.333414  0.178430  1
  Sn  Sn29  1  0.999533  0.999767  0.500309  1
  Ru  Ru30  1  0.830032  0.169373  0.201976  1
  Ru  Ru31  1  0.168963  0.828787  0.797677  1
  Ru  Ru32  1  0.830032  0.660660  0.201976  1
  Ru  Ru33  1  0.168963  0.340175  0.797677  1
  Ru  Ru34  1  0.339087  0.169544  0.201382  1
  Ru  Ru35  1  0.661628  0.830813  0.798205  1
