# generated using pymatgen
data_Cs2RbMn3F12
_symmetry_space_group_name_H-M   'P 1'
_cell_length_a   7.77081428
_cell_length_b   7.77081353
_cell_length_c   13.21905042
_cell_angle_alpha   74.10223360
_cell_angle_beta   74.10223489
_cell_angle_gamma   59.94992528
_symmetry_Int_Tables_number   1
_chemical_formula_structural   Cs2RbMn3F12
_chemical_formula_sum   'Cs4 Rb2 Mn6 F24'
_cell_volume   655.49189029
_cell_formula_units_Z   2
loop_
 _symmetry_equiv_pos_site_id
 _symmetry_equiv_pos_as_xyz
  1  'x, y, z'
loop_
 _atom_site_type_symbol
 _atom_site_label
 _atom_site_symmetry_multiplicity
 _atom_site_fract_x
 _atom_site_fract_y
 _atom_site_fract_z
 _atom_site_occupancy
  Cs  Cs0  1  0.902410  0.475268  0.678591  1
  Cs  Cs1  1  0.097590  0.524732  0.321409  1
  Cs  Cs2  1  0.524732  0.097590  0.821409  1
  Cs  Cs3  1  0.475268  0.902410  0.178591  1
  Rb  Rb4  1  0.225310  0.774690  0.750000  1
  Rb  Rb5  1  0.774690  0.225310  0.250000  1
  Mn  Mn6  1  0.500000  0.000000  0.500000  1
  Mn  Mn7  1  0.000000  0.500000  0.000000  1
  Mn  Mn8  1  0.000000  0.000000  0.500000  1
  Mn  Mn9  1  0.000000  0.000000  0.000000  1
  Mn  Mn10  1  0.500000  0.500000  0.500000  1
  Mn  Mn11  1  0.500000  0.500000  0.000000  1
  F  F12  1  0.890080  0.967731  0.643593  1
  F  F13  1  0.520778  0.895124  0.643890  1
  F  F14  1  0.262046  0.412648  0.027801  1
  F  F15  1  0.680774  0.216962  0.030318  1
  F  F16  1  0.895124  0.520778  0.143890  1
  F  F17  1  0.104876  0.479222  0.856110  1
  F  F18  1  0.479222  0.104876  0.356110  1
  F  F19  1  0.783038  0.319226  0.469682  1
  F  F20  1  0.109920  0.032269  0.356407  1
  F  F21  1  0.587352  0.737954  0.472199  1
  F  F22  1  0.449468  0.516751  0.143435  1
  F  F23  1  0.412648  0.262046  0.527801  1
  F  F24  1  0.516751  0.449468  0.643435  1
  F  F25  1  0.822765  0.929229  0.462937  1
  F  F26  1  0.177235  0.070771  0.537063  1
  F  F27  1  0.550532  0.483249  0.856565  1
  F  F28  1  0.929229  0.822765  0.962937  1
  F  F29  1  0.483249  0.550532  0.356565  1
  F  F30  1  0.737954  0.587352  0.972199  1
  F  F31  1  0.967731  0.890080  0.143593  1
  F  F32  1  0.070771  0.177235  0.037063  1
  F  F33  1  0.319226  0.783038  0.969682  1
  F  F34  1  0.032269  0.109920  0.856407  1
  F  F35  1  0.216962  0.680774  0.530318  1
