# generated using pymatgen
data_Co3Ni(W4C)2
_symmetry_space_group_name_H-M   'P 1'
_cell_length_a   8.01265593
_cell_length_b   8.01265636
_cell_length_c   8.01741400
_cell_angle_alpha   59.98035643
_cell_angle_beta   59.98035469
_cell_angle_gamma   59.95095439
_symmetry_Int_Tables_number   1
_chemical_formula_structural   Co3Ni(W4C)2
_chemical_formula_sum   'Co6 Ni2 W16 C4'
_cell_volume   363.73255022
_cell_formula_units_Z   2
loop_
 _symmetry_equiv_pos_site_id
 _symmetry_equiv_pos_as_xyz
  1  'x, y, z'
loop_
 _atom_site_type_symbol
 _atom_site_label
 _atom_site_symmetry_multiplicity
 _atom_site_fract_x
 _atom_site_fract_y
 _atom_site_fract_z
 _atom_site_occupancy
  Co  Co0  1  0.830192  0.830192  0.832031  1
  Co  Co1  1  0.830192  0.830192  0.507583  1
  Co  Co2  1  0.509286  0.829188  0.830763  1
  Co  Co3  1  0.829188  0.509286  0.830763  1
  Co  Co4  1  0.418423  0.418423  0.417343  1
  Co  Co5  1  0.418423  0.418423  0.745812  1
  Ni  Ni6  1  0.416830  0.751770  0.415701  1
  Ni  Ni7  1  0.751770  0.416830  0.415701  1
  W  W8  1  0.438758  0.063676  0.059293  1
  W  W9  1  0.063676  0.438758  0.438272  1
  W  W10  1  0.063676  0.438758  0.059293  1
  W  W11  1  0.059448  0.059448  0.440552  1
  W  W12  1  0.438758  0.063676  0.438272  1
  W  W13  1  0.436612  0.436612  0.063388  1
  W  W14  1  0.187628  0.812852  0.187222  1
  W  W15  1  0.812852  0.187628  0.812298  1
  W  W16  1  0.812852  0.187628  0.187222  1
  W  W17  1  0.186448  0.186448  0.813552  1
  W  W18  1  0.187628  0.812852  0.812298  1
  W  W19  1  0.811398  0.811398  0.188602  1
  W  W20  1  0.623962  0.623962  0.627858  1
  W  W21  1  0.623962  0.623962  0.124218  1
  W  W22  1  0.124929  0.622850  0.626110  1
  W  W23  1  0.622850  0.124929  0.626110  1
  C  C24  1  0.125459  0.125459  0.126040  1
  C  C25  1  0.125459  0.125459  0.623042  1
  C  C26  1  0.624747  0.124592  0.125331  1
  C  C27  1  0.124592  0.624747  0.125331  1
