# generated using pymatgen
data_Sc5Zn(B2Ir5)2
_symmetry_space_group_name_H-M   'P 1'
_cell_length_a   3.06829000
_cell_length_b   9.52433300
_cell_length_c   9.52433300
_cell_angle_alpha   90.00000000
_cell_angle_beta   90.00000000
_cell_angle_gamma   90.00000000
_symmetry_Int_Tables_number   1
_chemical_formula_structural   Sc5Zn(B2Ir5)2
_chemical_formula_sum   'Sc5 Zn1 B4 Ir10'
_cell_volume   278.33354253
_cell_formula_units_Z   1
loop_
 _symmetry_equiv_pos_site_id
 _symmetry_equiv_pos_as_xyz
  1  'x, y, z'
loop_
 _atom_site_type_symbol
 _atom_site_label
 _atom_site_symmetry_multiplicity
 _atom_site_fract_x
 _atom_site_fract_y
 _atom_site_fract_z
 _atom_site_occupancy
  Sc  Sc0  1  0.000000  0.174878  0.678149  1
  Sc  Sc1  1  0.000000  0.825122  0.321851  1
  Sc  Sc2  1  0.000000  0.321851  0.174878  1
  Sc  Sc3  1  0.000000  0.678149  0.825122  1
  Sc  Sc4  1  0.000000  0.500000  0.500000  1
  Zn  Zn5  1  0.000000  0.000000  0.000000  1
  B  B6  1  0.000000  0.629050  0.119963  1
  B  B7  1  0.000000  0.370950  0.880037  1
  B  B8  1  0.000000  0.880037  0.629050  1
  B  B9  1  0.000000  0.119963  0.370950  1
  Ir  Ir10  1  0.500000  0.067851  0.216860  1
  Ir  Ir11  1  0.500000  0.932149  0.783140  1
  Ir  Ir12  1  0.500000  0.783140  0.067851  1
  Ir  Ir13  1  0.500000  0.427898  0.722812  1
  Ir  Ir14  1  0.500000  0.216860  0.932149  1
  Ir  Ir15  1  0.500000  0.572102  0.277188  1
  Ir  Ir16  1  0.500000  0.722812  0.572102  1
  Ir  Ir17  1  0.500000  0.277188  0.427898  1
  Ir  Ir18  1  0.500000  0.000000  0.500000  1
  Ir  Ir19  1  0.500000  0.500000  0.000000  1
