# generated using pymatgen
data_CuNi20(B3Sb)2
_symmetry_space_group_name_H-M   'P 1'
_cell_length_a   7.49243671
_cell_length_b   7.49170887
_cell_length_c   7.49228300
_cell_angle_alpha   59.99472830
_cell_angle_beta   59.99893697
_cell_angle_gamma   59.98805368
_symmetry_Int_Tables_number   1
_chemical_formula_structural   CuNi20(B3Sb)2
_chemical_formula_sum   'Cu1 Ni20 B6 Sb2'
_cell_volume   297.33301494
_cell_formula_units_Z   1
loop_
 _symmetry_equiv_pos_site_id
 _symmetry_equiv_pos_as_xyz
  1  'x, y, z'
loop_
 _atom_site_type_symbol
 _atom_site_label
 _atom_site_symmetry_multiplicity
 _atom_site_fract_x
 _atom_site_fract_y
 _atom_site_fract_z
 _atom_site_occupancy
  Cu  Cu0  1  0.000004  0.000001  0.000002  1
  Ni  Ni1  1  0.999982  0.000018  0.663665  1
  Ni  Ni2  1  0.384424  0.846752  0.384427  1
  Ni  Ni3  1  0.663571  0.336400  0.999996  1
  Ni  Ni4  1  0.000010  0.336456  0.663495  1
  Ni  Ni5  1  0.663563  0.000006  0.999975  1
  Ni  Ni6  1  0.000028  0.999979  0.336338  1
  Ni  Ni7  1  0.663738  0.999982  0.336278  1
  Ni  Ni8  1  0.000027  0.336287  0.000010  1
  Ni  Ni9  1  0.999987  0.663529  0.336520  1
  Ni  Ni10  1  0.336449  0.999988  0.000033  1
  Ni  Ni11  1  0.999961  0.663713  0.999990  1
  Ni  Ni12  1  0.336255  0.000032  0.663720  1
  Ni  Ni13  1  0.384390  0.384349  0.384390  1
  Ni  Ni14  1  0.336443  0.663588  0.000010  1
  Ni  Ni15  1  0.615571  0.153246  0.615565  1
  Ni  Ni16  1  0.384352  0.384392  0.846864  1
  Ni  Ni17  1  0.846821  0.384405  0.384359  1
  Ni  Ni18  1  0.615608  0.615655  0.615605  1
  Ni  Ni19  1  0.153180  0.615602  0.615628  1
  Ni  Ni20  1  0.615643  0.615608  0.153136  1
  B  B21  1  0.728183  0.728181  0.271818  1
  B  B22  1  0.728232  0.271762  0.728247  1
  B  B23  1  0.271762  0.728252  0.271749  1
  B  B24  1  0.728140  0.271856  0.271855  1
  B  B25  1  0.271854  0.728139  0.728148  1
  B  B26  1  0.271827  0.271812  0.728182  1
  Sb  Sb27  1  0.249995  0.250030  0.249988  1
  Sb  Sb28  1  0.749999  0.749979  0.750010  1
