# generated using pymatgen
data_Pr3Nd2SnBi2Br
_symmetry_space_group_name_H-M   'P 1'
_cell_length_a   9.73100700
_cell_length_b   9.63661021
_cell_length_c   6.75569700
_cell_angle_alpha   90.00000000
_cell_angle_beta   90.00000000
_cell_angle_gamma   120.32456629
_symmetry_Int_Tables_number   1
_chemical_formula_structural   Pr3Nd2SnBi2Br
_chemical_formula_sum   'Pr6 Nd4 Sn2 Bi4 Br2'
_cell_volume   546.83106855
_cell_formula_units_Z   2
loop_
 _symmetry_equiv_pos_site_id
 _symmetry_equiv_pos_as_xyz
  1  'x, y, z'
loop_
 _atom_site_type_symbol
 _atom_site_label
 _atom_site_symmetry_multiplicity
 _atom_site_fract_x
 _atom_site_fract_y
 _atom_site_fract_z
 _atom_site_occupancy
  Pr  Pr0  1  0.275353  0.000000  0.750000  1
  Pr  Pr1  1  0.724647  0.000000  0.250000  1
  Pr  Pr2  1  0.995274  0.267042  0.750000  1
  Pr  Pr3  1  0.004726  0.732958  0.250000  1
  Pr  Pr4  1  0.728232  0.732958  0.750000  1
  Pr  Pr5  1  0.271768  0.267042  0.250000  1
  Nd  Nd6  1  0.335781  0.671563  0.500000  1
  Nd  Nd7  1  0.664219  0.328437  0.500000  1
  Nd  Nd8  1  0.664219  0.328437  0.000000  1
  Nd  Nd9  1  0.335781  0.671563  0.000000  1
  Sn  Sn10  1  0.613346  0.000000  0.750000  1
  Sn  Sn11  1  0.386654  0.000000  0.250000  1
  Bi  Bi12  1  0.998937  0.614941  0.750000  1
  Bi  Bi13  1  0.001063  0.385059  0.250000  1
  Bi  Bi14  1  0.383996  0.385059  0.750000  1
  Bi  Bi15  1  0.616004  0.614941  0.250000  1
  Br  Br16  1  0.000000  0.000000  0.500000  1
  Br  Br17  1  0.000000  0.000000  0.000000  1
