# generated using pymatgen
data_Dy5Th3(Si3Pd)4
_symmetry_space_group_name_H-M   'P 1'
_cell_length_a   8.26594400
_cell_length_b   8.26594484
_cell_length_c   8.30456000
_cell_angle_alpha   90.00000000
_cell_angle_beta   90.00000000
_cell_angle_gamma   119.96410583
_symmetry_Int_Tables_number   1
_chemical_formula_structural   Dy5Th3(Si3Pd)4
_chemical_formula_sum   'Dy5 Th3 Si12 Pd4'
_cell_volume   491.57432120
_cell_formula_units_Z   1
loop_
 _symmetry_equiv_pos_site_id
 _symmetry_equiv_pos_as_xyz
  1  'x, y, z'
loop_
 _atom_site_type_symbol
 _atom_site_label
 _atom_site_symmetry_multiplicity
 _atom_site_fract_x
 _atom_site_fract_y
 _atom_site_fract_z
 _atom_site_occupancy
  Dy  Dy0  1  0.499847  0.500153  0.750000  1
  Dy  Dy1  1  0.000309  0.500157  0.750000  1
  Dy  Dy2  1  0.999756  0.499866  0.250000  1
  Dy  Dy3  1  0.499843  0.999691  0.750000  1
  Dy  Dy4  1  0.500134  0.000244  0.250000  1
  Th  Th5  1  0.500120  0.499880  0.250000  1
  Th  Th6  1  0.999996  0.000004  0.750000  1
  Th  Th7  1  0.000006  0.999994  0.250000  1
  Si  Si8  1  0.832627  0.167373  0.000662  1
  Si  Si9  1  0.167369  0.832631  0.001033  1
  Si  Si10  1  0.332541  0.165441  0.998870  1
  Si  Si11  1  0.167369  0.832631  0.498967  1
  Si  Si12  1  0.667464  0.834560  0.999231  1
  Si  Si13  1  0.832627  0.167373  0.499338  1
  Si  Si14  1  0.834559  0.667459  0.998870  1
  Si  Si15  1  0.667464  0.834560  0.500769  1
  Si  Si16  1  0.165440  0.332536  0.999231  1
  Si  Si17  1  0.332541  0.165441  0.501130  1
  Si  Si18  1  0.165440  0.332536  0.500769  1
  Si  Si19  1  0.834559  0.667459  0.501130  1
  Pd  Pd20  1  0.666662  0.333338  0.998472  1
  Pd  Pd21  1  0.333332  0.666668  0.998935  1
  Pd  Pd22  1  0.333332  0.666668  0.501065  1
  Pd  Pd23  1  0.666662  0.333338  0.501528  1
