# generated using pymatgen
data_Ho5Er3(Sc3Si4)4
_symmetry_space_group_name_H-M   'P 1'
_cell_length_a   7.07624008
_cell_length_b   7.36448604
_cell_length_c   13.95997316
_cell_angle_alpha   89.99036523
_cell_angle_beta   90.01472764
_cell_angle_gamma   90.00795179
_symmetry_Int_Tables_number   1
_chemical_formula_structural   Ho5Er3(Sc3Si4)4
_chemical_formula_sum   'Ho5 Er3 Sc12 Si16'
_cell_volume   727.49424325
_cell_formula_units_Z   1
loop_
 _symmetry_equiv_pos_site_id
 _symmetry_equiv_pos_as_xyz
  1  'x, y, z'
loop_
 _atom_site_type_symbol
 _atom_site_label
 _atom_site_symmetry_multiplicity
 _atom_site_fract_x
 _atom_site_fract_y
 _atom_site_fract_z
 _atom_site_occupancy
  Ho  Ho0  1  0.011978  0.175271  0.096927  1
  Ho  Ho1  1  0.988022  0.824755  0.903051  1
  Ho  Ho2  1  0.488009  0.675251  0.903148  1
  Ho  Ho3  1  0.987975  0.824697  0.596788  1
  Ho  Ho4  1  0.511994  0.324748  0.096919  1
  Er  Er5  1  0.012109  0.175397  0.402997  1
  Er  Er6  1  0.512003  0.324606  0.403023  1
  Er  Er7  1  0.488018  0.675320  0.596899  1
  Sc  Sc8  1  0.160807  0.503179  0.749962  1
  Sc  Sc9  1  0.839251  0.496794  0.250078  1
  Sc  Sc10  1  0.339236  0.003233  0.250092  1
  Sc  Sc11  1  0.660726  0.996815  0.749949  1
  Sc  Sc12  1  0.330418  0.176958  0.624894  1
  Sc  Sc13  1  0.669580  0.823116  0.375071  1
  Sc  Sc14  1  0.169687  0.676810  0.375082  1
  Sc  Sc15  1  0.669634  0.823172  0.125017  1
  Sc  Sc16  1  0.830323  0.323178  0.624887  1
  Sc  Sc17  1  0.330351  0.176820  0.875039  1
  Sc  Sc18  1  0.830337  0.323188  0.875034  1
  Sc  Sc19  1  0.169667  0.676843  0.125010  1
  Si  Si20  1  0.033096  0.116797  0.749948  1
  Si  Si21  1  0.966998  0.883384  0.250128  1
  Si  Si22  1  0.467006  0.616589  0.250120  1
  Si  Si23  1  0.533054  0.383462  0.749878  1
  Si  Si24  1  0.285499  0.872886  0.749847  1
  Si  Si25  1  0.714705  0.127234  0.250308  1
  Si  Si26  1  0.214684  0.372753  0.250312  1
  Si  Si27  1  0.785078  0.626994  0.749840  1
  Si  Si28  1  0.158616  0.464848  0.539358  1
  Si  Si29  1  0.841430  0.534633  0.460440  1
  Si  Si30  1  0.341659  0.965153  0.460489  1
  Si  Si31  1  0.841861  0.535133  0.039455  1
  Si  Si32  1  0.658037  0.035084  0.539380  1
  Si  Si33  1  0.158107  0.464901  0.960578  1
  Si  Si34  1  0.658189  0.035094  0.960588  1
  Si  Si35  1  0.341856  0.964905  0.039463  1
