# generated using pymatgen
data_TbErLu2(WO6)2
_symmetry_space_group_name_H-M   'P 1'
_cell_length_a   5.35917000
_cell_length_b   7.64161201
_cell_length_c   11.34618708
_cell_angle_alpha   75.39223596
_cell_angle_beta   90.00000000
_cell_angle_gamma   90.00000000
_symmetry_Int_Tables_number   1
_chemical_formula_structural   TbErLu2(WO6)2
_chemical_formula_sum   'Tb2 Er2 Lu4 W4 O24'
_cell_volume   449.63693649
_cell_formula_units_Z   2
loop_
 _symmetry_equiv_pos_site_id
 _symmetry_equiv_pos_as_xyz
  1  'x, y, z'
loop_
 _atom_site_type_symbol
 _atom_site_label
 _atom_site_symmetry_multiplicity
 _atom_site_fract_x
 _atom_site_fract_y
 _atom_site_fract_z
 _atom_site_occupancy
  Tb  Tb0  1  0.315229  0.500000  0.750000  1
  Tb  Tb1  1  0.684771  0.500000  0.250000  1
  Er  Er2  1  0.256838  0.000000  0.750000  1
  Er  Er3  1  0.743162  0.000000  0.250000  1
  Lu  Lu4  1  0.182573  0.794299  0.078948  1
  Lu  Lu5  1  0.182573  0.205701  0.421052  1
  Lu  Lu6  1  0.817427  0.205701  0.921052  1
  Lu  Lu7  1  0.817427  0.794299  0.578948  1
  W  W8  1  0.743567  0.724865  0.885687  1
  W  W9  1  0.256433  0.724865  0.385687  1
  W  W10  1  0.743567  0.275135  0.614313  1
  W  W11  1  0.256433  0.275135  0.114313  1
  O  O12  1  0.541698  0.156452  0.067787  1
  O  O13  1  0.046233  0.057508  0.103178  1
  O  O14  1  0.018387  0.714535  0.769716  1
  O  O15  1  0.458302  0.156452  0.567787  1
  O  O16  1  0.355819  0.488011  0.386553  1
  O  O17  1  0.953767  0.057508  0.603178  1
  O  O18  1  0.543486  0.794130  0.724902  1
  O  O19  1  0.456514  0.794130  0.224902  1
  O  O20  1  0.145702  0.635866  0.549501  1
  O  O21  1  0.046233  0.942492  0.396822  1
  O  O22  1  0.458302  0.843548  0.932213  1
  O  O23  1  0.456514  0.205870  0.275098  1
  O  O24  1  0.854298  0.364134  0.450499  1
  O  O25  1  0.644181  0.488011  0.886553  1
  O  O26  1  0.355819  0.511989  0.113447  1
  O  O27  1  0.953767  0.942492  0.896822  1
  O  O28  1  0.541698  0.843548  0.432213  1
  O  O29  1  0.981613  0.285465  0.230284  1
  O  O30  1  0.543486  0.205870  0.775098  1
  O  O31  1  0.854298  0.635866  0.049501  1
  O  O32  1  0.018387  0.285465  0.730284  1
  O  O33  1  0.145702  0.364134  0.950499  1
  O  O34  1  0.981613  0.714535  0.269716  1
  O  O35  1  0.644181  0.511989  0.613447  1
