# generated using pymatgen
data_Y5RuAu2
_symmetry_space_group_name_H-M   'P 1'
_cell_length_a   11.31760000
_cell_length_b   11.31760000
_cell_length_c   6.39018000
_cell_angle_alpha   90.00000000
_cell_angle_beta   90.00000000
_cell_angle_gamma   90.00000000
_symmetry_Int_Tables_number   1
_chemical_formula_structural   Y5RuAu2
_chemical_formula_sum   'Y20 Ru4 Au8'
_cell_volume   818.50582162
_cell_formula_units_Z   4
loop_
 _symmetry_equiv_pos_site_id
 _symmetry_equiv_pos_as_xyz
  1  'x, y, z'
loop_
 _atom_site_type_symbol
 _atom_site_label
 _atom_site_symmetry_multiplicity
 _atom_site_fract_x
 _atom_site_fract_y
 _atom_site_fract_z
 _atom_site_occupancy
  Y  Y0  1  0.299641  0.082349  0.348501  1
  Y  Y1  1  0.299641  0.917651  0.848501  1
  Y  Y2  1  0.700359  0.082349  0.848501  1
  Y  Y3  1  0.700359  0.917651  0.348501  1
  Y  Y4  1  0.582349  0.799641  0.848501  1
  Y  Y5  1  0.582349  0.200359  0.348501  1
  Y  Y6  1  0.417651  0.799641  0.348501  1
  Y  Y7  1  0.417651  0.200359  0.848501  1
  Y  Y8  1  0.200359  0.417651  0.651499  1
  Y  Y9  1  0.200359  0.582349  0.151499  1
  Y  Y10  1  0.799641  0.417651  0.151499  1
  Y  Y11  1  0.799641  0.582349  0.651499  1
  Y  Y12  1  0.917651  0.700359  0.151499  1
  Y  Y13  1  0.917651  0.299641  0.651499  1
  Y  Y14  1  0.082349  0.700359  0.651499  1
  Y  Y15  1  0.082349  0.299641  0.151499  1
  Y  Y16  1  0.000000  0.000000  0.500000  1
  Y  Y17  1  0.000000  0.000000  0.000000  1
  Y  Y18  1  0.500000  0.500000  0.000000  1
  Y  Y19  1  0.500000  0.500000  0.500000  1
  Ru  Ru20  1  0.500000  0.000000  0.098303  1
  Ru  Ru21  1  0.500000  0.000000  0.598303  1
  Ru  Ru22  1  0.000000  0.500000  0.901697  1
  Ru  Ru23  1  0.000000  0.500000  0.401697  1
  Au  Au24  1  0.843377  0.156623  0.250000  1
  Au  Au25  1  0.843377  0.843377  0.750000  1
  Au  Au26  1  0.156623  0.156623  0.750000  1
  Au  Au27  1  0.156623  0.843377  0.250000  1
  Au  Au28  1  0.656623  0.343377  0.750000  1
  Au  Au29  1  0.656623  0.656623  0.250000  1
  Au  Au30  1  0.343377  0.343377  0.250000  1
  Au  Au31  1  0.343377  0.656623  0.750000  1
