# generated using pymatgen
data_Sr3Pr(Ga5Pt3)4
_symmetry_space_group_name_H-M   'P 1'
_cell_length_a   4.15888600
_cell_length_b   7.51517900
_cell_length_c   21.21969800
_cell_angle_alpha   90.00043758
_cell_angle_beta   90.00000000
_cell_angle_gamma   90.00000000
_symmetry_Int_Tables_number   1
_chemical_formula_structural   Sr3Pr(Ga5Pt3)4
_chemical_formula_sum   'Sr3 Pr1 Ga20 Pt12'
_cell_volume   663.21683839
_cell_formula_units_Z   1
loop_
 _symmetry_equiv_pos_site_id
 _symmetry_equiv_pos_as_xyz
  1  'x, y, z'
loop_
 _atom_site_type_symbol
 _atom_site_label
 _atom_site_symmetry_multiplicity
 _atom_site_fract_x
 _atom_site_fract_y
 _atom_site_fract_z
 _atom_site_occupancy
  Sr  Sr0  1  0.250000  0.118006  0.640858  1
  Sr  Sr1  1  0.750000  0.882692  0.359335  1
  Sr  Sr2  1  0.250000  0.381530  0.140461  1
  Pr  Pr3  1  0.750000  0.614417  0.858397  1
  Ga  Ga4  1  0.750000  0.347621  0.383781  1
  Ga  Ga5  1  0.750000  0.885425  0.981610  1
  Ga  Ga6  1  0.750000  0.683699  0.198900  1
  Ga  Ga7  1  0.250000  0.871702  0.490674  1
  Ga  Ga8  1  0.250000  0.628906  0.989604  1
  Ga  Ga9  1  0.250000  0.318546  0.800817  1
  Ga  Ga10  1  0.750000  0.078717  0.205741  1
  Ga  Ga11  1  0.250000  0.652055  0.617693  1
  Ga  Ga12  1  0.250000  0.578047  0.294163  1
  Ga  Ga13  1  0.250000  0.182386  0.300647  1
  Ga  Ga14  1  0.750000  0.152992  0.884456  1
  Ga  Ga15  1  0.250000  0.920103  0.793675  1
  Ga  Ga16  1  0.750000  0.369788  0.010195  1
  Ga  Ga17  1  0.750000  0.615258  0.482293  1
  Ga  Ga18  1  0.750000  0.129002  0.510190  1
  Ga  Ga19  1  0.250000  0.116265  0.016650  1
  Ga  Ga20  1  0.250000  0.849713  0.115733  1
  Ga  Ga21  1  0.250000  0.384455  0.518139  1
  Ga  Ga22  1  0.750000  0.422040  0.706509  1
  Ga  Ga23  1  0.750000  0.817741  0.700104  1
  Pt  Pt24  1  0.750000  0.384578  0.264024  1
  Pt  Pt25  1  0.250000  0.883192  0.235896  1
  Pt  Pt26  1  0.250000  0.615505  0.737814  1
  Pt  Pt27  1  0.750000  0.116840  0.765085  1
  Pt  Pt28  1  0.250000  0.167971  0.427189  1
  Pt  Pt29  1  0.750000  0.428929  0.584661  1
  Pt  Pt30  1  0.750000  0.070546  0.084541  1
  Pt  Pt31  1  0.250000  0.925105  0.914068  1
  Pt  Pt32  1  0.750000  0.831901  0.572633  1
  Pt  Pt33  1  0.250000  0.335867  0.926132  1
  Pt  Pt34  1  0.750000  0.667160  0.071873  1
  Pt  Pt35  1  0.250000  0.571299  0.415459  1
