# generated using pymatgen
data_Ac3Mg3CuRuAu
_symmetry_space_group_name_H-M   'P 1'
_cell_length_a   7.82150700
_cell_length_b   7.82150883
_cell_length_c   4.39426900
_cell_angle_alpha   90.00000000
_cell_angle_beta   90.00000000
_cell_angle_gamma   120.00001229
_symmetry_Int_Tables_number   1
_chemical_formula_structural   Ac3Mg3CuRuAu
_chemical_formula_sum   'Ac3 Mg3 Cu1 Ru1 Au1'
_cell_volume   232.80815824
_cell_formula_units_Z   1
loop_
 _symmetry_equiv_pos_site_id
 _symmetry_equiv_pos_as_xyz
  1  'x, y, z'
loop_
 _atom_site_type_symbol
 _atom_site_label
 _atom_site_symmetry_multiplicity
 _atom_site_fract_x
 _atom_site_fract_y
 _atom_site_fract_z
 _atom_site_occupancy
  Ac  Ac0  1  0.575776  0.981729  0.000000  1
  Ac  Ac1  1  0.018271  0.594046  0.000000  1
  Ac  Ac2  1  0.405954  0.424224  0.000000  1
  Mg  Mg3  1  0.230932  0.997673  0.500000  1
  Mg  Mg4  1  0.002327  0.233260  0.500000  1
  Mg  Mg5  1  0.766740  0.769068  0.500000  1
  Cu  Cu6  1  0.000000  0.000000  0.000000  1
  Ru  Ru7  1  0.333333  0.666667  0.500000  1
  Au  Au8  1  0.666667  0.333333  0.500000  1
