# generated using pymatgen
data_PrPa(Si2Pd7)3
_symmetry_space_group_name_H-M   'P 1'
_cell_length_a   8.72135100
_cell_length_b   8.72063242
_cell_length_c   8.72030500
_cell_angle_alpha   60.00703406
_cell_angle_beta   60.00208232
_cell_angle_gamma   59.99530649
_symmetry_Int_Tables_number   1
_chemical_formula_structural   PrPa(Si2Pd7)3
_chemical_formula_sum   'Pr1 Pa1 Si6 Pd21'
_cell_volume   468.98929610
_cell_formula_units_Z   1
loop_
 _symmetry_equiv_pos_site_id
 _symmetry_equiv_pos_as_xyz
  1  'x, y, z'
loop_
 _atom_site_type_symbol
 _atom_site_label
 _atom_site_symmetry_multiplicity
 _atom_site_fract_x
 _atom_site_fract_y
 _atom_site_fract_z
 _atom_site_occupancy
  Pr  Pr0  1  0.750042  0.750023  0.749981  1
  Pa  Pa1  1  0.249917  0.249993  0.249993  1
  Si  Si2  1  0.737368  0.737314  0.262651  1
  Si  Si3  1  0.262709  0.737276  0.262729  1
  Si  Si4  1  0.737338  0.262691  0.262685  1
  Si  Si5  1  0.262663  0.262699  0.737332  1
  Si  Si6  1  0.737316  0.262693  0.737294  1
  Si  Si7  1  0.262668  0.737295  0.737328  1
  Pd  Pd8  1  0.999975  0.999980  0.000019  1
  Pd  Pd9  1  0.611944  0.611986  0.164038  1
  Pd  Pd10  1  0.612023  0.164094  0.611956  1
  Pd  Pd11  1  0.164136  0.612009  0.611901  1
  Pd  Pd12  1  0.612004  0.611966  0.612043  1
  Pd  Pd13  1  0.380187  0.380179  0.859419  1
  Pd  Pd14  1  0.380259  0.859425  0.380162  1
  Pd  Pd15  1  0.859382  0.380273  0.380184  1
  Pd  Pd16  1  0.380152  0.380154  0.380195  1
  Pd  Pd17  1  0.004170  0.004096  0.341366  1
  Pd  Pd18  1  0.650396  0.004118  0.341388  1
  Pd  Pd19  1  0.004200  0.650353  0.341375  1
  Pd  Pd20  1  0.650394  0.341403  0.004074  1
  Pd  Pd21  1  0.004134  0.341332  0.004182  1
  Pd  Pd22  1  0.004074  0.341362  0.650357  1
  Pd  Pd23  1  0.341359  0.650311  0.004194  1
  Pd  Pd24  1  0.341309  0.004165  0.650319  1
  Pd  Pd25  1  0.341318  0.004147  0.004288  1
  Pd  Pd26  1  0.004056  0.004105  0.650441  1
  Pd  Pd27  1  0.004112  0.650419  0.004078  1
  Pd  Pd28  1  0.650400  0.004141  0.004030  1
