# generated using pymatgen
data_HoSc7(Ta3Si4)4
_symmetry_space_group_name_H-M   'P 1'
_cell_length_a   6.91988054
_cell_length_b   6.92239043
_cell_length_c   12.71999914
_cell_angle_alpha   89.89834952
_cell_angle_beta   90.01828452
_cell_angle_gamma   89.97574422
_symmetry_Int_Tables_number   1
_chemical_formula_structural   HoSc7(Ta3Si4)4
_chemical_formula_sum   'Ho1 Sc7 Ta12 Si16'
_cell_volume   609.31381512
_cell_formula_units_Z   1
loop_
 _symmetry_equiv_pos_site_id
 _symmetry_equiv_pos_as_xyz
  1  'x, y, z'
loop_
 _atom_site_type_symbol
 _atom_site_label
 _atom_site_symmetry_multiplicity
 _atom_site_fract_x
 _atom_site_fract_y
 _atom_site_fract_z
 _atom_site_occupancy
  Ho  Ho0  1  0.994916  0.659217  0.031425  1
  Sc  Sc1  1  0.342529  0.001308  0.469093  1
  Sc  Sc2  1  0.498786  0.842668  0.717982  1
  Sc  Sc3  1  0.500176  0.158087  0.220017  1
  Sc  Sc4  1  0.842883  0.499276  0.282130  1
  Sc  Sc5  1  0.157862  0.500283  0.780790  1
  Sc  Sc6  1  0.655776  0.999984  0.967722  1
  Sc  Sc7  1  0.001129  0.343056  0.531147  1
  Ta  Ta8  1  0.328567  0.326665  0.999703  1
  Ta  Ta9  1  0.172619  0.829079  0.251095  1
  Ta  Ta10  1  0.827914  0.171771  0.748929  1
  Ta  Ta11  1  0.672348  0.672188  0.500185  1
  Ta  Ta12  1  0.151566  0.004528  0.872236  1
  Ta  Ta13  1  0.495180  0.649861  0.124245  1
  Ta  Ta14  1  0.505944  0.350432  0.623180  1
  Ta  Ta15  1  0.649806  0.491691  0.874954  1
  Ta  Ta16  1  0.350695  0.506001  0.377290  1
  Ta  Ta17  1  0.850486  0.995069  0.374930  1
  Ta  Ta18  1  0.006968  0.150521  0.126796  1
  Ta  Ta19  1  0.994249  0.850775  0.625584  1
  Si  Si20  1  0.204763  0.140376  0.677334  1
  Si  Si21  1  0.364103  0.704965  0.927064  1
  Si  Si22  1  0.640497  0.295427  0.428193  1
  Si  Si23  1  0.701632  0.356396  0.071371  1
  Si  Si24  1  0.295091  0.640342  0.572107  1
  Si  Si25  1  0.791504  0.865094  0.181487  1
  Si  Si26  1  0.140192  0.204808  0.322806  1
  Si  Si27  1  0.858809  0.796161  0.819757  1
  Si  Si28  1  0.302867  0.955774  0.064225  1
  Si  Si29  1  0.544496  0.801559  0.315009  1
  Si  Si30  1  0.454069  0.198893  0.813023  1
  Si  Si31  1  0.801366  0.545253  0.685434  1
  Si  Si32  1  0.202203  0.452680  0.187979  1
  Si  Si33  1  0.698476  0.045662  0.563922  1
  Si  Si34  1  0.953872  0.294876  0.934733  1
  Si  Si35  1  0.045658  0.699267  0.436124  1
