# generated using pymatgen
data_Dy2Ho10Ga2Ni3Os
_symmetry_space_group_name_H-M   'P 1'
_cell_length_a   8.30452871
_cell_length_b   8.30223364
_cell_length_c   8.30263610
_cell_angle_alpha   112.72500393
_cell_angle_beta   109.61209925
_cell_angle_gamma   106.13151204
_symmetry_Int_Tables_number   1
_chemical_formula_structural   Dy2Ho10Ga2Ni3Os
_chemical_formula_sum   'Dy2 Ho10 Ga2 Ni3 Os1'
_cell_volume   439.26849592
_cell_formula_units_Z   1
loop_
 _symmetry_equiv_pos_site_id
 _symmetry_equiv_pos_as_xyz
  1  'x, y, z'
loop_
 _atom_site_type_symbol
 _atom_site_label
 _atom_site_symmetry_multiplicity
 _atom_site_fract_x
 _atom_site_fract_y
 _atom_site_fract_z
 _atom_site_occupancy
  Dy  Dy0  1  0.438737  0.246291  0.192428  1
  Dy  Dy1  1  0.570883  0.765402  0.805511  1
  Ho  Ho2  1  0.039975  0.234561  0.805448  1
  Ho  Ho3  1  0.946454  0.753832  0.192608  1
  Ho  Ho4  1  0.184514  0.276670  0.461460  1
  Ho  Ho5  1  0.825456  0.721484  0.546672  1
  Ho  Ho6  1  0.184541  0.723025  0.907838  1
  Ho  Ho7  1  0.825431  0.278779  0.103934  1
  Ho  Ho8  1  0.325284  0.637436  0.307915  1
  Ho  Ho9  1  0.670829  0.362567  0.688230  1
  Ho  Ho10  1  0.325296  0.017382  0.687863  1
  Ho  Ho11  1  0.670817  0.982607  0.308265  1
  Ga  Ga12  1  0.496638  0.500062  0.996594  1
  Ga  Ga13  1  0.009214  0.999971  0.009248  1
  Ni  Ni14  1  0.653513  0.000136  0.653378  1
  Ni  Ni15  1  0.117447  0.617434  0.500008  1
  Ni  Ni16  1  0.882752  0.382518  0.500213  1
  Os  Os17  1  0.332217  0.999845  0.332387  1
