# generated using pymatgen
data_Rb4Sr2HfSb4
_symmetry_space_group_name_H-M   'P 1'
_cell_length_a   11.34946965
_cell_length_b   11.34946975
_cell_length_c   8.39910696
_cell_angle_alpha   87.75005540
_cell_angle_beta   87.75005523
_cell_angle_gamma   119.22920780
_symmetry_Int_Tables_number   1
_chemical_formula_structural   Rb4Sr2HfSb4
_chemical_formula_sum   'Rb8 Sr4 Hf2 Sb8'
_cell_volume   941.29086938
_cell_formula_units_Z   2
loop_
 _symmetry_equiv_pos_site_id
 _symmetry_equiv_pos_as_xyz
  1  'x, y, z'
loop_
 _atom_site_type_symbol
 _atom_site_label
 _atom_site_symmetry_multiplicity
 _atom_site_fract_x
 _atom_site_fract_y
 _atom_site_fract_z
 _atom_site_occupancy
  Rb  Rb0  1  0.052140  0.522672  0.619798  1
  Rb  Rb1  1  0.522672  0.052140  0.119798  1
  Rb  Rb2  1  0.281362  0.136142  0.841204  1
  Rb  Rb3  1  0.872605  0.731818  0.772226  1
  Rb  Rb4  1  0.858947  0.145593  0.813962  1
  Rb  Rb5  1  0.731818  0.872605  0.272226  1
  Rb  Rb6  1  0.136142  0.281362  0.341204  1
  Rb  Rb7  1  0.145593  0.858947  0.313962  1
  Sr  Sr8  1  0.469127  0.930301  0.613168  1
  Sr  Sr9  1  0.473724  0.524438  0.628649  1
  Sr  Sr10  1  0.930301  0.469127  0.113168  1
  Sr  Sr11  1  0.524438  0.473724  0.128649  1
  Hf  Hf12  1  0.662948  0.335233  0.513091  1
  Hf  Hf13  1  0.335233  0.662948  0.013091  1
  Sb  Sb14  1  0.599111  0.789061  0.866212  1
  Sb  Sb15  1  0.203970  0.394706  0.926380  1
  Sb  Sb16  1  0.194224  0.790887  0.902930  1
  Sb  Sb17  1  0.394706  0.203970  0.426380  1
  Sb  Sb18  1  0.789061  0.599111  0.366212  1
  Sb  Sb19  1  0.790887  0.194224  0.402930  1
  Sb  Sb20  1  0.669988  0.360562  0.848013  1
  Sb  Sb21  1  0.360562  0.669988  0.348013  1
