# generated using pymatgen
data_Yb12Al8Ge11PtO48
_symmetry_space_group_name_H-M   'P 1'
_cell_length_a   10.49919955
_cell_length_b   10.49913603
_cell_length_c   10.49920200
_cell_angle_alpha   109.41584251
_cell_angle_beta   109.58208401
_cell_angle_gamma   109.41608660
_symmetry_Int_Tables_number   1
_chemical_formula_structural   Yb12Al8Ge11PtO48
_chemical_formula_sum   'Yb12 Al8 Ge11 Pt1 O48'
_cell_volume   890.92543560
_cell_formula_units_Z   1
loop_
 _symmetry_equiv_pos_site_id
 _symmetry_equiv_pos_as_xyz
  1  'x, y, z'
loop_
 _atom_site_type_symbol
 _atom_site_label
 _atom_site_symmetry_multiplicity
 _atom_site_fract_x
 _atom_site_fract_y
 _atom_site_fract_z
 _atom_site_occupancy
  Yb  Yb0  1  0.383018  0.750031  0.132992  1
  Yb  Yb1  1  0.250921  0.374881  0.125851  1
  Yb  Yb2  1  0.375900  0.123700  0.251496  1
  Yb  Yb3  1  0.874222  0.624449  0.248316  1
  Yb  Yb4  1  0.750984  0.125130  0.376037  1
  Yb  Yb5  1  0.125260  0.250044  0.375266  1
  Yb  Yb6  1  0.866957  0.749911  0.616838  1
  Yb  Yb7  1  0.247275  0.875004  0.624396  1
  Yb  Yb8  1  0.127803  0.376272  0.752176  1
  Yb  Yb9  1  0.623895  0.875534  0.749768  1
  Yb  Yb10  1  0.749259  0.624935  0.872221  1
  Yb  Yb11  1  0.624667  0.249983  0.874679  1
  Al  Al12  1  0.997484  0.001935  0.997933  1
  Al  Al13  1  0.504045  0.000339  0.002746  1
  Al  Al14  1  0.002414  0.499623  0.003689  1
  Al  Al15  1  0.501272  0.499271  0.998971  1
  Al  Al16  1  0.000777  0.001689  0.500008  1
  Al  Al17  1  0.498316  0.498310  0.499074  1
  Al  Al18  1  0.996045  0.498157  0.495663  1
  Al  Al19  1  0.499707  0.000733  0.502024  1
  Ge  Ge20  1  0.874949  0.250017  0.124972  1
  Ge  Ge21  1  0.754326  0.875201  0.126538  1
  Ge  Ge22  1  0.621085  0.372260  0.245754  1
  Ge  Ge23  1  0.125580  0.874106  0.249429  1
  Ge  Ge24  1  0.251312  0.624817  0.379131  1
  Ge  Ge25  1  0.624983  0.750011  0.374983  1
  Ge  Ge26  1  0.750670  0.376153  0.624517  1
  Ge  Ge27  1  0.375047  0.249994  0.625037  1
  Ge  Ge28  1  0.873497  0.127739  0.748812  1
  Ge  Ge29  1  0.375312  0.625917  0.751479  1
  Ge  Ge30  1  0.248356  0.123831  0.874500  1
  Pt  Pt31  1  0.124778  0.749971  0.875185  1
  O  O32  1  0.196376  0.113087  0.017120  1
  O  O33  1  0.341352  0.902010  0.040837  1
  O  O34  1  0.700739  0.679325  0.081484  1
  O  O35  1  0.883442  0.401683  0.081357  1
  O  O36  1  0.614416  0.415006  0.093773  1
  O  O37  1  0.983235  0.679497  0.095516  1
  O  O38  1  0.018319  0.198511  0.116557  1
  O  O39  1  0.604371  0.919653  0.118505  1
  O  O40  1  0.198859  0.580361  0.184703  1
  O  O41  1  0.484993  0.595732  0.180510  1
  O  O42  1  0.114836  0.014166  0.192809  1
  O  O43  1  0.582493  0.179074  0.198205  1
  O  O44  1  0.321432  0.918682  0.306294  1
  O  O45  1  0.479074  0.381458  0.299539  1
  O  O46  1  0.918044  0.301516  0.319842  1
  O  O47  1  0.906020  0.020445  0.321301  1
  O  O48  1  0.584792  0.904286  0.389285  1
  O  O49  1  0.300882  0.479592  0.385571  1
  O  O50  1  0.815525  0.514147  0.395342  1
  O  O51  1  0.080829  0.883506  0.400671  1
  O  O52  1  0.819159  0.803943  0.414656  1
  O  O53  1  0.096404  0.615166  0.417283  1
  O  O54  1  0.383043  0.300243  0.480786  1
  O  O55  1  0.599007  0.180251  0.483242  1
  O  O56  1  0.402152  0.820673  0.521418  1
  O  O57  1  0.610759  0.696046  0.515220  1
  O  O58  1  0.904024  0.386913  0.583299  1
  O  O59  1  0.180571  0.199769  0.582814  1
  O  O60  1  0.918086  0.118521  0.597612  1
  O  O61  1  0.178674  0.485816  0.600645  1
  O  O62  1  0.416872  0.097509  0.617266  1
  O  O63  1  0.694088  0.515417  0.612331  1
  O  O64  1  0.096902  0.984554  0.678652  1
  O  O65  1  0.060536  0.699134  0.658659  1
  O  O66  1  0.678785  0.085005  0.699430  1
  O  O67  1  0.517164  0.616477  0.697313  1
  O  O68  1  0.416084  0.820515  0.803728  1
  O  O69  1  0.881206  0.985873  0.801406  1
  O  O70  1  0.519756  0.402498  0.819359  1
  O  O71  1  0.807657  0.422260  0.821331  1
  O  O72  1  0.399083  0.077772  0.885403  1
  O  O73  1  0.959377  0.800899  0.861213  1
  O  O74  1  0.387612  0.581315  0.902744  1
  O  O75  1  0.019150  0.320926  0.903423  1
  O  O76  1  0.302980  0.319749  0.918754  1
  O  O77  1  0.138904  0.597915  0.939273  1
  O  O78  1  0.679703  0.098328  0.981783  1
  O  O79  1  0.802118  0.884820  0.981257  1
