# generated using pymatgen
data_Pr5HoU2O14
_symmetry_space_group_name_H-M   'P 1'
_cell_length_a   6.74670315
_cell_length_b   6.78173907
_cell_length_c   7.95790100
_cell_angle_alpha   106.87440021
_cell_angle_beta   89.85652056
_cell_angle_gamma   98.62054014
_symmetry_Int_Tables_number   1
_chemical_formula_structural   Pr5HoU2O14
_chemical_formula_sum   'Pr5 Ho1 U2 O14'
_cell_volume   344.17151097
_cell_formula_units_Z   1
loop_
 _symmetry_equiv_pos_site_id
 _symmetry_equiv_pos_as_xyz
  1  'x, y, z'
loop_
 _atom_site_type_symbol
 _atom_site_label
 _atom_site_symmetry_multiplicity
 _atom_site_fract_x
 _atom_site_fract_y
 _atom_site_fract_z
 _atom_site_occupancy
  Pr  Pr0  1  0.538505  0.994183  0.746309  1
  Pr  Pr1  1  0.267604  0.541091  0.885018  1
  Pr  Pr2  1  0.730442  0.461991  0.118713  1
  Pr  Pr3  1  0.738382  0.476530  0.610473  1
  Pr  Pr4  1  0.258166  0.517832  0.380980  1
  Ho  Ho5  1  0.461077  0.006635  0.253406  1
  U  U6  1  0.000640  0.000124  0.497360  1
  U  U7  1  0.000550  0.000399  0.002957  1
  O  O8  1  0.446340  0.659721  0.171681  1
  O  O9  1  0.556818  0.356418  0.834384  1
  O  O10  1  0.298683  0.925538  0.959002  1
  O  O11  1  0.703646  0.072020  0.056179  1
  O  O12  1  0.292279  0.927041  0.506142  1
  O  O13  1  0.708062  0.070553  0.477355  1
  O  O14  1  0.542257  0.351305  0.340692  1
  O  O15  1  0.448149  0.634327  0.651842  1
  O  O16  1  0.929823  0.678178  0.957749  1
  O  O17  1  0.071739  0.324612  0.046947  1
  O  O18  1  0.064824  0.338215  0.615384  1
  O  O19  1  0.929610  0.658109  0.386363  1
  O  O20  1  0.880954  0.917217  0.727111  1
  O  O21  1  0.131452  0.087960  0.273951  1
