# generated using pymatgen
data_Zr6MnCo13B4
_symmetry_space_group_name_H-M   'P 1'
_cell_length_a   4.94341106
_cell_length_b   4.94252126
_cell_length_c   13.82542809
_cell_angle_alpha   89.98668649
_cell_angle_beta   90.00781475
_cell_angle_gamma   120.03070978
_symmetry_Int_Tables_number   1
_chemical_formula_structural   Zr6MnCo13B4
_chemical_formula_sum   'Zr6 Mn1 Co13 B4'
_cell_volume   292.44890708
_cell_formula_units_Z   1
loop_
 _symmetry_equiv_pos_site_id
 _symmetry_equiv_pos_as_xyz
  1  'x, y, z'
loop_
 _atom_site_type_symbol
 _atom_site_label
 _atom_site_symmetry_multiplicity
 _atom_site_fract_x
 _atom_site_fract_y
 _atom_site_fract_z
 _atom_site_occupancy
  Zr  Zr0  1  0.333344  0.666726  0.250905  1
  Zr  Zr1  1  0.666656  0.333274  0.749095  1
  Zr  Zr2  1  0.333343  0.666646  0.036913  1
  Zr  Zr3  1  0.666651  0.333376  0.534597  1
  Zr  Zr4  1  0.666657  0.333354  0.963087  1
  Zr  Zr5  1  0.333349  0.666624  0.465403  1
  Mn  Mn6  1  0.000000  0.000000  0.000000  1
  Co  Co7  1  0.000000  0.000000  0.500000  1
  Co  Co8  1  0.833086  0.666191  0.144241  1
  Co  Co9  1  0.164975  0.834971  0.645151  1
  Co  Co10  1  0.669968  0.834953  0.645151  1
  Co  Co11  1  0.333862  0.166968  0.144233  1
  Co  Co12  1  0.833090  0.166965  0.144235  1
  Co  Co13  1  0.166914  0.333809  0.855759  1
  Co  Co14  1  0.166910  0.833035  0.855765  1
  Co  Co15  1  0.165003  0.329993  0.645155  1
  Co  Co16  1  0.666138  0.833032  0.855767  1
  Co  Co17  1  0.330032  0.165047  0.354849  1
  Co  Co18  1  0.834997  0.670007  0.354845  1
  Co  Co19  1  0.835025  0.165029  0.354849  1
  B  B20  1  0.000051  0.999979  0.248956  1
  B  B21  1  0.999949  0.000021  0.751044  1
  B  B22  1  0.333356  0.666557  0.749355  1
  B  B23  1  0.666644  0.333443  0.250645  1
