# generated using pymatgen
data_Sm6DyP12Rh17
_symmetry_space_group_name_H-M   'P 1'
_cell_length_a   3.97412100
_cell_length_b   11.30022200
_cell_length_c   12.98317300
_cell_angle_alpha   90.00000000
_cell_angle_beta   90.00000000
_cell_angle_gamma   90.00000000
_symmetry_Int_Tables_number   1
_chemical_formula_structural   Sm6DyP12Rh17
_chemical_formula_sum   'Sm6 Dy1 P12 Rh17'
_cell_volume   583.05416973
_cell_formula_units_Z   1
loop_
 _symmetry_equiv_pos_site_id
 _symmetry_equiv_pos_as_xyz
  1  'x, y, z'
loop_
 _atom_site_type_symbol
 _atom_site_label
 _atom_site_symmetry_multiplicity
 _atom_site_fract_x
 _atom_site_fract_y
 _atom_site_fract_z
 _atom_site_occupancy
  Sm  Sm0  1  0.000000  0.500000  0.522549  1
  Sm  Sm1  1  0.500000  0.000000  0.478254  1
  Sm  Sm2  1  0.500000  0.818784  0.206675  1
  Sm  Sm3  1  0.500000  0.181216  0.206675  1
  Sm  Sm4  1  0.000000  0.683205  0.796510  1
  Sm  Sm5  1  0.000000  0.316795  0.796510  1
  Dy  Dy6  1  0.500000  0.500000  0.155605  1
  P  P7  1  0.500000  0.500000  0.879127  1
  P  P8  1  0.000000  0.000000  0.119475  1
  P  P9  1  0.500000  0.500000  0.363364  1
  P  P10  1  0.000000  0.000000  0.650301  1
  P  P11  1  0.500000  0.312491  0.618431  1
  P  P12  1  0.500000  0.687509  0.618431  1
  P  P13  1  0.000000  0.187042  0.385261  1
  P  P14  1  0.000000  0.812958  0.385261  1
  P  P15  1  0.500000  0.851801  0.888774  1
  P  P16  1  0.500000  0.148199  0.888774  1
  P  P17  1  0.000000  0.664447  0.103140  1
  P  P18  1  0.000000  0.335553  0.103140  1
  Rh  Rh19  1  0.000000  0.000000  0.828679  1
  Rh  Rh20  1  0.500000  0.500000  0.701561  1
  Rh  Rh21  1  0.000000  0.000000  0.298227  1
  Rh  Rh22  1  0.000000  0.500000  0.980973  1
  Rh  Rh23  1  0.500000  0.000000  0.019257  1
  Rh  Rh24  1  0.500000  0.327313  0.986970  1
  Rh  Rh25  1  0.500000  0.672687  0.986970  1
  Rh  Rh26  1  0.000000  0.161787  0.003537  1
  Rh  Rh27  1  0.000000  0.838213  0.003537  1
  Rh  Rh28  1  0.500000  0.287985  0.435470  1
  Rh  Rh29  1  0.500000  0.712015  0.435470  1
  Rh  Rh30  1  0.000000  0.204188  0.572509  1
  Rh  Rh31  1  0.000000  0.795812  0.572509  1
  Rh  Rh32  1  0.500000  0.876069  0.709438  1
  Rh  Rh33  1  0.500000  0.123931  0.709438  1
  Rh  Rh34  1  0.000000  0.628003  0.294597  1
  Rh  Rh35  1  0.000000  0.371997  0.294597  1
