# generated using pymatgen
data_Tb3Dy9TcRu3
_symmetry_space_group_name_H-M   'P 1'
_cell_length_a   6.30493000
_cell_length_b   7.34541602
_cell_length_c   9.22277800
_cell_angle_alpha   90.00000000
_cell_angle_beta   90.00000000
_cell_angle_gamma   89.99436707
_symmetry_Int_Tables_number   1
_chemical_formula_structural   Tb3Dy9TcRu3
_chemical_formula_sum   'Tb3 Dy9 Tc1 Ru3'
_cell_volume   427.12837145
_cell_formula_units_Z   1
loop_
 _symmetry_equiv_pos_site_id
 _symmetry_equiv_pos_as_xyz
  1  'x, y, z'
loop_
 _atom_site_type_symbol
 _atom_site_label
 _atom_site_symmetry_multiplicity
 _atom_site_fract_x
 _atom_site_fract_y
 _atom_site_fract_z
 _atom_site_occupancy
  Tb  Tb0  1  0.865542  0.542909  0.250000  1
  Tb  Tb1  1  0.634387  0.042183  0.250000  1
  Tb  Tb2  1  0.132961  0.459352  0.750000  1
  Dy  Dy3  1  0.331003  0.676935  0.065104  1
  Dy  Dy4  1  0.166305  0.175538  0.436655  1
  Dy  Dy5  1  0.667499  0.323575  0.565370  1
  Dy  Dy6  1  0.831548  0.823626  0.934833  1
  Dy  Dy7  1  0.667499  0.323575  0.934630  1
  Dy  Dy8  1  0.831548  0.823626  0.565167  1
  Dy  Dy9  1  0.331003  0.676935  0.434896  1
  Dy  Dy10  1  0.166305  0.175538  0.063345  1
  Dy  Dy11  1  0.371190  0.957088  0.750000  1
  Tc  Tc12  1  0.961422  0.113256  0.750000  1
  Ru  Ru13  1  0.041484  0.884554  0.250000  1
  Ru  Ru14  1  0.460436  0.386623  0.250000  1
  Ru  Ru15  1  0.539865  0.614686  0.750000  1
