# generated using pymatgen
data_TaZn(Ni7B2)3
_symmetry_space_group_name_H-M   'P 1'
_cell_length_a   7.42286058
_cell_length_b   7.42286012
_cell_length_c   7.42286000
_cell_angle_alpha   60.00000055
_cell_angle_beta   60.00000259
_cell_angle_gamma   60.00000226
_symmetry_Int_Tables_number   1
_chemical_formula_structural   TaZn(Ni7B2)3
_chemical_formula_sum   'Ta1 Zn1 Ni21 B6'
_cell_volume   289.20038697
_cell_formula_units_Z   1
loop_
 _symmetry_equiv_pos_site_id
 _symmetry_equiv_pos_as_xyz
  1  'x, y, z'
loop_
 _atom_site_type_symbol
 _atom_site_label
 _atom_site_symmetry_multiplicity
 _atom_site_fract_x
 _atom_site_fract_y
 _atom_site_fract_z
 _atom_site_occupancy
  Ta  Ta0  1  0.250000  0.250000  0.250000  1
  Zn  Zn1  1  0.750000  0.750000  0.750000  1
  Ni  Ni2  1  0.000000  0.000000  0.000000  1
  Ni  Ni3  1  0.616921  0.616921  0.149238  1
  Ni  Ni4  1  0.616921  0.149238  0.616921  1
  Ni  Ni5  1  0.149238  0.616921  0.616921  1
  Ni  Ni6  1  0.616921  0.616921  0.616921  1
  Ni  Ni7  1  0.384631  0.384631  0.846108  1
  Ni  Ni8  1  0.384631  0.846108  0.384631  1
  Ni  Ni9  1  0.846108  0.384631  0.384631  1
  Ni  Ni10  1  0.384631  0.384631  0.384631  1
  Ni  Ni11  1  0.001904  0.001904  0.336804  1
  Ni  Ni12  1  0.659388  0.001904  0.336804  1
  Ni  Ni13  1  0.001904  0.659388  0.336804  1
  Ni  Ni14  1  0.659388  0.336804  0.001904  1
  Ni  Ni15  1  0.001904  0.336804  0.001904  1
  Ni  Ni16  1  0.001904  0.336804  0.659388  1
  Ni  Ni17  1  0.336804  0.659388  0.001904  1
  Ni  Ni18  1  0.336804  0.001904  0.659388  1
  Ni  Ni19  1  0.336804  0.001904  0.001904  1
  Ni  Ni20  1  0.001904  0.001904  0.659388  1
  Ni  Ni21  1  0.001904  0.659388  0.001904  1
  Ni  Ni22  1  0.659388  0.001904  0.001904  1
  B  B23  1  0.729130  0.729130  0.270870  1
  B  B24  1  0.270870  0.729130  0.270870  1
  B  B25  1  0.729130  0.270870  0.270870  1
  B  B26  1  0.270870  0.270870  0.729130  1
  B  B27  1  0.729130  0.270870  0.729130  1
  B  B28  1  0.270870  0.729130  0.729130  1
