# generated using pymatgen
data_Tl4PdPt3O14
_symmetry_space_group_name_H-M   'P 1'
_cell_length_a   7.32176795
_cell_length_b   7.32176845
_cell_length_c   7.32176900
_cell_angle_alpha   59.92573448
_cell_angle_beta   59.92574127
_cell_angle_gamma   59.92574082
_symmetry_Int_Tables_number   1
_chemical_formula_structural   Tl4PdPt3O14
_chemical_formula_sum   'Tl4 Pd1 Pt3 O14'
_cell_volume   277.07720803
_cell_formula_units_Z   1
loop_
 _symmetry_equiv_pos_site_id
 _symmetry_equiv_pos_as_xyz
  1  'x, y, z'
loop_
 _atom_site_type_symbol
 _atom_site_label
 _atom_site_symmetry_multiplicity
 _atom_site_fract_x
 _atom_site_fract_y
 _atom_site_fract_z
 _atom_site_occupancy
  Tl  Tl0  1  0.125000  0.125000  0.125000  1
  Tl  Tl1  1  0.625000  0.125000  0.125000  1
  Tl  Tl2  1  0.125000  0.625000  0.125000  1
  Tl  Tl3  1  0.125000  0.125000  0.625000  1
  Pd  Pd4  1  0.625000  0.625000  0.625000  1
  Pt  Pt5  1  0.625000  0.625000  0.125000  1
  Pt  Pt6  1  0.625000  0.125000  0.625000  1
  Pt  Pt7  1  0.125000  0.625000  0.625000  1
  O  O8  1  0.710767  0.290389  0.290389  1
  O  O9  1  0.709412  0.288875  0.709412  1
  O  O10  1  0.999612  0.999612  0.999612  1
  O  O11  1  0.290389  0.710767  0.290389  1
  O  O12  1  0.709412  0.709412  0.288875  1
  O  O13  1  0.961125  0.540588  0.540588  1
  O  O14  1  0.288875  0.709412  0.709412  1
  O  O15  1  0.250388  0.250388  0.250388  1
  O  O16  1  0.959611  0.539233  0.959611  1
  O  O17  1  0.540588  0.961125  0.540588  1
  O  O18  1  0.540588  0.540588  0.961125  1
  O  O19  1  0.959611  0.959611  0.539233  1
  O  O20  1  0.539233  0.959611  0.959611  1
  O  O21  1  0.290389  0.290389  0.710767  1
