# generated using pymatgen
data_Y5Ru2Pb
_symmetry_space_group_name_H-M   'P 1'
_cell_length_a   8.80131285
_cell_length_b   8.80131250
_cell_length_c   8.80131287
_cell_angle_alpha   127.44408485
_cell_angle_beta   127.44408394
_cell_angle_gamma   77.52733115
_symmetry_Int_Tables_number   1
_chemical_formula_structural   Y5Ru2Pb
_chemical_formula_sum   'Y10 Ru4 Pb2'
_cell_volume   416.79266163
_cell_formula_units_Z   2
loop_
 _symmetry_equiv_pos_site_id
 _symmetry_equiv_pos_as_xyz
  1  'x, y, z'
loop_
 _atom_site_type_symbol
 _atom_site_label
 _atom_site_symmetry_multiplicity
 _atom_site_fract_x
 _atom_site_fract_y
 _atom_site_fract_z
 _atom_site_occupancy
  Y  Y0  1  0.000000  0.000000  0.000000  1
  Y  Y1  1  0.500000  0.500000  0.000000  1
  Y  Y2  1  0.788062  0.288062  0.813003  1
  Y  Y3  1  0.211938  0.711938  0.186997  1
  Y  Y4  1  0.475060  0.975060  0.186997  1
  Y  Y5  1  0.288062  0.475060  0.500000  1
  Y  Y6  1  0.024940  0.211938  0.500000  1
  Y  Y7  1  0.524940  0.024940  0.813003  1
  Y  Y8  1  0.711938  0.524940  0.500000  1
  Y  Y9  1  0.975060  0.788062  0.500000  1
  Ru  Ru10  1  0.142669  0.642669  0.785337  1
  Ru  Ru11  1  0.857331  0.357331  0.214663  1
  Ru  Ru12  1  0.642669  0.857331  0.500000  1
  Ru  Ru13  1  0.357331  0.142669  0.500000  1
  Pb  Pb14  1  0.250000  0.250000  0.000000  1
  Pb  Pb15  1  0.750000  0.750000  0.000000  1
