# generated using pymatgen
data_Dy2Er2OsBr4
_symmetry_space_group_name_H-M   'P 1'
_cell_length_a   8.96892211
_cell_length_b   8.96888870
_cell_length_c   6.52401748
_cell_angle_alpha   89.46629758
_cell_angle_beta   89.46617775
_cell_angle_gamma   89.32618851
_symmetry_Int_Tables_number   1
_chemical_formula_structural   Dy2Er2OsBr4
_chemical_formula_sum   'Dy4 Er4 Os2 Br8'
_cell_volume   524.71891008
_cell_formula_units_Z   2
loop_
 _symmetry_equiv_pos_site_id
 _symmetry_equiv_pos_as_xyz
  1  'x, y, z'
loop_
 _atom_site_type_symbol
 _atom_site_label
 _atom_site_symmetry_multiplicity
 _atom_site_fract_x
 _atom_site_fract_y
 _atom_site_fract_z
 _atom_site_occupancy
  Dy  Dy0  1  0.249094  0.900851  0.009255  1
  Dy  Dy1  1  0.750906  0.099149  0.990745  1
  Dy  Dy2  1  0.099151  0.750908  0.490742  1
  Dy  Dy3  1  0.900849  0.249092  0.509258  1
  Er  Er4  1  0.754522  0.903872  0.508618  1
  Er  Er5  1  0.245478  0.096128  0.491382  1
  Er  Er6  1  0.096126  0.245481  0.991384  1
  Er  Er7  1  0.903874  0.754519  0.008616  1
  Os  Os8  1  0.995571  0.004430  0.249989  1
  Os  Os9  1  0.004429  0.995570  0.750011  1
  Br  Br10  1  0.418279  0.819733  0.411749  1
  Br  Br11  1  0.581721  0.180267  0.588251  1
  Br  Br12  1  0.180257  0.581722  0.088258  1
  Br  Br13  1  0.819743  0.418278  0.911742  1
  Br  Br14  1  0.411056  0.191223  0.091412  1
  Br  Br15  1  0.588944  0.808777  0.908588  1
  Br  Br16  1  0.808779  0.588946  0.408594  1
  Br  Br17  1  0.191221  0.411054  0.591406  1
