# generated using pymatgen
data_InTe28
_symmetry_space_group_name_H-M   'P 1'
_cell_length_a   8.68941935
_cell_length_b   12.12924690
_cell_length_c   14.50638775
_cell_angle_alpha   124.00740324
_cell_angle_beta   116.90813256
_cell_angle_gamma   83.68797634
_symmetry_Int_Tables_number   1
_chemical_formula_structural   InTe28
_chemical_formula_sum   'In1 Te28'
_cell_volume   1108.79818007
_cell_formula_units_Z   1
loop_
 _symmetry_equiv_pos_site_id
 _symmetry_equiv_pos_as_xyz
  1  'x, y, z'
loop_
 _atom_site_type_symbol
 _atom_site_label
 _atom_site_symmetry_multiplicity
 _atom_site_fract_x
 _atom_site_fract_y
 _atom_site_fract_z
 _atom_site_occupancy
  In  In0  1  0.500000  0.000000  0.000000  1
  Te  Te1  1  0.064970  0.108535  0.434175  1
  Te  Te2  1  0.555973  0.106616  0.434459  1
  Te  Te3  1  0.291597  0.324945  0.843863  1
  Te  Te4  1  0.797669  0.316204  0.844348  1
  Te  Te5  1  0.236706  0.544360  0.699331  1
  Te  Te6  1  0.737523  0.546282  0.698200  1
  Te  Te7  1  0.444027  0.893384  0.565541  1
  Te  Te8  1  0.935030  0.891465  0.565825  1
  Te  Te9  1  0.202331  0.683796  0.155652  1
  Te  Te10  1  0.708403  0.675055  0.156137  1
  Te  Te11  1  0.262477  0.453718  0.301800  1
  Te  Te12  1  0.763294  0.455640  0.300669  1
  Te  Te13  1  0.801027  0.030062  0.759803  1
  Te  Te14  1  0.297875  0.037318  0.758187  1
  Te  Te15  1  0.815942  0.634826  0.964794  1
  Te  Te16  1  0.312362  0.638061  0.959321  1
  Te  Te17  1  0.545515  0.287431  0.290250  1
  Te  Te18  1  0.054453  0.301109  0.312061  1
  Te  Te19  1  0.702125  0.962682  0.241813  1
  Te  Te20  1  0.198973  0.969938  0.240197  1
  Te  Te21  1  0.687638  0.361939  0.040679  1
  Te  Te22  1  0.184058  0.365174  0.035206  1
  Te  Te23  1  0.945547  0.698891  0.687939  1
  Te  Te24  1  0.454485  0.712569  0.709750  1
  Te  Te25  1  0.948580  0.290285  0.633855  1
  Te  Te26  1  0.445937  0.286326  0.633675  1
  Te  Te27  1  0.554063  0.713674  0.366325  1
  Te  Te28  1  0.051420  0.709715  0.366145  1
