# generated using pymatgen
data_Li2DyPt3
_symmetry_space_group_name_H-M   'P 1'
_cell_length_a   5.03909196
_cell_length_b   5.03909192
_cell_length_c   5.03909169
_cell_angle_alpha   65.56434674
_cell_angle_beta   65.56434814
_cell_angle_gamma   65.56434202
_symmetry_Int_Tables_number   1
_chemical_formula_structural   Li2DyPt3
_chemical_formula_sum   'Li2 Dy1 Pt3'
_cell_volume   101.41637666
_cell_formula_units_Z   1
loop_
 _symmetry_equiv_pos_site_id
 _symmetry_equiv_pos_as_xyz
  1  'x, y, z'
loop_
 _atom_site_type_symbol
 _atom_site_label
 _atom_site_symmetry_multiplicity
 _atom_site_fract_x
 _atom_site_fract_y
 _atom_site_fract_z
 _atom_site_occupancy
  Li  Li0  1  0.628760  0.628760  0.628760  1
  Li  Li1  1  0.991379  0.991379  0.991379  1
  Dy  Dy2  1  0.244340  0.244340  0.244340  1
  Pt  Pt3  1  0.629327  0.629327  0.126867  1
  Pt  Pt4  1  0.629327  0.126867  0.629327  1
  Pt  Pt5  1  0.126867  0.629327  0.629327  1
