# generated using pymatgen
data_ZrMoN2
_symmetry_space_group_name_H-M   'P 1'
_cell_length_a   3.05861600
_cell_length_b   5.52830800
_cell_length_c   10.64391000
_cell_angle_alpha   90.00000000
_cell_angle_beta   90.00000000
_cell_angle_gamma   90.00000000
_symmetry_Int_Tables_number   1
_chemical_formula_structural   ZrMoN2
_chemical_formula_sum   'Zr4 Mo4 N8'
_cell_volume   179.97756873
_cell_formula_units_Z   4
loop_
 _symmetry_equiv_pos_site_id
 _symmetry_equiv_pos_as_xyz
  1  'x, y, z'
loop_
 _atom_site_type_symbol
 _atom_site_label
 _atom_site_symmetry_multiplicity
 _atom_site_fract_x
 _atom_site_fract_y
 _atom_site_fract_z
 _atom_site_occupancy
  Zr  Zr0  1  0.250000  0.083862  0.849971  1
  Zr  Zr1  1  0.250000  0.583862  0.650029  1
  Zr  Zr2  1  0.750000  0.916138  0.150029  1
  Zr  Zr3  1  0.750000  0.416138  0.349971  1
  Mo  Mo4  1  0.250000  0.431737  0.096192  1
  Mo  Mo5  1  0.250000  0.931737  0.403808  1
  Mo  Mo6  1  0.750000  0.568263  0.903808  1
  Mo  Mo7  1  0.750000  0.068263  0.596192  1
  N  N8  1  0.250000  0.164394  0.246458  1
  N  N9  1  0.250000  0.664394  0.253542  1
  N  N10  1  0.750000  0.835606  0.753542  1
  N  N11  1  0.750000  0.335606  0.746458  1
  N  N12  1  0.250000  0.774106  0.999803  1
  N  N13  1  0.250000  0.274106  0.500197  1
  N  N14  1  0.750000  0.225894  0.000197  1
  N  N15  1  0.750000  0.725894  0.499803  1
