# generated using pymatgen
data_Ho3Er5(B6Ir)4
_symmetry_space_group_name_H-M   'P 1'
_cell_length_a   3.62631600
_cell_length_b   9.15723200
_cell_length_c   11.49831400
_cell_angle_alpha   90.00068683
_cell_angle_beta   90.00000000
_cell_angle_gamma   90.00000000
_symmetry_Int_Tables_number   1
_chemical_formula_structural   Ho3Er5(B6Ir)4
_chemical_formula_sum   'Ho3 Er5 B24 Ir4'
_cell_volume   381.82470751
_cell_formula_units_Z   1
loop_
 _symmetry_equiv_pos_site_id
 _symmetry_equiv_pos_as_xyz
  1  'x, y, z'
loop_
 _atom_site_type_symbol
 _atom_site_label
 _atom_site_symmetry_multiplicity
 _atom_site_fract_x
 _atom_site_fract_y
 _atom_site_fract_z
 _atom_site_occupancy
  Ho  Ho0  1  0.000000  0.321624  0.413115  1
  Ho  Ho1  1  0.000000  0.678345  0.586928  1
  Ho  Ho2  1  0.000000  0.821664  0.086869  1
  Er  Er3  1  0.000000  0.178499  0.913118  1
  Er  Er4  1  0.000000  0.944129  0.374386  1
  Er  Er5  1  0.000000  0.055913  0.625629  1
  Er  Er6  1  0.000000  0.444047  0.125464  1
  Er  Er7  1  0.000000  0.555845  0.874458  1
  B  B8  1  0.500000  0.553228  0.433820  1
  B  B9  1  0.500000  0.446704  0.566277  1
  B  B10  1  0.500000  0.053384  0.065949  1
  B  B11  1  0.500000  0.946993  0.933835  1
  B  B12  1  0.500000  0.749715  0.420540  1
  B  B13  1  0.500000  0.250249  0.579562  1
  B  B14  1  0.500000  0.249595  0.079177  1
  B  B15  1  0.500000  0.750344  0.920530  1
  B  B16  1  0.500000  0.793272  0.265191  1
  B  B17  1  0.500000  0.206630  0.735019  1
  B  B18  1  0.500000  0.293200  0.234654  1
  B  B19  1  0.500000  0.706764  0.765279  1
  B  B20  1  0.500000  0.631751  0.184121  1
  B  B21  1  0.500000  0.368044  0.815979  1
  B  B22  1  0.500000  0.131770  0.315801  1
  B  B23  1  0.500000  0.868284  0.684221  1
  B  B24  1  0.500000  0.981641  0.212920  1
  B  B25  1  0.500000  0.018701  0.787213  1
  B  B26  1  0.500000  0.481515  0.286981  1
  B  B27  1  0.500000  0.518387  0.713039  1
  B  B28  1  0.500000  0.609951  0.030024  1
  B  B29  1  0.500000  0.389703  0.969851  1
  B  B30  1  0.500000  0.109786  0.470028  1
  B  B31  1  0.500000  0.890265  0.530018  1
  Ir  Ir32  1  0.000000  0.638465  0.321136  1
  Ir  Ir33  1  0.000000  0.361340  0.678986  1
  Ir  Ir34  1  0.000000  0.138446  0.178565  1
  Ir  Ir35  1  0.000000  0.861806  0.821319  1
