# generated using pymatgen
data_SmErGa9Ir2Pd
_symmetry_space_group_name_H-M   'P 1'
_cell_length_a   7.63941622
_cell_length_b   7.64080731
_cell_length_c   9.52755500
_cell_angle_alpha   90.00000000
_cell_angle_beta   90.00000000
_cell_angle_gamma   119.72735924
_symmetry_Int_Tables_number   1
_chemical_formula_structural   SmErGa9Ir2Pd
_chemical_formula_sum   'Sm2 Er2 Ga18 Ir4 Pd2'
_cell_volume   482.94548853
_cell_formula_units_Z   2
loop_
 _symmetry_equiv_pos_site_id
 _symmetry_equiv_pos_as_xyz
  1  'x, y, z'
loop_
 _atom_site_type_symbol
 _atom_site_label
 _atom_site_symmetry_multiplicity
 _atom_site_fract_x
 _atom_site_fract_y
 _atom_site_fract_z
 _atom_site_occupancy
  Sm  Sm0  1  0.996546  0.670188  0.750000  1
  Sm  Sm1  1  0.003454  0.329812  0.250000  1
  Er  Er2  1  0.669721  0.996718  0.750000  1
  Er  Er3  1  0.330279  0.003282  0.250000  1
  Ga  Ga4  1  0.128577  0.129994  0.750000  1
  Ga  Ga5  1  0.871423  0.870006  0.250000  1
  Ga  Ga6  1  0.998386  0.335861  0.581086  1
  Ga  Ga7  1  0.001614  0.664139  0.418914  1
  Ga  Ga8  1  0.001614  0.664139  0.081086  1
  Ga  Ga9  1  0.338648  0.999943  0.919552  1
  Ga  Ga10  1  0.998386  0.335861  0.918914  1
  Ga  Ga11  1  0.661352  0.000057  0.080448  1
  Ga  Ga12  1  0.661352  0.000057  0.419552  1
  Ga  Ga13  1  0.338648  0.999943  0.580448  1
  Ga  Ga14  1  0.336246  0.334863  0.067239  1
  Ga  Ga15  1  0.663754  0.665137  0.932761  1
  Ga  Ga16  1  0.663754  0.665137  0.567239  1
  Ga  Ga17  1  0.336246  0.334863  0.432761  1
  Ga  Ga18  1  0.337926  0.546626  0.750000  1
  Ga  Ga19  1  0.662074  0.453374  0.250000  1
  Ga  Ga20  1  0.545173  0.335784  0.750000  1
  Ga  Ga21  1  0.454827  0.664216  0.250000  1
  Ir  Ir22  1  0.670559  0.327995  0.499911  1
  Ir  Ir23  1  0.329441  0.672005  0.500089  1
  Ir  Ir24  1  0.329441  0.672005  0.999911  1
  Ir  Ir25  1  0.670559  0.327995  0.000089  1
  Pd  Pd26  1  0.000000  0.000000  0.500000  1
  Pd  Pd27  1  0.000000  0.000000  0.000000  1
