# generated using pymatgen
data_Tb3Tm5Cd2OsPt
_symmetry_space_group_name_H-M   'P 1'
_cell_length_a   9.60611651
_cell_length_b   9.60611687
_cell_length_c   9.65804300
_cell_angle_alpha   59.82102147
_cell_angle_beta   59.82102022
_cell_angle_gamma   59.64975656
_symmetry_Int_Tables_number   1
_chemical_formula_structural   Tb3Tm5Cd2OsPt
_chemical_formula_sum   'Tb6 Tm10 Cd4 Os2 Pt2'
_cell_volume   626.80595791
_cell_formula_units_Z   2
loop_
 _symmetry_equiv_pos_site_id
 _symmetry_equiv_pos_as_xyz
  1  'x, y, z'
loop_
 _atom_site_type_symbol
 _atom_site_label
 _atom_site_symmetry_multiplicity
 _atom_site_fract_x
 _atom_site_fract_y
 _atom_site_fract_z
 _atom_site_occupancy
  Tb  Tb0  1  0.939740  0.554638  0.565265  1
  Tb  Tb1  1  0.554638  0.939740  0.940357  1
  Tb  Tb2  1  0.554638  0.939740  0.565265  1
  Tb  Tb3  1  0.939740  0.554638  0.940357  1
  Tb  Tb4  1  0.562818  0.562818  0.937182  1
  Tb  Tb5  1  0.941193  0.941193  0.558807  1
  Tm  Tm6  1  0.349970  0.349970  0.350318  1
  Tm  Tm7  1  0.349970  0.349970  0.949743  1
  Tm  Tm8  1  0.345870  0.956750  0.348690  1
  Tm  Tm9  1  0.956750  0.345870  0.348690  1
  Tm  Tm10  1  0.816125  0.185735  0.189970  1
  Tm  Tm11  1  0.185735  0.816125  0.808171  1
  Tm  Tm12  1  0.185735  0.816125  0.189970  1
  Tm  Tm13  1  0.816125  0.185735  0.808171  1
  Tm  Tm14  1  0.186933  0.186933  0.813067  1
  Tm  Tm15  1  0.809461  0.809461  0.190539  1
  Cd  Cd16  1  0.579595  0.579595  0.581322  1
  Cd  Cd17  1  0.579595  0.579595  0.259487  1
  Cd  Cd18  1  0.580677  0.256201  0.581561  1
  Cd  Cd19  1  0.256201  0.580677  0.581561  1
  Os  Os20  1  0.144687  0.144687  0.137241  1
  Os  Os21  1  0.144687  0.144687  0.573386  1
  Pt  Pt22  1  0.144398  0.574722  0.140441  1
  Pt  Pt23  1  0.574722  0.144398  0.140441  1
