# generated using pymatgen
data_Zr2U(AlRu2)3
_symmetry_space_group_name_H-M   'P 1'
_cell_length_a   4.51009400
_cell_length_b   6.37192900
_cell_length_c   13.42010100
_cell_angle_alpha   90.00000000
_cell_angle_beta   90.00046786
_cell_angle_gamma   90.00000000
_symmetry_Int_Tables_number   1
_chemical_formula_structural   Zr2U(AlRu2)3
_chemical_formula_sum   'Zr4 U2 Al6 Ru12'
_cell_volume   385.66684577
_cell_formula_units_Z   2
loop_
 _symmetry_equiv_pos_site_id
 _symmetry_equiv_pos_as_xyz
  1  'x, y, z'
loop_
 _atom_site_type_symbol
 _atom_site_label
 _atom_site_symmetry_multiplicity
 _atom_site_fract_x
 _atom_site_fract_y
 _atom_site_fract_z
 _atom_site_occupancy
  Zr  Zr0  1  0.000000  0.500001  0.338188  1
  Zr  Zr1  1  0.499996  0.000000  0.502858  1
  Zr  Zr2  1  0.000023  0.500001  0.663818  1
  Zr  Zr3  1  0.500003  0.000000  0.828445  1
  U  U4  1  0.999989  0.500001  0.996237  1
  U  U5  1  0.499982  0.000000  0.170494  1
  Al  Al6  1  0.999995  0.000000  0.994854  1
  Al  Al7  1  0.499987  0.500001  0.171752  1
  Al  Al8  1  0.999994  0.000000  0.341986  1
  Al  Al9  1  0.500002  0.500001  0.502836  1
  Al  Al10  1  0.000015  0.000000  0.663843  1
  Al  Al11  1  0.500010  0.500001  0.824666  1
  Ru  Ru12  1  0.500003  0.243277  0.002985  1
  Ru  Ru13  1  0.500003  0.756722  0.002985  1
  Ru  Ru14  1  0.999980  0.256328  0.163958  1
  Ru  Ru15  1  0.999980  0.743672  0.163958  1
  Ru  Ru16  1  0.499984  0.245024  0.328490  1
  Ru  Ru17  1  0.499984  0.754976  0.328490  1
  Ru  Ru18  1  0.999996  0.249065  0.498625  1
  Ru  Ru19  1  0.999996  0.750935  0.498625  1
  Ru  Ru20  1  0.500016  0.250946  0.667887  1
  Ru  Ru21  1  0.500016  0.749054  0.667887  1
  Ru  Ru22  1  0.000022  0.254790  0.838067  1
  Ru  Ru23  1  0.000022  0.745210  0.838067  1
