# generated using pymatgen
data_SrSm6RuBr12
_symmetry_space_group_name_H-M   'P 1'
_cell_length_a   9.56516816
_cell_length_b   9.42267619
_cell_length_c   9.42743072
_cell_angle_alpha   105.83502758
_cell_angle_beta   106.47387226
_cell_angle_gamma   106.38876262
_symmetry_Int_Tables_number   1
_chemical_formula_structural   SrSm6RuBr12
_chemical_formula_sum   'Sr1 Sm6 Ru1 Br12'
_cell_volume   721.91109370
_cell_formula_units_Z   1
loop_
 _symmetry_equiv_pos_site_id
 _symmetry_equiv_pos_as_xyz
  1  'x, y, z'
loop_
 _atom_site_type_symbol
 _atom_site_label
 _atom_site_symmetry_multiplicity
 _atom_site_fract_x
 _atom_site_fract_y
 _atom_site_fract_z
 _atom_site_occupancy
  Sr  Sr0  1  0.500000  0.500000  0.500000  1
  Sm  Sm1  1  0.099331  0.305345  0.019033  1
  Sm  Sm2  1  0.314724  0.019067  0.102776  1
  Sm  Sm3  1  0.018011  0.100113  0.304907  1
  Sm  Sm4  1  0.981988  0.899887  0.695093  1
  Sm  Sm5  1  0.685276  0.980932  0.897223  1
  Sm  Sm6  1  0.900669  0.694655  0.980967  1
  Ru  Ru7  1  0.000000  0.000000  0.000000  1
  Br  Br8  1  0.218177  0.679057  0.072079  1
  Br  Br9  1  0.445530  0.365063  0.145617  1
  Br  Br10  1  0.679878  0.072585  0.219511  1
  Br  Br11  1  0.928029  0.780873  0.320327  1
  Br  Br12  1  0.147461  0.447477  0.365085  1
  Br  Br13  1  0.363314  0.145042  0.446327  1
  Br  Br14  1  0.636686  0.854958  0.553673  1
  Br  Br15  1  0.852538  0.552523  0.634915  1
  Br  Br16  1  0.071972  0.219128  0.679674  1
  Br  Br17  1  0.320123  0.927416  0.780489  1
  Br  Br18  1  0.554469  0.634936  0.854383  1
  Br  Br19  1  0.781823  0.320944  0.927921  1
