# generated using pymatgen
data_Yb11HoZn24
_symmetry_space_group_name_H-M   'P 1'
_cell_length_a   4.58088800
_cell_length_b   7.47495600
_cell_length_c   21.72280501
_cell_angle_alpha   90.00114994
_cell_angle_beta   90.00000000
_cell_angle_gamma   90.00000000
_symmetry_Int_Tables_number   1
_chemical_formula_structural   Yb11HoZn24
_chemical_formula_sum   'Yb11 Ho1 Zn24'
_cell_volume   743.83090405
_cell_formula_units_Z   1
loop_
 _symmetry_equiv_pos_site_id
 _symmetry_equiv_pos_as_xyz
  1  'x, y, z'
loop_
 _atom_site_type_symbol
 _atom_site_label
 _atom_site_symmetry_multiplicity
 _atom_site_fract_x
 _atom_site_fract_y
 _atom_site_fract_z
 _atom_site_occupancy
  Yb  Yb0  1  0.250000  0.701058  0.000292  1
  Yb  Yb1  1  0.750000  0.298706  0.000858  1
  Yb  Yb2  1  0.750000  0.201293  0.499775  1
  Yb  Yb3  1  0.250000  0.799224  0.499905  1
  Yb  Yb4  1  0.250000  0.798757  0.166621  1
  Yb  Yb5  1  0.750000  0.202198  0.833367  1
  Yb  Yb6  1  0.750000  0.298288  0.333377  1
  Yb  Yb7  1  0.250000  0.701480  0.666283  1
  Yb  Yb8  1  0.250000  0.701140  0.333296  1
  Yb  Yb9  1  0.750000  0.299096  0.665935  1
  Yb  Yb10  1  0.750000  0.200871  0.166988  1
  Ho  Ho11  1  0.250000  0.794977  0.833304  1
  Zn  Zn12  1  0.250000  0.415710  0.103833  1
  Zn  Zn13  1  0.750000  0.585252  0.896581  1
  Zn  Zn14  1  0.750000  0.915311  0.396465  1
  Zn  Zn15  1  0.250000  0.085260  0.602847  1
  Zn  Zn16  1  0.250000  0.413859  0.230713  1
  Zn  Zn17  1  0.750000  0.586810  0.769825  1
  Zn  Zn18  1  0.750000  0.913646  0.269818  1
  Zn  Zn19  1  0.250000  0.084330  0.730484  1
  Zn  Zn20  1  0.250000  0.415538  0.436331  1
  Zn  Zn21  1  0.750000  0.585403  0.563410  1
  Zn  Zn22  1  0.750000  0.915984  0.063367  1
  Zn  Zn23  1  0.250000  0.082705  0.936584  1
  Zn  Zn24  1  0.250000  0.085867  0.064080  1
  Zn  Zn25  1  0.750000  0.913137  0.935531  1
  Zn  Zn26  1  0.750000  0.585013  0.436177  1
  Zn  Zn27  1  0.250000  0.415117  0.563124  1
  Zn  Zn28  1  0.250000  0.084129  0.270372  1
  Zn  Zn29  1  0.750000  0.914560  0.730771  1
  Zn  Zn30  1  0.750000  0.583484  0.230037  1
  Zn  Zn31  1  0.250000  0.418031  0.769258  1
  Zn  Zn32  1  0.250000  0.085941  0.396832  1
  Zn  Zn33  1  0.750000  0.915098  0.602845  1
  Zn  Zn34  1  0.750000  0.586291  0.102829  1
  Zn  Zn35  1  0.250000  0.416436  0.897881  1
