# generated using pymatgen
data_Pr5Sm(BO3)6
_symmetry_space_group_name_H-M   'P 1'
_cell_length_a   6.83502130
_cell_length_b   6.85130429
_cell_length_c   9.92166094
_cell_angle_alpha   70.16883833
_cell_angle_beta   70.15715546
_cell_angle_gamma   59.99276046
_symmetry_Int_Tables_number   1
_chemical_formula_structural   Pr5Sm(BO3)6
_chemical_formula_sum   'Pr5 Sm1 B6 O18'
_cell_volume   370.17101940
_cell_formula_units_Z   1
loop_
 _symmetry_equiv_pos_site_id
 _symmetry_equiv_pos_as_xyz
  1  'x, y, z'
loop_
 _atom_site_type_symbol
 _atom_site_label
 _atom_site_symmetry_multiplicity
 _atom_site_fract_x
 _atom_site_fract_y
 _atom_site_fract_z
 _atom_site_occupancy
  Pr  Pr0  1  0.999208  0.500403  0.500002  1
  Pr  Pr1  1  0.499988  0.999926  0.000032  1
  Pr  Pr2  1  0.828920  0.342994  0.000867  1
  Pr  Pr3  1  0.655606  0.171881  0.499148  1
  Pr  Pr4  1  0.171226  0.657080  0.999096  1
  Sm  Sm5  1  0.342555  0.828957  0.500780  1
  B  B6  1  0.083790  0.148761  0.254351  1
  B  B7  1  0.847629  0.917049  0.248048  1
  B  B8  1  0.919202  0.849787  0.745669  1
  B  B9  1  0.151352  0.081477  0.751334  1
  B  B10  1  0.316753  0.684021  0.251410  1
  B  B11  1  0.681756  0.318688  0.749183  1
  O  O12  1  0.038976  0.210459  0.392034  1
  O  O13  1  0.785568  0.964073  0.109913  1
  O  O14  1  0.967507  0.786354  0.607995  1
  O  O15  1  0.214206  0.035830  0.889186  1
  O  O16  1  0.129629  0.303861  0.116188  1
  O  O17  1  0.690515  0.870388  0.385070  1
  O  O18  1  0.871246  0.695610  0.883805  1
  O  O19  1  0.306149  0.126294  0.613261  1
  O  O20  1  0.472936  0.620645  0.113762  1
  O  O21  1  0.379662  0.529538  0.388931  1
  O  O22  1  0.526490  0.379973  0.887171  1
  O  O23  1  0.615588  0.477728  0.612810  1
  O  O24  1  0.083376  0.709049  0.248531  1
  O  O25  1  0.292599  0.915069  0.254677  1
  O  O26  1  0.916019  0.291276  0.751394  1
  O  O27  1  0.709038  0.085008  0.746584  1
  O  O28  1  0.874196  0.124460  0.251103  1
  O  O29  1  0.128318  0.873364  0.747670  1
