# generated using pymatgen
data_Dy4Hf3VF28
_symmetry_space_group_name_H-M   'P 1'
_cell_length_a   5.65905817
_cell_length_b   9.00641013
_cell_length_c   12.06118984
_cell_angle_alpha   62.58888105
_cell_angle_beta   90.04244931
_cell_angle_gamma   89.99042786
_symmetry_Int_Tables_number   1
_chemical_formula_structural   Dy4Hf3VF28
_chemical_formula_sum   'Dy4 Hf3 V1 F28'
_cell_volume   545.71364160
_cell_formula_units_Z   1
loop_
 _symmetry_equiv_pos_site_id
 _symmetry_equiv_pos_as_xyz
  1  'x, y, z'
loop_
 _atom_site_type_symbol
 _atom_site_label
 _atom_site_symmetry_multiplicity
 _atom_site_fract_x
 _atom_site_fract_y
 _atom_site_fract_z
 _atom_site_occupancy
  Dy  Dy0  1  0.757881  0.814468  0.766722  1
  Dy  Dy1  1  0.257226  0.187696  0.727108  1
  Dy  Dy2  1  0.242837  0.188443  0.239716  1
  Dy  Dy3  1  0.743200  0.817250  0.266228  1
  Hf  Hf4  1  0.756186  0.273547  0.955550  1
  Hf  Hf5  1  0.255269  0.726275  0.543153  1
  Hf  Hf6  1  0.245083  0.726872  0.045239  1
  V  V7  1  0.743260  0.274049  0.454627  1
  F  F8  1  0.460574  0.707600  0.921020  1
  F  F9  1  0.945018  0.287468  0.576074  1
  F  F10  1  0.537878  0.290026  0.079970  1
  F  F11  1  0.039186  0.709360  0.418375  1
  F  F12  1  0.463595  0.278536  0.544159  1
  F  F13  1  0.950021  0.722022  0.952443  1
  F  F14  1  0.549700  0.716708  0.452042  1
  F  F15  1  0.047083  0.277242  0.051198  1
  F  F16  1  0.774081  0.523581  0.859168  1
  F  F17  1  0.266666  0.476806  0.638381  1
  F  F18  1  0.225424  0.477231  0.143074  1
  F  F19  1  0.731618  0.503455  0.366033  1
  F  F20  1  0.757849  0.023673  0.057356  1
  F  F21  1  0.261721  0.975465  0.445322  1
  F  F22  1  0.242262  0.974883  0.941782  1
  F  F23  1  0.741841  0.044437  0.545762  1
  F  F24  1  0.977266  0.735849  0.642820  1
  F  F25  1  0.484532  0.268238  0.850291  1
  F  F26  1  0.010820  0.268554  0.361139  1
  F  F27  1  0.519734  0.728246  0.150242  1
  F  F28  1  0.037273  0.745653  0.174238  1
  F  F29  1  0.546069  0.256436  0.331294  1
  F  F30  1  0.966340  0.253310  0.827457  1
  F  F31  1  0.464442  0.747842  0.670911  1
  F  F32  1  0.421947  0.973103  0.235848  1
  F  F33  1  0.922728  0.028657  0.269448  1
  F  F34  1  0.575404  0.026727  0.765562  1
  F  F35  1  0.077985  0.970293  0.730250  1
