# generated using pymatgen
data_KVPtS4
_symmetry_space_group_name_H-M   'P 1'
_cell_length_a   8.31244152
_cell_length_b   8.31244156
_cell_length_c   8.31244200
_cell_angle_alpha   118.68856100
_cell_angle_beta   118.68856115
_cell_angle_gamma   92.28690109
_symmetry_Int_Tables_number   1
_chemical_formula_structural   KVPtS4
_chemical_formula_sum   'K2 V2 Pt2 S8'
_cell_volume   413.82931805
_cell_formula_units_Z   2
loop_
 _symmetry_equiv_pos_site_id
 _symmetry_equiv_pos_as_xyz
  1  'x, y, z'
loop_
 _atom_site_type_symbol
 _atom_site_label
 _atom_site_symmetry_multiplicity
 _atom_site_fract_x
 _atom_site_fract_y
 _atom_site_fract_z
 _atom_site_occupancy
  K  K0  1  0.250000  0.250000  0.000000  1
  K  K1  1  0.750000  0.750000  0.000000  1
  V  V2  1  0.750000  0.250000  0.500000  1
  V  V3  1  0.250000  0.750000  0.500000  1
  Pt  Pt4  1  0.500000  0.000000  0.500000  1
  Pt  Pt5  1  0.000000  0.500000  0.500000  1
  S  S6  1  0.217578  0.717577  0.209855  1
  S  S7  1  0.492277  0.992277  0.209855  1
  S  S8  1  0.007722  0.217577  0.500000  1
  S  S9  1  0.282422  0.492278  0.500000  1
  S  S10  1  0.717577  0.507722  0.500000  1
  S  S11  1  0.992277  0.782422  0.500000  1
  S  S12  1  0.507722  0.007722  0.790144  1
  S  S13  1  0.782422  0.282422  0.790144  1
