# generated using pymatgen
data_SrTb2Gd4CoBr12
_symmetry_space_group_name_H-M   'P 1'
_cell_length_a   9.28629435
_cell_length_b   9.29201437
_cell_length_c   9.19750300
_cell_angle_alpha   106.52431272
_cell_angle_beta   106.09332467
_cell_angle_gamma   106.15969721
_symmetry_Int_Tables_number   1
_chemical_formula_structural   SrTb2Gd4CoBr12
_chemical_formula_sum   'Sr1 Tb2 Gd4 Co1 Br12'
_cell_volume   673.85251859
_cell_formula_units_Z   1
loop_
 _symmetry_equiv_pos_site_id
 _symmetry_equiv_pos_as_xyz
  1  'x, y, z'
loop_
 _atom_site_type_symbol
 _atom_site_label
 _atom_site_symmetry_multiplicity
 _atom_site_fract_x
 _atom_site_fract_y
 _atom_site_fract_z
 _atom_site_occupancy
  Sr  Sr0  1  0.499584  0.500597  0.501235  1
  Tb  Tb1  1  0.900256  0.694042  0.979711  1
  Tb  Tb2  1  0.694239  0.980184  0.900645  1
  Gd  Gd3  1  0.020885  0.095746  0.297197  1
  Gd  Gd4  1  0.098109  0.308832  0.019661  1
  Gd  Gd5  1  0.310829  0.021141  0.099391  1
  Gd  Gd6  1  0.981361  0.903570  0.702421  1
  Co  Co7  1  0.000202  0.000163  0.000419  1
  Br  Br8  1  0.141574  0.448480  0.370352  1
  Br  Br9  1  0.448122  0.368527  0.140447  1
  Br  Br10  1  0.368150  0.142271  0.449711  1
  Br  Br11  1  0.858119  0.551222  0.634794  1
  Br  Br12  1  0.554353  0.636725  0.863394  1
  Br  Br13  1  0.632999  0.858927  0.552786  1
  Br  Br14  1  0.678470  0.072717  0.220552  1
  Br  Br15  1  0.070898  0.218515  0.674062  1
  Br  Br16  1  0.217564  0.676453  0.071891  1
  Br  Br17  1  0.323588  0.925626  0.775810  1
  Br  Br18  1  0.926068  0.776125  0.318973  1
  Br  Br19  1  0.774630  0.320135  0.926546  1
