# generated using pymatgen
data_TbDy3Mn4(Co4P3)4
_symmetry_space_group_name_H-M   'P 1'
_cell_length_a   3.65669400
_cell_length_b   10.33357200
_cell_length_c   11.82391000
_cell_angle_alpha   89.99940430
_cell_angle_beta   90.00000000
_cell_angle_gamma   90.00000000
_symmetry_Int_Tables_number   1
_chemical_formula_structural   TbDy3Mn4(Co4P3)4
_chemical_formula_sum   'Tb1 Dy3 Mn4 Co16 P12'
_cell_volume   446.78666687
_cell_formula_units_Z   1
loop_
 _symmetry_equiv_pos_site_id
 _symmetry_equiv_pos_as_xyz
  1  'x, y, z'
loop_
 _atom_site_type_symbol
 _atom_site_label
 _atom_site_symmetry_multiplicity
 _atom_site_fract_x
 _atom_site_fract_y
 _atom_site_fract_z
 _atom_site_occupancy
  Tb  Tb0  1  0.250000  0.582078  0.704051  1
  Dy  Dy1  1  0.250000  0.917930  0.204087  1
  Dy  Dy2  1  0.750000  0.417990  0.295893  1
  Dy  Dy3  1  0.750000  0.082076  0.795965  1
  Mn  Mn4  1  0.250000  0.709723  0.988889  1
  Mn  Mn5  1  0.250000  0.790270  0.488671  1
  Mn  Mn6  1  0.750000  0.290312  0.011300  1
  Mn  Mn7  1  0.750000  0.209548  0.511021  1
  Co  Co8  1  0.250000  0.406337  0.487791  1
  Co  Co9  1  0.250000  0.093542  0.987956  1
  Co  Co10  1  0.750000  0.593485  0.511549  1
  Co  Co11  1  0.750000  0.906512  0.012140  1
  Co  Co12  1  0.250000  0.221101  0.176585  1
  Co  Co13  1  0.250000  0.278772  0.676533  1
  Co  Co14  1  0.750000  0.779148  0.823553  1
  Co  Co15  1  0.750000  0.721219  0.323350  1
  Co  Co16  1  0.250000  0.883689  0.698929  1
  Co  Co17  1  0.250000  0.616614  0.199011  1
  Co  Co18  1  0.750000  0.116545  0.300969  1
  Co  Co19  1  0.750000  0.383050  0.801323  1
  Co  Co20  1  0.250000  0.465661  0.932816  1
  Co  Co21  1  0.250000  0.034148  0.432362  1
  Co  Co22  1  0.750000  0.534142  0.067769  1
  Co  Co23  1  0.750000  0.966016  0.567418  1
  P  P24  1  0.250000  0.419130  0.112852  1
  P  P25  1  0.250000  0.080879  0.612575  1
  P  P26  1  0.750000  0.580843  0.887766  1
  P  P27  1  0.750000  0.919149  0.387305  1
  P  P28  1  0.250000  0.269950  0.867704  1
  P  P29  1  0.250000  0.229979  0.367615  1
  P  P30  1  0.750000  0.730060  0.132349  1
  P  P31  1  0.750000  0.770459  0.632090  1
  P  P32  1  0.250000  0.600449  0.391380  1
  P  P33  1  0.250000  0.899706  0.891417  1
  P  P34  1  0.750000  0.399157  0.608405  1
  P  P35  1  0.750000  0.100329  0.108609  1
