# generated using pymatgen
data_Lu4MnTc5Os2
_symmetry_space_group_name_H-M   'P 1'
_cell_length_a   5.27702537
_cell_length_b   5.27702640
_cell_length_c   8.86543200
_cell_angle_alpha   90.00000000
_cell_angle_beta   90.00000000
_cell_angle_gamma   120.76628664
_symmetry_Int_Tables_number   1
_chemical_formula_structural   Lu4MnTc5Os2
_chemical_formula_sum   'Lu4 Mn1 Tc5 Os2'
_cell_volume   212.13067428
_cell_formula_units_Z   1
loop_
 _symmetry_equiv_pos_site_id
 _symmetry_equiv_pos_as_xyz
  1  'x, y, z'
loop_
 _atom_site_type_symbol
 _atom_site_label
 _atom_site_symmetry_multiplicity
 _atom_site_fract_x
 _atom_site_fract_y
 _atom_site_fract_z
 _atom_site_occupancy
  Lu  Lu0  1  0.335189  0.664811  0.438342  1
  Lu  Lu1  1  0.666179  0.333821  0.562852  1
  Lu  Lu2  1  0.666179  0.333821  0.937148  1
  Lu  Lu3  1  0.335189  0.664811  0.061658  1
  Mn  Mn4  1  0.827838  0.172162  0.250000  1
  Tc  Tc5  1  0.169724  0.341775  0.750000  1
  Tc  Tc6  1  0.169045  0.830955  0.750000  1
  Tc  Tc7  1  0.345837  0.176828  0.250000  1
  Tc  Tc8  1  0.823172  0.654163  0.250000  1
  Tc  Tc9  1  0.658225  0.830276  0.750000  1
  Os  Os10  1  0.001712  0.998288  0.006625  1
  Os  Os11  1  0.001712  0.998288  0.493375  1
