# generated using pymatgen
data_Dy3Y(Si2Pt3)2
_symmetry_space_group_name_H-M   'P 1'
_cell_length_a   4.19650000
_cell_length_b   6.70050804
_cell_length_c   8.92963705
_cell_angle_alpha   90.01263714
_cell_angle_beta   90.00000000
_cell_angle_gamma   90.00000000
_symmetry_Int_Tables_number   1
_chemical_formula_structural   Dy3Y(Si2Pt3)2
_chemical_formula_sum   'Dy3 Y1 Si4 Pt6'
_cell_volume   251.08961854
_cell_formula_units_Z   1
loop_
 _symmetry_equiv_pos_site_id
 _symmetry_equiv_pos_as_xyz
  1  'x, y, z'
loop_
 _atom_site_type_symbol
 _atom_site_label
 _atom_site_symmetry_multiplicity
 _atom_site_fract_x
 _atom_site_fract_y
 _atom_site_fract_z
 _atom_site_occupancy
  Dy  Dy0  1  0.000000  0.111969  0.670803  1
  Dy  Dy1  1  0.000000  0.387999  0.170730  1
  Dy  Dy2  1  0.000000  0.611989  0.829217  1
  Y  Y3  1  0.000000  0.887944  0.329155  1
  Si  Si4  1  0.500000  0.574165  0.357372  1
  Si  Si5  1  0.500000  0.425707  0.642630  1
  Si  Si6  1  0.500000  0.074316  0.142620  1
  Si  Si7  1  0.500000  0.925772  0.857353  1
  Pt  Pt8  1  0.500000  0.694767  0.090689  1
  Pt  Pt9  1  0.500000  0.305117  0.909234  1
  Pt  Pt10  1  0.500000  0.195336  0.409294  1
  Pt  Pt11  1  0.500000  0.805051  0.590971  1
  Pt  Pt12  1  0.000000  0.499819  0.500077  1
  Pt  Pt13  1  0.000000  0.000048  0.999855  1
