# generated using pymatgen
data_LaNd14Y(CdRu)4
_symmetry_space_group_name_H-M   'P 1'
_cell_length_a   9.92010214
_cell_length_b   9.94636628
_cell_length_c   9.92010267
_cell_angle_alpha   59.91238310
_cell_angle_beta   59.67208278
_cell_angle_gamma   59.91238146
_symmetry_Int_Tables_number   1
_chemical_formula_structural   LaNd14Y(CdRu)4
_chemical_formula_sum   'La1 Nd14 Y1 Cd4 Ru4'
_cell_volume   689.47785889
_cell_formula_units_Z   1
loop_
 _symmetry_equiv_pos_site_id
 _symmetry_equiv_pos_as_xyz
  1  'x, y, z'
loop_
 _atom_site_type_symbol
 _atom_site_label
 _atom_site_symmetry_multiplicity
 _atom_site_fract_x
 _atom_site_fract_y
 _atom_site_fract_z
 _atom_site_occupancy
  La  La0  1  0.313168  0.686832  0.313168  1
  Nd  Nd1  1  0.439664  0.437373  0.060585  1
  Nd  Nd2  1  0.060585  0.062378  0.439664  1
  Nd  Nd3  1  0.439664  0.062378  0.060585  1
  Nd  Nd4  1  0.844844  0.849114  0.844844  1
  Nd  Nd5  1  0.692898  0.307876  0.311925  1
  Nd  Nd6  1  0.060585  0.437373  0.439664  1
  Nd  Nd7  1  0.311925  0.687301  0.692898  1
  Nd  Nd8  1  0.311925  0.307876  0.692898  1
  Nd  Nd9  1  0.845235  0.847106  0.460552  1
  Nd  Nd10  1  0.692898  0.687301  0.311925  1
  Nd  Nd11  1  0.460552  0.847106  0.845235  1
  Nd  Nd12  1  0.061740  0.438260  0.061740  1
  Nd  Nd13  1  0.844844  0.461198  0.844844  1
  Nd  Nd14  1  0.439189  0.060811  0.439189  1
  Y  Y15  1  0.689652  0.310348  0.689652  1
  Cd  Cd16  1  0.078412  0.762486  0.078412  1
  Cd  Cd17  1  0.077680  0.080482  0.761355  1
  Cd  Cd18  1  0.761355  0.080482  0.077680  1
  Cd  Cd19  1  0.078412  0.080691  0.078412  1
  Ru  Ru20  1  0.638179  0.084641  0.638179  1
  Ru  Ru21  1  0.638179  0.639001  0.638179  1
  Ru  Ru22  1  0.628217  0.640793  0.090196  1
  Ru  Ru23  1  0.090196  0.640793  0.628217  1
