# generated using pymatgen
data_Sr3(TbSn2)2
_symmetry_space_group_name_H-M   'P 1'
_cell_length_a   8.16043500
_cell_length_b   8.73494000
_cell_length_c   16.56331800
_cell_angle_alpha   90.00000000
_cell_angle_beta   90.00000000
_cell_angle_gamma   90.00000000
_symmetry_Int_Tables_number   1
_chemical_formula_structural   Sr3(TbSn2)2
_chemical_formula_sum   'Sr12 Tb8 Sn16'
_cell_volume   1180.64838130
_cell_formula_units_Z   4
loop_
 _symmetry_equiv_pos_site_id
 _symmetry_equiv_pos_as_xyz
  1  'x, y, z'
loop_
 _atom_site_type_symbol
 _atom_site_label
 _atom_site_symmetry_multiplicity
 _atom_site_fract_x
 _atom_site_fract_y
 _atom_site_fract_z
 _atom_site_occupancy
  Sr  Sr0  1  0.504527  0.681473  0.592171  1
  Sr  Sr1  1  0.004527  0.818527  0.907829  1
  Sr  Sr2  1  0.495473  0.318527  0.092171  1
  Sr  Sr3  1  0.995473  0.181473  0.407829  1
  Sr  Sr4  1  0.495473  0.318527  0.407829  1
  Sr  Sr5  1  0.995473  0.181473  0.092171  1
  Sr  Sr6  1  0.504527  0.681473  0.907829  1
  Sr  Sr7  1  0.004527  0.818527  0.592171  1
  Sr  Sr8  1  0.830363  0.515024  0.750000  1
  Sr  Sr9  1  0.330363  0.984976  0.750000  1
  Sr  Sr10  1  0.169637  0.484976  0.250000  1
  Sr  Sr11  1  0.669637  0.015024  0.250000  1
  Tb  Tb12  1  0.672394  0.169471  0.621855  1
  Tb  Tb13  1  0.172394  0.330529  0.878145  1
  Tb  Tb14  1  0.327606  0.830529  0.121855  1
  Tb  Tb15  1  0.827606  0.669471  0.378145  1
  Tb  Tb16  1  0.327606  0.830529  0.378145  1
  Tb  Tb17  1  0.827606  0.669471  0.121855  1
  Tb  Tb18  1  0.672394  0.169471  0.878145  1
  Tb  Tb19  1  0.172394  0.330529  0.621855  1
  Sn  Sn20  1  0.662672  0.957826  0.461572  1
  Sn  Sn21  1  0.162672  0.542174  0.038428  1
  Sn  Sn22  1  0.337328  0.042174  0.961572  1
  Sn  Sn23  1  0.837328  0.457826  0.538428  1
  Sn  Sn24  1  0.337328  0.042174  0.538428  1
  Sn  Sn25  1  0.837328  0.457826  0.961572  1
  Sn  Sn26  1  0.662672  0.957826  0.038428  1
  Sn  Sn27  1  0.162672  0.542174  0.461572  1
  Sn  Sn28  1  0.463742  0.362075  0.750000  1
  Sn  Sn29  1  0.963742  0.137925  0.750000  1
  Sn  Sn30  1  0.536258  0.637925  0.250000  1
  Sn  Sn31  1  0.036258  0.862075  0.250000  1
  Sn  Sn32  1  0.722133  0.891253  0.750000  1
  Sn  Sn33  1  0.222133  0.608747  0.750000  1
  Sn  Sn34  1  0.277867  0.108747  0.250000  1
  Sn  Sn35  1  0.777867  0.391253  0.250000  1
