# generated using pymatgen
data_Nb5Cu4Si3Ge
_symmetry_space_group_name_H-M   'P 1'
_cell_length_a   7.49590262
_cell_length_b   7.49590257
_cell_length_c   7.50700675
_cell_angle_alpha   93.72827296
_cell_angle_beta   93.02290445
_cell_angle_gamma   151.89257283
_symmetry_Int_Tables_number   1
_chemical_formula_structural   Nb5Cu4Si3Ge
_chemical_formula_sum   'Nb5 Cu4 Si3 Ge1'
_cell_volume   192.79035000
_cell_formula_units_Z   1
loop_
 _symmetry_equiv_pos_site_id
 _symmetry_equiv_pos_as_xyz
  1  'x, y, z'
loop_
 _atom_site_type_symbol
 _atom_site_label
 _atom_site_symmetry_multiplicity
 _atom_site_fract_x
 _atom_site_fract_y
 _atom_site_fract_z
 _atom_site_occupancy
  Nb  Nb0  1  0.502304  0.499986  0.002290  1
  Nb  Nb1  1  0.127025  0.806899  0.933923  1
  Nb  Nb2  1  0.197013  0.129777  0.326790  1
  Nb  Nb3  1  0.805132  0.867786  0.672918  1
  Nb  Nb4  1  0.876314  0.197355  0.073669  1
  Cu  Cu5  1  0.395196  0.917286  0.312482  1
  Cu  Cu6  1  0.597841  0.081224  0.679064  1
  Cu  Cu7  1  0.916514  0.603807  0.520320  1
  Cu  Cu8  1  0.079326  0.394722  0.474048  1
  Si  Si9  1  0.440691  0.248257  0.688948  1
  Si  Si10  1  0.561279  0.752438  0.313717  1
  Si  Si11  1  0.752793  0.439929  0.192722  1
  Ge  Ge12  1  0.248572  0.560535  0.809107  1
