# generated using pymatgen
data_Ti3Al2PRu6
_symmetry_space_group_name_H-M   'P 1'
_cell_length_a   4.28880701
_cell_length_b   6.05730502
_cell_length_c   12.81105300
_cell_angle_alpha   90.00032179
_cell_angle_beta   89.99962067
_cell_angle_gamma   89.99162820
_symmetry_Int_Tables_number   1
_chemical_formula_structural   Ti3Al2PRu6
_chemical_formula_sum   'Ti6 Al4 P2 Ru12'
_cell_volume   332.81337451
_cell_formula_units_Z   2
loop_
 _symmetry_equiv_pos_site_id
 _symmetry_equiv_pos_as_xyz
  1  'x, y, z'
loop_
 _atom_site_type_symbol
 _atom_site_label
 _atom_site_symmetry_multiplicity
 _atom_site_fract_x
 _atom_site_fract_y
 _atom_site_fract_z
 _atom_site_occupancy
  Ti  Ti0  1  0.000017  0.999953  0.998915  1
  Ti  Ti1  1  0.499850  0.500047  0.167776  1
  Ti  Ti2  1  0.999870  0.999963  0.334573  1
  Ti  Ti3  1  0.499990  0.500029  0.500040  1
  Ti  Ti4  1  0.000135  0.999972  0.666605  1
  Ti  Ti5  1  0.500136  0.500036  0.832087  1
  Al  Al6  1  0.999813  0.500022  0.332669  1
  Al  Al7  1  0.499990  0.999979  0.499401  1
  Al  Al8  1  0.000168  0.500020  0.667201  1
  Al  Al9  1  0.500168  0.999977  0.834031  1
  P  P10  1  0.999997  0.499995  0.998050  1
  P  P11  1  0.499838  0.000003  0.168611  1
  Ru  Ru12  1  0.500042  0.251210  0.004573  1
  Ru  Ru13  1  0.499959  0.748800  0.004573  1
  Ru  Ru14  1  0.999853  0.248776  0.162130  1
  Ru  Ru15  1  0.999936  0.751211  0.162130  1
  Ru  Ru16  1  0.499896  0.245691  0.327013  1
  Ru  Ru17  1  0.499844  0.754315  0.327010  1
  Ru  Ru18  1  0.999992  0.250094  0.498407  1
  Ru  Ru19  1  0.999984  0.749909  0.498403  1
  Ru  Ru20  1  0.500134  0.249878  0.668244  1
  Ru  Ru21  1  0.500141  0.750116  0.668247  1
  Ru  Ru22  1  0.000096  0.254309  0.839655  1
  Ru  Ru23  1  0.000150  0.745684  0.839658  1
