# generated using pymatgen
data_Y2Al20OsRh3
_symmetry_space_group_name_H-M   'P 1'
_cell_length_a   6.85054567
_cell_length_b   6.84697740
_cell_length_c   9.15640156
_cell_angle_alpha   90.14179507
_cell_angle_beta   90.19645270
_cell_angle_gamma   97.17692168
_symmetry_Int_Tables_number   1
_chemical_formula_structural   Y2Al20OsRh3
_chemical_formula_sum   'Y2 Al20 Os1 Rh3'
_cell_volume   426.11657438
_cell_formula_units_Z   1
loop_
 _symmetry_equiv_pos_site_id
 _symmetry_equiv_pos_as_xyz
  1  'x, y, z'
loop_
 _atom_site_type_symbol
 _atom_site_label
 _atom_site_symmetry_multiplicity
 _atom_site_fract_x
 _atom_site_fract_y
 _atom_site_fract_z
 _atom_site_occupancy
  Y  Y0  1  0.869051  0.127837  0.749893  1
  Y  Y1  1  0.130949  0.872163  0.250107  1
  Al  Al2  1  0.621517  0.376339  0.547942  1
  Al  Al3  1  0.378483  0.623661  0.452058  1
  Al  Al4  1  0.378102  0.622427  0.049617  1
  Al  Al5  1  0.621898  0.377573  0.950383  1
  Al  Al6  1  0.221025  0.220850  0.499527  1
  Al  Al7  1  0.778975  0.779150  0.500473  1
  Al  Al8  1  0.777073  0.777202  0.999673  1
  Al  Al9  1  0.222927  0.222798  0.000327  1
  Al  Al10  1  0.845299  0.155241  0.103435  1
  Al  Al11  1  0.154701  0.844759  0.896565  1
  Al  Al12  1  0.155119  0.845703  0.602296  1
  Al  Al13  1  0.844881  0.154297  0.397704  1
  Al  Al14  1  0.856602  0.589143  0.749617  1
  Al  Al15  1  0.143398  0.410857  0.250383  1
  Al  Al16  1  0.410330  0.142870  0.749714  1
  Al  Al17  1  0.589670  0.857130  0.250286  1
  Al  Al18  1  0.225203  0.480608  0.749844  1
  Al  Al19  1  0.774797  0.519392  0.250156  1
  Al  Al20  1  0.518878  0.776184  0.746841  1
  Al  Al21  1  0.481122  0.223816  0.253159  1
  Os  Os22  1  0.500000  0.000000  0.500000  1
  Rh  Rh23  1  0.000000  0.500000  0.500000  1
  Rh  Rh24  1  0.000000  0.500000  0.000000  1
  Rh  Rh25  1  0.500000  0.000000  0.000000  1
