# generated using pymatgen
data_Ho8Ta11TiSi16
_symmetry_space_group_name_H-M   'P 1'
_cell_length_a   7.03465405
_cell_length_b   7.03105147
_cell_length_c   12.96777178
_cell_angle_alpha   89.96043720
_cell_angle_beta   90.00466701
_cell_angle_gamma   89.98661551
_symmetry_Int_Tables_number   1
_chemical_formula_structural   Ho8Ta11TiSi16
_chemical_formula_sum   'Ho8 Ta11 Ti1 Si16'
_cell_volume   641.39897834
_cell_formula_units_Z   1
loop_
 _symmetry_equiv_pos_site_id
 _symmetry_equiv_pos_as_xyz
  1  'x, y, z'
loop_
 _atom_site_type_symbol
 _atom_site_label
 _atom_site_symmetry_multiplicity
 _atom_site_fract_x
 _atom_site_fract_y
 _atom_site_fract_z
 _atom_site_occupancy
  Ho  Ho0  1  0.342358  0.002262  0.467651  1
  Ho  Ho1  1  0.497909  0.842283  0.717839  1
  Ho  Ho2  1  0.502246  0.158071  0.218041  1
  Ho  Ho3  1  0.841820  0.497579  0.282022  1
  Ho  Ho4  1  0.157754  0.502061  0.782360  1
  Ho  Ho5  1  0.658317  0.997049  0.967819  1
  Ho  Ho6  1  0.002844  0.341654  0.532273  1
  Ho  Ho7  1  0.997226  0.658856  0.032008  1
  Ta  Ta8  1  0.328394  0.328674  0.999806  1
  Ta  Ta9  1  0.171626  0.828014  0.250073  1
  Ta  Ta10  1  0.827081  0.172893  0.750024  1
  Ta  Ta11  1  0.671315  0.671422  0.499862  1
  Ta  Ta12  1  0.152066  0.006477  0.873849  1
  Ta  Ta13  1  0.493139  0.652467  0.124639  1
  Ta  Ta14  1  0.507028  0.347402  0.624347  1
  Ta  Ta15  1  0.652824  0.491938  0.875848  1
  Ta  Ta16  1  0.348070  0.507108  0.375518  1
  Ta  Ta17  1  0.846571  0.992307  0.373963  1
  Ta  Ta18  1  0.007453  0.152653  0.125931  1
  Ti  Ti19  1  0.992733  0.846572  0.626158  1
  Si  Si20  1  0.202208  0.132231  0.681965  1
  Si  Si21  1  0.365838  0.703923  0.931760  1
  Si  Si22  1  0.634624  0.296329  0.432391  1
  Si  Si23  1  0.703433  0.365640  0.068178  1
  Si  Si24  1  0.295726  0.635512  0.568057  1
  Si  Si25  1  0.796571  0.865512  0.181743  1
  Si  Si26  1  0.134407  0.203438  0.318386  1
  Si  Si27  1  0.865575  0.797379  0.817083  1
  Si  Si28  1  0.294636  0.954010  0.063808  1
  Si  Si29  1  0.545819  0.794734  0.314129  1
  Si  Si30  1  0.453427  0.205605  0.813763  1
  Si  Si31  1  0.795822  0.547669  0.685115  1
  Si  Si32  1  0.205408  0.454070  0.186017  1
  Si  Si33  1  0.708038  0.045068  0.564591  1
  Si  Si34  1  0.954025  0.294756  0.935912  1
  Si  Si35  1  0.045669  0.706383  0.437070  1
