# generated using pymatgen
data_Rb2SiSn3Se8
_symmetry_space_group_name_H-M   'P 1'
_cell_length_a   10.21214554
_cell_length_b   10.21214626
_cell_length_c   7.32629358
_cell_angle_alpha   88.76008411
_cell_angle_beta   88.76008974
_cell_angle_gamma   140.89264789
_symmetry_Int_Tables_number   1
_chemical_formula_structural   Rb2SiSn3Se8
_chemical_formula_sum   'Rb2 Si1 Sn3 Se8'
_cell_volume   480.93178541
_cell_formula_units_Z   1
loop_
 _symmetry_equiv_pos_site_id
 _symmetry_equiv_pos_as_xyz
  1  'x, y, z'
loop_
 _atom_site_type_symbol
 _atom_site_label
 _atom_site_symmetry_multiplicity
 _atom_site_fract_x
 _atom_site_fract_y
 _atom_site_fract_z
 _atom_site_occupancy
  Rb  Rb0  1  0.344756  0.035369  0.970594  1
  Rb  Rb1  1  0.035369  0.344756  0.970594  1
  Si  Si2  1  0.599809  0.599809  0.376162  1
  Sn  Sn3  1  0.473121  0.845623  0.551537  1
  Sn  Sn4  1  0.845623  0.473121  0.551537  1
  Sn  Sn5  1  0.700097  0.700097  0.873932  1
  Se  Se6  1  0.488400  0.104343  0.454580  1
  Se  Se7  1  0.104343  0.488400  0.454580  1
  Se  Se8  1  0.397851  0.397851  0.140914  1
  Se  Se9  1  0.743015  0.921071  0.352901  1
  Se  Se10  1  0.406141  0.406141  0.639178  1
  Se  Se11  1  0.855441  0.531961  0.883595  1
  Se  Se12  1  0.531961  0.855441  0.883595  1
  Se  Se13  1  0.921071  0.743015  0.352901  1
