# generated using pymatgen
data_Pr3SnHgPt3Pb
_symmetry_space_group_name_H-M   'P 1'
_cell_length_a   7.81341575
_cell_length_b   7.90687472
_cell_length_c   4.05059500
_cell_angle_alpha   90.00000000
_cell_angle_beta   90.00000000
_cell_angle_gamma   119.99466057
_symmetry_Int_Tables_number   1
_chemical_formula_structural   Pr3SnHgPt3Pb
_chemical_formula_sum   'Pr3 Sn1 Hg1 Pt3 Pb1'
_cell_volume   216.72978958
_cell_formula_units_Z   1
loop_
 _symmetry_equiv_pos_site_id
 _symmetry_equiv_pos_as_xyz
  1  'x, y, z'
loop_
 _atom_site_type_symbol
 _atom_site_label
 _atom_site_symmetry_multiplicity
 _atom_site_fract_x
 _atom_site_fract_y
 _atom_site_fract_z
 _atom_site_occupancy
  Pr  Pr0  1  0.604388  0.596680  0.000000  1
  Pr  Pr1  1  0.397736  0.989612  0.000000  1
  Pr  Pr2  1  0.998375  0.417332  0.000000  1
  Sn  Sn3  1  0.745465  0.001158  0.500000  1
  Hg  Hg4  1  0.000271  0.739356  0.500000  1
  Pt  Pt5  1  0.666500  0.321076  0.500000  1
  Pt  Pt6  1  0.984657  0.003652  0.000000  1
  Pt  Pt7  1  0.346686  0.673833  0.500000  1
  Pb  Pb8  1  0.255923  0.257302  0.500000  1
