# generated using pymatgen
data_Ca2ZnGaPt4
_symmetry_space_group_name_H-M   'P 1'
_cell_length_a   5.49427700
_cell_length_b   5.49427635
_cell_length_c   16.69355200
_cell_angle_alpha   90.00000000
_cell_angle_beta   90.00000000
_cell_angle_gamma   119.99999787
_symmetry_Int_Tables_number   1
_chemical_formula_structural   Ca2ZnGaPt4
_chemical_formula_sum   'Ca6 Zn3 Ga3 Pt12'
_cell_volume   436.41578088
_cell_formula_units_Z   3
loop_
 _symmetry_equiv_pos_site_id
 _symmetry_equiv_pos_as_xyz
  1  'x, y, z'
loop_
 _atom_site_type_symbol
 _atom_site_label
 _atom_site_symmetry_multiplicity
 _atom_site_fract_x
 _atom_site_fract_y
 _atom_site_fract_z
 _atom_site_occupancy
  Ca  Ca0  1  0.333333  0.666667  0.542404  1
  Ca  Ca1  1  0.666667  0.333333  0.458353  1
  Ca  Ca2  1  0.666667  0.333333  0.041647  1
  Ca  Ca3  1  0.333333  0.666667  0.957596  1
  Ca  Ca4  1  0.333333  0.666667  0.750000  1
  Ca  Ca5  1  0.666667  0.333333  0.250000  1
  Zn  Zn6  1  0.000000  0.000000  0.250000  1
  Zn  Zn7  1  0.000000  0.000000  0.750000  1
  Zn  Zn8  1  0.333333  0.666667  0.250000  1
  Ga  Ga9  1  0.666667  0.333333  0.750000  1
  Ga  Ga10  1  0.000000  0.000000  0.999619  1
  Ga  Ga11  1  0.000000  0.000000  0.500381  1
  Pt  Pt12  1  0.168585  0.337169  0.124814  1
  Pt  Pt13  1  0.831836  0.663673  0.874312  1
  Pt  Pt14  1  0.662831  0.831415  0.124814  1
  Pt  Pt15  1  0.831836  0.663673  0.625688  1
  Pt  Pt16  1  0.336327  0.168164  0.874312  1
  Pt  Pt17  1  0.168585  0.337169  0.375186  1
  Pt  Pt18  1  0.168585  0.831415  0.124814  1
  Pt  Pt19  1  0.336327  0.168164  0.625688  1
  Pt  Pt20  1  0.831836  0.168164  0.874312  1
  Pt  Pt21  1  0.662831  0.831415  0.375186  1
  Pt  Pt22  1  0.831836  0.168164  0.625688  1
  Pt  Pt23  1  0.168585  0.831415  0.375186  1
