# generated using pymatgen
data_TmLu11Cd2Fe3
_symmetry_space_group_name_H-M   'P 1'
_cell_length_a   8.15656245
_cell_length_b   8.15656374
_cell_length_c   8.16282040
_cell_angle_alpha   108.18511526
_cell_angle_beta   108.18511976
_cell_angle_gamma   112.04561859
_symmetry_Int_Tables_number   1
_chemical_formula_structural   TmLu11Cd2Fe3
_chemical_formula_sum   'Tm1 Lu11 Cd2 Fe3'
_cell_volume   417.56352935
_cell_formula_units_Z   1
loop_
 _symmetry_equiv_pos_site_id
 _symmetry_equiv_pos_as_xyz
  1  'x, y, z'
loop_
 _atom_site_type_symbol
 _atom_site_label
 _atom_site_symmetry_multiplicity
 _atom_site_fract_x
 _atom_site_fract_y
 _atom_site_fract_z
 _atom_site_occupancy
  Tm  Tm0  1  0.308350  0.308350  0.616701  1
  Lu  Lu1  1  0.691256  0.691256  0.382513  1
  Lu  Lu2  1  0.691495  0.309377  0.000873  1
  Lu  Lu3  1  0.309377  0.691495  0.000873  1
  Lu  Lu4  1  0.189721  0.425956  0.236001  1
  Lu  Lu5  1  0.811274  0.574717  0.764353  1
  Lu  Lu6  1  0.189635  0.953078  0.764353  1
  Lu  Lu7  1  0.953078  0.189635  0.764353  1
  Lu  Lu8  1  0.810045  0.046281  0.236001  1
  Lu  Lu9  1  0.046281  0.810045  0.236001  1
  Lu  Lu10  1  0.425956  0.189721  0.236001  1
  Lu  Lu11  1  0.574717  0.811274  0.764353  1
  Cd  Cd12  1  0.000217  0.500024  0.500241  1
  Cd  Cd13  1  0.500024  0.000217  0.500241  1
  Fe  Fe14  1  0.381246  0.381246  0.999501  1
  Fe  Fe15  1  0.618255  0.618255  0.999501  1
  Fe  Fe16  1  0.999071  0.999071  0.998142  1
