# generated using pymatgen
data_Y2Co3Si4IrRh2
_symmetry_space_group_name_H-M   'P 1'
_cell_length_a   6.46600800
_cell_length_b   6.53721540
_cell_length_c   6.46600769
_cell_angle_alpha   131.34295056
_cell_angle_beta   114.07788412
_cell_angle_gamma   85.69926494
_symmetry_Int_Tables_number   1
_chemical_formula_structural   Y2Co3Si4IrRh2
_chemical_formula_sum   'Y2 Co3 Si4 Ir1 Rh2'
_cell_volume   179.64258278
_cell_formula_units_Z   1
loop_
 _symmetry_equiv_pos_site_id
 _symmetry_equiv_pos_as_xyz
  1  'x, y, z'
loop_
 _atom_site_type_symbol
 _atom_site_label
 _atom_site_symmetry_multiplicity
 _atom_site_fract_x
 _atom_site_fract_y
 _atom_site_fract_z
 _atom_site_occupancy
  Y  Y0  1  0.254299  0.533437  0.283553  1
  Y  Y1  1  0.750116  0.466563  0.720862  1
  Co  Co2  1  0.718805  0.000000  0.718805  1
  Co  Co3  1  0.219006  0.500000  0.719006  1
  Co  Co4  1  0.279323  0.000000  0.279323  1
  Si  Si5  1  0.078258  0.878428  0.810739  1
  Si  Si6  1  0.932311  0.121572  0.199830  1
  Si  Si7  1  0.563851  0.778053  0.199469  1
  Si  Si8  1  0.421416  0.221947  0.785798  1
  Ir  Ir9  1  0.781782  0.500000  0.281782  1
  Rh  Rh10  1  0.001849  0.009882  0.508865  1
  Rh  Rh11  1  0.498983  0.990118  0.991968  1
