# generated using pymatgen
data_DyY4Lu3Au4
_symmetry_space_group_name_H-M   'P 1'
_cell_length_a   4.91280700
_cell_length_b   7.12315437
_cell_length_c   8.91907854
_cell_angle_alpha   90.12357576
_cell_angle_beta   90.00000000
_cell_angle_gamma   90.00000000
_symmetry_Int_Tables_number   1
_chemical_formula_structural   DyY4Lu3Au4
_chemical_formula_sum   'Dy1 Y4 Lu3 Au4'
_cell_volume   312.11959713
_cell_formula_units_Z   1
loop_
 _symmetry_equiv_pos_site_id
 _symmetry_equiv_pos_as_xyz
  1  'x, y, z'
loop_
 _atom_site_type_symbol
 _atom_site_label
 _atom_site_symmetry_multiplicity
 _atom_site_fract_x
 _atom_site_fract_y
 _atom_site_fract_z
 _atom_site_occupancy
  Dy  Dy0  1  0.750000  0.015916  0.677816  1
  Y  Y1  1  0.750000  0.648544  0.420614  1
  Y  Y2  1  0.250000  0.484315  0.176993  1
  Y  Y3  1  0.250000  0.986400  0.322228  1
  Y  Y4  1  0.750000  0.515107  0.822899  1
  Lu  Lu5  1  0.250000  0.852403  0.921185  1
  Lu  Lu6  1  0.250000  0.351943  0.580027  1
  Lu  Lu7  1  0.750000  0.147783  0.078420  1
  Au  Au8  1  0.250000  0.253139  0.899340  1
  Au  Au9  1  0.250000  0.754799  0.603135  1
  Au  Au10  1  0.750000  0.747164  0.097867  1
  Au  Au11  1  0.750000  0.242486  0.399475  1
