# generated using pymatgen
data_ErTm7(Tc3Ge4)4
_symmetry_space_group_name_H-M   'P 1'
_cell_length_a   6.80388851
_cell_length_b   6.80587346
_cell_length_c   12.72061800
_cell_angle_alpha   90.07876424
_cell_angle_beta   89.71274047
_cell_angle_gamma   90.00537021
_symmetry_Int_Tables_number   1
_chemical_formula_structural   ErTm7(Tc3Ge4)4
_chemical_formula_sum   'Er1 Tm7 Tc12 Ge16'
_cell_volume   589.03811710
_cell_formula_units_Z   1
loop_
 _symmetry_equiv_pos_site_id
 _symmetry_equiv_pos_as_xyz
  1  'x, y, z'
loop_
 _atom_site_type_symbol
 _atom_site_label
 _atom_site_symmetry_multiplicity
 _atom_site_fract_x
 _atom_site_fract_y
 _atom_site_fract_z
 _atom_site_occupancy
  Er  Er0  1  0.004953  0.661845  0.027691  1
  Tm  Tm1  1  0.339112  0.995243  0.472916  1
  Tm  Tm2  1  0.505507  0.839979  0.722113  1
  Tm  Tm3  1  0.495259  0.161429  0.222907  1
  Tm  Tm4  1  0.839473  0.505740  0.278027  1
  Tm  Tm5  1  0.160962  0.495429  0.776962  1
  Tm  Tm6  1  0.660694  0.005856  0.972027  1
  Tm  Tm7  1  0.994549  0.339837  0.527694  1
  Tc  Tc8  1  0.335730  0.335493  0.999944  1
  Tc  Tc9  1  0.164756  0.835635  0.250221  1
  Tc  Tc10  1  0.835015  0.165202  0.749944  1
  Tc  Tc11  1  0.664980  0.665176  0.499963  1
  Tc  Tc12  1  0.184896  0.981853  0.873847  1
  Tc  Tc13  1  0.518947  0.684475  0.122613  1
  Tc  Tc14  1  0.479812  0.310776  0.621960  1
  Tc  Tc15  1  0.688088  0.520892  0.879066  1
  Tc  Tc16  1  0.314642  0.481618  0.376186  1
  Tc  Tc17  1  0.811012  0.021255  0.370729  1
  Tc  Tc18  1  0.981213  0.183778  0.126803  1
  Tc  Tc19  1  0.020577  0.810264  0.628464  1
  Ge  Ge20  1  0.188404  0.114473  0.682148  1
  Ge  Ge21  1  0.384180  0.689581  0.931916  1
  Ge  Ge22  1  0.615192  0.311075  0.431993  1
  Ge  Ge23  1  0.689798  0.382805  0.068148  1
  Ge  Ge24  1  0.311577  0.614273  0.567777  1
  Ge  Ge25  1  0.809821  0.883369  0.182122  1
  Ge  Ge26  1  0.115701  0.189184  0.317949  1
  Ge  Ge27  1  0.884242  0.811065  0.817875  1
  Ge  Ge28  1  0.279876  0.978540  0.067606  1
  Ge  Ge29  1  0.520583  0.778473  0.316781  1
  Ge  Ge30  1  0.479176  0.224336  0.816609  1
  Ge  Ge31  1  0.775044  0.519671  0.684057  1
  Ge  Ge32  1  0.221233  0.477963  0.182649  1
  Ge  Ge33  1  0.725348  0.019664  0.565841  1
  Ge  Ge34  1  0.979154  0.278877  0.932853  1
  Ge  Ge35  1  0.020492  0.724881  0.433599  1
