# generated using pymatgen
data_Y6Ti4Al12Rh7
_symmetry_space_group_name_H-M   'P 1'
_cell_length_a   9.00744818
_cell_length_b   9.00744862
_cell_length_c   9.00744900
_cell_angle_alpha   60.00000230
_cell_angle_beta   60.00000066
_cell_angle_gamma   59.99999783
_symmetry_Int_Tables_number   1
_chemical_formula_structural   Y6Ti4Al12Rh7
_chemical_formula_sum   'Y6 Ti4 Al12 Rh7'
_cell_volume   516.76177665
_cell_formula_units_Z   1
loop_
 _symmetry_equiv_pos_site_id
 _symmetry_equiv_pos_as_xyz
  1  'x, y, z'
loop_
 _atom_site_type_symbol
 _atom_site_label
 _atom_site_symmetry_multiplicity
 _atom_site_fract_x
 _atom_site_fract_y
 _atom_site_fract_z
 _atom_site_occupancy
  Y  Y0  1  0.703588  0.296412  0.296412  1
  Y  Y1  1  0.703588  0.296412  0.703588  1
  Y  Y2  1  0.703588  0.703588  0.296412  1
  Y  Y3  1  0.296412  0.703588  0.703588  1
  Y  Y4  1  0.296412  0.703588  0.296412  1
  Y  Y5  1  0.296412  0.296412  0.703588  1
  Ti  Ti6  1  0.641872  0.119376  0.119376  1
  Ti  Ti7  1  0.119376  0.641872  0.119376  1
  Ti  Ti8  1  0.119376  0.119376  0.641872  1
  Ti  Ti9  1  0.119376  0.119376  0.119376  1
  Al  Al10  1  0.357839  0.880721  0.880721  1
  Al  Al11  1  0.880721  0.357839  0.880721  1
  Al  Al12  1  0.880721  0.880721  0.357839  1
  Al  Al13  1  0.880721  0.880721  0.880721  1
  Al  Al14  1  0.011724  0.329426  0.329426  1
  Al  Al15  1  0.329426  0.011724  0.329426  1
  Al  Al16  1  0.329426  0.329426  0.011724  1
  Al  Al17  1  0.329426  0.329426  0.329426  1
  Al  Al18  1  0.983729  0.672091  0.672091  1
  Al  Al19  1  0.672091  0.983729  0.672091  1
  Al  Al20  1  0.672091  0.672091  0.983729  1
  Al  Al21  1  0.672091  0.672091  0.672091  1
  Rh  Rh22  1  0.000000  0.000000  0.000000  1
  Rh  Rh23  1  0.498428  0.001572  0.001572  1
  Rh  Rh24  1  0.498428  0.001572  0.498428  1
  Rh  Rh25  1  0.498428  0.498428  0.001572  1
  Rh  Rh26  1  0.001572  0.498428  0.498428  1
  Rh  Rh27  1  0.001572  0.498428  0.001572  1
  Rh  Rh28  1  0.001572  0.001572  0.498428  1
