# generated using pymatgen
data_Sc3Ta3(Si2Ru5)2
_symmetry_space_group_name_H-M   'P 1'
_cell_length_a   9.83303282
_cell_length_b   9.83303311
_cell_length_c   3.20811400
_cell_angle_alpha   90.00000000
_cell_angle_beta   90.00000000
_cell_angle_gamma   90.36334796
_symmetry_Int_Tables_number   1
_chemical_formula_structural   Sc3Ta3(Si2Ru5)2
_chemical_formula_sum   'Sc3 Ta3 Si4 Ru10'
_cell_volume   310.18161281
_cell_formula_units_Z   1
loop_
 _symmetry_equiv_pos_site_id
 _symmetry_equiv_pos_as_xyz
  1  'x, y, z'
loop_
 _atom_site_type_symbol
 _atom_site_label
 _atom_site_symmetry_multiplicity
 _atom_site_fract_x
 _atom_site_fract_y
 _atom_site_fract_z
 _atom_site_occupancy
  Sc  Sc0  1  0.172859  0.827141  0.000000  1
  Sc  Sc1  1  0.326867  0.328917  0.000000  1
  Sc  Sc2  1  0.671083  0.673133  0.000000  1
  Ta  Ta3  1  0.498583  0.998915  0.000000  1
  Ta  Ta4  1  0.001085  0.501417  0.000000  1
  Ta  Ta5  1  0.826804  0.173196  0.000000  1
  Si  Si6  1  0.626254  0.373746  0.000000  1
  Si  Si7  1  0.373307  0.626693  0.000000  1
  Si  Si8  1  0.127638  0.126860  0.000000  1
  Si  Si9  1  0.873140  0.872362  0.000000  1
  Ru  Ru10  1  0.501088  0.498912  0.500000  1
  Ru  Ru11  1  0.994491  0.005509  0.500000  1
  Ru  Ru12  1  0.578528  0.205176  0.500000  1
  Ru  Ru13  1  0.433127  0.792688  0.500000  1
  Ru  Ru14  1  0.060654  0.289776  0.500000  1
  Ru  Ru15  1  0.929281  0.707151  0.500000  1
  Ru  Ru16  1  0.292849  0.070719  0.500000  1
  Ru  Ru17  1  0.710224  0.939346  0.500000  1
  Ru  Ru18  1  0.207312  0.566873  0.500000  1
  Ru  Ru19  1  0.794824  0.421472  0.500000  1
