# generated using pymatgen
data_La5Tl2Os
_symmetry_space_group_name_H-M   'P 1'
_cell_length_a   8.46774600
_cell_length_b   9.41502200
_cell_length_c   12.83463200
_cell_angle_alpha   90.00000000
_cell_angle_beta   90.00000000
_cell_angle_gamma   90.00000000
_symmetry_Int_Tables_number   1
_chemical_formula_structural   La5Tl2Os
_chemical_formula_sum   'La20 Tl8 Os4'
_cell_volume   1023.22839255
_cell_formula_units_Z   4
loop_
 _symmetry_equiv_pos_site_id
 _symmetry_equiv_pos_as_xyz
  1  'x, y, z'
loop_
 _atom_site_type_symbol
 _atom_site_label
 _atom_site_symmetry_multiplicity
 _atom_site_fract_x
 _atom_site_fract_y
 _atom_site_fract_z
 _atom_site_occupancy
  La  La0  1  0.154725  0.750000  0.208615  1
  La  La1  1  0.654725  0.250000  0.291385  1
  La  La2  1  0.845275  0.250000  0.791385  1
  La  La3  1  0.345275  0.750000  0.708615  1
  La  La4  1  0.436147  0.750000  0.997490  1
  La  La5  1  0.936147  0.250000  0.502510  1
  La  La6  1  0.563853  0.250000  0.002510  1
  La  La7  1  0.063853  0.750000  0.497490  1
  La  La8  1  0.618575  0.750000  0.306205  1
  La  La9  1  0.118575  0.250000  0.193795  1
  La  La10  1  0.381425  0.250000  0.693795  1
  La  La11  1  0.881425  0.750000  0.806205  1
  La  La12  1  0.825786  0.965473  0.070729  1
  La  La13  1  0.325786  0.034527  0.429271  1
  La  La14  1  0.174214  0.465473  0.929271  1
  La  La15  1  0.674214  0.534527  0.570729  1
  La  La16  1  0.174214  0.034527  0.929271  1
  La  La17  1  0.674214  0.965473  0.570729  1
  La  La18  1  0.825786  0.534527  0.070729  1
  La  La19  1  0.325786  0.465473  0.429271  1
  Tl  Tl20  1  0.924804  0.988676  0.331356  1
  Tl  Tl21  1  0.424804  0.011324  0.168644  1
  Tl  Tl22  1  0.075196  0.488676  0.668644  1
  Tl  Tl23  1  0.575196  0.511324  0.831356  1
  Tl  Tl24  1  0.075196  0.011324  0.668644  1
  Tl  Tl25  1  0.575196  0.988676  0.831356  1
  Tl  Tl26  1  0.924804  0.511324  0.331356  1
  Tl  Tl27  1  0.424804  0.488676  0.168644  1
  Os  Os28  1  0.423672  0.750000  0.488521  1
  Os  Os29  1  0.923672  0.250000  0.011479  1
  Os  Os30  1  0.576328  0.250000  0.511479  1
  Os  Os31  1  0.076328  0.750000  0.988521  1
