# generated using pymatgen
data_NpTaN2
_symmetry_space_group_name_H-M   'P 1'
_cell_length_a   3.24371800
_cell_length_b   5.67976100
_cell_length_c   10.98575400
_cell_angle_alpha   90.00000000
_cell_angle_beta   90.00000000
_cell_angle_gamma   90.00000000
_symmetry_Int_Tables_number   1
_chemical_formula_structural   NpTaN2
_chemical_formula_sum   'Np4 Ta4 N8'
_cell_volume   202.39651111
_cell_formula_units_Z   4
loop_
 _symmetry_equiv_pos_site_id
 _symmetry_equiv_pos_as_xyz
  1  'x, y, z'
loop_
 _atom_site_type_symbol
 _atom_site_label
 _atom_site_symmetry_multiplicity
 _atom_site_fract_x
 _atom_site_fract_y
 _atom_site_fract_z
 _atom_site_occupancy
  Np  Np0  1  0.250000  0.578560  0.860328  1
  Np  Np1  1  0.750000  0.421440  0.139672  1
  Np  Np2  1  0.750000  0.921440  0.360328  1
  Np  Np3  1  0.250000  0.078560  0.639672  1
  Ta  Ta4  1  0.250000  0.922085  0.104894  1
  Ta  Ta5  1  0.750000  0.077915  0.895106  1
  Ta  Ta6  1  0.750000  0.577915  0.604894  1
  Ta  Ta7  1  0.250000  0.422085  0.395106  1
  N  N8  1  0.250000  0.661279  0.244778  1
  N  N9  1  0.750000  0.338721  0.755222  1
  N  N10  1  0.750000  0.838721  0.744778  1
  N  N11  1  0.250000  0.161279  0.255222  1
  N  N12  1  0.250000  0.752927  0.505819  1
  N  N13  1  0.750000  0.247073  0.494181  1
  N  N14  1  0.750000  0.747073  0.005819  1
  N  N15  1  0.250000  0.252927  0.994181  1
