# generated using pymatgen
data_YEr3Al14(Ga2Ir3)2
_symmetry_space_group_name_H-M   'P 1'
_cell_length_a   7.52633945
_cell_length_b   7.52691476
_cell_length_c   9.54719900
_cell_angle_alpha   90.00000000
_cell_angle_beta   90.00000000
_cell_angle_gamma   119.56408451
_symmetry_Int_Tables_number   1
_chemical_formula_structural   YEr3Al14(Ga2Ir3)2
_chemical_formula_sum   'Y1 Er3 Al14 Ga4 Ir6'
_cell_volume   470.43363599
_cell_formula_units_Z   1
loop_
 _symmetry_equiv_pos_site_id
 _symmetry_equiv_pos_as_xyz
  1  'x, y, z'
loop_
 _atom_site_type_symbol
 _atom_site_label
 _atom_site_symmetry_multiplicity
 _atom_site_fract_x
 _atom_site_fract_y
 _atom_site_fract_z
 _atom_site_occupancy
  Y  Y0  1  0.330083  0.007027  0.750000  1
  Er  Er1  1  0.997604  0.674042  0.250000  1
  Er  Er2  1  0.002237  0.325980  0.750000  1
  Er  Er3  1  0.670194  0.993125  0.250000  1
  Al  Al4  1  0.000911  0.335013  0.073640  1
  Al  Al5  1  0.998655  0.664624  0.927086  1
  Al  Al6  1  0.998655  0.664624  0.572914  1
  Al  Al7  1  0.335575  0.001773  0.425709  1
  Al  Al8  1  0.000911  0.335013  0.426360  1
  Al  Al9  1  0.664748  0.998064  0.572982  1
  Al  Al10  1  0.664748  0.998064  0.927018  1
  Al  Al11  1  0.335575  0.001773  0.074291  1
  Al  Al12  1  0.333473  0.334233  0.555056  1
  Al  Al13  1  0.666470  0.666063  0.443942  1
  Al  Al14  1  0.666470  0.666063  0.056058  1
  Al  Al15  1  0.333473  0.334233  0.944944  1
  Al  Al16  1  0.550210  0.338900  0.250000  1
  Al  Al17  1  0.449945  0.660599  0.750000  1
  Ga  Ga18  1  0.130496  0.131361  0.250000  1
  Ga  Ga19  1  0.868820  0.868763  0.750000  1
  Ga  Ga20  1  0.338823  0.546389  0.250000  1
  Ga  Ga21  1  0.662351  0.454653  0.750000  1
  Ir  Ir22  1  0.671444  0.328242  0.002710  1
  Ir  Ir23  1  0.328669  0.671711  0.997791  1
  Ir  Ir24  1  0.328669  0.671711  0.502209  1
  Ir  Ir25  1  0.671444  0.328242  0.497290  1
  Ir  Ir26  1  0.999673  0.999858  0.000334  1
  Ir  Ir27  1  0.999673  0.999858  0.499666  1
