# generated using pymatgen
data_CaYb(MoN2)2
_symmetry_space_group_name_H-M   'P 1'
_cell_length_a   3.03457300
_cell_length_b   3.03457248
_cell_length_c   11.35952000
_cell_angle_alpha   90.00000000
_cell_angle_beta   90.00000000
_cell_angle_gamma   119.99999473
_symmetry_Int_Tables_number   1
_chemical_formula_structural   CaYb(MoN2)2
_chemical_formula_sum   'Ca1 Yb1 Mo2 N4'
_cell_volume   90.59114319
_cell_formula_units_Z   1
loop_
 _symmetry_equiv_pos_site_id
 _symmetry_equiv_pos_as_xyz
  1  'x, y, z'
loop_
 _atom_site_type_symbol
 _atom_site_label
 _atom_site_symmetry_multiplicity
 _atom_site_fract_x
 _atom_site_fract_y
 _atom_site_fract_z
 _atom_site_occupancy
  Ca  Ca0  1  0.000000  0.000000  0.500000  1
  Yb  Yb1  1  0.000000  0.000000  0.000000  1
  Mo  Mo2  1  0.333333  0.666667  0.751758  1
  Mo  Mo3  1  0.666667  0.333333  0.248242  1
  N  N4  1  0.666667  0.333333  0.640909  1
  N  N5  1  0.666667  0.333333  0.862373  1
  N  N6  1  0.333333  0.666667  0.137627  1
  N  N7  1  0.333333  0.666667  0.359091  1
