# generated using pymatgen
data_Al6Cd4SeO12
_symmetry_space_group_name_H-M   'P 1'
_cell_length_a   7.79689585
_cell_length_b   7.79689594
_cell_length_c   7.79689500
_cell_angle_alpha   109.47121820
_cell_angle_beta   109.47121844
_cell_angle_gamma   109.47122259
_symmetry_Int_Tables_number   1
_chemical_formula_structural   Al6Cd4SeO12
_chemical_formula_sum   'Al6 Cd4 Se1 O12'
_cell_volume   364.87430438
_cell_formula_units_Z   1
loop_
 _symmetry_equiv_pos_site_id
 _symmetry_equiv_pos_as_xyz
  1  'x, y, z'
loop_
 _atom_site_type_symbol
 _atom_site_label
 _atom_site_symmetry_multiplicity
 _atom_site_fract_x
 _atom_site_fract_y
 _atom_site_fract_z
 _atom_site_occupancy
  Al  Al0  1  0.250000  0.500000  0.750000  1
  Al  Al1  1  0.750000  0.500000  0.250000  1
  Al  Al2  1  0.250000  0.750000  0.500000  1
  Al  Al3  1  0.750000  0.250000  0.500000  1
  Al  Al4  1  0.500000  0.250000  0.750000  1
  Al  Al5  1  0.500000  0.750000  0.250000  1
  Cd  Cd6  1  0.000000  0.342240  0.000000  1
  Cd  Cd7  1  0.342240  0.000000  0.000000  1
  Cd  Cd8  1  0.657760  0.657760  0.657760  1
  Cd  Cd9  1  0.000000  0.000000  0.342240  1
  Se  Se10  1  0.000000  0.000000  0.000000  1
  O  O11  1  0.000000  0.556553  0.275451  1
  O  O12  1  0.443447  0.443447  0.718898  1
  O  O13  1  0.000000  0.275451  0.556553  1
  O  O14  1  0.275451  0.000000  0.556553  1
  O  O15  1  0.724549  0.281102  0.724549  1
  O  O16  1  0.281102  0.724549  0.724549  1
  O  O17  1  0.724549  0.724549  0.281102  1
  O  O18  1  0.556553  0.275451  0.000000  1
  O  O19  1  0.275451  0.556553  0.000000  1
  O  O20  1  0.443447  0.718898  0.443447  1
  O  O21  1  0.556553  0.000000  0.275451  1
  O  O22  1  0.718898  0.443447  0.443447  1
