# generated using pymatgen
data_Pr4ScTc4(P4Ir5)3
_symmetry_space_group_name_H-M   'P 1'
_cell_length_a   12.77441220
_cell_length_b   12.67114373
_cell_length_c   4.01315800
_cell_angle_alpha   90.00000000
_cell_angle_beta   90.00000000
_cell_angle_gamma   119.93409705
_symmetry_Int_Tables_number   1
_chemical_formula_structural   Pr4ScTc4(P4Ir5)3
_chemical_formula_sum   'Pr4 Sc1 Tc4 P12 Ir15'
_cell_volume   562.93941457
_cell_formula_units_Z   1
loop_
 _symmetry_equiv_pos_site_id
 _symmetry_equiv_pos_as_xyz
  1  'x, y, z'
loop_
 _atom_site_type_symbol
 _atom_site_label
 _atom_site_symmetry_multiplicity
 _atom_site_fract_x
 _atom_site_fract_y
 _atom_site_fract_z
 _atom_site_occupancy
  Pr  Pr0  1  0.331673  0.663981  0.000000  1
  Pr  Pr1  1  0.666466  0.332602  0.000000  1
  Pr  Pr2  1  0.816437  0.002048  0.500000  1
  Pr  Pr3  1  0.002052  0.816481  0.500000  1
  Sc  Sc4  1  0.187949  0.190639  0.500000  1
  Tc  Tc5  1  0.453879  0.000697  0.000000  1
  Tc  Tc6  1  0.996305  0.451436  0.000000  1
  Tc  Tc7  1  0.547410  0.542623  0.000000  1
  Tc  Tc8  1  0.178096  0.375539  0.000000  1
  P  P9  1  0.180724  0.006262  0.000000  1
  P  P10  1  0.007834  0.184827  0.000000  1
  P  P11  1  0.823339  0.824369  0.000000  1
  P  P12  1  0.170879  0.477474  0.500000  1
  P  P13  1  0.517588  0.684137  0.500000  1
  P  P14  1  0.312221  0.830698  0.500000  1
  P  P15  1  0.684498  0.517140  0.500000  1
  P  P16  1  0.832142  0.313773  0.500000  1
  P  P17  1  0.482271  0.166993  0.500000  1
  P  P18  1  0.634464  0.998933  0.000000  1
  P  P19  1  0.000502  0.635005  0.000000  1
  P  P20  1  0.356652  0.362514  0.000000  1
  Ir  Ir21  1  0.363672  0.486973  0.500000  1
  Ir  Ir22  1  0.509280  0.869107  0.500000  1
  Ir  Ir23  1  0.128060  0.637832  0.500000  1
  Ir  Ir24  1  0.869253  0.511237  0.500000  1
  Ir  Ir25  1  0.639512  0.128050  0.500000  1
  Ir  Ir26  1  0.490080  0.356489  0.500000  1
  Ir  Ir27  1  0.623425  0.801828  0.000000  1
  Ir  Ir28  1  0.198880  0.822157  0.000000  1
  Ir  Ir29  1  0.804747  0.626295  0.000000  1
  Ir  Ir30  1  0.817713  0.195870  0.000000  1
  Ir  Ir31  1  0.370252  0.181378  0.000000  1
  Ir  Ir32  1  0.289629  0.002215  0.500000  1
  Ir  Ir33  1  0.997000  0.286949  0.500000  1
  Ir  Ir34  1  0.710641  0.710719  0.500000  1
  Ir  Ir35  1  0.004473  0.004733  0.000000  1
