# generated using pymatgen
data_Ca9La3(GeRh)8
_symmetry_space_group_name_H-M   'P 1'
_cell_length_a   5.76682345
_cell_length_b   7.90398398
_cell_length_c   13.73896723
_cell_angle_alpha   89.94482544
_cell_angle_beta   90.07072643
_cell_angle_gamma   89.49962793
_symmetry_Int_Tables_number   1
_chemical_formula_structural   Ca9La3(GeRh)8
_chemical_formula_sum   'Ca9 La3 Ge8 Rh8'
_cell_volume   626.20956390
_cell_formula_units_Z   1
loop_
 _symmetry_equiv_pos_site_id
 _symmetry_equiv_pos_as_xyz
  1  'x, y, z'
loop_
 _atom_site_type_symbol
 _atom_site_label
 _atom_site_symmetry_multiplicity
 _atom_site_fract_x
 _atom_site_fract_y
 _atom_site_fract_z
 _atom_site_occupancy
  Ca  Ca0  1  0.636806  0.251681  0.253058  1
  Ca  Ca1  1  0.363513  0.743432  0.749287  1
  Ca  Ca2  1  0.358553  0.743413  0.254520  1
  Ca  Ca3  1  0.642471  0.260121  0.747883  1
  Ca  Ca4  1  0.140431  0.399885  0.103398  1
  Ca  Ca5  1  0.859063  0.598730  0.898162  1
  Ca  Ca6  1  0.861667  0.604273  0.598030  1
  Ca  Ca7  1  0.850974  0.892129  0.397559  1
  Ca  Ca8  1  0.141916  0.400883  0.398524  1
  La  La9  1  0.151329  0.103340  0.594485  1
  La  La10  1  0.157060  0.110022  0.902607  1
  La  La11  1  0.842825  0.891906  0.096783  1
  Ge  Ge12  1  0.150340  0.095613  0.251533  1
  Ge  Ge13  1  0.843674  0.905289  0.750478  1
  Ge  Ge14  1  0.845456  0.599205  0.251468  1
  Ge  Ge15  1  0.153801  0.397788  0.748639  1
  Ge  Ge16  1  0.633652  0.254756  0.000015  1
  Ge  Ge17  1  0.365541  0.746383  0.001326  1
  Ge  Ge18  1  0.382358  0.748375  0.496826  1
  Ge  Ge19  1  0.628367  0.251705  0.500077  1
  Rh  Rh20  1  0.375521  0.035918  0.094576  1
  Rh  Rh21  1  0.623695  0.962076  0.908487  1
  Rh  Rh22  1  0.627556  0.966783  0.591238  1
  Rh  Rh23  1  0.632904  0.530119  0.410316  1
  Rh  Rh24  1  0.364179  0.037184  0.410401  1
  Rh  Rh25  1  0.368116  0.467498  0.587948  1
  Rh  Rh26  1  0.372328  0.465000  0.911164  1
  Rh  Rh27  1  0.625905  0.536492  0.091211  1
