# generated using pymatgen
data_TcP2Cl8O3
_symmetry_space_group_name_H-M   'P 1'
_cell_length_a   8.94706616
_cell_length_b   9.20906195
_cell_length_c   11.03939055
_cell_angle_alpha   70.16119626
_cell_angle_beta   71.25532613
_cell_angle_gamma   65.86461495
_symmetry_Int_Tables_number   1
_chemical_formula_structural   TcP2Cl8O3
_chemical_formula_sum   'Tc2 P4 Cl16 O6'
_cell_volume   762.93707303
_cell_formula_units_Z   2
loop_
 _symmetry_equiv_pos_site_id
 _symmetry_equiv_pos_as_xyz
  1  'x, y, z'
loop_
 _atom_site_type_symbol
 _atom_site_label
 _atom_site_symmetry_multiplicity
 _atom_site_fract_x
 _atom_site_fract_y
 _atom_site_fract_z
 _atom_site_occupancy
  Tc  Tc0  1  0.916893  0.801506  0.230438  1
  Tc  Tc1  1  0.083107  0.198494  0.769562  1
  P  P2  1  0.790576  0.206506  0.064784  1
  P  P3  1  0.222583  0.805275  0.364376  1
  P  P4  1  0.209424  0.793494  0.935216  1
  P  P5  1  0.777417  0.194725  0.635624  1
  Cl  Cl6  1  0.540959  0.268021  0.087984  1
  Cl  Cl7  1  0.785643  0.206864  0.450930  1
  Cl  Cl8  1  0.023562  0.522290  0.290737  1
  Cl  Cl9  1  0.459041  0.731979  0.912016  1
  Cl  Cl10  1  0.230224  0.191818  0.906559  1
  Cl  Cl11  1  0.286577  0.000550  0.256346  1
  Cl  Cl12  1  0.304633  0.177988  0.593617  1
  Cl  Cl13  1  0.812128  0.398915  0.096809  1
  Cl  Cl14  1  0.413206  0.611583  0.317091  1
  Cl  Cl15  1  0.187872  0.601085  0.903191  1
  Cl  Cl16  1  0.713423  0.999450  0.743654  1
  Cl  Cl17  1  0.586794  0.388417  0.682909  1
  Cl  Cl18  1  0.695367  0.822012  0.406383  1
  Cl  Cl19  1  0.769776  0.808182  0.093441  1
  Cl  Cl20  1  0.214357  0.793136  0.549070  1
  Cl  Cl21  1  0.976438  0.477710  0.709263  1
  O  O22  1  0.941426  0.185379  0.649673  1
  O  O23  1  0.851575  0.060680  0.174373  1
  O  O24  1  0.148425  0.939320  0.825627  1
  O  O25  1  0.058574  0.814621  0.350327  1
  O  O26  1  0.132599  0.804343  0.076680  1
  O  O27  1  0.867401  0.195657  0.923320  1
