# generated using pymatgen
data_Rb2U3(Ga2I9)2
_symmetry_space_group_name_H-M   'P 1'
_cell_length_a   8.46595250
_cell_length_b   8.80670005
_cell_length_c   20.47798745
_cell_angle_alpha   92.63253549
_cell_angle_beta   90.10960375
_cell_angle_gamma   118.53719765
_symmetry_Int_Tables_number   1
_chemical_formula_structural   Rb2U3(Ga2I9)2
_chemical_formula_sum   'Rb2 U3 Ga4 I18'
_cell_volume   1339.37601274
_cell_formula_units_Z   1
loop_
 _symmetry_equiv_pos_site_id
 _symmetry_equiv_pos_as_xyz
  1  'x, y, z'
loop_
 _atom_site_type_symbol
 _atom_site_label
 _atom_site_symmetry_multiplicity
 _atom_site_fract_x
 _atom_site_fract_y
 _atom_site_fract_z
 _atom_site_occupancy
  Rb  Rb0  1  0.239868  0.482137  0.437597  1
  Rb  Rb1  1  0.569593  0.144941  0.103412  1
  U  U2  1  0.002906  0.996339  0.995626  1
  U  U3  1  0.330842  0.670472  0.672151  1
  U  U4  1  0.663622  0.327846  0.333457  1
  Ga  Ga5  1  0.663249  0.315977  0.836614  1
  Ga  Ga6  1  0.772291  0.538389  0.559058  1
  Ga  Ga7  1  0.911504  0.812114  0.775257  1
  Ga  Ga8  1  0.100942  0.199501  0.222162  1
  I  I9  1  0.626362  0.980816  0.747415  1
  I  I10  1  0.823000  0.209314  0.956623  1
  I  I11  1  0.222736  0.113855  0.872424  1
  I  I12  1  0.103457  0.570414  0.793081  1
  I  I13  1  0.535491  0.473776  0.704887  1
  I  I14  1  0.929131  0.649127  0.415116  1
  I  I15  1  0.718310  0.690363  0.913086  1
  I  I16  1  0.134573  0.864109  0.632664  1
  I  I17  1  0.570711  0.783007  0.554331  1
  I  I18  1  0.465907  0.222191  0.460672  1
  I  I19  1  0.847321  0.115169  0.359629  1
  I  I20  1  0.264828  0.316192  0.078269  1
  I  I21  1  0.035492  0.361094  0.597447  1
  I  I22  1  0.477313  0.525522  0.287309  1
  I  I23  1  0.914184  0.452162  0.219041  1
  I  I24  1  0.796704  0.888254  0.121078  1
  I  I25  1  0.176564  0.785015  0.025534  1
  I  I26  1  0.356433  0.018576  0.262726  1
