# generated using pymatgen
data_PdPt2(PbS)2
_symmetry_space_group_name_H-M   'P 1'
_cell_length_a   7.39671735
_cell_length_b   7.43432282
_cell_length_c   7.35505952
_cell_angle_alpha   109.23633297
_cell_angle_beta   109.09051364
_cell_angle_gamma   109.49076719
_symmetry_Int_Tables_number   1
_chemical_formula_structural   PdPt2(PbS)2
_chemical_formula_sum   'Pd2 Pt4 Pb4 S4'
_cell_volume   313.61346001
_cell_formula_units_Z   2
loop_
 _symmetry_equiv_pos_site_id
 _symmetry_equiv_pos_as_xyz
  1  'x, y, z'
loop_
 _atom_site_type_symbol
 _atom_site_label
 _atom_site_symmetry_multiplicity
 _atom_site_fract_x
 _atom_site_fract_y
 _atom_site_fract_z
 _atom_site_occupancy
  Pd  Pd0  1  0.252135  0.524721  0.276071  1
  Pd  Pd1  1  0.273840  0.252635  0.522522  1
  Pt  Pt2  1  0.973428  0.221859  0.750267  1
  Pt  Pt3  1  0.752554  0.968715  0.221664  1
  Pt  Pt4  1  0.219243  0.747558  0.972718  1
  Pt  Pt5  1  0.528132  0.284787  0.256044  1
  Pb  Pb6  1  0.503912  0.500063  0.996256  1
  Pb  Pb7  1  0.499741  0.999187  0.499820  1
  Pb  Pb8  1  0.995063  0.992277  0.991362  1
  Pb  Pb9  1  0.996746  0.501726  0.498085  1
  S  S10  1  0.499989  0.003025  0.965304  1
  S  S11  1  0.548389  0.550984  0.550144  1
  S  S12  1  0.002540  0.956907  0.501076  1
  S  S13  1  0.954288  0.495556  0.998668  1
