# generated using pymatgen
data_TmLuZrFe9
_symmetry_space_group_name_H-M   'P 1'
_cell_length_a   5.00542268
_cell_length_b   5.00542334
_cell_length_c   8.48135076
_cell_angle_alpha   72.83743164
_cell_angle_beta   72.83742817
_cell_angle_gamma   60.00001398
_symmetry_Int_Tables_number   1
_chemical_formula_structural   TmLuZrFe9
_chemical_formula_sum   'Tm1 Lu1 Zr1 Fe9'
_cell_volume   173.01310801
_cell_formula_units_Z   1
loop_
 _symmetry_equiv_pos_site_id
 _symmetry_equiv_pos_as_xyz
  1  'x, y, z'
loop_
 _atom_site_type_symbol
 _atom_site_label
 _atom_site_symmetry_multiplicity
 _atom_site_fract_x
 _atom_site_fract_y
 _atom_site_fract_z
 _atom_site_occupancy
  Tm  Tm0  1  0.000238  0.000238  0.999286  1
  Lu  Lu1  1  0.858105  0.858105  0.425687  1
  Zr  Zr2  1  0.141961  0.141961  0.574117  1
  Fe  Fe3  1  0.082079  0.583564  0.750792  1
  Fe  Fe4  1  0.583564  0.583564  0.750792  1
  Fe  Fe5  1  0.583564  0.082079  0.750792  1
  Fe  Fe6  1  0.918075  0.416181  0.249564  1
  Fe  Fe7  1  0.416181  0.416181  0.249564  1
  Fe  Fe8  1  0.416181  0.918075  0.249564  1
  Fe  Fe9  1  0.332825  0.332825  0.001524  1
  Fe  Fe10  1  0.667309  0.667309  0.998072  1
  Fe  Fe11  1  0.499918  0.499918  0.500247  1
