# generated using pymatgen
data_Ca3Ni6Sb5
_symmetry_space_group_name_H-M   'P 1'
_cell_length_a   4.25885800
_cell_length_b   9.88018300
_cell_length_c   12.81673000
_cell_angle_alpha   90.00000000
_cell_angle_beta   90.00000000
_cell_angle_gamma   90.00000000
_symmetry_Int_Tables_number   1
_chemical_formula_structural   Ca3Ni6Sb5
_chemical_formula_sum   'Ca6 Ni12 Sb10'
_cell_volume   539.30616396
_cell_formula_units_Z   2
loop_
 _symmetry_equiv_pos_site_id
 _symmetry_equiv_pos_as_xyz
  1  'x, y, z'
loop_
 _atom_site_type_symbol
 _atom_site_label
 _atom_site_symmetry_multiplicity
 _atom_site_fract_x
 _atom_site_fract_y
 _atom_site_fract_z
 _atom_site_occupancy
  Ca  Ca0  1  0.000000  0.241803  0.000000  1
  Ca  Ca1  1  0.500000  0.758197  0.500000  1
  Ca  Ca2  1  0.000000  0.249402  0.325846  1
  Ca  Ca3  1  0.500000  0.750598  0.174154  1
  Ca  Ca4  1  0.000000  0.249402  0.674154  1
  Ca  Ca5  1  0.500000  0.750598  0.825846  1
  Ni  Ni6  1  0.000000  0.997562  0.155937  1
  Ni  Ni7  1  0.500000  0.002438  0.344063  1
  Ni  Ni8  1  0.000000  0.997562  0.844063  1
  Ni  Ni9  1  0.500000  0.002438  0.655937  1
  Ni  Ni10  1  0.500000  0.991906  0.000000  1
  Ni  Ni11  1  0.000000  0.008094  0.500000  1
  Ni  Ni12  1  0.000000  0.609482  0.322219  1
  Ni  Ni13  1  0.500000  0.390518  0.177781  1
  Ni  Ni14  1  0.000000  0.609482  0.677781  1
  Ni  Ni15  1  0.500000  0.390518  0.822219  1
  Ni  Ni16  1  0.500000  0.494822  0.000000  1
  Ni  Ni17  1  0.000000  0.505178  0.500000  1
  Sb  Sb18  1  0.000000  0.517179  0.130504  1
  Sb  Sb19  1  0.500000  0.482821  0.369496  1
  Sb  Sb20  1  0.000000  0.517179  0.869496  1
  Sb  Sb21  1  0.500000  0.482821  0.630504  1
  Sb  Sb22  1  0.000000  0.868706  0.330453  1
  Sb  Sb23  1  0.500000  0.131294  0.169547  1
  Sb  Sb24  1  0.000000  0.868706  0.669547  1
  Sb  Sb25  1  0.500000  0.131294  0.830453  1
  Sb  Sb26  1  0.000000  0.845808  0.000000  1
  Sb  Sb27  1  0.500000  0.154192  0.500000  1
