# generated using pymatgen
data_Dy4Ga7Ag5
_symmetry_space_group_name_H-M   'P 1'
_cell_length_a   4.36728600
_cell_length_b   7.02415850
_cell_length_c   10.32131004
_cell_angle_alpha   89.93245116
_cell_angle_beta   90.00000000
_cell_angle_gamma   90.00000000
_symmetry_Int_Tables_number   1
_chemical_formula_structural   Dy4Ga7Ag5
_chemical_formula_sum   'Dy4 Ga7 Ag5'
_cell_volume   316.62154127
_cell_formula_units_Z   1
loop_
 _symmetry_equiv_pos_site_id
 _symmetry_equiv_pos_as_xyz
  1  'x, y, z'
loop_
 _atom_site_type_symbol
 _atom_site_label
 _atom_site_symmetry_multiplicity
 _atom_site_fract_x
 _atom_site_fract_y
 _atom_site_fract_z
 _atom_site_occupancy
  Dy  Dy0  1  0.500000  0.782240  0.172191  1
  Dy  Dy1  1  0.500000  0.279283  0.328820  1
  Dy  Dy2  1  0.000000  0.214648  0.830170  1
  Dy  Dy3  1  0.000000  0.720692  0.669841  1
  Ga  Ga4  1  0.500000  0.922860  0.846242  1
  Ga  Ga5  1  0.500000  0.424826  0.654509  1
  Ga  Ga6  1  0.000000  0.078306  0.153452  1
  Ga  Ga7  1  0.000000  0.576001  0.344637  1
  Ga  Ga8  1  0.500000  0.203153  0.036041  1
  Ga  Ga9  1  0.000000  0.298686  0.535681  1
  Ga  Ga10  1  0.000000  0.795499  0.963987  1
  Ag  Ag11  1  0.500000  0.540005  0.902994  1
  Ag  Ag12  1  0.500000  0.046199  0.601276  1
  Ag  Ag13  1  0.000000  0.458574  0.097455  1
  Ag  Ag14  1  0.000000  0.962108  0.401248  1
  Ag  Ag15  1  0.500000  0.696921  0.461454  1
