# generated using pymatgen
data_Er2Lu3Cr3(P3Ir4)4
_symmetry_space_group_name_H-M   'P 1'
_cell_length_a   12.54007300
_cell_length_b   12.54007257
_cell_length_c   3.97777500
_cell_angle_alpha   90.00000000
_cell_angle_beta   90.00000000
_cell_angle_gamma   120.00000377
_symmetry_Int_Tables_number   1
_chemical_formula_structural   Er2Lu3Cr3(P3Ir4)4
_chemical_formula_sum   'Er2 Lu3 Cr3 P12 Ir16'
_cell_volume   541.71510272
_cell_formula_units_Z   1
loop_
 _symmetry_equiv_pos_site_id
 _symmetry_equiv_pos_as_xyz
  1  'x, y, z'
loop_
 _atom_site_type_symbol
 _atom_site_label
 _atom_site_symmetry_multiplicity
 _atom_site_fract_x
 _atom_site_fract_y
 _atom_site_fract_z
 _atom_site_occupancy
  Er  Er0  1  0.666667  0.333333  0.000000  1
  Er  Er1  1  0.333333  0.666667  0.000000  1
  Lu  Lu2  1  0.818488  0.818488  0.500000  1
  Lu  Lu3  1  0.181512  0.000000  0.500000  1
  Lu  Lu4  1  0.000000  0.181512  0.500000  1
  Cr  Cr5  1  0.292220  0.292220  0.500000  1
  Cr  Cr6  1  0.707780  0.000000  0.500000  1
  Cr  Cr7  1  0.000000  0.707780  0.500000  1
  P  P8  1  0.689679  0.167323  0.500000  1
  P  P9  1  0.832677  0.522356  0.500000  1
  P  P10  1  0.477644  0.310321  0.500000  1
  P  P11  1  0.167323  0.689679  0.500000  1
  P  P12  1  0.522356  0.832677  0.500000  1
  P  P13  1  0.310321  0.477644  0.500000  1
  P  P14  1  0.640437  0.640437  0.000000  1
  P  P15  1  0.359563  0.000000  0.000000  1
  P  P16  1  0.000000  0.359563  0.000000  1
  P  P17  1  0.181840  0.181840  0.000000  1
  P  P18  1  0.818160  0.000000  0.000000  1
  P  P19  1  0.000000  0.818160  0.000000  1
  Ir  Ir20  1  0.806722  0.180396  0.000000  1
  Ir  Ir21  1  0.819604  0.626326  0.000000  1
  Ir  Ir22  1  0.373674  0.193278  0.000000  1
  Ir  Ir23  1  0.180396  0.806722  0.000000  1
  Ir  Ir24  1  0.626326  0.819604  0.000000  1
  Ir  Ir25  1  0.193278  0.373674  0.000000  1
  Ir  Ir26  1  0.454522  0.454522  0.000000  1
  Ir  Ir27  1  0.545478  0.000000  0.000000  1
  Ir  Ir28  1  0.000000  0.545478  0.000000  1
  Ir  Ir29  1  0.868802  0.361592  0.500000  1
  Ir  Ir30  1  0.638408  0.507212  0.500000  1
  Ir  Ir31  1  0.492788  0.131198  0.500000  1
  Ir  Ir32  1  0.361592  0.868802  0.500000  1
  Ir  Ir33  1  0.507212  0.638408  0.500000  1
  Ir  Ir34  1  0.131198  0.492788  0.500000  1
  Ir  Ir35  1  0.000000  0.000000  0.000000  1
