# generated using pymatgen
data_Y4AgPt
_symmetry_space_group_name_H-M   'P 1'
_cell_length_a   9.63680034
_cell_length_b   9.63679993
_cell_length_c   9.63680000
_cell_angle_alpha   59.99999976
_cell_angle_beta   60.00000116
_cell_angle_gamma   59.99999739
_symmetry_Int_Tables_number   1
_chemical_formula_structural   Y4AgPt
_chemical_formula_sum   'Y16 Ag4 Pt4'
_cell_volume   632.82488083
_cell_formula_units_Z   4
loop_
 _symmetry_equiv_pos_site_id
 _symmetry_equiv_pos_as_xyz
  1  'x, y, z'
loop_
 _atom_site_type_symbol
 _atom_site_label
 _atom_site_symmetry_multiplicity
 _atom_site_fract_x
 _atom_site_fract_y
 _atom_site_fract_z
 _atom_site_occupancy
  Y  Y0  1  0.355746  0.355746  0.355746  1
  Y  Y1  1  0.355746  0.355746  0.932763  1
  Y  Y2  1  0.355746  0.932763  0.355746  1
  Y  Y3  1  0.932763  0.355746  0.355746  1
  Y  Y4  1  0.810810  0.189190  0.189190  1
  Y  Y5  1  0.189190  0.810810  0.810810  1
  Y  Y6  1  0.189190  0.810810  0.189190  1
  Y  Y7  1  0.810810  0.189190  0.810810  1
  Y  Y8  1  0.189190  0.189190  0.810810  1
  Y  Y9  1  0.810810  0.810810  0.189190  1
  Y  Y10  1  0.935007  0.564993  0.564993  1
  Y  Y11  1  0.564993  0.935007  0.935007  1
  Y  Y12  1  0.564993  0.935007  0.564993  1
  Y  Y13  1  0.935007  0.564993  0.935007  1
  Y  Y14  1  0.564993  0.564993  0.935007  1
  Y  Y15  1  0.935007  0.935007  0.564993  1
  Ag  Ag16  1  0.582505  0.582505  0.582505  1
  Ag  Ag17  1  0.582505  0.582505  0.252486  1
  Ag  Ag18  1  0.582505  0.252486  0.582505  1
  Ag  Ag19  1  0.252486  0.582505  0.582505  1
  Pt  Pt20  1  0.144447  0.144447  0.144447  1
  Pt  Pt21  1  0.144447  0.144447  0.566660  1
  Pt  Pt22  1  0.144447  0.566660  0.144447  1
  Pt  Pt23  1  0.566660  0.144447  0.144447  1
