# generated using pymatgen
data_Tm4Si10Ir5Pt
_symmetry_space_group_name_H-M   'P 1'
_cell_length_a   8.14607083
_cell_length_b   8.16071130
_cell_length_c   8.16071100
_cell_angle_alpha   138.33370357
_cell_angle_beta   103.93889363
_cell_angle_gamma   90.71841813
_symmetry_Int_Tables_number   1
_chemical_formula_structural   Tm4Si10Ir5Pt
_chemical_formula_sum   'Tm4 Si10 Ir5 Pt1'
_cell_volume   334.09306661
_cell_formula_units_Z   1
loop_
 _symmetry_equiv_pos_site_id
 _symmetry_equiv_pos_as_xyz
  1  'x, y, z'
loop_
 _atom_site_type_symbol
 _atom_site_label
 _atom_site_symmetry_multiplicity
 _atom_site_fract_x
 _atom_site_fract_y
 _atom_site_fract_z
 _atom_site_occupancy
  Tm  Tm0  1  0.597574  0.869583  0.727992  1
  Tm  Tm1  1  0.140395  0.369064  0.771331  1
  Tm  Tm2  1  0.860995  0.630916  0.230079  1
  Tm  Tm3  1  0.401190  0.130992  0.270199  1
  Si  Si4  1  0.773331  0.024738  0.247389  1
  Si  Si5  1  0.225788  0.974726  0.749662  1
  Si  Si6  1  0.773331  0.525943  0.748592  1
  Si  Si7  1  0.953488  0.105545  0.847943  1
  Si  Si8  1  0.050681  0.893533  0.157149  1
  Si  Si9  1  0.497425  0.253252  0.751242  1
  Si  Si10  1  0.497425  0.746183  0.244172  1
  Si  Si11  1  0.736818  0.393683  0.343135  1
  Si  Si12  1  0.262277  0.605510  0.656767  1
  Si  Si13  1  0.225788  0.476127  0.251063  1
  Ir  Ir14  1  0.999862  0.250053  0.251697  1
  Ir  Ir15  1  0.999862  0.748165  0.749809  1
  Ir  Ir16  1  0.246612  0.860445  0.386168  1
  Ir  Ir17  1  0.525935  0.640498  0.885437  1
  Ir  Ir18  1  0.474589  0.360830  0.113759  1
  Pt  Pt19  1  0.756632  0.140216  0.616415  1
