# generated using pymatgen
data_Yb2Al7Si2Ir3
_symmetry_space_group_name_H-M   'P 1'
_cell_length_a   7.49705550
_cell_length_b   7.46967532
_cell_length_c   9.46834583
_cell_angle_alpha   89.92392944
_cell_angle_beta   90.07569975
_cell_angle_gamma   119.68276616
_symmetry_Int_Tables_number   1
_chemical_formula_structural   Yb2Al7Si2Ir3
_chemical_formula_sum   'Yb4 Al14 Si4 Ir6'
_cell_volume   460.65534998
_cell_formula_units_Z   2
loop_
 _symmetry_equiv_pos_site_id
 _symmetry_equiv_pos_as_xyz
  1  'x, y, z'
loop_
 _atom_site_type_symbol
 _atom_site_label
 _atom_site_symmetry_multiplicity
 _atom_site_fract_x
 _atom_site_fract_y
 _atom_site_fract_z
 _atom_site_occupancy
  Yb  Yb0  1  0.002103  0.669200  0.249695  1
  Yb  Yb1  1  0.005689  0.342515  0.754984  1
  Yb  Yb2  1  0.670888  0.001715  0.249795  1
  Yb  Yb3  1  0.318809  0.990130  0.745223  1
  Al  Al4  1  0.130347  0.126861  0.250072  1
  Al  Al5  1  0.871967  0.870657  0.750007  1
  Al  Al6  1  0.000701  0.329859  0.429339  1
  Al  Al7  1  0.669107  0.000121  0.575535  1
  Al  Al8  1  0.662866  0.997655  0.924170  1
  Al  Al9  1  0.339627  0.004369  0.070885  1
  Al  Al10  1  0.332442  0.334237  0.555909  1
  Al  Al11  1  0.664135  0.668512  0.443388  1
  Al  Al12  1  0.663375  0.668187  0.056691  1
  Al  Al13  1  0.336003  0.332030  0.943919  1
  Al  Al14  1  0.337137  0.546612  0.250128  1
  Al  Al15  1  0.660937  0.450722  0.751582  1
  Al  Al16  1  0.548024  0.342794  0.249673  1
  Al  Al17  1  0.455870  0.660938  0.748955  1
  Si  Si18  1  0.001939  0.327995  0.075590  1
  Si  Si19  1  0.996295  0.670313  0.931919  1
  Si  Si20  1  0.990737  0.658956  0.567503  1
  Si  Si21  1  0.341459  0.008167  0.424659  1
  Ir  Ir22  1  0.687855  0.337811  0.003314  1
  Ir  Ir23  1  0.311761  0.661855  0.997548  1
  Ir  Ir24  1  0.319876  0.678140  0.499480  1
  Ir  Ir25  1  0.671210  0.329388  0.500258  1
  Ir  Ir26  1  0.000865  0.999043  0.000321  1
  Ir  Ir27  1  0.007977  0.991218  0.499457  1
