# generated using pymatgen
data_Nd3ThAl17SiIr6
_symmetry_space_group_name_H-M   'P 1'
_cell_length_a   7.62328800
_cell_length_b   7.61252219
_cell_length_c   9.56538935
_cell_angle_alpha   90.02470498
_cell_angle_beta   89.92122412
_cell_angle_gamma   119.55218198
_symmetry_Int_Tables_number   1
_chemical_formula_structural   Nd3ThAl17SiIr6
_chemical_formula_sum   'Nd3 Th1 Al17 Si1 Ir6'
_cell_volume   482.88740723
_cell_formula_units_Z   1
loop_
 _symmetry_equiv_pos_site_id
 _symmetry_equiv_pos_as_xyz
  1  'x, y, z'
loop_
 _atom_site_type_symbol
 _atom_site_label
 _atom_site_symmetry_multiplicity
 _atom_site_fract_x
 _atom_site_fract_y
 _atom_site_fract_z
 _atom_site_occupancy
  Nd  Nd0  1  0.004684  0.329200  0.753705  1
  Nd  Nd1  1  0.675461  0.999328  0.247514  1
  Nd  Nd2  1  0.329297  0.005324  0.750770  1
  Th  Th3  1  0.995399  0.666335  0.247546  1
  Al  Al4  1  0.134163  0.134072  0.249766  1
  Al  Al5  1  0.869443  0.871790  0.749569  1
  Al  Al6  1  0.997351  0.669318  0.920935  1
  Al  Al7  1  0.997951  0.665125  0.576862  1
  Al  Al8  1  0.337795  0.003781  0.427754  1
  Al  Al9  1  0.002696  0.332578  0.432361  1
  Al  Al10  1  0.664325  0.998381  0.573687  1
  Al  Al11  1  0.660809  0.994247  0.924018  1
  Al  Al12  1  0.337756  0.004058  0.072968  1
  Al  Al13  1  0.333818  0.333245  0.550324  1
  Al  Al14  1  0.663990  0.666320  0.453718  1
  Al  Al15  1  0.663201  0.665437  0.046942  1
  Al  Al16  1  0.336351  0.333910  0.949977  1
  Al  Al17  1  0.344105  0.546693  0.250519  1
  Al  Al18  1  0.658704  0.451153  0.750452  1
  Al  Al19  1  0.543239  0.340143  0.249626  1
  Al  Al20  1  0.450384  0.658602  0.749747  1
  Si  Si21  1  0.002110  0.332298  0.071118  1
  Ir  Ir22  1  0.680834  0.331093  0.003175  1
  Ir  Ir23  1  0.318421  0.662706  0.002417  1
  Ir  Ir24  1  0.326503  0.670223  0.497802  1
  Ir  Ir25  1  0.673217  0.330881  0.497468  1
  Ir  Ir26  1  0.998706  0.005420  0.002288  1
  Ir  Ir27  1  0.999288  0.998340  0.496971  1
