# generated using pymatgen
data_Na3PaO4
_symmetry_space_group_name_H-M   'P 1'
_cell_length_a   6.87849200
_cell_length_b   6.02047385
_cell_length_c   5.96857993
_cell_angle_alpha   69.25513769
_cell_angle_beta   90.00000000
_cell_angle_gamma   90.00000000
_symmetry_Int_Tables_number   1
_chemical_formula_structural   Na3PaO4
_chemical_formula_sum   'Na6 Pa2 O8'
_cell_volume   231.14477802
_cell_formula_units_Z   2
loop_
 _symmetry_equiv_pos_site_id
 _symmetry_equiv_pos_as_xyz
  1  'x, y, z'
loop_
 _atom_site_type_symbol
 _atom_site_label
 _atom_site_symmetry_multiplicity
 _atom_site_fract_x
 _atom_site_fract_y
 _atom_site_fract_z
 _atom_site_occupancy
  Na  Na0  1  0.620585  0.250000  0.000000  1
  Na  Na1  1  0.599297  0.750000  0.500000  1
  Na  Na2  1  0.866934  0.250000  0.500000  1
  Na  Na3  1  0.133066  0.750000  0.500000  1
  Na  Na4  1  0.379415  0.750000  0.000000  1
  Na  Na5  1  0.400703  0.250000  0.500000  1
  Pa  Pa6  1  0.139165  0.250000  0.000000  1
  Pa  Pa7  1  0.860835  0.750000  0.000000  1
  O  O8  1  0.348617  0.033793  0.232957  1
  O  O9  1  0.348617  0.466207  0.767043  1
  O  O10  1  0.651383  0.966207  0.767043  1
  O  O11  1  0.651383  0.533793  0.232957  1
  O  O12  1  0.097120  0.501809  0.204817  1
  O  O13  1  0.097120  0.998191  0.795183  1
  O  O14  1  0.902880  0.001809  0.204817  1
  O  O15  1  0.902880  0.498191  0.795183  1
