# generated using pymatgen
data_Li3Ce2YPt3
_symmetry_space_group_name_H-M   'P 1'
_cell_length_a   7.21103700
_cell_length_b   7.27399673
_cell_length_c   4.10262500
_cell_angle_alpha   90.00000000
_cell_angle_beta   90.00000000
_cell_angle_gamma   119.71409517
_symmetry_Int_Tables_number   1
_chemical_formula_structural   Li3Ce2YPt3
_chemical_formula_sum   'Li3 Ce2 Y1 Pt3'
_cell_volume   186.89912643
_cell_formula_units_Z   1
loop_
 _symmetry_equiv_pos_site_id
 _symmetry_equiv_pos_as_xyz
  1  'x, y, z'
loop_
 _atom_site_type_symbol
 _atom_site_label
 _atom_site_symmetry_multiplicity
 _atom_site_fract_x
 _atom_site_fract_y
 _atom_site_fract_z
 _atom_site_occupancy
  Li  Li0  1  0.004654  0.774593  0.000000  1
  Li  Li1  1  0.765044  0.000000  0.000000  1
  Li  Li2  1  0.230061  0.225407  0.000000  1
  Ce  Ce3  1  0.587629  0.586415  0.500000  1
  Ce  Ce4  1  0.001214  0.413585  0.500000  1
  Y  Y5  1  0.408724  0.000000  0.500000  1
  Pt  Pt6  1  0.997797  0.000000  0.500000  1
  Pt  Pt7  1  0.671128  0.337378  0.000000  1
  Pt  Pt8  1  0.333749  0.662622  0.000000  1
