# generated using pymatgen
data_YTm2(Ni3P2)3
_symmetry_space_group_name_H-M   'P 1'
_cell_length_a   3.75484300
_cell_length_b   10.43125000
_cell_length_c   12.27797100
_cell_angle_alpha   90.00000000
_cell_angle_beta   90.00000000
_cell_angle_gamma   90.00000000
_symmetry_Int_Tables_number   1
_chemical_formula_structural   YTm2(Ni3P2)3
_chemical_formula_sum   'Y2 Tm4 Ni18 P12'
_cell_volume   480.89995894
_cell_formula_units_Z   2
loop_
 _symmetry_equiv_pos_site_id
 _symmetry_equiv_pos_as_xyz
  1  'x, y, z'
loop_
 _atom_site_type_symbol
 _atom_site_label
 _atom_site_symmetry_multiplicity
 _atom_site_fract_x
 _atom_site_fract_y
 _atom_site_fract_z
 _atom_site_occupancy
  Y  Y0  1  0.751698  0.000000  0.478699  1
  Y  Y1  1  0.251698  0.500000  0.521301  1
  Tm  Tm2  1  0.251877  0.682936  0.794307  1
  Tm  Tm3  1  0.251877  0.317064  0.794307  1
  Tm  Tm4  1  0.751877  0.817064  0.205693  1
  Tm  Tm5  1  0.751877  0.182936  0.205693  1
  Ni  Ni6  1  0.752404  0.000000  0.016882  1
  Ni  Ni7  1  0.252404  0.500000  0.983118  1
  Ni  Ni8  1  0.251762  0.199347  0.571816  1
  Ni  Ni9  1  0.251762  0.800653  0.571816  1
  Ni  Ni10  1  0.751762  0.300653  0.428184  1
  Ni  Ni11  1  0.751762  0.699347  0.428184  1
  Ni  Ni12  1  0.251627  0.621287  0.287965  1
  Ni  Ni13  1  0.251627  0.378713  0.287965  1
  Ni  Ni14  1  0.751627  0.878713  0.712035  1
  Ni  Ni15  1  0.751627  0.121287  0.712035  1
  Ni  Ni16  1  0.252409  0.167273  0.004552  1
  Ni  Ni17  1  0.252409  0.832727  0.004552  1
  Ni  Ni18  1  0.752409  0.332727  0.995448  1
  Ni  Ni19  1  0.752409  0.667273  0.995448  1
  Ni  Ni20  1  0.250446  0.000000  0.842234  1
  Ni  Ni21  1  0.750446  0.500000  0.157766  1
  Ni  Ni22  1  0.251761  0.000000  0.299505  1
  Ni  Ni23  1  0.751761  0.500000  0.700495  1
  P  P24  1  0.251719  0.186949  0.384910  1
  P  P25  1  0.251719  0.813051  0.384910  1
  P  P26  1  0.751719  0.313051  0.615090  1
  P  P27  1  0.751719  0.686949  0.615090  1
  P  P28  1  0.252171  0.000000  0.124236  1
  P  P29  1  0.752171  0.500000  0.875764  1
  P  P30  1  0.251948  0.652594  0.107650  1
  P  P31  1  0.251948  0.347406  0.107650  1
  P  P32  1  0.751948  0.847406  0.892350  1
  P  P33  1  0.751948  0.152594  0.892350  1
  P  P34  1  0.251635  0.000000  0.656601  1
  P  P35  1  0.751635  0.500000  0.343399  1
