# generated using pymatgen
data_Pr4DyRh2
_symmetry_space_group_name_H-M   'P 1'
_cell_length_a   6.64017133
_cell_length_b   7.26437564
_cell_length_c   9.08392251
_cell_angle_alpha   96.61617798
_cell_angle_beta   111.43776636
_cell_angle_gamma   89.99999406
_symmetry_Int_Tables_number   1
_chemical_formula_structural   Pr4DyRh2
_chemical_formula_sum   'Pr8 Dy2 Rh4'
_cell_volume   404.72643917
_cell_formula_units_Z   2
loop_
 _symmetry_equiv_pos_site_id
 _symmetry_equiv_pos_as_xyz
  1  'x, y, z'
loop_
 _atom_site_type_symbol
 _atom_site_label
 _atom_site_symmetry_multiplicity
 _atom_site_fract_x
 _atom_site_fract_y
 _atom_site_fract_z
 _atom_site_occupancy
  Pr  Pr0  1  0.797190  0.076956  0.814848  1
  Pr  Pr1  1  0.982342  0.423044  0.185152  1
  Pr  Pr2  1  0.202810  0.923044  0.185152  1
  Pr  Pr3  1  0.017658  0.576956  0.814848  1
  Pr  Pr4  1  0.214511  0.189134  0.572056  1
  Pr  Pr5  1  0.642456  0.310866  0.427944  1
  Pr  Pr6  1  0.785489  0.810866  0.427944  1
  Pr  Pr7  1  0.357544  0.689134  0.572056  1
  Dy  Dy8  1  0.435045  0.250000  0.000000  1
  Dy  Dy9  1  0.564955  0.750000  0.000000  1
  Rh  Rh10  1  0.592643  0.429418  0.789420  1
  Rh  Rh11  1  0.803224  0.070582  0.210580  1
  Rh  Rh12  1  0.407357  0.570582  0.210580  1
  Rh  Rh13  1  0.196776  0.929418  0.789420  1
