# generated using pymatgen
data_Tb5Cd4PtAu
_symmetry_space_group_name_H-M   'P 1'
_cell_length_a   3.67196400
_cell_length_b   8.07504703
_cell_length_c   18.61968196
_cell_angle_alpha   90.14015864
_cell_angle_beta   90.00000000
_cell_angle_gamma   90.00000000
_symmetry_Int_Tables_number   1
_chemical_formula_structural   Tb5Cd4PtAu
_chemical_formula_sum   'Tb10 Cd8 Pt2 Au2'
_cell_volume   552.09578826
_cell_formula_units_Z   2
loop_
 _symmetry_equiv_pos_site_id
 _symmetry_equiv_pos_as_xyz
  1  'x, y, z'
loop_
 _atom_site_type_symbol
 _atom_site_label
 _atom_site_symmetry_multiplicity
 _atom_site_fract_x
 _atom_site_fract_y
 _atom_site_fract_z
 _atom_site_occupancy
  Tb  Tb0  1  0.000000  0.116822  0.418317  1
  Tb  Tb1  1  0.000000  0.883178  0.581683  1
  Tb  Tb2  1  0.000000  0.386433  0.914587  1
  Tb  Tb3  1  0.000000  0.613567  0.085413  1
  Tb  Tb4  1  0.000000  0.252519  0.216175  1
  Tb  Tb5  1  0.000000  0.747481  0.783825  1
  Tb  Tb6  1  0.000000  0.268228  0.719466  1
  Tb  Tb7  1  0.000000  0.731772  0.280534  1
  Tb  Tb8  1  0.000000  0.000000  0.000000  1
  Tb  Tb9  1  0.000000  0.500000  0.500000  1
  Cd  Cd10  1  0.500000  0.427477  0.353104  1
  Cd  Cd11  1  0.500000  0.572523  0.646896  1
  Cd  Cd12  1  0.500000  0.072127  0.853524  1
  Cd  Cd13  1  0.500000  0.927873  0.146476  1
  Cd  Cd14  1  0.500000  0.286485  0.066762  1
  Cd  Cd15  1  0.500000  0.713515  0.933238  1
  Cd  Cd16  1  0.500000  0.213790  0.567044  1
  Cd  Cd17  1  0.500000  0.786210  0.432956  1
  Pt  Pt18  1  0.500000  0.471623  0.803704  1
  Pt  Pt19  1  0.500000  0.528377  0.196296  1
  Au  Au20  1  0.500000  0.028573  0.302501  1
  Au  Au21  1  0.500000  0.971427  0.697499  1
