# generated using pymatgen
data_Ta4IrPt3
_symmetry_space_group_name_H-M   'P 1'
_cell_length_a   5.71827265
_cell_length_b   5.71827222
_cell_length_c   4.00621800
_cell_angle_alpha   90.00000000
_cell_angle_beta   90.00000000
_cell_angle_gamma   89.15907273
_symmetry_Int_Tables_number   1
_chemical_formula_structural   Ta4IrPt3
_chemical_formula_sum   'Ta4 Ir1 Pt3'
_cell_volume   130.98376964
_cell_formula_units_Z   1
loop_
 _symmetry_equiv_pos_site_id
 _symmetry_equiv_pos_as_xyz
  1  'x, y, z'
loop_
 _atom_site_type_symbol
 _atom_site_label
 _atom_site_symmetry_multiplicity
 _atom_site_fract_x
 _atom_site_fract_y
 _atom_site_fract_z
 _atom_site_occupancy
  Ta  Ta0  1  0.996141  0.996141  0.000000  1
  Ta  Ta1  1  0.503751  0.503751  0.000000  1
  Ta  Ta2  1  0.249759  0.750387  0.500000  1
  Ta  Ta3  1  0.750387  0.249759  0.500000  1
  Ir  Ir4  1  0.749509  0.749509  0.500000  1
  Pt  Pt5  1  0.498605  0.001846  0.000000  1
  Pt  Pt6  1  0.001846  0.498605  0.000000  1
  Pt  Pt7  1  0.250001  0.250001  0.500000  1
