# generated using pymatgen
data_La3Pr6YC4I15
_symmetry_space_group_name_H-M   'P 1'
_cell_length_a   9.86484881
_cell_length_b   10.76745288
_cell_length_c   11.86320130
_cell_angle_alpha   93.65003234
_cell_angle_beta   114.19316208
_cell_angle_gamma   109.53244736
_symmetry_Int_Tables_number   1
_chemical_formula_structural   La3Pr6YC4I15
_chemical_formula_sum   'La3 Pr6 Y1 C4 I15'
_cell_volume   1053.34952585
_cell_formula_units_Z   1
loop_
 _symmetry_equiv_pos_site_id
 _symmetry_equiv_pos_as_xyz
  1  'x, y, z'
loop_
 _atom_site_type_symbol
 _atom_site_label
 _atom_site_symmetry_multiplicity
 _atom_site_fract_x
 _atom_site_fract_y
 _atom_site_fract_z
 _atom_site_occupancy
  La  La0  1  0.706504  0.568464  0.045259  1
  La  La1  1  0.293225  0.431959  0.955549  1
  La  La2  1  0.657823  0.253811  0.831585  1
  Pr  Pr3  1  0.345295  0.746867  0.165032  1
  Pr  Pr4  1  0.777056  0.883893  0.258094  1
  Pr  Pr5  1  0.527805  0.185507  0.102713  1
  Pr  Pr6  1  0.223358  0.114868  0.743259  1
  Pr  Pr7  1  0.401979  0.458262  0.657067  1
  Pr  Pr8  1  0.472641  0.814409  0.898540  1
  Y  Y9  1  0.593515  0.545673  0.335450  1
  C  C10  1  0.483206  0.300417  0.937418  1
  C  C11  1  0.518514  0.698467  0.062726  1
  C  C12  1  0.453510  0.361932  0.834277  1
  C  C13  1  0.546646  0.636579  0.165702  1
  I  I14  1  0.207635  0.906697  0.938228  1
  I  I15  1  0.103900  0.186824  0.468954  1
  I  I16  1  0.152725  0.556657  0.702578  1
  I  I17  1  0.401681  0.966368  0.645654  1
  I  I18  1  0.712897  0.734606  0.819981  1
  I  I19  1  0.297227  0.272941  0.187773  1
  I  I20  1  0.838869  0.446293  0.302933  1
  I  I21  1  0.884693  0.800873  0.527045  1
  I  I22  1  0.367653  0.628167  0.411940  1
  I  I23  1  0.055951  0.834065  0.222818  1
  I  I24  1  0.793111  0.094735  0.063904  1
  I  I25  1  0.640889  0.375930  0.581659  1
  I  I26  1  0.944181  0.163866  0.778419  1
  I  I27  1  0.594808  0.029822  0.352780  1
  I  I28  1  0.002701  0.501047  0.002660  1
