# generated using pymatgen
data_Nd4Ga4Ir3Pd
_symmetry_space_group_name_H-M   'P 1'
_cell_length_a   4.45378700
_cell_length_b   7.10266640
_cell_length_c   7.85029848
_cell_angle_alpha   90.03934144
_cell_angle_beta   90.00000000
_cell_angle_gamma   90.00000000
_symmetry_Int_Tables_number   1
_chemical_formula_structural   Nd4Ga4Ir3Pd
_chemical_formula_sum   'Nd4 Ga4 Ir3 Pd1'
_cell_volume   248.33442534
_cell_formula_units_Z   1
loop_
 _symmetry_equiv_pos_site_id
 _symmetry_equiv_pos_as_xyz
  1  'x, y, z'
loop_
 _atom_site_type_symbol
 _atom_site_label
 _atom_site_symmetry_multiplicity
 _atom_site_fract_x
 _atom_site_fract_y
 _atom_site_fract_z
 _atom_site_occupancy
  Nd  Nd0  1  0.250000  0.019582  0.689381  1
  Nd  Nd1  1  0.250000  0.527256  0.806592  1
  Nd  Nd2  1  0.750000  0.978526  0.306469  1
  Nd  Nd3  1  0.750000  0.482577  0.197376  1
  Ga  Ga4  1  0.250000  0.161154  0.076599  1
  Ga  Ga5  1  0.250000  0.662015  0.424921  1
  Ga  Ga6  1  0.750000  0.830581  0.925959  1
  Ga  Ga7  1  0.750000  0.339906  0.570336  1
  Ir  Ir8  1  0.250000  0.279123  0.397161  1
  Ir  Ir9  1  0.250000  0.781618  0.102829  1
  Ir  Ir10  1  0.750000  0.721372  0.604164  1
  Pd  Pd11  1  0.750000  0.216288  0.898212  1
