# generated using pymatgen
data_LaCd(CoO2)12
_symmetry_space_group_name_H-M   'P 1'
_cell_length_a   7.80642149
_cell_length_b   7.80642116
_cell_length_c   8.96779100
_cell_angle_alpha   56.32478897
_cell_angle_beta   56.32479054
_cell_angle_gamma   66.46964328
_symmetry_Int_Tables_number   1
_chemical_formula_structural   LaCd(CoO2)12
_chemical_formula_sum   'La1 Cd1 Co12 O24'
_cell_volume   375.13788463
_cell_formula_units_Z   1
loop_
 _symmetry_equiv_pos_site_id
 _symmetry_equiv_pos_as_xyz
  1  'x, y, z'
loop_
 _atom_site_type_symbol
 _atom_site_label
 _atom_site_symmetry_multiplicity
 _atom_site_fract_x
 _atom_site_fract_y
 _atom_site_fract_z
 _atom_site_occupancy
  La  La0  1  0.825366  0.174634  0.000000  1
  Cd  Cd1  1  0.315206  0.684794  0.000000  1
  Co  Co2  1  0.975034  0.316678  0.523985  1
  Co  Co3  1  0.836285  0.841076  0.817735  1
  Co  Co4  1  0.158924  0.163715  0.182265  1
  Co  Co5  1  0.490129  0.831421  0.184573  1
  Co  Co6  1  0.017786  0.694331  0.470826  1
  Co  Co7  1  0.355101  0.360738  0.468096  1
  Co  Co8  1  0.305669  0.982214  0.529174  1
  Co  Co9  1  0.639262  0.644899  0.531904  1
  Co  Co10  1  0.499323  0.176480  0.818954  1
  Co  Co11  1  0.168579  0.509871  0.815427  1
  Co  Co12  1  0.823520  0.500677  0.181046  1
  Co  Co13  1  0.683322  0.024966  0.476015  1
  O  O14  1  0.154998  0.170208  0.652766  1
  O  O15  1  0.872483  0.541690  0.931976  1
  O  O16  1  0.133631  0.140294  0.402275  1
  O  O17  1  0.859706  0.866369  0.597725  1
  O  O18  1  0.192375  0.533534  0.594532  1
  O  O19  1  0.120361  0.462343  0.066709  1
  O  O20  1  0.458310  0.127517  0.068024  1
  O  O21  1  0.872084  0.212590  0.251741  1
  O  O22  1  0.206454  0.880861  0.254871  1
  O  O23  1  0.540622  0.547781  0.263575  1
  O  O24  1  0.486091  0.827910  0.660758  1
  O  O25  1  0.825377  0.492877  0.657734  1
  O  O26  1  0.829792  0.845002  0.347234  1
  O  O27  1  0.172090  0.513909  0.339242  1
  O  O28  1  0.787410  0.127916  0.748259  1
  O  O29  1  0.119139  0.793546  0.745129  1
  O  O30  1  0.452219  0.459378  0.736425  1
  O  O31  1  0.537657  0.879639  0.933291  1
  O  O32  1  0.200553  0.212503  0.932648  1
  O  O33  1  0.466466  0.807625  0.405468  1
  O  O34  1  0.798459  0.474407  0.404131  1
  O  O35  1  0.525593  0.201541  0.595869  1
  O  O36  1  0.787497  0.799447  0.067352  1
  O  O37  1  0.507123  0.174623  0.342266  1
