# generated using pymatgen
data_Ti19NbSi16
_symmetry_space_group_name_H-M   'P 1'
_cell_length_a   6.70612764
_cell_length_b   6.71128290
_cell_length_c   12.20089544
_cell_angle_alpha   90.07137867
_cell_angle_beta   89.98672590
_cell_angle_gamma   90.04827512
_symmetry_Int_Tables_number   1
_chemical_formula_structural   Ti19NbSi16
_chemical_formula_sum   'Ti19 Nb1 Si16'
_cell_volume   549.12164635
_cell_formula_units_Z   1
loop_
 _symmetry_equiv_pos_site_id
 _symmetry_equiv_pos_as_xyz
  1  'x, y, z'
loop_
 _atom_site_type_symbol
 _atom_site_label
 _atom_site_symmetry_multiplicity
 _atom_site_fract_x
 _atom_site_fract_y
 _atom_site_fract_z
 _atom_site_occupancy
  Ti  Ti0  1  0.171409  0.169858  0.000009  1
  Ti  Ti1  1  0.003722  0.849808  0.121182  1
  Ti  Ti2  1  0.495753  0.349389  0.127711  1
  Ti  Ti3  1  0.003038  0.345343  0.218150  1
  Ti  Ti4  1  0.329691  0.670845  0.250048  1
  Ti  Ti5  1  0.654521  0.996983  0.282129  1
  Ti  Ti6  1  0.649508  0.504434  0.371985  1
  Ti  Ti7  1  0.149405  0.995461  0.378521  1
  Ti  Ti8  1  0.154086  0.502319  0.467532  1
  Ti  Ti9  1  0.829294  0.829208  0.500232  1
  Ti  Ti10  1  0.502735  0.154680  0.532118  1
  Ti  Ti11  1  0.995743  0.149493  0.621578  1
  Ti  Ti12  1  0.504084  0.649629  0.628336  1
  Ti  Ti13  1  0.997687  0.654824  0.717825  1
  Ti  Ti14  1  0.670697  0.329438  0.749714  1
  Ti  Ti15  1  0.345320  0.003049  0.781274  1
  Ti  Ti16  1  0.350800  0.496518  0.872068  1
  Ti  Ti17  1  0.850037  0.004516  0.878325  1
  Ti  Ti18  1  0.844388  0.497401  0.968421  1
  Nb  Nb19  1  0.497541  0.844696  0.031417  1
  Si  Si20  1  0.198283  0.543724  0.063548  1
  Si  Si21  1  0.795055  0.142696  0.077438  1
  Si  Si22  1  0.707810  0.639083  0.173902  1
  Si  Si23  1  0.298665  0.045803  0.188034  1
  Si  Si24  1  0.956068  0.699203  0.313475  1
  Si  Si25  1  0.358249  0.294358  0.327501  1
  Si  Si26  1  0.857827  0.205704  0.422766  1
  Si  Si27  1  0.456079  0.801195  0.436647  1
  Si  Si28  1  0.801096  0.455914  0.563437  1
  Si  Si29  1  0.205938  0.858009  0.577223  1
  Si  Si30  1  0.294628  0.357669  0.672630  1
  Si  Si31  1  0.698644  0.955947  0.686549  1
  Si  Si32  1  0.044697  0.300631  0.813220  1
  Si  Si33  1  0.642108  0.705991  0.827488  1
  Si  Si34  1  0.140213  0.794082  0.922037  1
  Si  Si35  1  0.545185  0.202101  0.935535  1
