# generated using pymatgen
data_Tb9Hg4
_symmetry_space_group_name_H-M   'P 1'
_cell_length_a   8.89799722
_cell_length_b   8.89828406
_cell_length_c   8.89566725
_cell_angle_alpha   94.79950535
_cell_angle_beta   94.77824230
_cell_angle_gamma   146.41666946
_symmetry_Int_Tables_number   1
_chemical_formula_structural   Tb9Hg4
_chemical_formula_sum   'Tb9 Hg4'
_cell_volume   372.97803552
_cell_formula_units_Z   1
loop_
 _symmetry_equiv_pos_site_id
 _symmetry_equiv_pos_as_xyz
  1  'x, y, z'
loop_
 _atom_site_type_symbol
 _atom_site_label
 _atom_site_symmetry_multiplicity
 _atom_site_fract_x
 _atom_site_fract_y
 _atom_site_fract_z
 _atom_site_occupancy
  Tb  Tb0  1  0.499999  0.499999  0.000000  1
  Tb  Tb1  1  0.183283  0.883621  0.066852  1
  Tb  Tb2  1  0.116206  0.183272  0.299618  1
  Tb  Tb3  1  0.891674  0.403967  0.295599  1
  Tb  Tb4  1  0.596073  0.891739  0.487744  1
  Tb  Tb5  1  0.403926  0.108260  0.512255  1
  Tb  Tb6  1  0.108325  0.596032  0.704401  1
  Tb  Tb7  1  0.883793  0.816727  0.700382  1
  Tb  Tb8  1  0.816716  0.116378  0.933148  1
  Hg  Hg9  1  0.400198  0.737204  0.137378  1
  Hg  Hg10  1  0.737254  0.599788  0.337068  1
  Hg  Hg11  1  0.262745  0.400211  0.662932  1
  Hg  Hg12  1  0.599801  0.262795  0.862622  1
