# generated using pymatgen
data_Nd6Al17Ga(Tc3Os4)2
_symmetry_space_group_name_H-M   'P 1'
_cell_length_a   8.90339600
_cell_length_b   8.90339640
_cell_length_c   9.71451700
_cell_angle_alpha   90.00000000
_cell_angle_beta   90.00000000
_cell_angle_gamma   120.00000595
_symmetry_Int_Tables_number   1
_chemical_formula_structural   Nd6Al17Ga(Tc3Os4)2
_chemical_formula_sum   'Nd6 Al17 Ga1 Tc6 Os8'
_cell_volume   666.90383985
_cell_formula_units_Z   1
loop_
 _symmetry_equiv_pos_site_id
 _symmetry_equiv_pos_as_xyz
  1  'x, y, z'
loop_
 _atom_site_type_symbol
 _atom_site_label
 _atom_site_symmetry_multiplicity
 _atom_site_fract_x
 _atom_site_fract_y
 _atom_site_fract_z
 _atom_site_occupancy
  Nd  Nd0  1  0.193972  0.387945  0.250000  1
  Nd  Nd1  1  0.805005  0.610007  0.750000  1
  Nd  Nd2  1  0.612055  0.806028  0.250000  1
  Nd  Nd3  1  0.389993  0.194995  0.750000  1
  Nd  Nd4  1  0.193972  0.806028  0.250000  1
  Nd  Nd5  1  0.805005  0.194995  0.750000  1
  Al  Al6  1  0.333333  0.666667  0.006959  1
  Al  Al7  1  0.666667  0.333333  0.992826  1
  Al  Al8  1  0.666667  0.333333  0.507174  1
  Al  Al9  1  0.333333  0.666667  0.493041  1
  Al  Al10  1  0.165680  0.331361  0.575747  1
  Al  Al11  1  0.833778  0.667555  0.425106  1
  Al  Al12  1  0.668639  0.834320  0.575747  1
  Al  Al13  1  0.833778  0.667555  0.074894  1
  Al  Al14  1  0.332445  0.166222  0.425106  1
  Al  Al15  1  0.165680  0.331361  0.924253  1
  Al  Al16  1  0.165680  0.834320  0.575747  1
  Al  Al17  1  0.332445  0.166222  0.074894  1
  Al  Al18  1  0.833778  0.166222  0.425106  1
  Al  Al19  1  0.668639  0.834320  0.924253  1
  Al  Al20  1  0.833778  0.166222  0.074894  1
  Al  Al21  1  0.165680  0.834320  0.924253  1
  Al  Al22  1  0.000000  0.000000  0.750000  1
  Ga  Ga23  1  0.000000  0.000000  0.250000  1
  Tc  Tc24  1  0.574225  0.148450  0.250000  1
  Tc  Tc25  1  0.425740  0.851479  0.750000  1
  Tc  Tc26  1  0.851550  0.425775  0.250000  1
  Tc  Tc27  1  0.148521  0.574260  0.750000  1
  Tc  Tc28  1  0.574225  0.425775  0.250000  1
  Tc  Tc29  1  0.425740  0.574260  0.750000  1
  Os  Os30  1  0.499946  0.999892  0.000062  1
  Os  Os31  1  0.000108  0.500054  0.000062  1
  Os  Os32  1  0.499946  0.999892  0.499938  1
  Os  Os33  1  0.499946  0.500054  0.000062  1
  Os  Os34  1  0.000108  0.500054  0.499938  1
  Os  Os35  1  0.499946  0.500054  0.499938  1
  Os  Os36  1  0.000000  0.000000  0.999304  1
  Os  Os37  1  0.000000  0.000000  0.500696  1
