# generated using pymatgen
data_Na4HfReCl12
_symmetry_space_group_name_H-M   'P 1'
_cell_length_a   6.95543776
_cell_length_b   6.61887364
_cell_length_c   11.57829300
_cell_angle_alpha   54.81379857
_cell_angle_beta   89.39499823
_cell_angle_gamma   90.10737806
_symmetry_Int_Tables_number   1
_chemical_formula_structural   Na4HfReCl12
_chemical_formula_sum   'Na4 Hf1 Re1 Cl12'
_cell_volume   435.59323195
_cell_formula_units_Z   1
loop_
 _symmetry_equiv_pos_site_id
 _symmetry_equiv_pos_as_xyz
  1  'x, y, z'
loop_
 _atom_site_type_symbol
 _atom_site_label
 _atom_site_symmetry_multiplicity
 _atom_site_fract_x
 _atom_site_fract_y
 _atom_site_fract_z
 _atom_site_occupancy
  Na  Na0  1  0.415952  0.726375  0.255283  1
  Na  Na1  1  0.916350  0.256464  0.254822  1
  Na  Na2  1  0.083650  0.743536  0.745178  1
  Na  Na3  1  0.584048  0.273625  0.744717  1
  Hf  Hf4  1  0.000000  0.000000  0.000000  1
  Re  Re5  1  0.500000  0.000000  0.500000  1
  Cl  Cl6  1  0.826968  0.369635  0.941243  1
  Cl  Cl7  1  0.528361  0.124463  0.262971  1
  Cl  Cl8  1  0.471639  0.875537  0.737029  1
  Cl  Cl9  1  0.307361  0.219044  0.947211  1
  Cl  Cl10  1  0.320441  0.645217  0.561312  1
  Cl  Cl11  1  0.210199  0.224377  0.445087  1
  Cl  Cl12  1  0.173032  0.630365  0.058757  1
  Cl  Cl13  1  0.789801  0.775623  0.554913  1
  Cl  Cl14  1  0.692639  0.780956  0.052789  1
  Cl  Cl15  1  0.025472  0.857842  0.247652  1
  Cl  Cl16  1  0.974528  0.142158  0.752348  1
  Cl  Cl17  1  0.679559  0.354783  0.438688  1
