# generated using pymatgen
data_MgCo5(AsO4)4
_symmetry_space_group_name_H-M   'P 1'
_cell_length_a   8.56775875
_cell_length_b   5.35037032
_cell_length_c   9.06724329
_cell_angle_alpha   60.51800148
_cell_angle_beta   89.97080660
_cell_angle_gamma   89.76901472
_symmetry_Int_Tables_number   1
_chemical_formula_structural   MgCo5(AsO4)4
_chemical_formula_sum   'Mg1 Co5 As4 O16'
_cell_volume   361.82297052
_cell_formula_units_Z   1
loop_
 _symmetry_equiv_pos_site_id
 _symmetry_equiv_pos_as_xyz
  1  'x, y, z'
loop_
 _atom_site_type_symbol
 _atom_site_label
 _atom_site_symmetry_multiplicity
 _atom_site_fract_x
 _atom_site_fract_y
 _atom_site_fract_z
 _atom_site_occupancy
  Mg  Mg0  1  0.500000  0.500000  0.000000  1
  Co  Co1  1  0.000000  0.500000  0.500000  1
  Co  Co2  1  0.359116  0.489582  0.607336  1
  Co  Co3  1  0.858969  0.511389  0.892225  1
  Co  Co4  1  0.141031  0.488611  0.107775  1
  Co  Co5  1  0.640884  0.510418  0.392664  1
  As  As6  1  0.304843  0.850109  0.195385  1
  As  As7  1  0.805588  0.150109  0.304711  1
  As  As8  1  0.194412  0.849891  0.695289  1
  As  As9  1  0.695157  0.149891  0.804615  1
  O  O10  1  0.874119  0.324821  0.743548  1
  O  O11  1  0.432912  0.702337  0.364447  1
  O  O12  1  0.643677  0.232743  0.958517  1
  O  O13  1  0.804519  0.783983  0.384120  1
  O  O14  1  0.145814  0.772812  0.537856  1
  O  O15  1  0.373139  0.672585  0.757957  1
  O  O16  1  0.305263  0.215289  0.115518  1
  O  O17  1  0.933497  0.297660  0.135982  1
  O  O18  1  0.066503  0.702340  0.864018  1
  O  O19  1  0.694737  0.784711  0.884482  1
  O  O20  1  0.626861  0.327415  0.242043  1
  O  O21  1  0.854186  0.227188  0.462144  1
  O  O22  1  0.195481  0.216017  0.615880  1
  O  O23  1  0.356323  0.767257  0.041483  1
  O  O24  1  0.567088  0.297663  0.635553  1
  O  O25  1  0.125881  0.675179  0.256452  1
