# generated using pymatgen
data_BaLa3Os6O19
_symmetry_space_group_name_H-M   'P 1'
_cell_length_a   8.04207316
_cell_length_b   8.04207337
_cell_length_c   7.84738500
_cell_angle_alpha   108.98155541
_cell_angle_beta   108.98155592
_cell_angle_gamma   109.95642099
_symmetry_Int_Tables_number   1
_chemical_formula_structural   BaLa3Os6O19
_chemical_formula_sum   'Ba1 La3 Os6 O19'
_cell_volume   393.03205455
_cell_formula_units_Z   1
loop_
 _symmetry_equiv_pos_site_id
 _symmetry_equiv_pos_as_xyz
  1  'x, y, z'
loop_
 _atom_site_type_symbol
 _atom_site_label
 _atom_site_symmetry_multiplicity
 _atom_site_fract_x
 _atom_site_fract_y
 _atom_site_fract_z
 _atom_site_occupancy
  Ba  Ba0  1  0.000000  0.000000  0.340545  1
  La  La1  1  0.993217  0.302427  0.992484  1
  La  La2  1  0.697573  0.690790  0.690058  1
  La  La3  1  0.309210  0.006783  0.999268  1
  Os  Os4  1  0.366621  0.501284  0.862273  1
  Os  Os5  1  0.863602  0.364673  0.503543  1
  Os  Os6  1  0.501071  0.136398  0.639941  1
  Os  Os7  1  0.134663  0.633379  0.495652  1
  Os  Os8  1  0.498716  0.865337  0.360989  1
  Os  Os9  1  0.635327  0.498929  0.138870  1
  O  O10  1  0.335006  0.005267  0.325471  1
  O  O11  1  0.329329  0.333587  0.007660  1
  O  O12  1  0.004257  0.670671  0.678330  1
  O  O13  1  0.670261  0.664994  0.990465  1
  O  O14  1  0.994733  0.329739  0.320205  1
  O  O15  1  0.666413  0.995743  0.674073  1
  O  O16  1  0.000000  0.000000  0.964780  1
  O  O17  1  0.369689  0.298366  0.644041  1
  O  O18  1  0.065604  0.341706  0.710485  1
  O  O19  1  0.731871  0.369771  0.675335  1
  O  O20  1  0.367729  0.650000  0.706850  1
  O  O21  1  0.276102  0.934396  0.644880  1
  O  O22  1  0.630229  0.362100  0.305563  1
  O  O23  1  0.282271  0.632271  0.339121  1
  O  O24  1  0.701634  0.071322  0.345674  1
  O  O25  1  0.928678  0.630311  0.274352  1
  O  O26  1  0.658294  0.723898  0.368778  1
  O  O27  1  0.637900  0.268129  0.943464  1
  O  O28  1  0.350000  0.717729  0.056849  1
