# generated using pymatgen
data_YHoAs4O9
_symmetry_space_group_name_H-M   'P 1'
_cell_length_a   6.74821623
_cell_length_b   7.54373288
_cell_length_c   9.82953846
_cell_angle_alpha   94.83966546
_cell_angle_beta   104.13968303
_cell_angle_gamma   104.77389079
_symmetry_Int_Tables_number   1
_chemical_formula_structural   YHoAs4O9
_chemical_formula_sum   'Y2 Ho2 As8 O18'
_cell_volume   463.41258333
_cell_formula_units_Z   2
loop_
 _symmetry_equiv_pos_site_id
 _symmetry_equiv_pos_as_xyz
  1  'x, y, z'
loop_
 _atom_site_type_symbol
 _atom_site_label
 _atom_site_symmetry_multiplicity
 _atom_site_fract_x
 _atom_site_fract_y
 _atom_site_fract_z
 _atom_site_occupancy
  Y  Y0  1  0.243674  0.939221  0.615251  1
  Y  Y1  1  0.756326  0.060779  0.384749  1
  Ho  Ho2  1  0.720810  0.529720  0.409423  1
  Ho  Ho3  1  0.279190  0.470280  0.590577  1
  As  As4  1  0.682000  0.774366  0.078097  1
  As  As5  1  0.318000  0.225634  0.921903  1
  As  As6  1  0.171370  0.752232  0.912548  1
  As  As7  1  0.828630  0.247768  0.087452  1
  As  As8  1  0.744195  0.914961  0.709379  1
  As  As9  1  0.255805  0.085039  0.290621  1
  As  As10  1  0.809554  0.351461  0.701258  1
  As  As11  1  0.190446  0.648539  0.298742  1
  O  O12  1  0.722718  0.748527  0.258532  1
  O  O13  1  0.277282  0.251473  0.741468  1
  O  O14  1  0.316234  0.978783  0.870295  1
  O  O15  1  0.683766  0.021217  0.129705  1
  O  O16  1  0.607932  0.324718  0.985394  1
  O  O17  1  0.392068  0.675282  0.014606  1
  O  O18  1  0.128639  0.646143  0.737914  1
  O  O19  1  0.871361  0.353857  0.262086  1
  O  O20  1  0.846593  0.873977  0.559050  1
  O  O21  1  0.153407  0.126023  0.440950  1
  O  O22  1  0.483776  0.767526  0.666362  1
  O  O23  1  0.516224  0.232474  0.333638  1
  O  O24  1  0.373222  0.534095  0.380350  1
  O  O25  1  0.626778  0.465905  0.619650  1
  O  O26  1  0.088707  0.668340  0.453518  1
  O  O27  1  0.911293  0.331660  0.546482  1
  O  O28  1  0.375846  0.899328  0.359080  1
  O  O29  1  0.624154  0.100672  0.640920  1
