# generated using pymatgen
data_Li8Sm8InPb7
_symmetry_space_group_name_H-M   'P 1'
_cell_length_a   9.59553700
_cell_length_b   9.59553742
_cell_length_c   7.62089400
_cell_angle_alpha   90.00000000
_cell_angle_beta   90.00000000
_cell_angle_gamma   120.00000200
_symmetry_Int_Tables_number   1
_chemical_formula_structural   Li8Sm8InPb7
_chemical_formula_sum   'Li8 Sm8 In1 Pb7'
_cell_volume   607.68026395
_cell_formula_units_Z   1
loop_
 _symmetry_equiv_pos_site_id
 _symmetry_equiv_pos_as_xyz
  1  'x, y, z'
loop_
 _atom_site_type_symbol
 _atom_site_label
 _atom_site_symmetry_multiplicity
 _atom_site_fract_x
 _atom_site_fract_y
 _atom_site_fract_z
 _atom_site_occupancy
  Li  Li0  1  0.833110  0.166890  0.709416  1
  Li  Li1  1  0.833110  0.666221  0.709416  1
  Li  Li2  1  0.333779  0.166890  0.709416  1
  Li  Li3  1  0.167605  0.832395  0.209946  1
  Li  Li4  1  0.167605  0.335209  0.209946  1
  Li  Li5  1  0.664791  0.832395  0.209946  1
  Li  Li6  1  0.666667  0.333333  0.331153  1
  Li  Li7  1  0.333333  0.666667  0.832196  1
  Sm  Sm8  1  0.485753  0.514247  0.503997  1
  Sm  Sm9  1  0.485753  0.971508  0.503997  1
  Sm  Sm10  1  0.028492  0.514247  0.503997  1
  Sm  Sm11  1  0.512699  0.487301  0.006629  1
  Sm  Sm12  1  0.512699  0.025398  0.006629  1
  Sm  Sm13  1  0.974602  0.487301  0.006629  1
  Sm  Sm14  1  0.000000  0.000000  0.497149  1
  Sm  Sm15  1  0.000000  0.000000  0.997453  1
  In  In16  1  0.333333  0.666667  0.232242  1
  Pb  Pb17  1  0.833272  0.166728  0.273373  1
  Pb  Pb18  1  0.833272  0.666543  0.273373  1
  Pb  Pb19  1  0.333457  0.166728  0.273373  1
  Pb  Pb20  1  0.167083  0.832917  0.774130  1
  Pb  Pb21  1  0.167083  0.334168  0.774130  1
  Pb  Pb22  1  0.665832  0.832917  0.774130  1
  Pb  Pb23  1  0.666667  0.333333  0.735352  1
