# generated using pymatgen
data_UMn2NbP2
_symmetry_space_group_name_H-M   'P 1'
_cell_length_a   3.71004500
_cell_length_b   6.54920689
_cell_length_c   6.91131469
_cell_angle_alpha   89.10515810
_cell_angle_beta   90.00000000
_cell_angle_gamma   90.00000000
_symmetry_Int_Tables_number   1
_chemical_formula_structural   UMn2NbP2
_chemical_formula_sum   'U2 Mn4 Nb2 P4'
_cell_volume   167.90962299
_cell_formula_units_Z   2
loop_
 _symmetry_equiv_pos_site_id
 _symmetry_equiv_pos_as_xyz
  1  'x, y, z'
loop_
 _atom_site_type_symbol
 _atom_site_label
 _atom_site_symmetry_multiplicity
 _atom_site_fract_x
 _atom_site_fract_y
 _atom_site_fract_z
 _atom_site_occupancy
  U  U0  1  0.250000  0.505194  0.666840  1
  U  U1  1  0.750000  0.494806  0.333160  1
  Mn  Mn2  1  0.750000  0.853073  0.559926  1
  Mn  Mn3  1  0.250000  0.146927  0.440074  1
  Mn  Mn4  1  0.750000  0.361177  0.924195  1
  Mn  Mn5  1  0.250000  0.638823  0.075805  1
  Nb  Nb6  1  0.250000  0.009907  0.827905  1
  Nb  Nb7  1  0.750000  0.990093  0.172095  1
  P  P8  1  0.250000  0.272001  0.110804  1
  P  P9  1  0.750000  0.727999  0.889196  1
  P  P10  1  0.250000  0.808602  0.374277  1
  P  P11  1  0.750000  0.191398  0.625723  1
