# generated using pymatgen
data_Pu(S8Cl)3
_symmetry_space_group_name_H-M   'P 1'
_cell_length_a   15.26516977
_cell_length_b   15.26517238
_cell_length_c   15.26517232
_cell_angle_alpha   119.19383361
_cell_angle_beta   119.19384166
_cell_angle_gamma   119.19384953
_symmetry_Int_Tables_number   1
_chemical_formula_structural   Pu(S8Cl)3
_chemical_formula_sum   'Pu1 S24 Cl3'
_cell_volume   827.83137268
_cell_formula_units_Z   1
loop_
 _symmetry_equiv_pos_site_id
 _symmetry_equiv_pos_as_xyz
  1  'x, y, z'
loop_
 _atom_site_type_symbol
 _atom_site_label
 _atom_site_symmetry_multiplicity
 _atom_site_fract_x
 _atom_site_fract_y
 _atom_site_fract_z
 _atom_site_occupancy
  Pu  Pu0  1  0.541745  0.541745  0.541745  1
  S  S1  1  0.810511  0.532098  0.532098  1
  S  S2  1  0.532098  0.532098  0.810511  1
  S  S3  1  0.532098  0.810511  0.532098  1
  S  S4  1  0.216663  0.345483  0.603869  1
  S  S5  1  0.388202  0.983034  0.388202  1
  S  S6  1  0.388202  0.388202  0.983034  1
  S  S7  1  0.983034  0.388202  0.388202  1
  S  S8  1  0.115188  0.723891  0.242404  1
  S  S9  1  0.242404  0.115188  0.723891  1
  S  S10  1  0.723891  0.242404  0.115188  1
  S  S11  1  0.723891  0.115188  0.242404  1
  S  S12  1  0.242404  0.723891  0.115188  1
  S  S13  1  0.115188  0.242404  0.723891  1
  S  S14  1  0.374415  0.900669  0.554164  1
  S  S15  1  0.554164  0.374415  0.900669  1
  S  S16  1  0.900669  0.554164  0.374415  1
  S  S17  1  0.900669  0.374415  0.554164  1
  S  S18  1  0.554164  0.900669  0.374415  1
  S  S19  1  0.374415  0.554164  0.900669  1
  S  S20  1  0.216663  0.603869  0.345483  1
  S  S21  1  0.345483  0.216663  0.603869  1
  S  S22  1  0.603869  0.345483  0.216663  1
  S  S23  1  0.603869  0.216663  0.345483  1
  S  S24  1  0.345483  0.603869  0.216663  1
  Cl  Cl25  1  0.980619  0.107650  0.107650  1
  Cl  Cl26  1  0.107650  0.107650  0.980619  1
  Cl  Cl27  1  0.107650  0.980619  0.107650  1
