# generated using pymatgen
data_Sr5Yb3(Sn4Au3)4
_symmetry_space_group_name_H-M   'P 1'
_cell_length_a   15.40160800
_cell_length_b   15.40160732
_cell_length_c   4.54093300
_cell_angle_alpha   90.00000000
_cell_angle_beta   90.00000000
_cell_angle_gamma   120.00000146
_symmetry_Int_Tables_number   1
_chemical_formula_structural   Sr5Yb3(Sn4Au3)4
_chemical_formula_sum   'Sr5 Yb3 Sn16 Au12'
_cell_volume   932.84144132
_cell_formula_units_Z   1
loop_
 _symmetry_equiv_pos_site_id
 _symmetry_equiv_pos_as_xyz
  1  'x, y, z'
loop_
 _atom_site_type_symbol
 _atom_site_label
 _atom_site_symmetry_multiplicity
 _atom_site_fract_x
 _atom_site_fract_y
 _atom_site_fract_z
 _atom_site_occupancy
  Sr  Sr0  1  0.333333  0.666667  0.000000  1
  Sr  Sr1  1  0.666667  0.333333  0.000000  1
  Sr  Sr2  1  0.819620  0.000000  0.500000  1
  Sr  Sr3  1  0.000000  0.819620  0.500000  1
  Sr  Sr4  1  0.180380  0.180380  0.500000  1
  Yb  Yb5  1  0.428022  0.000000  0.000000  1
  Yb  Yb6  1  0.000000  0.428022  0.000000  1
  Yb  Yb7  1  0.571978  0.571978  0.000000  1
  Sn  Sn8  1  0.189719  0.368228  0.000000  1
  Sn  Sn9  1  0.631772  0.821492  0.000000  1
  Sn  Sn10  1  0.368228  0.189719  0.000000  1
  Sn  Sn11  1  0.178508  0.810281  0.000000  1
  Sn  Sn12  1  0.821492  0.631772  0.000000  1
  Sn  Sn13  1  0.810281  0.178508  0.000000  1
  Sn  Sn14  1  0.278705  0.000000  0.500000  1
  Sn  Sn15  1  0.000000  0.278705  0.500000  1
  Sn  Sn16  1  0.721295  0.721295  0.500000  1
  Sn  Sn17  1  0.373082  0.499287  0.500000  1
  Sn  Sn18  1  0.500713  0.873794  0.500000  1
  Sn  Sn19  1  0.499287  0.373082  0.500000  1
  Sn  Sn20  1  0.126206  0.626918  0.500000  1
  Sn  Sn21  1  0.873794  0.500713  0.500000  1
  Sn  Sn22  1  0.626918  0.126206  0.500000  1
  Sn  Sn23  1  0.000000  0.000000  0.000000  1
  Au  Au24  1  0.173907  0.474545  0.500000  1
  Au  Au25  1  0.525455  0.699361  0.500000  1
  Au  Au26  1  0.474545  0.173907  0.500000  1
  Au  Au27  1  0.300639  0.826093  0.500000  1
  Au  Au28  1  0.699361  0.525455  0.500000  1
  Au  Au29  1  0.826093  0.300639  0.500000  1
  Au  Au30  1  0.173982  0.000000  0.000000  1
  Au  Au31  1  0.000000  0.173982  0.000000  1
  Au  Au32  1  0.826018  0.826018  0.000000  1
  Au  Au33  1  0.619398  0.000000  0.000000  1
  Au  Au34  1  0.000000  0.619398  0.000000  1
  Au  Au35  1  0.380602  0.380602  0.000000  1
