# generated using pymatgen
data_AcCrH9
_symmetry_space_group_name_H-M   'P 1'
_cell_length_a   4.82838400
_cell_length_b   4.82838469
_cell_length_c   8.99827400
_cell_angle_alpha   90.00000000
_cell_angle_beta   90.00000000
_cell_angle_gamma   119.99999527
_symmetry_Int_Tables_number   1
_chemical_formula_structural   AcCrH9
_chemical_formula_sum   'Ac2 Cr2 H18'
_cell_volume   181.67431531
_cell_formula_units_Z   2
loop_
 _symmetry_equiv_pos_site_id
 _symmetry_equiv_pos_as_xyz
  1  'x, y, z'
loop_
 _atom_site_type_symbol
 _atom_site_label
 _atom_site_symmetry_multiplicity
 _atom_site_fract_x
 _atom_site_fract_y
 _atom_site_fract_z
 _atom_site_occupancy
  Ac  Ac0  1  0.000000  0.000000  0.000000  1
  Ac  Ac1  1  0.000000  0.000000  0.500000  1
  Cr  Cr2  1  0.333333  0.666667  0.250000  1
  Cr  Cr3  1  0.666667  0.333333  0.750000  1
  H  H4  1  0.473018  0.526982  0.376496  1
  H  H5  1  0.473018  0.946035  0.376496  1
  H  H6  1  0.053965  0.526982  0.376496  1
  H  H7  1  0.946035  0.473018  0.876496  1
  H  H8  1  0.143594  0.287188  0.250000  1
  H  H9  1  0.856406  0.143594  0.750000  1
  H  H10  1  0.287188  0.143594  0.750000  1
  H  H11  1  0.712812  0.856406  0.250000  1
  H  H12  1  0.143594  0.856406  0.250000  1
  H  H13  1  0.856406  0.712812  0.750000  1
  H  H14  1  0.473018  0.946035  0.123504  1
  H  H15  1  0.526982  0.473018  0.623504  1
  H  H16  1  0.946035  0.473018  0.623504  1
  H  H17  1  0.053965  0.526982  0.123504  1
  H  H18  1  0.473018  0.526982  0.123504  1
  H  H19  1  0.526982  0.053965  0.876496  1
  H  H20  1  0.526982  0.473018  0.876496  1
  H  H21  1  0.526982  0.053965  0.623504  1
