# generated using pymatgen
data_Cs6CrIn(PBr9)2
_symmetry_space_group_name_H-M   'P 1'
_cell_length_a   7.86819300
_cell_length_b   7.86819273
_cell_length_c   19.78843300
_cell_angle_alpha   90.00000000
_cell_angle_beta   90.00000000
_cell_angle_gamma   119.99999692
_symmetry_Int_Tables_number   1
_chemical_formula_structural   Cs6CrIn(PBr9)2
_chemical_formula_sum   'Cs6 Cr1 In1 P2 Br18'
_cell_volume   1060.94298048
_cell_formula_units_Z   1
loop_
 _symmetry_equiv_pos_site_id
 _symmetry_equiv_pos_as_xyz
  1  'x, y, z'
loop_
 _atom_site_type_symbol
 _atom_site_label
 _atom_site_symmetry_multiplicity
 _atom_site_fract_x
 _atom_site_fract_y
 _atom_site_fract_z
 _atom_site_occupancy
  Cs  Cs0  1  0.666667  0.333333  0.910264  1
  Cs  Cs1  1  0.333333  0.666667  0.410958  1
  Cs  Cs2  1  0.666667  0.333333  0.565560  1
  Cs  Cs3  1  0.333333  0.666667  0.065038  1
  Cs  Cs4  1  0.000000  0.000000  0.763887  1
  Cs  Cs5  1  0.000000  0.000000  0.263470  1
  Cr  Cr6  1  0.333333  0.666667  0.836238  1
  In  In7  1  0.666667  0.333333  0.338320  1
  P  P8  1  0.333333  0.666667  0.653549  1
  P  P9  1  0.666667  0.333333  0.152477  1
  Br  Br10  1  0.830214  0.660427  0.413386  1
  Br  Br11  1  0.181479  0.362960  0.908163  1
  Br  Br12  1  0.181479  0.818521  0.908163  1
  Br  Br13  1  0.183442  0.366885  0.591073  1
  Br  Br14  1  0.637040  0.818521  0.908163  1
  Br  Br15  1  0.339573  0.169786  0.413386  1
  Br  Br16  1  0.030923  0.515462  0.758019  1
  Br  Br17  1  0.830214  0.169786  0.413386  1
  Br  Br18  1  0.505744  0.011488  0.252235  1
  Br  Br19  1  0.484538  0.515462  0.758019  1
  Br  Br20  1  0.505744  0.494256  0.252235  1
  Br  Br21  1  0.988512  0.494256  0.252235  1
  Br  Br22  1  0.367787  0.183893  0.090537  1
  Br  Br23  1  0.484538  0.969077  0.758019  1
  Br  Br24  1  0.816107  0.632213  0.090537  1
  Br  Br25  1  0.183442  0.816558  0.591073  1
  Br  Br26  1  0.633115  0.816558  0.591073  1
  Br  Br27  1  0.816107  0.183893  0.090537  1
