# generated using pymatgen
data_SrLa4Pr2FeBr12
_symmetry_space_group_name_H-M   'P 1'
_cell_length_a   9.76819912
_cell_length_b   9.79152811
_cell_length_c   9.38807209
_cell_angle_alpha   106.20191442
_cell_angle_beta   105.79347714
_cell_angle_gamma   106.80642776
_symmetry_Int_Tables_number   1
_chemical_formula_structural   SrLa4Pr2FeBr12
_chemical_formula_sum   'Sr1 La4 Pr2 Fe1 Br12'
_cell_volume   762.20903597
_cell_formula_units_Z   1
loop_
 _symmetry_equiv_pos_site_id
 _symmetry_equiv_pos_as_xyz
  1  'x, y, z'
loop_
 _atom_site_type_symbol
 _atom_site_label
 _atom_site_symmetry_multiplicity
 _atom_site_fract_x
 _atom_site_fract_y
 _atom_site_fract_z
 _atom_site_occupancy
  Sr  Sr0  1  0.499686  0.499586  0.499227  1
  La  La1  1  0.019450  0.094983  0.283335  1
  La  La2  1  0.981349  0.906029  0.716996  1
  La  La3  1  0.682533  0.979730  0.891394  1
  La  La4  1  0.892253  0.681381  0.983292  1
  Pr  Pr5  1  0.108634  0.315066  0.017419  1
  Pr  Pr6  1  0.314024  0.021390  0.107801  1
  Fe  Fe7  1  0.000714  0.000839  0.000278  1
  Br  Br8  1  0.216238  0.683405  0.071881  1
  Br  Br9  1  0.449000  0.363581  0.146129  1
  Br  Br10  1  0.681597  0.072269  0.220703  1
  Br  Br11  1  0.931255  0.786307  0.326473  1
  Br  Br12  1  0.155930  0.448119  0.367213  1
  Br  Br13  1  0.368875  0.158116  0.454666  1
  Br  Br14  1  0.631113  0.840933  0.543464  1
  Br  Br15  1  0.843713  0.551583  0.630873  1
  Br  Br16  1  0.069238  0.214885  0.675837  1
  Br  Br17  1  0.318269  0.928226  0.781184  1
  Br  Br18  1  0.550073  0.635623  0.853082  1
  Br  Br19  1  0.786054  0.317948  0.928753  1
