# generated using pymatgen
data_Er2TmPa(ReB6)2
_symmetry_space_group_name_H-M   'P 1'
_cell_length_a   3.68246200
_cell_length_b   9.12843369
_cell_length_c   11.49517926
_cell_angle_alpha   90.33704508
_cell_angle_beta   90.00000000
_cell_angle_gamma   90.00000000
_symmetry_Int_Tables_number   1
_chemical_formula_structural   Er2TmPa(ReB6)2
_chemical_formula_sum   'Er4 Tm2 Pa2 Re4 B24'
_cell_volume   386.40503191
_cell_formula_units_Z   2
loop_
 _symmetry_equiv_pos_site_id
 _symmetry_equiv_pos_as_xyz
  1  'x, y, z'
loop_
 _atom_site_type_symbol
 _atom_site_label
 _atom_site_symmetry_multiplicity
 _atom_site_fract_x
 _atom_site_fract_y
 _atom_site_fract_z
 _atom_site_occupancy
  Er  Er0  1  0.000000  0.823422  0.085533  1
  Er  Er1  1  0.000000  0.176578  0.914467  1
  Er  Er2  1  0.000000  0.944726  0.372160  1
  Er  Er3  1  0.000000  0.055274  0.627840  1
  Tm  Tm4  1  0.000000  0.443743  0.126206  1
  Tm  Tm5  1  0.000000  0.556257  0.873794  1
  Pa  Pa6  1  0.000000  0.321225  0.413077  1
  Pa  Pa7  1  0.000000  0.678775  0.586923  1
  Re  Re8  1  0.000000  0.635305  0.323896  1
  Re  Re9  1  0.000000  0.364695  0.676104  1
  Re  Re10  1  0.000000  0.140607  0.181190  1
  Re  Re11  1  0.000000  0.859393  0.818810  1
  B  B12  1  0.500000  0.553731  0.432725  1
  B  B13  1  0.500000  0.446269  0.567275  1
  B  B14  1  0.500000  0.053316  0.066935  1
  B  B15  1  0.500000  0.946684  0.933065  1
  B  B16  1  0.500000  0.748972  0.419271  1
  B  B17  1  0.500000  0.251028  0.580729  1
  B  B18  1  0.500000  0.248498  0.079800  1
  B  B19  1  0.500000  0.751502  0.920200  1
  B  B20  1  0.500000  0.791734  0.264807  1
  B  B21  1  0.500000  0.208266  0.735193  1
  B  B22  1  0.500000  0.292256  0.233508  1
  B  B23  1  0.500000  0.707744  0.766492  1
  B  B24  1  0.500000  0.631089  0.184663  1
  B  B25  1  0.500000  0.368911  0.815337  1
  B  B26  1  0.500000  0.131593  0.314000  1
  B  B27  1  0.500000  0.868407  0.686000  1
  B  B28  1  0.500000  0.981664  0.211757  1
  B  B29  1  0.500000  0.018336  0.788243  1
  B  B30  1  0.500000  0.482672  0.285964  1
  B  B31  1  0.500000  0.517328  0.714036  1
  B  B32  1  0.500000  0.603753  0.028985  1
  B  B33  1  0.500000  0.396247  0.971015  1
  B  B34  1  0.500000  0.108079  0.470067  1
  B  B35  1  0.500000  0.891921  0.529933  1
