# generated using pymatgen
data_Ac2NiRuI
_symmetry_space_group_name_H-M   'P 1'
_cell_length_a   4.29400200
_cell_length_b   4.29400303
_cell_length_c   9.34621000
_cell_angle_alpha   90.00000000
_cell_angle_beta   90.00000000
_cell_angle_gamma   119.99999210
_symmetry_Int_Tables_number   1
_chemical_formula_structural   Ac2NiRuI
_chemical_formula_sum   'Ac2 Ni1 Ru1 I1'
_cell_volume   149.24190697
_cell_formula_units_Z   1
loop_
 _symmetry_equiv_pos_site_id
 _symmetry_equiv_pos_as_xyz
  1  'x, y, z'
loop_
 _atom_site_type_symbol
 _atom_site_label
 _atom_site_symmetry_multiplicity
 _atom_site_fract_x
 _atom_site_fract_y
 _atom_site_fract_z
 _atom_site_occupancy
  Ac  Ac0  1  0.000000  0.000000  0.209780  1
  Ac  Ac1  1  0.000000  0.000000  0.790220  1
  Ni  Ni2  1  0.666667  0.333333  0.000000  1
  Ru  Ru3  1  0.333333  0.666667  0.000000  1
  I  I4  1  0.666667  0.333333  0.500000  1
