# generated using pymatgen
data_Er2P7Ru11Pt
_symmetry_space_group_name_H-M   'P 1'
_cell_length_a   9.34987438
_cell_length_b   9.45680399
_cell_length_c   3.94474800
_cell_angle_alpha   90.00000000
_cell_angle_beta   90.00000000
_cell_angle_gamma   119.30518512
_symmetry_Int_Tables_number   1
_chemical_formula_structural   Er2P7Ru11Pt
_chemical_formula_sum   'Er2 P7 Ru11 Pt1'
_cell_volume   304.15737712
_cell_formula_units_Z   1
loop_
 _symmetry_equiv_pos_site_id
 _symmetry_equiv_pos_as_xyz
  1  'x, y, z'
loop_
 _atom_site_type_symbol
 _atom_site_label
 _atom_site_symmetry_multiplicity
 _atom_site_fract_x
 _atom_site_fract_y
 _atom_site_fract_z
 _atom_site_occupancy
  Er  Er0  1  0.670988  0.337222  0.500000  1
  Er  Er1  1  0.328146  0.657816  0.000000  1
  P  P2  1  0.597725  0.704652  0.500000  1
  P  P3  1  0.997414  0.001080  0.000000  1
  P  P4  1  0.270934  0.876912  0.500000  1
  P  P5  1  0.118308  0.401572  0.500000  1
  P  P6  1  0.887568  0.580778  0.000000  1
  P  P7  1  0.427265  0.308686  0.000000  1
  P  P8  1  0.705673  0.127864  0.000000  1
  Ru  Ru9  1  0.390073  0.438536  0.500000  1
  Ru  Ru10  1  0.910132  0.128456  0.500000  1
  Ru  Ru11  1  0.212659  0.087107  0.500000  1
  Ru  Ru12  1  0.875384  0.793425  0.500000  1
  Ru  Ru13  1  0.723915  0.893467  0.000000  1
  Ru  Ru14  1  0.111741  0.840305  0.000000  1
  Ru  Ru15  1  0.163273  0.269501  0.000000  1
  Ru  Ru16  1  0.434903  0.068837  0.000000  1
  Ru  Ru17  1  0.939036  0.367072  0.000000  1
  Ru  Ru18  1  0.640264  0.574210  0.000000  1
  Ru  Ru19  1  0.052191  0.609243  0.500000  1
  Pt  Pt20  1  0.542409  0.933259  0.500000  1
