# generated using pymatgen
data_Li6CeNdUN6
_symmetry_space_group_name_H-M   'P 1'
_cell_length_a   6.20202300
_cell_length_b   6.20202334
_cell_length_c   5.48783000
_cell_angle_alpha   90.00000000
_cell_angle_beta   90.00000000
_cell_angle_gamma   120.00001419
_symmetry_Int_Tables_number   1
_chemical_formula_structural   Li6CeNdUN6
_chemical_formula_sum   'Li6 Ce1 Nd1 U1 N6'
_cell_volume   182.80917465
_cell_formula_units_Z   1
loop_
 _symmetry_equiv_pos_site_id
 _symmetry_equiv_pos_as_xyz
  1  'x, y, z'
loop_
 _atom_site_type_symbol
 _atom_site_label
 _atom_site_symmetry_multiplicity
 _atom_site_fract_x
 _atom_site_fract_y
 _atom_site_fract_z
 _atom_site_occupancy
  Li  Li0  1  0.970317  0.639427  0.601818  1
  Li  Li1  1  0.360573  0.330891  0.601818  1
  Li  Li2  1  0.669109  0.029683  0.601818  1
  Li  Li3  1  0.006947  0.339338  0.395586  1
  Li  Li4  1  0.660662  0.667608  0.395586  1
  Li  Li5  1  0.332392  0.993053  0.395586  1
  Ce  Ce6  1  0.333333  0.666667  0.992380  1
  Nd  Nd7  1  0.000000  0.000000  0.995561  1
  U  U8  1  0.666667  0.333333  0.008665  1
  N  N9  1  0.980610  0.637348  0.227872  1
  N  N10  1  0.362652  0.343261  0.227872  1
  N  N11  1  0.656739  0.019390  0.227872  1
  N  N12  1  0.973992  0.341947  0.775856  1
  N  N13  1  0.658053  0.632044  0.775856  1
  N  N14  1  0.367956  0.026008  0.775856  1
