# generated using pymatgen
data_Ho4Tm4Sc12Si15Au
_symmetry_space_group_name_H-M   'P 1'
_cell_length_a   7.09452388
_cell_length_b   7.35516404
_cell_length_c   14.01812202
_cell_angle_alpha   89.92768674
_cell_angle_beta   89.67694207
_cell_angle_gamma   90.21211785
_symmetry_Int_Tables_number   1
_chemical_formula_structural   Ho4Tm4Sc12Si15Au
_chemical_formula_sum   'Ho4 Tm4 Sc12 Si15 Au1'
_cell_volume   731.46780722
_cell_formula_units_Z   1
loop_
 _symmetry_equiv_pos_site_id
 _symmetry_equiv_pos_as_xyz
  1  'x, y, z'
loop_
 _atom_site_type_symbol
 _atom_site_label
 _atom_site_symmetry_multiplicity
 _atom_site_fract_x
 _atom_site_fract_y
 _atom_site_fract_z
 _atom_site_occupancy
  Ho  Ho0  1  0.012287  0.175916  0.097196  1
  Ho  Ho1  1  0.987595  0.824909  0.903866  1
  Ho  Ho2  1  0.487464  0.676988  0.903992  1
  Ho  Ho3  1  0.988445  0.827385  0.597263  1
  Tm  Tm4  1  0.512031  0.323002  0.096622  1
  Tm  Tm5  1  0.010679  0.175171  0.399775  1
  Tm  Tm6  1  0.509353  0.323925  0.401228  1
  Tm  Tm7  1  0.491029  0.676383  0.598724  1
  Sc  Sc8  1  0.162983  0.501900  0.751021  1
  Sc  Sc9  1  0.837190  0.497592  0.250872  1
  Sc  Sc10  1  0.338082  0.001459  0.249454  1
  Sc  Sc11  1  0.663767  0.995799  0.750702  1
  Sc  Sc12  1  0.338467  0.176249  0.625618  1
  Sc  Sc13  1  0.666377  0.823469  0.373590  1
  Sc  Sc14  1  0.169010  0.673181  0.373226  1
  Sc  Sc15  1  0.669989  0.824102  0.125448  1
  Sc  Sc16  1  0.828472  0.325692  0.625292  1
  Sc  Sc17  1  0.329124  0.175520  0.875900  1
  Sc  Sc18  1  0.830207  0.322777  0.875840  1
  Sc  Sc19  1  0.169356  0.676366  0.125269  1
  Si  Si20  1  0.035079  0.117816  0.750622  1
  Si  Si21  1  0.966761  0.885644  0.249476  1
  Si  Si22  1  0.466940  0.613240  0.248363  1
  Si  Si23  1  0.534843  0.386399  0.752206  1
  Si  Si24  1  0.285299  0.872693  0.750513  1
  Si  Si25  1  0.712933  0.129900  0.249262  1
  Si  Si26  1  0.214987  0.369226  0.248142  1
  Si  Si27  1  0.786577  0.628431  0.752338  1
  Si  Si28  1  0.833660  0.535791  0.459305  1
  Si  Si29  1  0.339734  0.963903  0.459957  1
  Si  Si30  1  0.842125  0.534959  0.039145  1
  Si  Si31  1  0.658480  0.035787  0.537634  1
  Si  Si32  1  0.156657  0.464504  0.961812  1
  Si  Si33  1  0.657490  0.035327  0.961426  1
  Si  Si34  1  0.342762  0.965066  0.039487  1
  Au  Au35  1  0.163766  0.463533  0.539414  1
