# generated using pymatgen
data_Dy3Tm5Cr2(OsC4)2
_symmetry_space_group_name_H-M   'P 1'
_cell_length_a   5.01958100
_cell_length_b   6.46007772
_cell_length_c   9.67650927
_cell_angle_alpha   90.15730920
_cell_angle_beta   90.00000000
_cell_angle_gamma   90.00000000
_symmetry_Int_Tables_number   1
_chemical_formula_structural   Dy3Tm5Cr2(OsC4)2
_chemical_formula_sum   'Dy3 Tm5 Cr2 Os2 C8'
_cell_volume   313.77785483
_cell_formula_units_Z   1
loop_
 _symmetry_equiv_pos_site_id
 _symmetry_equiv_pos_as_xyz
  1  'x, y, z'
loop_
 _atom_site_type_symbol
 _atom_site_label
 _atom_site_symmetry_multiplicity
 _atom_site_fract_x
 _atom_site_fract_y
 _atom_site_fract_z
 _atom_site_occupancy
  Dy  Dy0  1  0.750000  0.467959  0.786259  1
  Dy  Dy1  1  0.750000  0.972496  0.714274  1
  Dy  Dy2  1  0.250000  0.028576  0.285400  1
  Tm  Tm3  1  0.250000  0.679832  0.558839  1
  Tm  Tm4  1  0.750000  0.321286  0.440865  1
  Tm  Tm5  1  0.750000  0.824694  0.055092  1
  Tm  Tm6  1  0.250000  0.174174  0.945272  1
  Tm  Tm7  1  0.250000  0.533105  0.215221  1
  Cr  Cr8  1  0.250000  0.724624  0.862885  1
  Cr  Cr9  1  0.750000  0.275079  0.137360  1
  Os  Os10  1  0.750000  0.775447  0.362659  1
  Os  Os11  1  0.250000  0.224632  0.636492  1
  C  C12  1  0.250000  0.462319  0.764702  1
  C  C13  1  0.750000  0.537635  0.234629  1
  C  C14  1  0.750000  0.048047  0.256749  1
  C  C15  1  0.250000  0.951943  0.743324  1
  C  C16  1  0.250000  0.815222  0.041753  1
  C  C17  1  0.750000  0.181225  0.959116  1
  C  C18  1  0.750000  0.674204  0.548921  1
  C  C19  1  0.250000  0.327501  0.450188  1
