# generated using pymatgen
data_Sc9In14Co6Ru
_symmetry_space_group_name_H-M   'P 1'
_cell_length_a   9.50177206
_cell_length_b   9.50177244
_cell_length_c   9.50177200
_cell_angle_alpha   60.00000153
_cell_angle_beta   60.00000020
_cell_angle_gamma   60.00000348
_symmetry_Int_Tables_number   1
_chemical_formula_structural   Sc9In14Co6Ru
_chemical_formula_sum   'Sc9 In14 Co6 Ru1'
_cell_volume   606.59504342
_cell_formula_units_Z   1
loop_
 _symmetry_equiv_pos_site_id
 _symmetry_equiv_pos_as_xyz
  1  'x, y, z'
loop_
 _atom_site_type_symbol
 _atom_site_label
 _atom_site_symmetry_multiplicity
 _atom_site_fract_x
 _atom_site_fract_y
 _atom_site_fract_z
 _atom_site_occupancy
  Sc  Sc0  1  0.117943  0.646171  0.117943  1
  Sc  Sc1  1  0.353829  0.882057  0.882057  1
  Sc  Sc2  1  0.882057  0.882057  0.882057  1
  Sc  Sc3  1  0.646171  0.117943  0.117943  1
  Sc  Sc4  1  0.500000  0.500000  0.500000  1
  Sc  Sc5  1  0.882057  0.882057  0.353829  1
  Sc  Sc6  1  0.117943  0.117943  0.117943  1
  Sc  Sc7  1  0.882057  0.353829  0.882057  1
  Sc  Sc8  1  0.117943  0.117943  0.646171  1
  In  In9  1  0.500000  0.842156  0.157844  1
  In  In10  1  0.500000  0.842156  0.500000  1
  In  In11  1  0.500000  0.157844  0.500000  1
  In  In12  1  0.500000  0.500000  0.842156  1
  In  In13  1  0.157844  0.500000  0.500000  1
  In  In14  1  0.842156  0.157844  0.500000  1
  In  In15  1  0.157844  0.842156  0.500000  1
  In  In16  1  0.500000  0.157844  0.842156  1
  In  In17  1  0.157844  0.500000  0.842156  1
  In  In18  1  0.500000  0.500000  0.157844  1
  In  In19  1  0.842156  0.500000  0.500000  1
  In  In20  1  0.842156  0.500000  0.157844  1
  In  In21  1  0.250000  0.250000  0.250000  1
  In  In22  1  0.750000  0.750000  0.750000  1
  Co  Co23  1  0.770986  0.770986  0.229014  1
  Co  Co24  1  0.229014  0.770986  0.229014  1
  Co  Co25  1  0.229014  0.770986  0.770986  1
  Co  Co26  1  0.229014  0.229014  0.770986  1
  Co  Co27  1  0.770986  0.229014  0.770986  1
  Co  Co28  1  0.770986  0.229014  0.229014  1
  Ru  Ru29  1  0.000000  0.000000  0.000000  1
