# generated using pymatgen
data_Lu12TlCo4Au
_symmetry_space_group_name_H-M   'P 1'
_cell_length_a   8.12766997
_cell_length_b   8.12766924
_cell_length_c   8.12767000
_cell_angle_alpha   111.04022088
_cell_angle_beta   111.08000609
_cell_angle_gamma   106.33814300
_symmetry_Int_Tables_number   1
_chemical_formula_structural   Lu12TlCo4Au
_chemical_formula_sum   'Lu12 Tl1 Co4 Au1'
_cell_volume   412.38981154
_cell_formula_units_Z   1
loop_
 _symmetry_equiv_pos_site_id
 _symmetry_equiv_pos_as_xyz
  1  'x, y, z'
loop_
 _atom_site_type_symbol
 _atom_site_label
 _atom_site_symmetry_multiplicity
 _atom_site_fract_x
 _atom_site_fract_y
 _atom_site_fract_z
 _atom_site_occupancy
  Lu  Lu0  1  0.431380  0.226501  0.204879  1
  Lu  Lu1  1  0.568620  0.773499  0.795121  1
  Lu  Lu2  1  0.021622  0.226501  0.795121  1
  Lu  Lu3  1  0.978378  0.773499  0.204879  1
  Lu  Lu4  1  0.186442  0.286779  0.473221  1
  Lu  Lu5  1  0.813558  0.713221  0.526779  1
  Lu  Lu6  1  0.186442  0.713221  0.899664  1
  Lu  Lu7  1  0.813558  0.286779  0.100336  1
  Lu  Lu8  1  0.315588  0.619344  0.303754  1
  Lu  Lu9  1  0.684412  0.380656  0.696246  1
  Lu  Lu10  1  0.315588  0.011833  0.696246  1
  Lu  Lu11  1  0.684412  0.988167  0.303754  1
  Tl  Tl12  1  0.500000  0.500000  0.000000  1
  Co  Co13  1  0.374764  0.000000  0.374764  1
  Co  Co14  1  0.625236  0.000000  0.625236  1
  Co  Co15  1  0.113691  0.613691  0.500000  1
  Co  Co16  1  0.886309  0.386309  0.500000  1
  Au  Au17  1  0.000000  0.000000  0.000000  1
