# generated using pymatgen
data_Dy3Er(CuP2)4
_symmetry_space_group_name_H-M   'P 1'
_cell_length_a   3.71189400
_cell_length_b   3.75972164
_cell_length_c   19.42953549
_cell_angle_alpha   90.10703929
_cell_angle_beta   90.00000000
_cell_angle_gamma   90.00000000
_symmetry_Int_Tables_number   1
_chemical_formula_structural   Dy3Er(CuP2)4
_chemical_formula_sum   'Dy3 Er1 Cu4 P8'
_cell_volume   271.15206576
_cell_formula_units_Z   1
loop_
 _symmetry_equiv_pos_site_id
 _symmetry_equiv_pos_as_xyz
  1  'x, y, z'
loop_
 _atom_site_type_symbol
 _atom_site_label
 _atom_site_symmetry_multiplicity
 _atom_site_fract_x
 _atom_site_fract_y
 _atom_site_fract_z
 _atom_site_occupancy
  Dy  Dy0  1  0.250000  0.718751  0.382226  1
  Dy  Dy1  1  0.250000  0.780527  0.883491  1
  Dy  Dy2  1  0.750000  0.281581  0.617155  1
  Er  Er3  1  0.750000  0.218438  0.117547  1
  Cu  Cu4  1  0.250000  0.220362  0.249289  1
  Cu  Cu5  1  0.750000  0.781522  0.750560  1
  Cu  Cu6  1  0.250000  0.280212  0.750019  1
  Cu  Cu7  1  0.750000  0.719410  0.249412  1
  P  P8  1  0.750000  0.802213  0.501211  1
  P  P9  1  0.750000  0.698241  0.002587  1
  P  P10  1  0.250000  0.198260  0.498131  1
  P  P11  1  0.250000  0.300742  0.999602  1
  P  P12  1  0.250000  0.719394  0.170685  1
  P  P13  1  0.750000  0.219952  0.327529  1
  P  P14  1  0.750000  0.280041  0.828539  1
  P  P15  1  0.250000  0.780354  0.672017  1
