# generated using pymatgen
data_SmHo(CrN3)2
_symmetry_space_group_name_H-M   'P 1'
_cell_length_a   6.99500057
_cell_length_b   6.99500139
_cell_length_c   5.87077728
_cell_angle_alpha   77.35866582
_cell_angle_beta   77.35866811
_cell_angle_gamma   86.08039337
_symmetry_Int_Tables_number   1
_chemical_formula_structural   SmHo(CrN3)2
_chemical_formula_sum   'Sm2 Ho2 Cr4 N12'
_cell_volume   273.43625431
_cell_formula_units_Z   2
loop_
 _symmetry_equiv_pos_site_id
 _symmetry_equiv_pos_as_xyz
  1  'x, y, z'
loop_
 _atom_site_type_symbol
 _atom_site_label
 _atom_site_symmetry_multiplicity
 _atom_site_fract_x
 _atom_site_fract_y
 _atom_site_fract_z
 _atom_site_occupancy
  Sm  Sm0  1  0.330204  0.669796  0.750000  1
  Sm  Sm1  1  0.669796  0.330204  0.250000  1
  Ho  Ho2  1  0.089901  0.910099  0.250000  1
  Ho  Ho3  1  0.910099  0.089901  0.750000  1
  Cr  Cr4  1  0.377832  0.198965  0.758106  1
  Cr  Cr5  1  0.622168  0.801035  0.241894  1
  Cr  Cr6  1  0.801035  0.622168  0.741894  1
  Cr  Cr7  1  0.198965  0.377832  0.258106  1
  N  N8  1  0.995577  0.776579  0.652618  1
  N  N9  1  0.875011  0.396106  0.839304  1
  N  N10  1  0.776579  0.995577  0.152618  1
  N  N11  1  0.124989  0.603894  0.160696  1
  N  N12  1  0.004423  0.223421  0.347382  1
  N  N13  1  0.223421  0.004423  0.847382  1
  N  N14  1  0.603894  0.124989  0.660696  1
  N  N15  1  0.625165  0.674020  0.997043  1
  N  N16  1  0.374835  0.325980  0.002957  1
  N  N17  1  0.396106  0.875011  0.339304  1
  N  N18  1  0.674020  0.625165  0.497043  1
  N  N19  1  0.325980  0.374835  0.502957  1
