# generated using pymatgen
data_ZrPa7(Pd2Pb)4
_symmetry_space_group_name_H-M   'P 1'
_cell_length_a   7.75888818
_cell_length_b   7.75888818
_cell_length_c   7.40427700
_cell_angle_alpha   90.00000000
_cell_angle_beta   90.00000000
_cell_angle_gamma   89.97540950
_symmetry_Int_Tables_number   1
_chemical_formula_structural   ZrPa7(Pd2Pb)4
_chemical_formula_sum   'Zr1 Pa7 Pd8 Pb4'
_cell_volume   445.73999452
_cell_formula_units_Z   1
loop_
 _symmetry_equiv_pos_site_id
 _symmetry_equiv_pos_as_xyz
  1  'x, y, z'
loop_
 _atom_site_type_symbol
 _atom_site_label
 _atom_site_symmetry_multiplicity
 _atom_site_fract_x
 _atom_site_fract_y
 _atom_site_fract_z
 _atom_site_occupancy
  Zr  Zr0  1  0.313883  0.313883  0.000000  1
  Pa  Pa1  1  0.635624  0.635624  0.500000  1
  Pa  Pa2  1  0.810507  0.185436  0.500000  1
  Pa  Pa3  1  0.684083  0.684083  0.000000  1
  Pa  Pa4  1  0.865029  0.139116  0.000000  1
  Pa  Pa5  1  0.185436  0.810507  0.500000  1
  Pa  Pa6  1  0.139116  0.865029  0.000000  1
  Pa  Pa7  1  0.363194  0.363194  0.500000  1
  Pd  Pd8  1  0.633034  0.367797  0.202028  1
  Pd  Pd9  1  0.367797  0.633034  0.797972  1
  Pd  Pd10  1  0.865724  0.865724  0.703716  1
  Pd  Pd11  1  0.633034  0.367797  0.797972  1
  Pd  Pd12  1  0.367797  0.633034  0.202028  1
  Pd  Pd13  1  0.132976  0.132976  0.299063  1
  Pd  Pd14  1  0.865724  0.865724  0.296284  1
  Pd  Pd15  1  0.132976  0.132976  0.700937  1
  Pb  Pb16  1  0.005618  0.496415  0.243433  1
  Pb  Pb17  1  0.496415  0.005618  0.756567  1
  Pb  Pb18  1  0.496415  0.005618  0.243433  1
  Pb  Pb19  1  0.005618  0.496415  0.756567  1
