# generated using pymatgen
data_TbMn3FeMoP3
_symmetry_space_group_name_H-M   'P 1'
_cell_length_a   3.67816900
_cell_length_b   10.65121600
_cell_length_c   12.27295000
_cell_angle_alpha   90.00000000
_cell_angle_beta   90.00000000
_cell_angle_gamma   90.00000000
_symmetry_Int_Tables_number   1
_chemical_formula_structural   TbMn3FeMoP3
_chemical_formula_sum   'Tb4 Mn12 Fe4 Mo4 P12'
_cell_volume   480.81702469
_cell_formula_units_Z   4
loop_
 _symmetry_equiv_pos_site_id
 _symmetry_equiv_pos_as_xyz
  1  'x, y, z'
loop_
 _atom_site_type_symbol
 _atom_site_label
 _atom_site_symmetry_multiplicity
 _atom_site_fract_x
 _atom_site_fract_y
 _atom_site_fract_z
 _atom_site_occupancy
  Tb  Tb0  1  0.250000  0.584446  0.709069  1
  Tb  Tb1  1  0.250000  0.915554  0.209069  1
  Tb  Tb2  1  0.750000  0.415554  0.290931  1
  Tb  Tb3  1  0.750000  0.084446  0.790931  1
  Mn  Mn4  1  0.250000  0.409481  0.493763  1
  Mn  Mn5  1  0.250000  0.090519  0.993763  1
  Mn  Mn6  1  0.750000  0.590519  0.506237  1
  Mn  Mn7  1  0.750000  0.909481  0.006237  1
  Mn  Mn8  1  0.250000  0.215820  0.177376  1
  Mn  Mn9  1  0.250000  0.284180  0.677376  1
  Mn  Mn10  1  0.750000  0.784180  0.822624  1
  Mn  Mn11  1  0.750000  0.715820  0.322624  1
  Mn  Mn12  1  0.250000  0.878677  0.697473  1
  Mn  Mn13  1  0.250000  0.621323  0.197473  1
  Mn  Mn14  1  0.750000  0.121323  0.302527  1
  Mn  Mn15  1  0.750000  0.378677  0.802527  1
  Fe  Fe16  1  0.250000  0.463397  0.933661  1
  Fe  Fe17  1  0.250000  0.036603  0.433661  1
  Fe  Fe18  1  0.750000  0.536603  0.066339  1
  Fe  Fe19  1  0.750000  0.963397  0.566339  1
  Mo  Mo20  1  0.250000  0.706996  0.985704  1
  Mo  Mo21  1  0.250000  0.793004  0.485704  1
  Mo  Mo22  1  0.750000  0.293004  0.014296  1
  Mo  Mo23  1  0.750000  0.206996  0.514296  1
  P  P24  1  0.250000  0.424793  0.111501  1
  P  P25  1  0.250000  0.075207  0.611501  1
  P  P26  1  0.750000  0.575207  0.888499  1
  P  P27  1  0.750000  0.924793  0.388499  1
  P  P28  1  0.250000  0.265584  0.869578  1
  P  P29  1  0.250000  0.234416  0.369578  1
  P  P30  1  0.750000  0.734416  0.130422  1
  P  P31  1  0.750000  0.765584  0.630422  1
  P  P32  1  0.250000  0.592060  0.385514  1
  P  P33  1  0.250000  0.907940  0.885514  1
  P  P34  1  0.750000  0.407940  0.614486  1
  P  P35  1  0.750000  0.092060  0.114486  1
