# generated using pymatgen
data_LiLa3Cd2HgPd2
_symmetry_space_group_name_H-M   'P 1'
_cell_length_a   8.06191867
_cell_length_b   8.09195423
_cell_length_c   3.92534100
_cell_angle_alpha   90.00000000
_cell_angle_beta   90.00000000
_cell_angle_gamma   120.12331921
_symmetry_Int_Tables_number   1
_chemical_formula_structural   LiLa3Cd2HgPd2
_chemical_formula_sum   'Li1 La3 Cd2 Hg1 Pd2'
_cell_volume   221.49240363
_cell_formula_units_Z   1
loop_
 _symmetry_equiv_pos_site_id
 _symmetry_equiv_pos_as_xyz
  1  'x, y, z'
loop_
 _atom_site_type_symbol
 _atom_site_label
 _atom_site_symmetry_multiplicity
 _atom_site_fract_x
 _atom_site_fract_y
 _atom_site_fract_z
 _atom_site_occupancy
  Li  Li0  1  0.000000  0.003242  0.500000  1
  La  La1  1  0.415382  0.418181  0.500000  1
  La  La2  1  0.584618  0.002799  0.500000  1
  La  La3  1  0.000000  0.574839  0.500000  1
  Cd  Cd4  1  0.752532  0.750013  0.000000  1
  Cd  Cd5  1  0.247468  0.997481  0.000000  1
  Hg  Hg6  1  0.000000  0.246006  0.000000  1
  Pd  Pd7  1  0.661780  0.334609  0.000000  1
  Pd  Pd8  1  0.338220  0.672830  0.000000  1
