# generated using pymatgen
data_Th2Ge4IrPtAu2
_symmetry_space_group_name_H-M   'P 1'
_cell_length_a   4.41139600
_cell_length_b   4.41139600
_cell_length_c   10.23487400
_cell_angle_alpha   90.00000000
_cell_angle_beta   90.00000000
_cell_angle_gamma   90.00000000
_symmetry_Int_Tables_number   1
_chemical_formula_structural   Th2Ge4IrPtAu2
_chemical_formula_sum   'Th2 Ge4 Ir1 Pt1 Au2'
_cell_volume   199.17489212
_cell_formula_units_Z   1
loop_
 _symmetry_equiv_pos_site_id
 _symmetry_equiv_pos_as_xyz
  1  'x, y, z'
loop_
 _atom_site_type_symbol
 _atom_site_label
 _atom_site_symmetry_multiplicity
 _atom_site_fract_x
 _atom_site_fract_y
 _atom_site_fract_z
 _atom_site_occupancy
  Th  Th0  1  0.000000  0.500000  0.259637  1
  Th  Th1  1  0.500000  0.000000  0.735719  1
  Ge  Ge2  1  0.000000  0.000000  0.497960  1
  Ge  Ge3  1  0.500000  0.500000  0.497960  1
  Ge  Ge4  1  0.000000  0.500000  0.857866  1
  Ge  Ge5  1  0.500000  0.000000  0.147868  1
  Ir  Ir6  1  0.500000  0.000000  0.384099  1
  Pt  Pt7  1  0.000000  0.500000  0.619052  1
  Au  Au8  1  0.000000  0.000000  0.999919  1
  Au  Au9  1  0.500000  0.500000  0.999919  1
