# generated using pymatgen
data_Pr17Dy3Si15Ru
_symmetry_space_group_name_H-M   'P 1'
_cell_length_a   7.89319343
_cell_length_b   7.86781219
_cell_length_c   15.20980858
_cell_angle_alpha   90.29196418
_cell_angle_beta   89.85920268
_cell_angle_gamma   90.21165538
_symmetry_Int_Tables_number   1
_chemical_formula_structural   Pr17Dy3Si15Ru
_chemical_formula_sum   'Pr17 Dy3 Si15 Ru1'
_cell_volume   944.54050168
_cell_formula_units_Z   1
loop_
 _symmetry_equiv_pos_site_id
 _symmetry_equiv_pos_as_xyz
  1  'x, y, z'
loop_
 _atom_site_type_symbol
 _atom_site_label
 _atom_site_symmetry_multiplicity
 _atom_site_fract_x
 _atom_site_fract_y
 _atom_site_fract_z
 _atom_site_occupancy
  Pr  Pr0  1  0.697212  0.689618  0.501749  1
  Pr  Pr1  1  0.373156  0.011418  0.449238  1
  Pr  Pr2  1  0.486744  0.878553  0.698927  1
  Pr  Pr3  1  0.511810  0.124393  0.197742  1
  Pr  Pr4  1  0.876007  0.486333  0.299660  1
  Pr  Pr5  1  0.126498  0.503069  0.798482  1
  Pr  Pr6  1  0.625561  0.988019  0.948332  1
  Pr  Pr7  1  0.005388  0.377178  0.552690  1
  Pr  Pr8  1  0.987764  0.625263  0.050650  1
  Pr  Pr9  1  0.133991  0.983528  0.872865  1
  Pr  Pr10  1  0.518940  0.630487  0.125812  1
  Pr  Pr11  1  0.469634  0.361343  0.630626  1
  Pr  Pr12  1  0.628530  0.516944  0.874782  1
  Pr  Pr13  1  0.374852  0.481826  0.372253  1
  Pr  Pr14  1  0.873587  0.022972  0.377106  1
  Pr  Pr15  1  0.980234  0.126387  0.123074  1
  Pr  Pr16  1  0.028496  0.883749  0.626644  1
  Dy  Dy17  1  0.307523  0.307573  0.998712  1
  Dy  Dy18  1  0.188896  0.809399  0.250214  1
  Dy  Dy19  1  0.821837  0.188959  0.749560  1
  Si  Si20  1  0.331275  0.691401  0.952955  1
  Si  Si21  1  0.663367  0.303419  0.453703  1
  Si  Si22  1  0.693489  0.331940  0.047560  1
  Si  Si23  1  0.305624  0.668642  0.545904  1
  Si  Si24  1  0.809579  0.830886  0.204970  1
  Si  Si25  1  0.169733  0.192833  0.294859  1
  Si  Si26  1  0.831315  0.805785  0.797890  1
  Si  Si27  1  0.287005  0.922855  0.061025  1
  Si  Si28  1  0.575715  0.788773  0.309787  1
  Si  Si29  1  0.425855  0.209151  0.814942  1
  Si  Si30  1  0.780934  0.579277  0.691404  1
  Si  Si31  1  0.212506  0.423306  0.186998  1
  Si  Si32  1  0.705607  0.076196  0.562112  1
  Si  Si33  1  0.921777  0.285128  0.939032  1
  Si  Si34  1  0.083241  0.718104  0.437313  1
  Ru  Ru35  1  0.186316  0.175292  0.700431  1
