# generated using pymatgen
data_Ta12Al8Pd3WC4
_symmetry_space_group_name_H-M   'P 1'
_cell_length_a   8.39240885
_cell_length_b   8.39240996
_cell_length_c   8.32469200
_cell_angle_alpha   119.73344608
_cell_angle_beta   90.00000000
_cell_angle_gamma   120.53312154
_symmetry_Int_Tables_number   1
_chemical_formula_structural   Ta12Al8Pd3WC4
_chemical_formula_sum   'Ta12 Al8 Pd3 W1 C4'
_cell_volume   412.90111216
_cell_formula_units_Z   1
loop_
 _symmetry_equiv_pos_site_id
 _symmetry_equiv_pos_as_xyz
  1  'x, y, z'
loop_
 _atom_site_type_symbol
 _atom_site_label
 _atom_site_symmetry_multiplicity
 _atom_site_fract_x
 _atom_site_fract_y
 _atom_site_fract_z
 _atom_site_occupancy
  Ta  Ta0  1  0.443511  0.748589  0.056489  1
  Ta  Ta1  1  0.813697  0.760765  0.074462  1
  Ta  Ta2  1  0.807902  0.112978  0.056489  1
  Ta  Ta3  1  0.556489  0.251413  0.307902  1
  Ta  Ta4  1  0.574462  0.627394  0.313697  1
  Ta  Ta5  1  0.186304  0.239237  0.313698  1
  Ta  Ta6  1  0.443511  0.748589  0.692099  1
  Ta  Ta7  1  0.813697  0.760765  0.686304  1
  Ta  Ta8  1  0.425538  0.372605  0.686304  1
  Ta  Ta9  1  0.556489  0.251413  0.943512  1
  Ta  Ta10  1  0.186304  0.239237  0.925540  1
  Ta  Ta11  1  0.192099  0.887024  0.943513  1
  Al  Al12  1  0.212613  0.574774  0.287387  1
  Al  Al13  1  0.874493  0.576285  0.288143  1
  Al  Al14  1  0.211857  0.913649  0.288143  1
  Al  Al15  1  0.788143  0.086351  0.374494  1
  Al  Al16  1  0.211857  0.913649  0.625506  1
  Al  Al17  1  0.125506  0.423714  0.711857  1
  Al  Al18  1  0.788143  0.086351  0.711857  1
  Al  Al19  1  0.787387  0.425225  0.712614  1
  Pd  Pd20  1  0.000000  0.500000  0.000000  1
  Pd  Pd21  1  0.500000  0.000000  0.500000  1
  Pd  Pd22  1  0.000000  0.500000  0.500000  1
  W  W23  1  0.000000  0.000000  0.500000  1
  C  C24  1  0.000000  0.000000  0.000000  1
  C  C25  1  0.500000  0.000000  0.000000  1
  C  C26  1  0.500000  0.500000  0.000000  1
  C  C27  1  0.500000  0.500000  0.500000  1
