# generated using pymatgen
data_SrLi2NdSi2Sb
_symmetry_space_group_name_H-M   'P 1'
_cell_length_a   9.96887827
_cell_length_b   9.96888013
_cell_length_c   6.96551000
_cell_angle_alpha   90.00000000
_cell_angle_beta   90.00000000
_cell_angle_gamma   153.28243837
_symmetry_Int_Tables_number   1
_chemical_formula_structural   SrLi2NdSi2Sb
_chemical_formula_sum   'Sr2 Li4 Nd2 Si4 Sb2'
_cell_volume   311.21816485
_cell_formula_units_Z   2
loop_
 _symmetry_equiv_pos_site_id
 _symmetry_equiv_pos_as_xyz
  1  'x, y, z'
loop_
 _atom_site_type_symbol
 _atom_site_label
 _atom_site_symmetry_multiplicity
 _atom_site_fract_x
 _atom_site_fract_y
 _atom_site_fract_z
 _atom_site_occupancy
  Sr  Sr0  1  0.344779  0.655221  0.250000  1
  Sr  Sr1  1  0.655221  0.344779  0.750000  1
  Li  Li2  1  0.184223  0.815777  0.056639  1
  Li  Li3  1  0.184223  0.815777  0.443361  1
  Li  Li4  1  0.815777  0.184223  0.943361  1
  Li  Li5  1  0.815777  0.184223  0.556639  1
  Nd  Nd6  1  0.545807  0.454193  0.250000  1
  Nd  Nd7  1  0.454193  0.545807  0.750000  1
  Si  Si8  1  0.054527  0.945473  0.923640  1
  Si  Si9  1  0.945473  0.054527  0.076360  1
  Si  Si10  1  0.945473  0.054527  0.423640  1
  Si  Si11  1  0.054527  0.945473  0.576360  1
  Sb  Sb12  1  0.714828  0.285172  0.250000  1
  Sb  Sb13  1  0.285172  0.714828  0.750000  1
