# generated using pymatgen
data_Na3Eu3AlSb4
_symmetry_space_group_name_H-M   'P 1'
_cell_length_a   10.24747900
_cell_length_b   10.24747863
_cell_length_c   7.65131100
_cell_angle_alpha   90.00000000
_cell_angle_beta   90.00000000
_cell_angle_gamma   119.99999797
_symmetry_Int_Tables_number   1
_chemical_formula_structural   Na3Eu3AlSb4
_chemical_formula_sum   'Na6 Eu6 Al2 Sb8'
_cell_volume   695.82584204
_cell_formula_units_Z   2
loop_
 _symmetry_equiv_pos_site_id
 _symmetry_equiv_pos_as_xyz
  1  'x, y, z'
loop_
 _atom_site_type_symbol
 _atom_site_label
 _atom_site_symmetry_multiplicity
 _atom_site_fract_x
 _atom_site_fract_y
 _atom_site_fract_z
 _atom_site_occupancy
  Na  Na0  1  0.857884  0.142116  0.547228  1
  Na  Na1  1  0.284232  0.142116  0.547228  1
  Na  Na2  1  0.857884  0.715768  0.547228  1
  Na  Na3  1  0.142116  0.857884  0.047228  1
  Na  Na4  1  0.715768  0.857884  0.047228  1
  Na  Na5  1  0.142116  0.284232  0.047228  1
  Eu  Eu6  1  0.482246  0.517754  0.729841  1
  Eu  Eu7  1  0.035508  0.517754  0.729841  1
  Eu  Eu8  1  0.482246  0.964492  0.729841  1
  Eu  Eu9  1  0.517754  0.482246  0.229841  1
  Eu  Eu10  1  0.964492  0.482246  0.229841  1
  Eu  Eu11  1  0.517754  0.035508  0.229841  1
  Al  Al12  1  0.666667  0.333333  0.865089  1
  Al  Al13  1  0.333333  0.666667  0.365089  1
  Sb  Sb14  1  0.812833  0.187167  0.962426  1
  Sb  Sb15  1  0.374334  0.187167  0.962426  1
  Sb  Sb16  1  0.812833  0.625666  0.962426  1
  Sb  Sb17  1  0.187167  0.812833  0.462426  1
  Sb  Sb18  1  0.625666  0.812833  0.462426  1
  Sb  Sb19  1  0.187167  0.374334  0.462426  1
  Sb  Sb20  1  0.666667  0.333333  0.501788  1
  Sb  Sb21  1  0.333333  0.666667  0.001788  1
