# generated using pymatgen
data_Dy3Lu8ThCo4
_symmetry_space_group_name_H-M   'P 1'
_cell_length_a   6.15585696
_cell_length_b   6.86431897
_cell_length_c   9.28624300
_cell_angle_alpha   90.00000000
_cell_angle_beta   90.00000000
_cell_angle_gamma   90.97142613
_symmetry_Int_Tables_number   1
_chemical_formula_structural   Dy3Lu8ThCo4
_chemical_formula_sum   'Dy3 Lu8 Th1 Co4'
_cell_volume   392.34091100
_cell_formula_units_Z   1
loop_
 _symmetry_equiv_pos_site_id
 _symmetry_equiv_pos_as_xyz
  1  'x, y, z'
loop_
 _atom_site_type_symbol
 _atom_site_label
 _atom_site_symmetry_multiplicity
 _atom_site_fract_x
 _atom_site_fract_y
 _atom_site_fract_z
 _atom_site_occupancy
  Dy  Dy0  1  0.637049  0.040418  0.250000  1
  Dy  Dy1  1  0.140512  0.457787  0.750000  1
  Dy  Dy2  1  0.359825  0.957766  0.750000  1
  Lu  Lu3  1  0.327488  0.674258  0.067006  1
  Lu  Lu4  1  0.173696  0.173915  0.431915  1
  Lu  Lu5  1  0.675570  0.324941  0.569366  1
  Lu  Lu6  1  0.823717  0.828378  0.929677  1
  Lu  Lu7  1  0.675570  0.324941  0.930634  1
  Lu  Lu8  1  0.823717  0.828378  0.570323  1
  Lu  Lu9  1  0.327488  0.674258  0.432994  1
  Lu  Lu10  1  0.173696  0.173915  0.068085  1
  Th  Th11  1  0.850967  0.552430  0.250000  1
  Co  Co12  1  0.047312  0.871880  0.250000  1
  Co  Co13  1  0.462762  0.387879  0.250000  1
  Co  Co14  1  0.951102  0.115552  0.750000  1
  Co  Co15  1  0.549533  0.613303  0.750000  1
