# generated using pymatgen
data_Cs6YSe4Br
_symmetry_space_group_name_H-M   'P 1'
_cell_length_a   11.79858400
_cell_length_b   11.79858409
_cell_length_c   8.82155800
_cell_angle_alpha   90.00000000
_cell_angle_beta   90.00000000
_cell_angle_gamma   120.00000535
_symmetry_Int_Tables_number   1
_chemical_formula_structural   Cs6YSe4Br
_chemical_formula_sum   'Cs12 Y2 Se8 Br2'
_cell_volume   1063.49556503
_cell_formula_units_Z   2
loop_
 _symmetry_equiv_pos_site_id
 _symmetry_equiv_pos_as_xyz
  1  'x, y, z'
loop_
 _atom_site_type_symbol
 _atom_site_label
 _atom_site_symmetry_multiplicity
 _atom_site_fract_x
 _atom_site_fract_y
 _atom_site_fract_z
 _atom_site_occupancy
  Cs  Cs0  1  0.134826  0.865174  0.511402  1
  Cs  Cs1  1  0.730349  0.865174  0.511402  1
  Cs  Cs2  1  0.936395  0.468197  0.318085  1
  Cs  Cs3  1  0.531803  0.468197  0.318085  1
  Cs  Cs4  1  0.865174  0.730349  0.011402  1
  Cs  Cs5  1  0.269651  0.134826  0.011402  1
  Cs  Cs6  1  0.531803  0.063605  0.318085  1
  Cs  Cs7  1  0.134826  0.269651  0.511402  1
  Cs  Cs8  1  0.865174  0.134826  0.011402  1
  Cs  Cs9  1  0.063605  0.531803  0.818085  1
  Cs  Cs10  1  0.468197  0.936395  0.818085  1
  Cs  Cs11  1  0.468197  0.531803  0.818085  1
  Y  Y12  1  0.666667  0.333333  0.717535  1
  Y  Y13  1  0.333333  0.666667  0.217535  1
  Se  Se14  1  0.414682  0.207341  0.610867  1
  Se  Se15  1  0.585318  0.792659  0.110867  1
  Se  Se16  1  0.666667  0.333333  0.031096  1
  Se  Se17  1  0.792659  0.585318  0.610867  1
  Se  Se18  1  0.207341  0.414682  0.110867  1
  Se  Se19  1  0.333333  0.666667  0.531096  1
  Se  Se20  1  0.207341  0.792659  0.110867  1
  Se  Se21  1  0.792659  0.207341  0.610867  1
  Br  Br22  1  0.000000  0.000000  0.270911  1
  Br  Br23  1  0.000000  0.000000  0.770911  1
