# generated using pymatgen
data_LaCeLu2(ReB6)2
_symmetry_space_group_name_H-M   'P 1'
_cell_length_a   3.71246300
_cell_length_b   9.18707415
_cell_length_c   11.63807497
_cell_angle_alpha   89.90524124
_cell_angle_beta   90.00000000
_cell_angle_gamma   90.00000000
_symmetry_Int_Tables_number   1
_chemical_formula_structural   LaCeLu2(ReB6)2
_chemical_formula_sum   'La2 Ce2 Lu4 Re4 B24'
_cell_volume   396.93547279
_cell_formula_units_Z   2
loop_
 _symmetry_equiv_pos_site_id
 _symmetry_equiv_pos_as_xyz
  1  'x, y, z'
loop_
 _atom_site_type_symbol
 _atom_site_label
 _atom_site_symmetry_multiplicity
 _atom_site_fract_x
 _atom_site_fract_y
 _atom_site_fract_z
 _atom_site_occupancy
  La  La0  1  0.000000  0.322777  0.414261  1
  La  La1  1  0.000000  0.677223  0.585739  1
  Ce  Ce2  1  0.000000  0.822154  0.084862  1
  Ce  Ce3  1  0.000000  0.177846  0.915138  1
  Lu  Lu4  1  0.000000  0.943488  0.368991  1
  Lu  Lu5  1  0.000000  0.056512  0.631009  1
  Lu  Lu6  1  0.000000  0.444099  0.127885  1
  Lu  Lu7  1  0.000000  0.555901  0.872115  1
  Re  Re8  1  0.000000  0.643326  0.314679  1
  Re  Re9  1  0.000000  0.356674  0.685321  1
  Re  Re10  1  0.000000  0.137616  0.177389  1
  Re  Re11  1  0.000000  0.862384  0.822611  1
  B  B12  1  0.500000  0.557471  0.427633  1
  B  B13  1  0.500000  0.442529  0.572367  1
  B  B14  1  0.500000  0.054743  0.068206  1
  B  B15  1  0.500000  0.945257  0.931794  1
  B  B16  1  0.500000  0.751950  0.413903  1
  B  B17  1  0.500000  0.248050  0.586097  1
  B  B18  1  0.500000  0.250364  0.081959  1
  B  B19  1  0.500000  0.749636  0.918041  1
  B  B20  1  0.500000  0.793217  0.263487  1
  B  B21  1  0.500000  0.206783  0.736513  1
  B  B22  1  0.500000  0.291356  0.231772  1
  B  B23  1  0.500000  0.708644  0.768228  1
  B  B24  1  0.500000  0.631445  0.183425  1
  B  B25  1  0.500000  0.368555  0.816575  1
  B  B26  1  0.500000  0.128429  0.312185  1
  B  B27  1  0.500000  0.871571  0.687815  1
  B  B28  1  0.500000  0.983047  0.211861  1
  B  B29  1  0.500000  0.016953  0.788139  1
  B  B30  1  0.500000  0.485588  0.284018  1
  B  B31  1  0.500000  0.514412  0.715982  1
  B  B32  1  0.500000  0.600970  0.027327  1
  B  B33  1  0.500000  0.399030  0.972673  1
  B  B34  1  0.500000  0.094405  0.474063  1
  B  B35  1  0.500000  0.905595  0.525937  1
