# generated using pymatgen
data_Sm6Sb7AsPd16
_symmetry_space_group_name_H-M   'P 1'
_cell_length_a   9.41022533
_cell_length_b   9.41022482
_cell_length_c   9.41022500
_cell_angle_alpha   59.99999585
_cell_angle_beta   59.99999765
_cell_angle_gamma   59.99999663
_symmetry_Int_Tables_number   1
_chemical_formula_structural   Sm6Sb7AsPd16
_chemical_formula_sum   'Sm6 Sb7 As1 Pd16'
_cell_volume   589.23020248
_cell_formula_units_Z   1
loop_
 _symmetry_equiv_pos_site_id
 _symmetry_equiv_pos_as_xyz
  1  'x, y, z'
loop_
 _atom_site_type_symbol
 _atom_site_label
 _atom_site_symmetry_multiplicity
 _atom_site_fract_x
 _atom_site_fract_y
 _atom_site_fract_z
 _atom_site_occupancy
  Sm  Sm0  1  0.717732  0.282268  0.282268  1
  Sm  Sm1  1  0.282268  0.717732  0.717732  1
  Sm  Sm2  1  0.282268  0.717732  0.282268  1
  Sm  Sm3  1  0.717732  0.282268  0.717732  1
  Sm  Sm4  1  0.282268  0.282268  0.717732  1
  Sm  Sm5  1  0.717732  0.717732  0.282268  1
  Sb  Sb6  1  0.000000  0.000000  0.000000  1
  Sb  Sb7  1  0.500000  0.000000  0.000000  1
  Sb  Sb8  1  0.000000  0.500000  0.500000  1
  Sb  Sb9  1  0.000000  0.500000  0.000000  1
  Sb  Sb10  1  0.500000  0.000000  0.500000  1
  Sb  Sb11  1  0.000000  0.000000  0.500000  1
  Sb  Sb12  1  0.500000  0.500000  0.000000  1
  As  As13  1  0.500000  0.500000  0.500000  1
  Pd  Pd14  1  0.118636  0.118636  0.118636  1
  Pd  Pd15  1  0.881364  0.881364  0.881364  1
  Pd  Pd16  1  0.118636  0.118636  0.644092  1
  Pd  Pd17  1  0.118636  0.644092  0.118636  1
  Pd  Pd18  1  0.881364  0.881364  0.355908  1
  Pd  Pd19  1  0.881364  0.355908  0.881364  1
  Pd  Pd20  1  0.644092  0.118636  0.118636  1
  Pd  Pd21  1  0.355908  0.881364  0.881364  1
  Pd  Pd22  1  0.332320  0.332320  0.332320  1
  Pd  Pd23  1  0.667680  0.667680  0.667680  1
  Pd  Pd24  1  0.332320  0.332320  0.003040  1
  Pd  Pd25  1  0.332320  0.003040  0.332320  1
  Pd  Pd26  1  0.667680  0.667680  0.996960  1
  Pd  Pd27  1  0.667680  0.996960  0.667680  1
  Pd  Pd28  1  0.003040  0.332320  0.332320  1
  Pd  Pd29  1  0.996960  0.667680  0.667680  1
