# generated using pymatgen
data_Dy10Ir2OsRu
_symmetry_space_group_name_H-M   'P 1'
_cell_length_a   6.43849931
_cell_length_b   7.28715737
_cell_length_c   8.48489654
_cell_angle_alpha   96.65566635
_cell_angle_beta   112.27673134
_cell_angle_gamma   90.00662427
_symmetry_Int_Tables_number   1
_chemical_formula_structural   Dy10Ir2OsRu
_chemical_formula_sum   'Dy10 Ir2 Os1 Ru1'
_cell_volume   365.48173173
_cell_formula_units_Z   1
loop_
 _symmetry_equiv_pos_site_id
 _symmetry_equiv_pos_as_xyz
  1  'x, y, z'
loop_
 _atom_site_type_symbol
 _atom_site_label
 _atom_site_symmetry_multiplicity
 _atom_site_fract_x
 _atom_site_fract_y
 _atom_site_fract_z
 _atom_site_occupancy
  Dy  Dy0  1  0.791928  0.084645  0.818477  1
  Dy  Dy1  1  0.974471  0.415580  0.182923  1
  Dy  Dy2  1  0.208218  0.917743  0.185133  1
  Dy  Dy3  1  0.022638  0.582606  0.814819  1
  Dy  Dy4  1  0.209994  0.184426  0.560850  1
  Dy  Dy5  1  0.650092  0.314938  0.437719  1
  Dy  Dy6  1  0.789144  0.817401  0.436735  1
  Dy  Dy7  1  0.352691  0.682545  0.563482  1
  Dy  Dy8  1  0.426308  0.249633  0.000571  1
  Dy  Dy9  1  0.575490  0.750389  0.000224  1
  Ir  Ir10  1  0.395226  0.575955  0.221260  1
  Ir  Ir11  1  0.173870  0.923902  0.778412  1
  Os  Os12  1  0.823879  0.074134  0.218447  1
  Ru  Ru13  1  0.606051  0.426104  0.780948  1
