# generated using pymatgen
data_Cs2BaSr(SbAu)4
_symmetry_space_group_name_H-M   'P 1'
_cell_length_a   4.70861800
_cell_length_b   4.70861817
_cell_length_c   21.68799900
_cell_angle_alpha   90.00000000
_cell_angle_beta   90.00000000
_cell_angle_gamma   119.99999881
_symmetry_Int_Tables_number   1
_chemical_formula_structural   Cs2BaSr(SbAu)4
_chemical_formula_sum   'Cs2 Ba1 Sr1 Sb4 Au4'
_cell_volume   416.42524895
_cell_formula_units_Z   1
loop_
 _symmetry_equiv_pos_site_id
 _symmetry_equiv_pos_as_xyz
  1  'x, y, z'
loop_
 _atom_site_type_symbol
 _atom_site_label
 _atom_site_symmetry_multiplicity
 _atom_site_fract_x
 _atom_site_fract_y
 _atom_site_fract_z
 _atom_site_occupancy
  Cs  Cs0  1  0.000000  0.000000  0.241777  1
  Cs  Cs1  1  0.000000  0.000000  0.758223  1
  Ba  Ba2  1  0.000000  0.000000  0.500000  1
  Sr  Sr3  1  0.000000  0.000000  0.000000  1
  Sb  Sb4  1  0.333333  0.666667  0.382445  1
  Sb  Sb5  1  0.666667  0.333333  0.617555  1
  Sb  Sb6  1  0.666667  0.333333  0.890796  1
  Sb  Sb7  1  0.333333  0.666667  0.109204  1
  Au  Au8  1  0.666667  0.333333  0.385133  1
  Au  Au9  1  0.333333  0.666667  0.614867  1
  Au  Au10  1  0.333333  0.666667  0.904115  1
  Au  Au11  1  0.666667  0.333333  0.095885  1
