# generated using pymatgen
data_Tb5Co19(Si3P)3
_symmetry_space_group_name_H-M   'P 1'
_cell_length_a   12.14158100
_cell_length_b   12.14158111
_cell_length_c   3.70894500
_cell_angle_alpha   90.00000000
_cell_angle_beta   90.00000000
_cell_angle_gamma   119.99999698
_symmetry_Int_Tables_number   1
_chemical_formula_structural   Tb5Co19(Si3P)3
_chemical_formula_sum   'Tb5 Co19 Si9 P3'
_cell_volume   473.51258367
_cell_formula_units_Z   1
loop_
 _symmetry_equiv_pos_site_id
 _symmetry_equiv_pos_as_xyz
  1  'x, y, z'
loop_
 _atom_site_type_symbol
 _atom_site_label
 _atom_site_symmetry_multiplicity
 _atom_site_fract_x
 _atom_site_fract_y
 _atom_site_fract_z
 _atom_site_occupancy
  Tb  Tb0  1  0.333333  0.666667  0.500000  1
  Tb  Tb1  1  0.666667  0.333333  0.500000  1
  Tb  Tb2  1  0.000000  0.184886  0.000000  1
  Tb  Tb3  1  0.815114  0.815114  0.000000  1
  Tb  Tb4  1  0.184886  0.000000  0.000000  1
  Co  Co5  1  0.626777  0.824172  0.500000  1
  Co  Co6  1  0.175828  0.802605  0.500000  1
  Co  Co7  1  0.197395  0.373223  0.500000  1
  Co  Co8  1  0.373223  0.197395  0.500000  1
  Co  Co9  1  0.824172  0.626777  0.500000  1
  Co  Co10  1  0.802605  0.175828  0.500000  1
  Co  Co11  1  0.000000  0.558449  0.500000  1
  Co  Co12  1  0.441551  0.441551  0.500000  1
  Co  Co13  1  0.558449  0.000000  0.500000  1
  Co  Co14  1  0.521441  0.644421  0.000000  1
  Co  Co15  1  0.355579  0.877021  0.000000  1
  Co  Co16  1  0.122979  0.478559  0.000000  1
  Co  Co17  1  0.478559  0.122979  0.000000  1
  Co  Co18  1  0.644421  0.521441  0.000000  1
  Co  Co19  1  0.877021  0.355579  0.000000  1
  Co  Co20  1  0.000000  0.722025  0.000000  1
  Co  Co21  1  0.277975  0.277975  0.000000  1
  Co  Co22  1  0.722025  0.000000  0.000000  1
  Co  Co23  1  0.000000  0.000000  0.500000  1
  Si  Si24  1  0.000000  0.370981  0.500000  1
  Si  Si25  1  0.629019  0.629019  0.500000  1
  Si  Si26  1  0.370981  0.000000  0.500000  1
  Si  Si27  1  0.522443  0.840496  0.000000  1
  Si  Si28  1  0.159504  0.681947  0.000000  1
  Si  Si29  1  0.318053  0.477557  0.000000  1
  Si  Si30  1  0.477557  0.318053  0.000000  1
  Si  Si31  1  0.840496  0.522443  0.000000  1
  Si  Si32  1  0.681947  0.159504  0.000000  1
  P  P33  1  0.000000  0.817854  0.500000  1
  P  P34  1  0.182146  0.182146  0.500000  1
  P  P35  1  0.817854  0.000000  0.500000  1
