# generated using pymatgen
data_Yb7Er(Si4Mo3)4
_symmetry_space_group_name_H-M   'P 1'
_cell_length_a   6.72663607
_cell_length_b   6.92386585
_cell_length_c   13.04369055
_cell_angle_alpha   89.88221407
_cell_angle_beta   89.99831037
_cell_angle_gamma   89.92847303
_symmetry_Int_Tables_number   1
_chemical_formula_structural   Yb7Er(Si4Mo3)4
_chemical_formula_sum   'Yb7 Er1 Si16 Mo12'
_cell_volume   607.49933489
_cell_formula_units_Z   1
loop_
 _symmetry_equiv_pos_site_id
 _symmetry_equiv_pos_as_xyz
  1  'x, y, z'
loop_
 _atom_site_type_symbol
 _atom_site_label
 _atom_site_symmetry_multiplicity
 _atom_site_fract_x
 _atom_site_fract_y
 _atom_site_fract_z
 _atom_site_occupancy
  Yb  Yb0  1  0.498222  0.334311  0.090158  1
  Yb  Yb1  1  0.998288  0.166123  0.409366  1
  Yb  Yb2  1  0.501689  0.666047  0.590833  1
  Yb  Yb3  1  0.001082  0.831124  0.908150  1
  Yb  Yb4  1  0.500903  0.667009  0.909329  1
  Yb  Yb5  1  0.001547  0.833020  0.590755  1
  Yb  Yb6  1  0.498489  0.334290  0.409469  1
  Er  Er7  1  0.999196  0.170167  0.093568  1
  Si  Si8  1  0.657931  0.043366  0.545651  1
  Si  Si9  1  0.158379  0.456731  0.954794  1
  Si  Si10  1  0.340395  0.957779  0.045430  1
  Si  Si11  1  0.842013  0.543548  0.454294  1
  Si  Si12  1  0.342520  0.956399  0.454266  1
  Si  Si13  1  0.841234  0.543294  0.045149  1
  Si  Si14  1  0.659797  0.042213  0.954910  1
  Si  Si15  1  0.158021  0.456457  0.545676  1
  Si  Si16  1  0.535055  0.373683  0.750529  1
  Si  Si17  1  0.035076  0.124806  0.749836  1
  Si  Si18  1  0.464881  0.628471  0.248891  1
  Si  Si19  1  0.965089  0.873115  0.249633  1
  Si  Si20  1  0.800274  0.631449  0.750150  1
  Si  Si21  1  0.300979  0.867130  0.750129  1
  Si  Si22  1  0.199894  0.368620  0.250728  1
  Si  Si23  1  0.697293  0.133184  0.250450  1
  Mo  Mo24  1  0.834937  0.331062  0.628208  1
  Mo  Mo25  1  0.334007  0.167914  0.872906  1
  Mo  Mo26  1  0.165277  0.668006  0.126597  1
  Mo  Mo27  1  0.665957  0.831518  0.371559  1
  Mo  Mo28  1  0.165393  0.668791  0.371322  1
  Mo  Mo29  1  0.667642  0.833856  0.126785  1
  Mo  Mo30  1  0.835829  0.329490  0.873288  1
  Mo  Mo31  1  0.335128  0.168221  0.628112  1
  Mo  Mo32  1  0.661053  0.008345  0.750557  1
  Mo  Mo33  1  0.161083  0.490468  0.750529  1
  Mo  Mo34  1  0.337285  0.993079  0.249178  1
  Mo  Mo35  1  0.838160  0.506914  0.248817  1
