# generated using pymatgen
data_V10Fe2Si3As
_symmetry_space_group_name_H-M   'P 1'
_cell_length_a   4.65681800
_cell_length_b   4.63875300
_cell_length_c   9.28450700
_cell_angle_alpha   90.00000000
_cell_angle_beta   90.00000000
_cell_angle_gamma   90.00000000
_symmetry_Int_Tables_number   1
_chemical_formula_structural   V10Fe2Si3As
_chemical_formula_sum   'V10 Fe2 Si3 As1'
_cell_volume   200.56232762
_cell_formula_units_Z   1
loop_
 _symmetry_equiv_pos_site_id
 _symmetry_equiv_pos_as_xyz
  1  'x, y, z'
loop_
 _atom_site_type_symbol
 _atom_site_label
 _atom_site_symmetry_multiplicity
 _atom_site_fract_x
 _atom_site_fract_y
 _atom_site_fract_z
 _atom_site_occupancy
  V  V0  1  0.500000  0.248215  0.747778  1
  V  V1  1  0.500000  0.248437  0.252393  1
  V  V2  1  0.753223  0.000000  0.999655  1
  V  V3  1  0.749789  0.000000  0.499459  1
  V  V4  1  0.000000  0.500000  0.873293  1
  V  V5  1  0.000000  0.500000  0.375336  1
  V  V6  1  0.500000  0.751785  0.747778  1
  V  V7  1  0.500000  0.751563  0.252393  1
  V  V8  1  0.246777  0.000000  0.999655  1
  V  V9  1  0.250211  0.000000  0.499459  1
  Fe  Fe10  1  0.000000  0.500000  0.128131  1
  Fe  Fe11  1  0.000000  0.500000  0.624942  1
  Si  Si12  1  0.500000  0.500000  0.498990  1
  Si  Si13  1  0.000000  0.000000  0.751001  1
  Si  Si14  1  0.000000  0.000000  0.251186  1
  As  As15  1  0.500000  0.500000  0.998552  1
