# generated using pymatgen
data_Yb3SnGePd2
_symmetry_space_group_name_H-M   'P 1'
_cell_length_a   5.62794200
_cell_length_b   8.46374000
_cell_length_c   13.53632600
_cell_angle_alpha   90.00000000
_cell_angle_beta   90.00000000
_cell_angle_gamma   90.00000000
_symmetry_Int_Tables_number   1
_chemical_formula_structural   Yb3SnGePd2
_chemical_formula_sum   'Yb12 Sn4 Ge4 Pd8'
_cell_volume   644.78174287
_cell_formula_units_Z   4
loop_
 _symmetry_equiv_pos_site_id
 _symmetry_equiv_pos_as_xyz
  1  'x, y, z'
loop_
 _atom_site_type_symbol
 _atom_site_label
 _atom_site_symmetry_multiplicity
 _atom_site_fract_x
 _atom_site_fract_y
 _atom_site_fract_z
 _atom_site_occupancy
  Yb  Yb0  1  0.651351  0.259184  0.250000  1
  Yb  Yb1  1  0.348649  0.740816  0.750000  1
  Yb  Yb2  1  0.348649  0.759184  0.250000  1
  Yb  Yb3  1  0.651351  0.240816  0.750000  1
  Yb  Yb4  1  0.153512  0.395473  0.104114  1
  Yb  Yb5  1  0.846488  0.604527  0.895886  1
  Yb  Yb6  1  0.846488  0.604527  0.604114  1
  Yb  Yb7  1  0.846488  0.895473  0.395886  1
  Yb  Yb8  1  0.153512  0.395473  0.395886  1
  Yb  Yb9  1  0.153512  0.104527  0.604114  1
  Yb  Yb10  1  0.153512  0.104527  0.895886  1
  Yb  Yb11  1  0.846488  0.895473  0.104114  1
  Sn  Sn12  1  0.654902  0.250000  0.000000  1
  Sn  Sn13  1  0.345098  0.750000  0.000000  1
  Sn  Sn14  1  0.345098  0.750000  0.500000  1
  Sn  Sn15  1  0.654902  0.250000  0.500000  1
  Ge  Ge16  1  0.144222  0.110369  0.250000  1
  Ge  Ge17  1  0.855778  0.889631  0.750000  1
  Ge  Ge18  1  0.855778  0.610369  0.250000  1
  Ge  Ge19  1  0.144222  0.389631  0.750000  1
  Pd  Pd20  1  0.367853  0.035823  0.093057  1
  Pd  Pd21  1  0.632147  0.964177  0.906943  1
  Pd  Pd22  1  0.632147  0.964177  0.593057  1
  Pd  Pd23  1  0.632147  0.535823  0.406943  1
  Pd  Pd24  1  0.367853  0.035823  0.406943  1
  Pd  Pd25  1  0.367853  0.464177  0.593057  1
  Pd  Pd26  1  0.367853  0.464177  0.906943  1
  Pd  Pd27  1  0.632147  0.535823  0.093057  1
