# generated using pymatgen
data_Pr8Zn8Ir5Pd2Rh
_symmetry_space_group_name_H-M   'P 1'
_cell_length_a   4.04981000
_cell_length_b   7.39414342
_cell_length_c   16.78474194
_cell_angle_alpha   90.03850080
_cell_angle_beta   90.00000000
_cell_angle_gamma   90.00000000
_symmetry_Int_Tables_number   1
_chemical_formula_structural   Pr8Zn8Ir5Pd2Rh
_chemical_formula_sum   'Pr8 Zn8 Ir5 Pd2 Rh1'
_cell_volume   502.61690204
_cell_formula_units_Z   1
loop_
 _symmetry_equiv_pos_site_id
 _symmetry_equiv_pos_as_xyz
  1  'x, y, z'
loop_
 _atom_site_type_symbol
 _atom_site_label
 _atom_site_symmetry_multiplicity
 _atom_site_fract_x
 _atom_site_fract_y
 _atom_site_fract_z
 _atom_site_occupancy
  Pr  Pr0  1  0.750000  0.455041  0.218625  1
  Pr  Pr1  1  0.750000  0.951146  0.284586  1
  Pr  Pr2  1  0.750000  0.826741  0.059886  1
  Pr  Pr3  1  0.250000  0.043626  0.718212  1
  Pr  Pr4  1  0.250000  0.166447  0.935014  1
  Pr  Pr5  1  0.250000  0.549325  0.784496  1
  Pr  Pr6  1  0.750000  0.333460  0.435202  1
  Pr  Pr7  1  0.250000  0.673157  0.560471  1
  Zn  Zn8  1  0.250000  0.995239  0.437160  1
  Zn  Zn9  1  0.750000  0.504609  0.937120  1
  Zn  Zn10  1  0.750000  0.998191  0.560115  1
  Zn  Zn11  1  0.250000  0.623618  0.350308  1
  Zn  Zn12  1  0.750000  0.379305  0.653451  1
  Zn  Zn13  1  0.750000  0.876278  0.850061  1
  Zn  Zn14  1  0.250000  0.501650  0.060024  1
  Zn  Zn15  1  0.250000  0.121540  0.153420  1
  Ir  Ir16  1  0.250000  0.246752  0.313673  1
  Ir  Ir17  1  0.750000  0.252970  0.814144  1
  Ir  Ir18  1  0.250000  0.743713  0.935814  1
  Ir  Ir19  1  0.750000  0.751745  0.685499  1
  Ir  Ir20  1  0.750000  0.757263  0.434918  1
  Pd  Pd21  1  0.250000  0.241341  0.566028  1
  Pd  Pd22  1  0.750000  0.258616  0.066240  1
  Rh  Rh23  1  0.250000  0.748226  0.185535  1
