# generated using pymatgen
data_La3GaS6
_symmetry_space_group_name_H-M   'P 1'
_cell_length_a   8.94864216
_cell_length_b   8.94864289
_cell_length_c   6.73628500
_cell_angle_alpha   90.00000000
_cell_angle_beta   90.00000000
_cell_angle_gamma   102.41766626
_symmetry_Int_Tables_number   1
_chemical_formula_structural   La3GaS6
_chemical_formula_sum   'La6 Ga2 S12'
_cell_volume   526.81019346
_cell_formula_units_Z   2
loop_
 _symmetry_equiv_pos_site_id
 _symmetry_equiv_pos_as_xyz
  1  'x, y, z'
loop_
 _atom_site_type_symbol
 _atom_site_label
 _atom_site_symmetry_multiplicity
 _atom_site_fract_x
 _atom_site_fract_y
 _atom_site_fract_z
 _atom_site_occupancy
  La  La0  1  0.286256  0.084309  0.222333  1
  La  La1  1  0.915691  0.713744  0.222333  1
  La  La2  1  0.713744  0.915691  0.722333  1
  La  La3  1  0.084309  0.286256  0.722333  1
  La  La4  1  0.398825  0.601175  0.144633  1
  La  La5  1  0.601175  0.398825  0.644633  1
  Ga  Ga6  1  0.198784  0.801216  0.766639  1
  Ga  Ga7  1  0.801216  0.198784  0.266639  1
  S  S8  1  0.575498  0.102756  0.431944  1
  S  S9  1  0.897244  0.424502  0.431944  1
  S  S10  1  0.424502  0.897244  0.931944  1
  S  S11  1  0.102756  0.575498  0.931944  1
  S  S12  1  0.637568  0.685859  0.433493  1
  S  S13  1  0.314141  0.362432  0.433493  1
  S  S14  1  0.362432  0.314141  0.933493  1
  S  S15  1  0.685859  0.637568  0.933493  1
  S  S16  1  0.215870  0.784130  0.427447  1
  S  S17  1  0.784130  0.215870  0.927447  1
  S  S18  1  0.956820  0.043180  0.400743  1
  S  S19  1  0.043180  0.956820  0.900743  1
