# generated using pymatgen
data_Nb4V4NiP3
_symmetry_space_group_name_H-M   'P 1'
_cell_length_a   3.39523000
_cell_length_b   6.46239702
_cell_length_c   7.79662702
_cell_angle_alpha   89.99132640
_cell_angle_beta   90.00000000
_cell_angle_gamma   90.00000000
_symmetry_Int_Tables_number   1
_chemical_formula_structural   Nb4V4NiP3
_chemical_formula_sum   'Nb4 V4 Ni1 P3'
_cell_volume   171.06831943
_cell_formula_units_Z   1
loop_
 _symmetry_equiv_pos_site_id
 _symmetry_equiv_pos_as_xyz
  1  'x, y, z'
loop_
 _atom_site_type_symbol
 _atom_site_label
 _atom_site_symmetry_multiplicity
 _atom_site_fract_x
 _atom_site_fract_y
 _atom_site_fract_z
 _atom_site_occupancy
  Nb  Nb0  1  0.250000  0.037928  0.828010  1
  Nb  Nb1  1  0.250000  0.541928  0.670613  1
  Nb  Nb2  1  0.750000  0.965324  0.162521  1
  Nb  Nb3  1  0.750000  0.452157  0.334100  1
  V  V4  1  0.250000  0.135757  0.442801  1
  V  V5  1  0.250000  0.634110  0.059377  1
  V  V6  1  0.750000  0.866156  0.559730  1
  V  V7  1  0.750000  0.365271  0.940762  1
  Ni  Ni8  1  0.250000  0.757930  0.362360  1
  P  P9  1  0.250000  0.260705  0.140025  1
  P  P10  1  0.750000  0.243075  0.637272  1
  P  P11  1  0.750000  0.739659  0.862430  1
