# generated using pymatgen
data_YHoFe3Re14C3
_symmetry_space_group_name_H-M   'P 1'
_cell_length_a   6.92781608
_cell_length_b   6.92781565
_cell_length_c   6.92781642
_cell_angle_alpha   82.49273422
_cell_angle_beta   82.49273170
_cell_angle_gamma   82.49271929
_symmetry_Int_Tables_number   1
_chemical_formula_structural   YHoFe3Re14C3
_chemical_formula_sum   'Y1 Ho1 Fe3 Re14 C3'
_cell_volume   324.63294058
_cell_formula_units_Z   1
loop_
 _symmetry_equiv_pos_site_id
 _symmetry_equiv_pos_as_xyz
  1  'x, y, z'
loop_
 _atom_site_type_symbol
 _atom_site_label
 _atom_site_symmetry_multiplicity
 _atom_site_fract_x
 _atom_site_fract_y
 _atom_site_fract_z
 _atom_site_occupancy
  Y  Y0  1  0.351358  0.351358  0.351358  1
  Ho  Ho1  1  0.648718  0.648718  0.648718  1
  Fe  Fe2  1  0.999953  0.999953  0.500023  1
  Fe  Fe3  1  0.500023  0.999953  0.999953  1
  Fe  Fe4  1  0.999953  0.500023  0.999953  1
  Re  Re5  1  0.722195  0.277881  0.999923  1
  Re  Re6  1  0.999923  0.722195  0.277881  1
  Re  Re7  1  0.277881  0.999923  0.722195  1
  Re  Re8  1  0.999923  0.277881  0.722195  1
  Re  Re9  1  0.722195  0.999923  0.277881  1
  Re  Re10  1  0.277881  0.722195  0.999923  1
  Re  Re11  1  0.346554  0.346554  0.860725  1
  Re  Re12  1  0.860725  0.346554  0.346554  1
  Re  Re13  1  0.346554  0.860725  0.346554  1
  Re  Re14  1  0.653628  0.653628  0.139038  1
  Re  Re15  1  0.139038  0.653628  0.653628  1
  Re  Re16  1  0.653628  0.139038  0.653628  1
  Re  Re17  1  0.897616  0.897616  0.897616  1
  Re  Re18  1  0.102242  0.102242  0.102242  1
  C  C19  1  0.500258  0.500258  0.999498  1
  C  C20  1  0.999498  0.500258  0.500258  1
  C  C21  1  0.500258  0.999498  0.500258  1
