# generated using pymatgen
data_CaSm3Tm4(B6Os)4
_symmetry_space_group_name_H-M   'P 1'
_cell_length_a   3.65440300
_cell_length_b   9.15481219
_cell_length_c   11.57255577
_cell_angle_alpha   89.92068468
_cell_angle_beta   90.00000000
_cell_angle_gamma   90.00000000
_symmetry_Int_Tables_number   1
_chemical_formula_structural   CaSm3Tm4(B6Os)4
_chemical_formula_sum   'Ca1 Sm3 Tm4 B24 Os4'
_cell_volume   387.16380060
_cell_formula_units_Z   1
loop_
 _symmetry_equiv_pos_site_id
 _symmetry_equiv_pos_as_xyz
  1  'x, y, z'
loop_
 _atom_site_type_symbol
 _atom_site_label
 _atom_site_symmetry_multiplicity
 _atom_site_fract_x
 _atom_site_fract_y
 _atom_site_fract_z
 _atom_site_occupancy
  Ca  Ca0  1  0.000000  0.321931  0.414034  1
  Sm  Sm1  1  0.000000  0.676250  0.584806  1
  Sm  Sm2  1  0.000000  0.822328  0.086629  1
  Sm  Sm3  1  0.000000  0.178299  0.914596  1
  Tm  Tm4  1  0.000000  0.944847  0.371919  1
  Tm  Tm5  1  0.000000  0.057577  0.627053  1
  Tm  Tm6  1  0.000000  0.443424  0.129288  1
  Tm  Tm7  1  0.000000  0.555590  0.872136  1
  B  B8  1  0.500000  0.554239  0.431193  1
  B  B9  1  0.500000  0.444493  0.568071  1
  B  B10  1  0.500000  0.054961  0.068541  1
  B  B11  1  0.500000  0.944560  0.931104  1
  B  B12  1  0.500000  0.749342  0.417537  1
  B  B13  1  0.500000  0.250895  0.581511  1
  B  B14  1  0.500000  0.249455  0.082602  1
  B  B15  1  0.500000  0.750010  0.917897  1
  B  B16  1  0.500000  0.791576  0.266592  1
  B  B17  1  0.500000  0.209249  0.733378  1
  B  B18  1  0.500000  0.291151  0.234271  1
  B  B19  1  0.500000  0.708870  0.766440  1
  B  B20  1  0.500000  0.630518  0.186000  1
  B  B21  1  0.500000  0.369406  0.814915  1
  B  B22  1  0.500000  0.131253  0.314832  1
  B  B23  1  0.500000  0.869511  0.684970  1
  B  B24  1  0.500000  0.984677  0.213585  1
  B  B25  1  0.500000  0.015859  0.785873  1
  B  B26  1  0.500000  0.483410  0.287001  1
  B  B27  1  0.500000  0.515380  0.713506  1
  B  B28  1  0.500000  0.602637  0.028275  1
  B  B29  1  0.500000  0.397403  0.972211  1
  B  B30  1  0.500000  0.102238  0.471888  1
  B  B31  1  0.500000  0.898222  0.527856  1
  Os  Os32  1  0.000000  0.639996  0.319463  1
  Os  Os33  1  0.000000  0.360911  0.680957  1
  Os  Os34  1  0.000000  0.138362  0.179471  1
  Os  Os35  1  0.000000  0.861172  0.819596  1
