# generated using pymatgen
data_Tm3GaSn2Pd3
_symmetry_space_group_name_H-M   'P 1'
_cell_length_a   7.60527001
_cell_length_b   7.54949349
_cell_length_c   3.74730900
_cell_angle_alpha   90.00000000
_cell_angle_beta   90.00000000
_cell_angle_gamma   119.75768777
_symmetry_Int_Tables_number   1
_chemical_formula_structural   Tm3GaSn2Pd3
_chemical_formula_sum   'Tm3 Ga1 Sn2 Pd3'
_cell_volume   186.78321079
_cell_formula_units_Z   1
loop_
 _symmetry_equiv_pos_site_id
 _symmetry_equiv_pos_as_xyz
  1  'x, y, z'
loop_
 _atom_site_type_symbol
 _atom_site_label
 _atom_site_symmetry_multiplicity
 _atom_site_fract_x
 _atom_site_fract_y
 _atom_site_fract_z
 _atom_site_occupancy
  Tm  Tm0  1  0.000000  0.417314  0.500000  1
  Tm  Tm1  1  0.606920  0.597873  0.500000  1
  Tm  Tm2  1  0.393080  0.990953  0.500000  1
  Ga  Ga3  1  0.000000  0.735070  0.000000  1
  Sn  Sn4  1  0.260556  0.261101  0.000000  1
  Sn  Sn5  1  0.739444  0.000545  0.000000  1
  Pd  Pd6  1  0.329481  0.669057  0.000000  1
  Pd  Pd7  1  0.670519  0.339575  0.000000  1
  Pd  Pd8  1  0.000000  0.988511  0.500000  1
