# generated using pymatgen
data_MgBr35
_symmetry_space_group_name_H-M   'P 1'
_cell_length_a   15.98197694
_cell_length_b   11.40028128
_cell_length_c   10.79188300
_cell_angle_alpha   88.81408278
_cell_angle_beta   66.02770512
_cell_angle_gamma   92.31545406
_symmetry_Int_Tables_number   1
_chemical_formula_structural   MgBr35
_chemical_formula_sum   'Mg1 Br35'
_cell_volume   1793.71352310
_cell_formula_units_Z   1
loop_
 _symmetry_equiv_pos_site_id
 _symmetry_equiv_pos_as_xyz
  1  'x, y, z'
loop_
 _atom_site_type_symbol
 _atom_site_label
 _atom_site_symmetry_multiplicity
 _atom_site_fract_x
 _atom_site_fract_y
 _atom_site_fract_z
 _atom_site_occupancy
  Mg  Mg0  1  0.216134  0.440560  0.445289  1
  Br  Br1  1  0.510433  0.264032  0.519877  1
  Br  Br2  1  0.765465  0.576727  0.556901  1
  Br  Br3  1  0.493439  0.683862  0.746165  1
  Br  Br4  1  0.048402  0.888720  0.868829  1
  Br  Br5  1  0.892437  0.160040  0.001374  1
  Br  Br6  1  0.647018  0.321208  0.291876  1
  Br  Br7  1  0.623411  0.347888  0.837769  1
  Br  Br8  1  0.357715  0.751812  0.704960  1
  Br  Br9  1  0.353222  0.577264  0.227524  1
  Br  Br10  1  0.646691  0.143932  0.807632  1
  Br  Br11  1  0.902450  0.536605  0.351266  1
  Br  Br12  1  0.053683  0.954577  0.641419  1
  Br  Br13  1  0.891213  0.106432  0.241733  1
  Br  Br14  1  0.891485  0.218214  0.780820  1
  Br  Br15  1  0.656045  0.046917  0.239661  1
  Br  Br16  1  0.020480  0.816756  0.112908  1
  Br  Br17  1  0.370376  0.973953  0.719728  1
  Br  Br18  1  0.891902  0.315566  0.305024  1
  Br  Br19  1  0.871548  0.929836  0.715329  1
  Br  Br20  1  0.897531  0.663422  0.791015  1
  Br  Br21  1  0.335920  0.038640  0.246667  1
  Br  Br22  1  0.341380  0.326264  0.246436  1
  Br  Br23  1  0.629482  0.613662  0.792520  1
  Br  Br24  1  0.093226  0.418285  0.362655  1
  Br  Br25  1  0.704980  0.908434  0.792074  1
  Br  Br26  1  0.875571  0.454236  0.797828  1
  Br  Br27  1  0.501933  0.040770  0.245062  1
  Br  Br28  1  0.171610  0.283509  0.644750  1
  Br  Br29  1  0.672074  0.771333  0.269971  1
  Br  Br30  1  0.846886  0.796275  0.193659  1
  Br  Br31  1  0.379048  0.197138  0.740282  1
  Br  Br32  1  0.305423  0.470179  0.623358  1
  Br  Br33  1  0.653590  0.544558  0.270984  1
  Br  Br34  1  0.170494  0.620609  0.601897  1
  Br  Br35  1  0.317305  0.797786  0.264758  1
