# generated using pymatgen
data_Tb3Sm(ScPt)4
_symmetry_space_group_name_H-M   'P 1'
_cell_length_a   4.63445600
_cell_length_b   7.02568383
_cell_length_c   8.46120160
_cell_angle_alpha   90.14177594
_cell_angle_beta   90.00000000
_cell_angle_gamma   90.00000000
_symmetry_Int_Tables_number   1
_chemical_formula_structural   Tb3Sm(ScPt)4
_chemical_formula_sum   'Tb3 Sm1 Sc4 Pt4'
_cell_volume   275.49776379
_cell_formula_units_Z   1
loop_
 _symmetry_equiv_pos_site_id
 _symmetry_equiv_pos_as_xyz
  1  'x, y, z'
loop_
 _atom_site_type_symbol
 _atom_site_label
 _atom_site_symmetry_multiplicity
 _atom_site_fract_x
 _atom_site_fract_y
 _atom_site_fract_z
 _atom_site_occupancy
  Tb  Tb0  1  0.250000  0.984732  0.322179  1
  Tb  Tb1  1  0.750000  0.016507  0.676406  1
  Tb  Tb2  1  0.250000  0.483987  0.178329  1
  Sm  Sm3  1  0.750000  0.514810  0.822657  1
  Sc  Sc4  1  0.750000  0.640425  0.426241  1
  Sc  Sc5  1  0.250000  0.360451  0.572028  1
  Sc  Sc6  1  0.750000  0.139390  0.073637  1
  Sc  Sc7  1  0.250000  0.859071  0.926058  1
  Pt  Pt8  1  0.250000  0.241375  0.905254  1
  Pt  Pt9  1  0.750000  0.756793  0.098462  1
  Pt  Pt10  1  0.250000  0.746170  0.594459  1
  Pt  Pt11  1  0.750000  0.256291  0.404289  1
