# generated using pymatgen
data_YHoSc2(ReB6)2
_symmetry_space_group_name_H-M   'P 1'
_cell_length_a   3.58331500
_cell_length_b   9.00803200
_cell_length_c   11.38536400
_cell_angle_alpha   89.99982037
_cell_angle_beta   90.00000000
_cell_angle_gamma   90.00000000
_symmetry_Int_Tables_number   1
_chemical_formula_structural   YHoSc2(ReB6)2
_chemical_formula_sum   'Y2 Ho2 Sc4 Re4 B24'
_cell_volume   367.50379469
_cell_formula_units_Z   2
loop_
 _symmetry_equiv_pos_site_id
 _symmetry_equiv_pos_as_xyz
  1  'x, y, z'
loop_
 _atom_site_type_symbol
 _atom_site_label
 _atom_site_symmetry_multiplicity
 _atom_site_fract_x
 _atom_site_fract_y
 _atom_site_fract_z
 _atom_site_occupancy
  Y  Y0  1  0.000000  0.321610  0.414010  1
  Y  Y1  1  0.000000  0.678390  0.585990  1
  Ho  Ho2  1  0.000000  0.821805  0.086026  1
  Ho  Ho3  1  0.000000  0.178195  0.913974  1
  Sc  Sc4  1  0.000000  0.944217  0.370254  1
  Sc  Sc5  1  0.000000  0.055783  0.629746  1
  Sc  Sc6  1  0.000000  0.444140  0.129665  1
  Sc  Sc7  1  0.000000  0.555860  0.870335  1
  Re  Re8  1  0.000000  0.641014  0.318181  1
  Re  Re9  1  0.000000  0.358986  0.681819  1
  Re  Re10  1  0.000000  0.140553  0.181288  1
  Re  Re11  1  0.000000  0.859447  0.818712  1
  B  B12  1  0.500000  0.554488  0.432455  1
  B  B13  1  0.500000  0.445512  0.567545  1
  B  B14  1  0.500000  0.054294  0.067246  1
  B  B15  1  0.500000  0.945706  0.932754  1
  B  B16  1  0.500000  0.754686  0.418346  1
  B  B17  1  0.500000  0.245314  0.581654  1
  B  B18  1  0.500000  0.254551  0.081244  1
  B  B19  1  0.500000  0.745449  0.918756  1
  B  B20  1  0.500000  0.795335  0.264657  1
  B  B21  1  0.500000  0.204665  0.735343  1
  B  B22  1  0.500000  0.295270  0.234902  1
  B  B23  1  0.500000  0.704730  0.765098  1
  B  B24  1  0.500000  0.629345  0.182892  1
  B  B25  1  0.500000  0.370655  0.817108  1
  B  B26  1  0.500000  0.128979  0.316776  1
  B  B27  1  0.500000  0.871021  0.683224  1
  B  B28  1  0.500000  0.981363  0.213583  1
  B  B29  1  0.500000  0.018637  0.786417  1
  B  B30  1  0.500000  0.481632  0.286066  1
  B  B31  1  0.500000  0.518368  0.713934  1
  B  B32  1  0.500000  0.595630  0.026172  1
  B  B33  1  0.500000  0.404370  0.973828  1
  B  B34  1  0.500000  0.095346  0.473916  1
  B  B35  1  0.500000  0.904654  0.526084  1
