# generated using pymatgen
data_Tb2Th(Co3P2)3
_symmetry_space_group_name_H-M   'P 1'
_cell_length_a   3.73973300
_cell_length_b   10.56695300
_cell_length_c   12.23746900
_cell_angle_alpha   90.00000000
_cell_angle_beta   90.00000000
_cell_angle_gamma   90.00000000
_symmetry_Int_Tables_number   1
_chemical_formula_structural   Tb2Th(Co3P2)3
_chemical_formula_sum   'Tb4 Th2 Co18 P12'
_cell_volume   483.59519500
_cell_formula_units_Z   2
loop_
 _symmetry_equiv_pos_site_id
 _symmetry_equiv_pos_as_xyz
  1  'x, y, z'
loop_
 _atom_site_type_symbol
 _atom_site_label
 _atom_site_symmetry_multiplicity
 _atom_site_fract_x
 _atom_site_fract_y
 _atom_site_fract_z
 _atom_site_occupancy
  Tb  Tb0  1  0.500000  0.815773  0.203937  1
  Tb  Tb1  1  0.500000  0.184227  0.203937  1
  Tb  Tb2  1  0.000000  0.684227  0.796063  1
  Tb  Tb3  1  0.000000  0.315773  0.796063  1
  Th  Th4  1  0.000000  0.500000  0.524905  1
  Th  Th5  1  0.500000  0.000000  0.475095  1
  Co  Co6  1  0.500000  0.500000  0.156439  1
  Co  Co7  1  0.000000  0.000000  0.843561  1
  Co  Co8  1  0.500000  0.500000  0.703098  1
  Co  Co9  1  0.000000  0.000000  0.296902  1
  Co  Co10  1  0.000000  0.500000  0.986314  1
  Co  Co11  1  0.500000  0.000000  0.013686  1
  Co  Co12  1  0.500000  0.333616  0.995210  1
  Co  Co13  1  0.500000  0.666384  0.995210  1
  Co  Co14  1  0.000000  0.166384  0.004790  1
  Co  Co15  1  0.000000  0.833616  0.004790  1
  Co  Co16  1  0.500000  0.299124  0.429612  1
  Co  Co17  1  0.500000  0.700876  0.429612  1
  Co  Co18  1  0.000000  0.200876  0.570388  1
  Co  Co19  1  0.000000  0.799124  0.570388  1
  Co  Co20  1  0.500000  0.880597  0.712674  1
  Co  Co21  1  0.500000  0.119403  0.712674  1
  Co  Co22  1  0.000000  0.619403  0.287326  1
  Co  Co23  1  0.000000  0.380597  0.287326  1
  P  P24  1  0.500000  0.500000  0.882884  1
  P  P25  1  0.000000  0.000000  0.117116  1
  P  P26  1  0.500000  0.500000  0.338811  1
  P  P27  1  0.000000  0.000000  0.661189  1
  P  P28  1  0.500000  0.305552  0.618092  1
  P  P29  1  0.500000  0.694448  0.618092  1
  P  P30  1  0.000000  0.194448  0.381908  1
  P  P31  1  0.000000  0.805552  0.381908  1
  P  P32  1  0.500000  0.846907  0.895106  1
  P  P33  1  0.500000  0.153093  0.895106  1
  P  P34  1  0.000000  0.653093  0.104894  1
  P  P35  1  0.000000  0.346907  0.104894  1
