# generated using pymatgen
data_Ho4FeOs5Ru2
_symmetry_space_group_name_H-M   'P 1'
_cell_length_a   5.22520265
_cell_length_b   5.30144191
_cell_length_c   8.92599300
_cell_angle_alpha   90.00000000
_cell_angle_beta   90.00000000
_cell_angle_gamma   120.48384357
_symmetry_Int_Tables_number   1
_chemical_formula_structural   Ho4FeOs5Ru2
_chemical_formula_sum   'Ho4 Fe1 Os5 Ru2'
_cell_volume   213.08171779
_cell_formula_units_Z   1
loop_
 _symmetry_equiv_pos_site_id
 _symmetry_equiv_pos_as_xyz
  1  'x, y, z'
loop_
 _atom_site_type_symbol
 _atom_site_label
 _atom_site_symmetry_multiplicity
 _atom_site_fract_x
 _atom_site_fract_y
 _atom_site_fract_z
 _atom_site_occupancy
  Ho  Ho0  1  0.334825  0.667413  0.436373  1
  Ho  Ho1  1  0.665908  0.332954  0.567028  1
  Ho  Ho2  1  0.665908  0.332954  0.932972  1
  Ho  Ho3  1  0.334825  0.667413  0.063627  1
  Fe  Fe4  1  0.667652  0.833827  0.750000  1
  Os  Os5  1  0.828944  0.171694  0.250000  1
  Os  Os6  1  0.828944  0.657248  0.250000  1
  Os  Os7  1  0.336934  0.168467  0.250000  1
  Os  Os8  1  0.169977  0.826143  0.750000  1
  Os  Os9  1  0.169977  0.343836  0.750000  1
  Ru  Ru10  1  0.998053  0.999026  0.502049  1
  Ru  Ru11  1  0.998053  0.999026  0.997951  1
