# generated using pymatgen
data_Er5ScAl6(SiAu)3
_symmetry_space_group_name_H-M   'P 1'
_cell_length_a   6.91382239
_cell_length_b   6.90599671
_cell_length_c   8.43852142
_cell_angle_alpha   89.97941489
_cell_angle_beta   90.03582502
_cell_angle_gamma   119.80634089
_symmetry_Int_Tables_number   1
_chemical_formula_structural   Er5ScAl6(SiAu)3
_chemical_formula_sum   'Er5 Sc1 Al6 Si3 Au3'
_cell_volume   349.61147906
_cell_formula_units_Z   1
loop_
 _symmetry_equiv_pos_site_id
 _symmetry_equiv_pos_as_xyz
  1  'x, y, z'
loop_
 _atom_site_type_symbol
 _atom_site_label
 _atom_site_symmetry_multiplicity
 _atom_site_fract_x
 _atom_site_fract_y
 _atom_site_fract_z
 _atom_site_occupancy
  Er  Er0  1  0.580419  0.999792  0.743296  1
  Er  Er1  1  0.999050  0.579686  0.743163  1
  Er  Er2  1  0.419424  0.419390  0.744053  1
  Er  Er3  1  0.998060  0.579872  0.255975  1
  Er  Er4  1  0.580811  0.999553  0.255874  1
  Sc  Sc5  1  0.417755  0.418021  0.259107  1
  Al  Al6  1  0.745797  0.751516  0.004141  1
  Al  Al7  1  0.247480  0.994421  0.001236  1
  Al  Al8  1  0.007699  0.253698  0.001514  1
  Al  Al9  1  0.757008  0.757123  0.496157  1
  Al  Al10  1  0.242693  0.001307  0.498280  1
  Al  Al11  1  0.000363  0.242019  0.498292  1
  Si  Si12  1  0.664594  0.334142  0.002720  1
  Si  Si13  1  0.662821  0.334363  0.496863  1
  Si  Si14  1  0.334321  0.663232  0.496937  1
  Au  Au15  1  0.000148  0.000047  0.754087  1
  Au  Au16  1  0.007479  0.007417  0.245810  1
  Au  Au17  1  0.334078  0.664399  0.002494  1
