# generated using pymatgen
data_Y3Lu2Bi3
_symmetry_space_group_name_H-M   'P 1'
_cell_length_a   8.19671500
_cell_length_b   9.44455200
_cell_length_c   12.00921700
_cell_angle_alpha   90.00000000
_cell_angle_beta   90.00000000
_cell_angle_gamma   90.00000000
_symmetry_Int_Tables_number   1
_chemical_formula_structural   Y3Lu2Bi3
_chemical_formula_sum   'Y12 Lu8 Bi12'
_cell_volume   929.68514017
_cell_formula_units_Z   4
loop_
 _symmetry_equiv_pos_site_id
 _symmetry_equiv_pos_as_xyz
  1  'x, y, z'
loop_
 _atom_site_type_symbol
 _atom_site_label
 _atom_site_symmetry_multiplicity
 _atom_site_fract_x
 _atom_site_fract_y
 _atom_site_fract_z
 _atom_site_occupancy
  Y  Y0  1  0.186055  0.749594  0.718998  1
  Y  Y1  1  0.686055  0.750406  0.781002  1
  Y  Y2  1  0.813945  0.249594  0.281002  1
  Y  Y3  1  0.313945  0.250406  0.218998  1
  Y  Y4  1  0.693831  0.562678  0.059619  1
  Y  Y5  1  0.193831  0.937322  0.440381  1
  Y  Y6  1  0.306169  0.062678  0.940381  1
  Y  Y7  1  0.806169  0.437322  0.559619  1
  Y  Y8  1  0.354040  0.750160  0.215889  1
  Y  Y9  1  0.854040  0.749840  0.284111  1
  Y  Y10  1  0.645960  0.250160  0.784111  1
  Y  Y11  1  0.145960  0.249840  0.715889  1
  Lu  Lu12  1  0.025188  0.750301  0.989182  1
  Lu  Lu13  1  0.525188  0.749699  0.510818  1
  Lu  Lu14  1  0.974812  0.250301  0.010818  1
  Lu  Lu15  1  0.474812  0.249699  0.489182  1
  Lu  Lu16  1  0.306386  0.433345  0.940448  1
  Lu  Lu17  1  0.806386  0.066655  0.559552  1
  Lu  Lu18  1  0.693614  0.933345  0.059552  1
  Lu  Lu19  1  0.193614  0.566655  0.440448  1
  Bi  Bi20  1  0.434340  0.003449  0.671938  1
  Bi  Bi21  1  0.934340  0.496551  0.828062  1
  Bi  Bi22  1  0.565660  0.503449  0.328062  1
  Bi  Bi23  1  0.065660  0.996551  0.171938  1
  Bi  Bi24  1  0.566601  0.996111  0.328342  1
  Bi  Bi25  1  0.066601  0.503889  0.171658  1
  Bi  Bi26  1  0.433399  0.496111  0.671658  1
  Bi  Bi27  1  0.933399  0.003889  0.828342  1
  Bi  Bi28  1  0.406659  0.747095  0.957961  1
  Bi  Bi29  1  0.906659  0.752905  0.542039  1
  Bi  Bi30  1  0.593341  0.247095  0.042039  1
  Bi  Bi31  1  0.093341  0.252905  0.457961  1
