# generated using pymatgen
data_DyY6Er13(CoBi2)4
_symmetry_space_group_name_H-M   'P 1'
_cell_length_a   7.93664757
_cell_length_b   8.84952200
_cell_length_c   12.38513132
_cell_angle_alpha   90.00000000
_cell_angle_beta   90.08090779
_cell_angle_gamma   90.00000000
_symmetry_Int_Tables_number   1
_chemical_formula_structural   DyY6Er13(CoBi2)4
_chemical_formula_sum   'Dy1 Y6 Er13 Co4 Bi8'
_cell_volume   869.87548482
_cell_formula_units_Z   1
loop_
 _symmetry_equiv_pos_site_id
 _symmetry_equiv_pos_as_xyz
  1  'x, y, z'
loop_
 _atom_site_type_symbol
 _atom_site_label
 _atom_site_symmetry_multiplicity
 _atom_site_fract_x
 _atom_site_fract_y
 _atom_site_fract_z
 _atom_site_occupancy
  Dy  Dy0  1  0.620972  0.250000  0.686843  1
  Y  Y1  1  0.654256  0.750000  0.700305  1
  Y  Y2  1  0.345784  0.250000  0.299761  1
  Y  Y3  1  0.154196  0.250000  0.799823  1
  Y  Y4  1  0.845592  0.750000  0.200228  1
  Y  Y5  1  0.122431  0.750000  0.811207  1
  Y  Y6  1  0.877605  0.250000  0.188726  1
  Er  Er7  1  0.379837  0.750000  0.313916  1
  Er  Er8  1  0.552889  0.750000  0.996927  1
  Er  Er9  1  0.446954  0.250000  0.003169  1
  Er  Er10  1  0.051980  0.250000  0.502310  1
  Er  Er11  1  0.948187  0.750000  0.497645  1
  Er  Er12  1  0.826031  0.463387  0.936438  1
  Er  Er13  1  0.174044  0.536737  0.063609  1
  Er  Er14  1  0.325793  0.536250  0.563465  1
  Er  Er15  1  0.174044  0.963263  0.063609  1
  Er  Er16  1  0.673898  0.464385  0.436126  1
  Er  Er17  1  0.826031  0.036613  0.936438  1
  Er  Er18  1  0.673898  0.035615  0.436126  1
  Er  Er19  1  0.325793  0.963750  0.563465  1
  Co  Co20  1  0.936181  0.750000  0.991918  1
  Co  Co21  1  0.063821  0.250000  0.008070  1
  Co  Co22  1  0.437428  0.250000  0.507635  1
  Co  Co23  1  0.562265  0.750000  0.491949  1
  Bi  Bi24  1  0.932286  0.007849  0.672349  1
  Bi  Bi25  1  0.068158  0.991835  0.327623  1
  Bi  Bi26  1  0.433589  0.993086  0.827264  1
  Bi  Bi27  1  0.068158  0.508165  0.327623  1
  Bi  Bi28  1  0.566011  0.006560  0.172910  1
  Bi  Bi29  1  0.932286  0.492151  0.672349  1
  Bi  Bi30  1  0.566011  0.493440  0.172910  1
  Bi  Bi31  1  0.433589  0.506914  0.827264  1
