# generated using pymatgen
data_NaAcFeH6
_symmetry_space_group_name_H-M   'P 1'
_cell_length_a   5.18159893
_cell_length_b   5.18159913
_cell_length_c   5.18160000
_cell_angle_alpha   59.99999445
_cell_angle_beta   59.99999319
_cell_angle_gamma   60.00000409
_symmetry_Int_Tables_number   1
_chemical_formula_structural   NaAcFeH6
_chemical_formula_sum   'Na1 Ac1 Fe1 H6'
_cell_volume   98.37312434
_cell_formula_units_Z   1
loop_
 _symmetry_equiv_pos_site_id
 _symmetry_equiv_pos_as_xyz
  1  'x, y, z'
loop_
 _atom_site_type_symbol
 _atom_site_label
 _atom_site_symmetry_multiplicity
 _atom_site_fract_x
 _atom_site_fract_y
 _atom_site_fract_z
 _atom_site_occupancy
  Na  Na0  1  0.750000  0.750000  0.750000  1
  Ac  Ac1  1  0.250000  0.250000  0.250000  1
  Fe  Fe2  1  0.000000  0.000000  0.000000  1
  H  H3  1  0.780220  0.780220  0.219780  1
  H  H4  1  0.219780  0.780220  0.219780  1
  H  H5  1  0.780220  0.219780  0.219780  1
  H  H6  1  0.219780  0.219780  0.780220  1
  H  H7  1  0.780220  0.219780  0.780220  1
  H  H8  1  0.219780  0.780220  0.780220  1
