# generated using pymatgen
data_ScMn3Al2(B2Rh5)2
_symmetry_space_group_name_H-M   'P 1'
_cell_length_a   9.33759595
_cell_length_b   9.33759595
_cell_length_c   2.95968100
_cell_angle_alpha   90.00000000
_cell_angle_beta   90.00000000
_cell_angle_gamma   89.40955166
_symmetry_Int_Tables_number   1
_chemical_formula_structural   ScMn3Al2(B2Rh5)2
_chemical_formula_sum   'Sc1 Mn3 Al2 B4 Rh10'
_cell_volume   258.04295037
_cell_formula_units_Z   1
loop_
 _symmetry_equiv_pos_site_id
 _symmetry_equiv_pos_as_xyz
  1  'x, y, z'
loop_
 _atom_site_type_symbol
 _atom_site_label
 _atom_site_symmetry_multiplicity
 _atom_site_fract_x
 _atom_site_fract_y
 _atom_site_fract_z
 _atom_site_occupancy
  Sc  Sc0  1  0.824741  0.324741  0.000000  1
  Mn  Mn1  1  0.323485  0.176075  0.000000  1
  Mn  Mn2  1  0.676075  0.823485  0.000000  1
  Mn  Mn3  1  0.179622  0.679622  0.000000  1
  Al  Al4  1  0.999158  0.001152  0.000000  1
  Al  Al5  1  0.501152  0.499158  0.000000  1
  B  B6  1  0.622418  0.122418  0.000000  1
  B  B7  1  0.129090  0.373120  0.000000  1
  B  B8  1  0.873120  0.629090  0.000000  1
  B  B9  1  0.371134  0.871134  0.000000  1
  Rh  Rh10  1  0.071918  0.214677  0.500000  1
  Rh  Rh11  1  0.213459  0.930611  0.500000  1
  Rh  Rh12  1  0.783381  0.067919  0.500000  1
  Rh  Rh13  1  0.929251  0.786696  0.500000  1
  Rh  Rh14  1  0.430611  0.713459  0.500000  1
  Rh  Rh15  1  0.567919  0.283381  0.500000  1
  Rh  Rh16  1  0.714677  0.571918  0.500000  1
  Rh  Rh17  1  0.286696  0.429251  0.500000  1
  Rh  Rh18  1  0.498403  0.998403  0.500000  1
  Rh  Rh19  1  0.003690  0.503690  0.500000  1
