# generated using pymatgen
data_Tb6N5
_symmetry_space_group_name_H-M   'P 1'
_cell_length_a   6.10347155
_cell_length_b   6.09909505
_cell_length_c   9.30788237
_cell_angle_alpha   102.89902416
_cell_angle_beta   83.36740778
_cell_angle_gamma   146.60419152
_symmetry_Int_Tables_number   1
_chemical_formula_structural   Tb6N5
_chemical_formula_sum   'Tb6 N5'
_cell_volume   184.27423654
_cell_formula_units_Z   1
loop_
 _symmetry_equiv_pos_site_id
 _symmetry_equiv_pos_as_xyz
  1  'x, y, z'
loop_
 _atom_site_type_symbol
 _atom_site_label
 _atom_site_symmetry_multiplicity
 _atom_site_fract_x
 _atom_site_fract_y
 _atom_site_fract_z
 _atom_site_occupancy
  Tb  Tb0  1  0.688407  0.655556  0.113621  1
  Tb  Tb1  1  0.672172  0.153944  0.601612  1
  Tb  Tb2  1  0.338474  0.327316  0.438904  1
  Tb  Tb3  1  0.002767  0.983798  0.758512  1
  Tb  Tb4  1  0.011738  0.500978  0.282012  1
  Tb  Tb5  1  0.322227  0.824777  0.926962  1
  N  N6  1  0.004128  0.739566  0.520271  1
  N  N7  1  0.337052  0.077308  0.184437  1
  N  N8  1  0.671040  0.909023  0.351454  1
  N  N9  1  0.673075  0.402749  0.856438  1
  N  N10  1  0.340115  0.572805  0.690028  1
