# generated using pymatgen
data_Er4ScCo2Rh
_symmetry_space_group_name_H-M   'P 1'
_cell_length_a   6.97644179
_cell_length_b   6.97644207
_cell_length_c   8.61724200
_cell_angle_alpha   113.87831855
_cell_angle_beta   113.87831057
_cell_angle_gamma   89.99999691
_symmetry_Int_Tables_number   1
_chemical_formula_structural   Er4ScCo2Rh
_chemical_formula_sum   'Er8 Sc2 Co4 Rh2'
_cell_volume   343.88381218
_cell_formula_units_Z   2
loop_
 _symmetry_equiv_pos_site_id
 _symmetry_equiv_pos_as_xyz
  1  'x, y, z'
loop_
 _atom_site_type_symbol
 _atom_site_label
 _atom_site_symmetry_multiplicity
 _atom_site_fract_x
 _atom_site_fract_y
 _atom_site_fract_z
 _atom_site_occupancy
  Er  Er0  1  0.460013  0.318166  0.278180  1
  Er  Er1  1  0.960014  0.460013  0.278180  1
  Er  Er2  1  0.318166  0.818165  0.278180  1
  Er  Er3  1  0.818165  0.960014  0.278180  1
  Er  Er4  1  0.181834  0.039987  0.721819  1
  Er  Er5  1  0.681833  0.181834  0.721819  1
  Er  Er6  1  0.039987  0.539986  0.721819  1
  Er  Er7  1  0.539986  0.681833  0.721819  1
  Sc  Sc8  1  0.000000  0.000000  0.000000  1
  Sc  Sc9  1  0.500000  0.500000  0.000000  1
  Co  Co10  1  0.614949  0.114949  0.000000  1
  Co  Co11  1  0.114949  0.385052  0.000000  1
  Co  Co12  1  0.885051  0.614949  0.000000  1
  Co  Co13  1  0.385052  0.885051  0.000000  1
  Rh  Rh14  1  0.250000  0.250000  0.500000  1
  Rh  Rh15  1  0.750000  0.750000  0.500000  1
