# generated using pymatgen
data_Li6AlV5Rh12
_symmetry_space_group_name_H-M   'P 1'
_cell_length_a   4.18634202
_cell_length_b   5.94491600
_cell_length_c   12.53807105
_cell_angle_alpha   90.00000000
_cell_angle_beta   90.01028703
_cell_angle_gamma   90.00000000
_symmetry_Int_Tables_number   1
_chemical_formula_structural   Li6AlV5Rh12
_chemical_formula_sum   'Li6 Al1 V5 Rh12'
_cell_volume   312.04063187
_cell_formula_units_Z   1
loop_
 _symmetry_equiv_pos_site_id
 _symmetry_equiv_pos_as_xyz
  1  'x, y, z'
loop_
 _atom_site_type_symbol
 _atom_site_label
 _atom_site_symmetry_multiplicity
 _atom_site_fract_x
 _atom_site_fract_y
 _atom_site_fract_z
 _atom_site_occupancy
  Li  Li0  1  0.000000  0.000000  0.000000  1
  Li  Li1  1  0.499645  0.500000  0.166355  1
  Li  Li2  1  0.999557  0.000000  0.332623  1
  Li  Li3  1  0.499999  0.500000  0.500000  1
  Li  Li4  1  0.000444  0.000000  0.667377  1
  Li  Li5  1  0.500355  0.500000  0.833645  1
  Al  Al6  1  0.000000  0.500000  0.000000  1
  V  V7  1  0.499625  0.000000  0.163534  1
  V  V8  1  0.999601  0.500000  0.331695  1
  V  V9  1  0.499999  0.000000  0.500000  1
  V  V10  1  0.000400  0.500000  0.668305  1
  V  V11  1  0.500375  0.000000  0.836466  1
  Rh  Rh12  1  0.499999  0.248621  0.000000  1
  Rh  Rh13  1  0.499999  0.751377  0.000000  1
  Rh  Rh14  1  0.999597  0.249703  0.168312  1
  Rh  Rh15  1  0.999597  0.750297  0.168312  1
  Rh  Rh16  1  0.499625  0.249876  0.334230  1
  Rh  Rh17  1  0.499625  0.750124  0.334230  1
  Rh  Rh18  1  0.000000  0.250547  0.500000  1
  Rh  Rh19  1  0.000000  0.749451  0.500000  1
  Rh  Rh20  1  0.500376  0.249876  0.665769  1
  Rh  Rh21  1  0.500376  0.750124  0.665769  1
  Rh  Rh22  1  0.000404  0.249703  0.831688  1
  Rh  Rh23  1  0.000404  0.750297  0.831688  1
