# generated using pymatgen
data_LuZr2Sc3Pb5
_symmetry_space_group_name_H-M   'P 1'
_cell_length_a   6.16556896
_cell_length_b   9.10780251
_cell_length_c   11.25068857
_cell_angle_alpha   113.70581732
_cell_angle_beta   105.90293482
_cell_angle_gamma   90.00000296
_symmetry_Int_Tables_number   1
_chemical_formula_structural   LuZr2Sc3Pb5
_chemical_formula_sum   'Lu2 Zr4 Sc6 Pb10'
_cell_volume   551.96119207
_cell_formula_units_Z   2
loop_
 _symmetry_equiv_pos_site_id
 _symmetry_equiv_pos_as_xyz
  1  'x, y, z'
loop_
 _atom_site_type_symbol
 _atom_site_label
 _atom_site_symmetry_multiplicity
 _atom_site_fract_x
 _atom_site_fract_y
 _atom_site_fract_z
 _atom_site_occupancy
  Lu  Lu0  1  0.644743  0.031456  0.289487  1
  Lu  Lu1  1  0.355257  0.968544  0.710513  1
  Zr  Zr2  1  0.557951  0.307667  0.615839  1
  Zr  Zr3  1  0.442049  0.692333  0.384161  1
  Zr  Zr4  1  0.942112  0.692333  0.384161  1
  Zr  Zr5  1  0.057888  0.307667  0.615839  1
  Sc  Sc6  1  0.437361  0.675229  0.874722  1
  Sc  Sc7  1  0.562639  0.324771  0.125278  1
  Sc  Sc8  1  0.937727  0.201815  0.875454  1
  Sc  Sc9  1  0.062273  0.798185  0.124546  1
  Sc  Sc10  1  0.145254  0.259085  0.290508  1
  Sc  Sc11  1  0.854746  0.740915  0.709492  1
  Pb  Pb12  1  0.291716  0.592332  0.583431  1
  Pb  Pb13  1  0.708284  0.407668  0.416569  1
  Pb  Pb14  1  0.793160  0.988428  0.586319  1
  Pb  Pb15  1  0.206840  0.011572  0.413681  1
  Pb  Pb16  1  0.248833  0.000000  0.000000  1
  Pb  Pb17  1  0.751167  0.000000  0.000000  1
  Pb  Pb18  1  0.071435  0.465776  0.142871  1
  Pb  Pb19  1  0.928565  0.534224  0.857129  1
  Pb  Pb20  1  0.570076  0.670943  0.140152  1
  Pb  Pb21  1  0.429924  0.329057  0.859848  1
