# generated using pymatgen
data_Tb16Ho4Si15P
_symmetry_space_group_name_H-M   'P 1'
_cell_length_a   7.51282679
_cell_length_b   7.64471449
_cell_length_c   14.64454600
_cell_angle_alpha   89.89003589
_cell_angle_beta   85.61277950
_cell_angle_gamma   89.95688415
_symmetry_Int_Tables_number   1
_chemical_formula_structural   Tb16Ho4Si15P
_chemical_formula_sum   'Tb16 Ho4 Si15 P1'
_cell_volume   838.62008266
_cell_formula_units_Z   1
loop_
 _symmetry_equiv_pos_site_id
 _symmetry_equiv_pos_as_xyz
  1  'x, y, z'
loop_
 _atom_site_type_symbol
 _atom_site_label
 _atom_site_symmetry_multiplicity
 _atom_site_fract_x
 _atom_site_fract_y
 _atom_site_fract_z
 _atom_site_occupancy
  Tb  Tb0  1  0.010970  0.823476  0.102688  1
  Tb  Tb1  1  0.473638  0.684908  0.398217  1
  Tb  Tb2  1  0.492570  0.321436  0.899352  1
  Tb  Tb3  1  0.026318  0.185603  0.602769  1
  Tb  Tb4  1  0.991599  0.181042  0.898703  1
  Tb  Tb5  1  0.525583  0.314875  0.601987  1
  Tb  Tb6  1  0.509084  0.680814  0.100929  1
  Tb  Tb7  1  0.973143  0.813332  0.397904  1
  Tb  Tb8  1  0.639113  0.833520  0.882287  1
  Tb  Tb9  1  0.174339  0.677198  0.622483  1
  Tb  Tb10  1  0.860347  0.340760  0.114000  1
  Tb  Tb11  1  0.325987  0.177307  0.377981  1
  Tb  Tb12  1  0.361182  0.162752  0.118511  1
  Tb  Tb13  1  0.825835  0.322248  0.378244  1
  Tb  Tb14  1  0.134709  0.663449  0.883867  1
  Tb  Tb15  1  0.674415  0.822757  0.622580  1
  Ho  Ho16  1  0.673263  0.995042  0.245548  1
  Ho  Ho17  1  0.172029  0.504061  0.245352  1
  Ho  Ho18  1  0.827560  0.495509  0.753602  1
  Ho  Ho19  1  0.327255  0.005022  0.754396  1
  Si  Si20  1  0.786242  0.627744  0.251444  1
  Si  Si21  1  0.286374  0.870685  0.251907  1
  Si  Si22  1  0.712678  0.129341  0.748829  1
  Si  Si23  1  0.212875  0.371923  0.748958  1
  Si  Si24  1  0.045991  0.108250  0.251532  1
  Si  Si25  1  0.547250  0.392121  0.250721  1
  Si  Si26  1  0.452984  0.608188  0.749834  1
  Si  Si27  1  0.953643  0.892322  0.749352  1
  Si  Si28  1  0.356877  0.971863  0.542567  1
  Si  Si29  1  0.711260  0.031969  0.043268  1
  Si  Si30  1  0.144093  0.471239  0.458316  1
  Si  Si31  1  0.214501  0.468591  0.044131  1
  Si  Si32  1  0.643490  0.027117  0.457528  1
  Si  Si33  1  0.291157  0.967713  0.955525  1
  Si  Si34  1  0.856369  0.527426  0.542753  1
  P  P35  1  0.785279  0.528401  0.951935  1
