# generated using pymatgen
data_Sm5HoCo14(P3Rh)4
_symmetry_space_group_name_H-M   'P 1'
_cell_length_a   3.75772600
_cell_length_b   10.69316101
_cell_length_c   12.45779801
_cell_angle_alpha   89.99446040
_cell_angle_beta   90.00000000
_cell_angle_gamma   90.00000000
_symmetry_Int_Tables_number   1
_chemical_formula_structural   Sm5HoCo14(P3Rh)4
_chemical_formula_sum   'Sm5 Ho1 Co14 P12 Rh4'
_cell_volume   500.57885327
_cell_formula_units_Z   1
loop_
 _symmetry_equiv_pos_site_id
 _symmetry_equiv_pos_as_xyz
  1  'x, y, z'
loop_
 _atom_site_type_symbol
 _atom_site_label
 _atom_site_symmetry_multiplicity
 _atom_site_fract_x
 _atom_site_fract_y
 _atom_site_fract_z
 _atom_site_occupancy
  Sm  Sm0  1  0.000000  0.500075  0.520962  1
  Sm  Sm1  1  0.500000  0.000184  0.479490  1
  Sm  Sm2  1  0.500000  0.814199  0.205526  1
  Sm  Sm3  1  0.500000  0.186142  0.206105  1
  Sm  Sm4  1  0.000000  0.685388  0.793954  1
  Ho  Ho5  1  0.000000  0.313522  0.794180  1
  Co  Co6  1  0.000000  0.499087  0.987515  1
  Co  Co7  1  0.500000  0.001210  0.010324  1
  Co  Co8  1  0.500000  0.300522  0.430412  1
  Co  Co9  1  0.500000  0.699315  0.429229  1
  Co  Co10  1  0.000000  0.199865  0.572871  1
  Co  Co11  1  0.000000  0.800231  0.571036  1
  Co  Co12  1  0.500000  0.882184  0.710470  1
  Co  Co13  1  0.500000  0.119907  0.712169  1
  Co  Co14  1  0.000000  0.618027  0.289278  1
  Co  Co15  1  0.000000  0.381835  0.289895  1
  Co  Co16  1  0.500000  0.332088  0.993062  1
  Co  Co17  1  0.500000  0.667022  0.993864  1
  Co  Co18  1  0.000000  0.168927  0.004333  1
  Co  Co19  1  0.000000  0.832359  0.005237  1
  P  P20  1  0.500000  0.300011  0.614613  1
  P  P21  1  0.500000  0.699342  0.612422  1
  P  P22  1  0.000000  0.200434  0.388768  1
  P  P23  1  0.000000  0.799808  0.387846  1
  P  P24  1  0.500000  0.498525  0.890630  1
  P  P25  1  0.000000  0.000758  0.107459  1
  P  P26  1  0.500000  0.845279  0.896143  1
  P  P27  1  0.500000  0.156793  0.894423  1
  P  P28  1  0.000000  0.654300  0.103174  1
  P  P29  1  0.000000  0.345446  0.103829  1
  P  P30  1  0.500000  0.499986  0.347593  1
  P  P31  1  0.000000  0.999796  0.652680  1
  Rh  Rh32  1  0.500000  0.499413  0.158966  1
  Rh  Rh33  1  0.000000  0.000482  0.840623  1
  Rh  Rh34  1  0.500000  0.497215  0.705212  1
  Rh  Rh35  1  0.000000  0.000323  0.295706  1
