# generated using pymatgen
data_Ho4Al3GaPdRu3
_symmetry_space_group_name_H-M   'P 1'
_cell_length_a   4.07487000
_cell_length_b   6.98500216
_cell_length_c   8.08517063
_cell_angle_alpha   90.17191015
_cell_angle_beta   90.00000000
_cell_angle_gamma   90.00000000
_symmetry_Int_Tables_number   1
_chemical_formula_structural   Ho4Al3GaPdRu3
_chemical_formula_sum   'Ho4 Al3 Ga1 Pd1 Ru3'
_cell_volume   230.12697976
_cell_formula_units_Z   1
loop_
 _symmetry_equiv_pos_site_id
 _symmetry_equiv_pos_as_xyz
  1  'x, y, z'
loop_
 _atom_site_type_symbol
 _atom_site_label
 _atom_site_symmetry_multiplicity
 _atom_site_fract_x
 _atom_site_fract_y
 _atom_site_fract_z
 _atom_site_occupancy
  Ho  Ho0  1  0.250000  0.028661  0.676184  1
  Ho  Ho1  1  0.250000  0.540053  0.818024  1
  Ho  Ho2  1  0.750000  0.966858  0.319455  1
  Ho  Ho3  1  0.750000  0.468522  0.182787  1
  Al  Al4  1  0.250000  0.637795  0.440221  1
  Al  Al5  1  0.750000  0.853176  0.940200  1
  Al  Al6  1  0.750000  0.364761  0.557126  1
  Ga  Ga7  1  0.250000  0.139870  0.067253  1
  Pd  Pd8  1  0.750000  0.230483  0.874253  1
  Ru  Ru9  1  0.250000  0.267684  0.379344  1
  Ru  Ru10  1  0.250000  0.766775  0.121150  1
  Ru  Ru11  1  0.750000  0.735363  0.624001  1
