# generated using pymatgen
data_Hf7ScCr2(Si3N)2
_symmetry_space_group_name_H-M   'P 1'
_cell_length_a   7.67797436
_cell_length_b   7.67285710
_cell_length_c   5.36801695
_cell_angle_alpha   89.96582355
_cell_angle_beta   90.06830735
_cell_angle_gamma   120.02206864
_symmetry_Int_Tables_number   1
_chemical_formula_structural   Hf7ScCr2(Si3N)2
_chemical_formula_sum   'Hf7 Sc1 Cr2 Si6 N2'
_cell_volume   273.81128861
_cell_formula_units_Z   1
loop_
 _symmetry_equiv_pos_site_id
 _symmetry_equiv_pos_as_xyz
  1  'x, y, z'
loop_
 _atom_site_type_symbol
 _atom_site_label
 _atom_site_symmetry_multiplicity
 _atom_site_fract_x
 _atom_site_fract_y
 _atom_site_fract_z
 _atom_site_occupancy
  Hf  Hf0  1  0.761920  0.000000  0.749732  1
  Hf  Hf1  1  0.000892  0.234706  0.248985  1
  Hf  Hf2  1  0.999523  0.764694  0.749740  1
  Hf  Hf3  1  0.766186  0.765294  0.248985  1
  Hf  Hf4  1  0.234829  0.235306  0.749740  1
  Hf  Hf5  1  0.667344  0.333255  0.499812  1
  Hf  Hf6  1  0.334088  0.666745  0.499812  1
  Sc  Sc7  1  0.235696  0.000000  0.250528  1
  Cr  Cr8  1  0.334277  0.666556  0.000234  1
  Cr  Cr9  1  0.667722  0.333444  0.000234  1
  Si  Si10  1  0.588565  0.000000  0.217224  1
  Si  Si11  1  0.410086  0.000000  0.783575  1
  Si  Si12  1  0.001551  0.589507  0.218335  1
  Si  Si13  1  0.000040  0.411152  0.781518  1
  Si  Si14  1  0.412044  0.410493  0.218335  1
  Si  Si15  1  0.588888  0.588848  0.781518  1
  N  N16  1  0.999268  0.000000  0.999076  1
  N  N17  1  0.997082  0.000000  0.502615  1
