# generated using pymatgen
data_Nd2ZnGa5Cu2
_symmetry_space_group_name_H-M   'P 1'
_cell_length_a   4.22654400
_cell_length_b   4.22654400
_cell_length_c   10.45913000
_cell_angle_alpha   90.00000000
_cell_angle_beta   90.00000000
_cell_angle_gamma   90.00000000
_symmetry_Int_Tables_number   1
_chemical_formula_structural   Nd2ZnGa5Cu2
_chemical_formula_sum   'Nd2 Zn1 Ga5 Cu2'
_cell_volume   186.83849057
_cell_formula_units_Z   1
loop_
 _symmetry_equiv_pos_site_id
 _symmetry_equiv_pos_as_xyz
  1  'x, y, z'
loop_
 _atom_site_type_symbol
 _atom_site_label
 _atom_site_symmetry_multiplicity
 _atom_site_fract_x
 _atom_site_fract_y
 _atom_site_fract_z
 _atom_site_occupancy
  Nd  Nd0  1  0.500000  0.000000  0.747845  1
  Nd  Nd1  1  0.000000  0.500000  0.252155  1
  Zn  Zn2  1  0.500000  0.500000  0.500000  1
  Ga  Ga3  1  0.000000  0.500000  0.865733  1
  Ga  Ga4  1  0.500000  0.000000  0.371617  1
  Ga  Ga5  1  0.500000  0.000000  0.134267  1
  Ga  Ga6  1  0.000000  0.500000  0.628383  1
  Ga  Ga7  1  0.500000  0.500000  0.000000  1
  Cu  Cu8  1  0.000000  0.000000  0.500000  1
  Cu  Cu9  1  0.000000  0.000000  0.000000  1
