# generated using pymatgen
data_Ho3Tm(TcB6)2
_symmetry_space_group_name_H-M   'P 1'
_cell_length_a   3.66478200
_cell_length_b   9.12607969
_cell_length_c   11.50067076
_cell_angle_alpha   89.99853050
_cell_angle_beta   90.00000000
_cell_angle_gamma   90.00000000
_symmetry_Int_Tables_number   1
_chemical_formula_structural   Ho3Tm(TcB6)2
_chemical_formula_sum   'Ho6 Tm2 Tc4 B24'
_cell_volume   384.64099818
_cell_formula_units_Z   2
loop_
 _symmetry_equiv_pos_site_id
 _symmetry_equiv_pos_as_xyz
  1  'x, y, z'
loop_
 _atom_site_type_symbol
 _atom_site_label
 _atom_site_symmetry_multiplicity
 _atom_site_fract_x
 _atom_site_fract_y
 _atom_site_fract_z
 _atom_site_occupancy
  Ho  Ho0  1  0.500000  0.323697  0.414210  1
  Ho  Ho1  1  0.500000  0.676303  0.585790  1
  Ho  Ho2  1  0.500000  0.175943  0.914082  1
  Ho  Ho3  1  0.500000  0.824057  0.085918  1
  Ho  Ho4  1  0.500000  0.443044  0.130703  1
  Ho  Ho5  1  0.500000  0.556956  0.869297  1
  Tm  Tm6  1  0.500000  0.056992  0.630484  1
  Tm  Tm7  1  0.500000  0.943008  0.369516  1
  Tc  Tc8  1  0.500000  0.138598  0.180340  1
  Tc  Tc9  1  0.500000  0.861402  0.819660  1
  Tc  Tc10  1  0.500000  0.360076  0.679199  1
  Tc  Tc11  1  0.500000  0.639924  0.320801  1
  B  B12  1  0.000000  0.098983  0.472403  1
  B  B13  1  0.000000  0.901017  0.527597  1
  B  B14  1  0.000000  0.398901  0.971941  1
  B  B15  1  0.000000  0.601099  0.028059  1
  B  B16  1  0.000000  0.130331  0.315346  1
  B  B17  1  0.000000  0.869669  0.684654  1
  B  B18  1  0.000000  0.368450  0.814468  1
  B  B19  1  0.000000  0.631550  0.185532  1
  B  B20  1  0.000000  0.053261  0.067237  1
  B  B21  1  0.000000  0.946739  0.932763  1
  B  B22  1  0.000000  0.446083  0.566840  1
  B  B23  1  0.000000  0.553917  0.433160  1
  B  B24  1  0.000000  0.482663  0.288547  1
  B  B25  1  0.000000  0.517337  0.711453  1
  B  B26  1  0.000000  0.018126  0.787719  1
  B  B27  1  0.000000  0.981874  0.212281  1
  B  B28  1  0.000000  0.248904  0.081421  1
  B  B29  1  0.000000  0.751096  0.918579  1
  B  B30  1  0.000000  0.249619  0.580933  1
  B  B31  1  0.000000  0.750381  0.419067  1
  B  B32  1  0.000000  0.291992  0.235314  1
  B  B33  1  0.000000  0.708008  0.764686  1
  B  B34  1  0.000000  0.206895  0.734531  1
  B  B35  1  0.000000  0.793105  0.265469  1
