# generated using pymatgen
data_Rb8Nb3SbBr24
_symmetry_space_group_name_H-M   'P 1'
_cell_length_a   13.40454196
_cell_length_b   13.44399130
_cell_length_c   13.41865127
_cell_angle_alpha   131.53774841
_cell_angle_beta   131.51037154
_cell_angle_gamma   70.93175814
_symmetry_Int_Tables_number   1
_chemical_formula_structural   Rb8Nb3SbBr24
_chemical_formula_sum   'Rb8 Nb3 Sb1 Br24'
_cell_volume   1327.71004955
_cell_formula_units_Z   1
loop_
 _symmetry_equiv_pos_site_id
 _symmetry_equiv_pos_as_xyz
  1  'x, y, z'
loop_
 _atom_site_type_symbol
 _atom_site_label
 _atom_site_symmetry_multiplicity
 _atom_site_fract_x
 _atom_site_fract_y
 _atom_site_fract_z
 _atom_site_occupancy
  Rb  Rb0  1  0.116950  0.640590  0.997854  1
  Rb  Rb1  1  0.359405  0.883099  0.002175  1
  Rb  Rb2  1  0.642765  0.640599  0.523682  1
  Rb  Rb3  1  0.359432  0.357159  0.476242  1
  Rb  Rb4  1  0.880918  0.357215  0.997774  1
  Rb  Rb5  1  0.880936  0.883144  0.523749  1
  Rb  Rb6  1  0.116881  0.119100  0.476325  1
  Rb  Rb7  1  0.642710  0.119104  0.002168  1
  Nb  Nb8  1  0.750057  0.249985  0.499986  1
  Nb  Nb9  1  0.499949  0.499935  0.999985  1
  Nb  Nb10  1  0.250081  0.750011  0.500038  1
  Sb  Sb11  1  0.000018  0.000021  0.999997  1
  Br  Br12  1  0.255815  0.999586  0.256120  1
  Br  Br13  1  0.000405  0.744206  0.743899  1
  Br  Br14  1  0.251935  0.986776  0.734650  1
  Br  Br15  1  0.748586  0.482854  0.734193  1
  Br  Br16  1  0.482684  0.747870  0.734688  1
  Br  Br17  1  0.128917  0.128863  0.999969  1
  Br  Br18  1  0.499456  0.733629  0.234063  1
  Br  Br19  1  0.868094  0.368121  0.499962  1
  Br  Br20  1  0.000280  0.256480  0.256092  1
  Br  Br21  1  0.381721  0.381807  0.000048  1
  Br  Br22  1  0.618297  0.618226  0.999970  1
  Br  Br23  1  0.499615  0.265444  0.765928  1
  Br  Br24  1  0.266329  0.500502  0.765917  1
  Br  Br25  1  0.516893  0.251498  0.265643  1
  Br  Br26  1  0.367965  0.867859  0.499927  1
  Br  Br27  1  0.631905  0.131862  0.500010  1
  Br  Br28  1  0.252153  0.517374  0.265293  1
  Br  Br29  1  0.132026  0.632115  0.500055  1
  Br  Br30  1  0.013171  0.747996  0.265327  1
  Br  Br31  1  0.985865  0.251385  0.734506  1
  Br  Br32  1  0.743458  0.999683  0.743871  1
  Br  Br33  1  0.734606  0.500425  0.234069  1
  Br  Br34  1  0.748682  0.014393  0.265822  1
  Br  Br35  1  0.871047  0.871082  0.000003  1
