# generated using pymatgen
data_Tb3NdHo12(CdIr)4
_symmetry_space_group_name_H-M   'P 1'
_cell_length_a   9.63021307
_cell_length_b   9.62688791
_cell_length_c   9.62419172
_cell_angle_alpha   60.03212169
_cell_angle_beta   59.99782593
_cell_angle_gamma   59.84445307
_symmetry_Int_Tables_number   1
_chemical_formula_structural   Tb3NdHo12(CdIr)4
_chemical_formula_sum   'Tb3 Nd1 Ho12 Cd4 Ir4'
_cell_volume   630.31246010
_cell_formula_units_Z   1
loop_
 _symmetry_equiv_pos_site_id
 _symmetry_equiv_pos_as_xyz
  1  'x, y, z'
loop_
 _atom_site_type_symbol
 _atom_site_label
 _atom_site_symmetry_multiplicity
 _atom_site_fract_x
 _atom_site_fract_y
 _atom_site_fract_z
 _atom_site_occupancy
  Tb  Tb0  1  0.560724  0.938070  0.562487  1
  Tb  Tb1  1  0.938070  0.560724  0.938719  1
  Tb  Tb2  1  0.562866  0.562866  0.937134  1
  Nd  Nd3  1  0.936699  0.936699  0.563301  1
  Ho  Ho4  1  0.350738  0.348466  0.346337  1
  Ho  Ho5  1  0.348466  0.350738  0.954459  1
  Ho  Ho6  1  0.349477  0.953517  0.349833  1
  Ho  Ho7  1  0.953517  0.349477  0.347172  1
  Ho  Ho8  1  0.810928  0.188243  0.187933  1
  Ho  Ho9  1  0.188243  0.810928  0.812896  1
  Ho  Ho10  1  0.189179  0.809998  0.188939  1
  Ho  Ho11  1  0.809998  0.189179  0.811884  1
  Ho  Ho12  1  0.189529  0.189529  0.810471  1
  Ho  Ho13  1  0.810736  0.810736  0.189264  1
  Ho  Ho14  1  0.941501  0.556978  0.559058  1
  Ho  Ho15  1  0.556978  0.941501  0.942462  1
  Cd  Cd16  1  0.581698  0.580243  0.580556  1
  Cd  Cd17  1  0.580243  0.581698  0.257503  1
  Cd  Cd18  1  0.578361  0.258729  0.582090  1
  Cd  Cd19  1  0.258729  0.578361  0.580818  1
  Ir  Ir20  1  0.144912  0.141957  0.138251  1
  Ir  Ir21  1  0.141957  0.144912  0.574879  1
  Ir  Ir22  1  0.141503  0.574943  0.143118  1
  Ir  Ir23  1  0.574943  0.141503  0.140435  1
