# generated using pymatgen
data_Tm8Si16(MoW3)3
_symmetry_space_group_name_H-M   'P 1'
_cell_length_a   6.72678972
_cell_length_b   6.90694024
_cell_length_c   12.84885601
_cell_angle_alpha   89.97324361
_cell_angle_beta   90.02234424
_cell_angle_gamma   90.05931562
_symmetry_Int_Tables_number   1
_chemical_formula_structural   Tm8Si16(MoW3)3
_chemical_formula_sum   'Tm8 Si16 Mo3 W9'
_cell_volume   596.97713825
_cell_formula_units_Z   1
loop_
 _symmetry_equiv_pos_site_id
 _symmetry_equiv_pos_as_xyz
  1  'x, y, z'
loop_
 _atom_site_type_symbol
 _atom_site_label
 _atom_site_symmetry_multiplicity
 _atom_site_fract_x
 _atom_site_fract_y
 _atom_site_fract_z
 _atom_site_occupancy
  Tm  Tm0  1  0.495940  0.332024  0.093348  1
  Tm  Tm1  1  0.995313  0.168164  0.406643  1
  Tm  Tm2  1  0.504256  0.668170  0.593346  1
  Tm  Tm3  1  0.004265  0.831984  0.906429  1
  Tm  Tm4  1  0.503591  0.668212  0.906430  1
  Tm  Tm5  1  0.003590  0.831543  0.593236  1
  Tm  Tm6  1  0.495609  0.331902  0.406630  1
  Tm  Tm7  1  0.996450  0.168451  0.093452  1
  Si  Si8  1  0.661484  0.041145  0.546689  1
  Si  Si9  1  0.161062  0.458887  0.953183  1
  Si  Si10  1  0.338863  0.959129  0.047015  1
  Si  Si11  1  0.837780  0.541170  0.453891  1
  Si  Si12  1  0.337222  0.958808  0.453382  1
  Si  Si13  1  0.838578  0.541740  0.047152  1
  Si  Si14  1  0.661851  0.041471  0.952770  1
  Si  Si15  1  0.162872  0.457934  0.546751  1
  Si  Si16  1  0.534327  0.370986  0.749272  1
  Si  Si17  1  0.034545  0.129133  0.750807  1
  Si  Si18  1  0.466238  0.628538  0.249200  1
  Si  Si19  1  0.964973  0.871637  0.249972  1
  Si  Si20  1  0.801723  0.634612  0.750487  1
  Si  Si21  1  0.301567  0.865451  0.749466  1
  Si  Si22  1  0.198793  0.364614  0.250291  1
  Si  Si23  1  0.698169  0.134742  0.249831  1
  Mo  Mo24  1  0.670174  0.836639  0.124745  1
  Mo  Mo25  1  0.829225  0.337393  0.875861  1
  Mo  Mo26  1  0.330035  0.162547  0.624501  1
  W  W27  1  0.831542  0.336125  0.626264  1
  W  W28  1  0.331402  0.164444  0.874016  1
  W  W29  1  0.169725  0.663116  0.125207  1
  W  W30  1  0.668376  0.835908  0.374216  1
  W  W31  1  0.169940  0.662738  0.374848  1
  W  W32  1  0.665868  0.998650  0.749780  1
  W  W33  1  0.165613  0.501215  0.749595  1
  W  W34  1  0.333754  0.001280  0.250379  1
  W  W35  1  0.835287  0.499499  0.250918  1
