# generated using pymatgen
data_Pr2Ho4Co8P12Rh9W
_symmetry_space_group_name_H-M   'P 1'
_cell_length_a   3.79596700
_cell_length_b   10.94920800
_cell_length_c   12.64543500
_cell_angle_alpha   90.00000000
_cell_angle_beta   90.00000000
_cell_angle_gamma   90.00000000
_symmetry_Int_Tables_number   1
_chemical_formula_structural   Pr2Ho4Co8P12Rh9W
_chemical_formula_sum   'Pr2 Ho4 Co8 P12 Rh9 W1'
_cell_volume   525.58009356
_cell_formula_units_Z   1
loop_
 _symmetry_equiv_pos_site_id
 _symmetry_equiv_pos_as_xyz
  1  'x, y, z'
loop_
 _atom_site_type_symbol
 _atom_site_label
 _atom_site_symmetry_multiplicity
 _atom_site_fract_x
 _atom_site_fract_y
 _atom_site_fract_z
 _atom_site_occupancy
  Pr  Pr0  1  0.000000  0.500000  0.518738  1
  Pr  Pr1  1  0.500000  0.000000  0.475831  1
  Ho  Ho2  1  0.500000  0.815297  0.196548  1
  Ho  Ho3  1  0.500000  0.184703  0.196548  1
  Ho  Ho4  1  0.000000  0.679211  0.806959  1
  Ho  Ho5  1  0.000000  0.320789  0.806959  1
  Co  Co6  1  0.000000  0.500000  0.991331  1
  Co  Co7  1  0.500000  0.000000  0.010854  1
  Co  Co8  1  0.000000  0.620184  0.281360  1
  Co  Co9  1  0.000000  0.379816  0.281360  1
  Co  Co10  1  0.500000  0.335473  0.997048  1
  Co  Co11  1  0.500000  0.664527  0.997048  1
  Co  Co12  1  0.000000  0.170034  0.008016  1
  Co  Co13  1  0.000000  0.829966  0.008016  1
  P  P14  1  0.500000  0.314613  0.622087  1
  P  P15  1  0.500000  0.685387  0.622087  1
  P  P16  1  0.000000  0.193832  0.370499  1
  P  P17  1  0.000000  0.806168  0.370499  1
  P  P18  1  0.500000  0.500000  0.893329  1
  P  P19  1  0.000000  0.000000  0.105085  1
  P  P20  1  0.500000  0.840331  0.904758  1
  P  P21  1  0.500000  0.159669  0.904758  1
  P  P22  1  0.000000  0.655212  0.104900  1
  P  P23  1  0.000000  0.344788  0.104900  1
  P  P24  1  0.500000  0.500000  0.336659  1
  P  P25  1  0.000000  0.000000  0.658780  1
  Rh  Rh26  1  0.500000  0.297119  0.424295  1
  Rh  Rh27  1  0.500000  0.702881  0.424295  1
  Rh  Rh28  1  0.000000  0.207571  0.570947  1
  Rh  Rh29  1  0.000000  0.792429  0.570947  1
  Rh  Rh30  1  0.500000  0.872510  0.719196  1
  Rh  Rh31  1  0.500000  0.127490  0.719196  1
  Rh  Rh32  1  0.000000  0.000000  0.846625  1
  Rh  Rh33  1  0.500000  0.500000  0.711135  1
  Rh  Rh34  1  0.000000  0.000000  0.287628  1
  W  W35  1  0.500000  0.500000  0.150773  1
