# generated using pymatgen
data_Ti6Si6Os7Ru5
_symmetry_space_group_name_H-M   'P 1'
_cell_length_a   4.26748700
_cell_length_b   6.02961921
_cell_length_c   12.76376246
_cell_angle_alpha   90.03059162
_cell_angle_beta   90.00029135
_cell_angle_gamma   89.99987582
_symmetry_Int_Tables_number   1
_chemical_formula_structural   Ti6Si6Os7Ru5
_chemical_formula_sum   'Ti6 Si6 Os7 Ru5'
_cell_volume   328.42842992
_cell_formula_units_Z   1
loop_
 _symmetry_equiv_pos_site_id
 _symmetry_equiv_pos_as_xyz
  1  'x, y, z'
loop_
 _atom_site_type_symbol
 _atom_site_label
 _atom_site_symmetry_multiplicity
 _atom_site_fract_x
 _atom_site_fract_y
 _atom_site_fract_z
 _atom_site_occupancy
  Ti  Ti0  1  0.000003  0.499972  0.997941  1
  Ti  Ti1  1  0.499811  0.000076  0.166543  1
  Ti  Ti2  1  0.999812  0.501008  0.334461  1
  Ti  Ti3  1  0.500003  0.998118  0.501972  1
  Ti  Ti4  1  0.000193  0.500915  0.667491  1
  Ti  Ti5  1  0.500190  0.000029  0.831589  1
  Si  Si6  1  0.000000  0.999937  0.000016  1
  Si  Si7  1  0.499766  0.499869  0.166601  1
  Si  Si8  1  0.999771  0.000164  0.333395  1
  Si  Si9  1  0.499998  0.499552  0.499889  1
  Si  Si10  1  0.000233  0.000494  0.666437  1
  Si  Si11  1  0.500225  0.499941  0.833652  1
  Os  Os12  1  0.499997  0.249958  0.999250  1
  Os  Os13  1  0.500000  0.750321  0.999155  1
  Os  Os14  1  0.999823  0.250549  0.166573  1
  Os  Os15  1  0.999828  0.749532  0.166264  1
  Os  Os16  1  0.499830  0.249762  0.334023  1
  Os  Os17  1  0.499828  0.750186  0.333901  1
  Os  Os18  1  0.999997  0.249293  0.500817  1
  Ru  Ru19  1  0.999997  0.750138  0.500846  1
  Ru  Ru20  1  0.500176  0.251537  0.666970  1
  Ru  Ru21  1  0.500185  0.748436  0.666818  1
  Ru  Ru22  1  0.000147  0.248813  0.832500  1
  Ru  Ru23  1  0.000185  0.751404  0.832897  1
