# generated using pymatgen
data_Ca3TlIn2PdAu2
_symmetry_space_group_name_H-M   'P 1'
_cell_length_a   7.99176456
_cell_length_b   7.99176449
_cell_length_c   3.92709800
_cell_angle_alpha   90.00000000
_cell_angle_beta   90.00000000
_cell_angle_gamma   119.84061122
_symmetry_Int_Tables_number   1
_chemical_formula_structural   Ca3TlIn2PdAu2
_chemical_formula_sum   'Ca3 Tl1 In2 Pd1 Au2'
_cell_volume   217.56198578
_cell_formula_units_Z   1
loop_
 _symmetry_equiv_pos_site_id
 _symmetry_equiv_pos_as_xyz
  1  'x, y, z'
loop_
 _atom_site_type_symbol
 _atom_site_label
 _atom_site_symmetry_multiplicity
 _atom_site_fract_x
 _atom_site_fract_y
 _atom_site_fract_z
 _atom_site_occupancy
  Ca  Ca0  1  0.996882  0.596046  0.000000  1
  Ca  Ca1  1  0.406084  0.406084  0.000000  1
  Ca  Ca2  1  0.596046  0.996882  0.000000  1
  Tl  Tl3  1  0.741938  0.741938  0.500000  1
  In  In4  1  0.001555  0.257537  0.500000  1
  In  In5  1  0.257537  0.001555  0.500000  1
  Pd  Pd6  1  0.011748  0.011748  0.000000  1
  Au  Au7  1  0.323273  0.664937  0.500000  1
  Au  Au8  1  0.664937  0.323273  0.500000  1
