# generated using pymatgen
data_LiTb6Er10Cd3Pt4
_symmetry_space_group_name_H-M   'P 1'
_cell_length_a   9.64329858
_cell_length_b   9.64329887
_cell_length_c   9.64329830
_cell_angle_alpha   59.96918999
_cell_angle_beta   59.96919094
_cell_angle_gamma   59.96919170
_symmetry_Int_Tables_number   1
_chemical_formula_structural   LiTb6Er10Cd3Pt4
_chemical_formula_sum   'Li1 Tb6 Er10 Cd3 Pt4'
_cell_volume   633.66295114
_cell_formula_units_Z   1
loop_
 _symmetry_equiv_pos_site_id
 _symmetry_equiv_pos_as_xyz
  1  'x, y, z'
loop_
 _atom_site_type_symbol
 _atom_site_label
 _atom_site_symmetry_multiplicity
 _atom_site_fract_x
 _atom_site_fract_y
 _atom_site_fract_z
 _atom_site_occupancy
  Li  Li0  1  0.571823  0.571823  0.571823  1
  Tb  Tb1  1  0.935893  0.564896  0.564896  1
  Tb  Tb2  1  0.563145  0.936729  0.936729  1
  Tb  Tb3  1  0.564896  0.935893  0.564896  1
  Tb  Tb4  1  0.936729  0.563145  0.936729  1
  Tb  Tb5  1  0.564896  0.564896  0.935893  1
  Tb  Tb6  1  0.936729  0.936729  0.563145  1
  Er  Er7  1  0.350469  0.350469  0.350469  1
  Er  Er8  1  0.352094  0.352094  0.945085  1
  Er  Er9  1  0.352094  0.945085  0.352094  1
  Er  Er10  1  0.945085  0.352094  0.352094  1
  Er  Er11  1  0.810700  0.191120  0.191120  1
  Er  Er12  1  0.187026  0.813322  0.813322  1
  Er  Er13  1  0.191120  0.810700  0.191120  1
  Er  Er14  1  0.813322  0.187026  0.813322  1
  Er  Er15  1  0.191120  0.191120  0.810700  1
  Er  Er16  1  0.813322  0.813322  0.187026  1
  Cd  Cd17  1  0.581893  0.581893  0.255034  1
  Cd  Cd18  1  0.581893  0.255034  0.581893  1
  Cd  Cd19  1  0.255034  0.581893  0.581893  1
  Pt  Pt20  1  0.143927  0.143927  0.143927  1
  Pt  Pt21  1  0.142604  0.142604  0.571582  1
  Pt  Pt22  1  0.142604  0.571582  0.142604  1
  Pt  Pt23  1  0.571582  0.142604  0.142604  1
