# generated using pymatgen
data_Y6Sc4Si5P
_symmetry_space_group_name_H-M   'P 1'
_cell_length_a   8.26033200
_cell_length_b   8.26633471
_cell_length_c   5.99531900
_cell_angle_alpha   90.00000000
_cell_angle_beta   90.00000000
_cell_angle_gamma   119.97596562
_symmetry_Int_Tables_number   1
_chemical_formula_structural   Y6Sc4Si5P
_chemical_formula_sum   'Y6 Sc4 Si5 P1'
_cell_volume   354.61617900
_cell_formula_units_Z   1
loop_
 _symmetry_equiv_pos_site_id
 _symmetry_equiv_pos_as_xyz
  1  'x, y, z'
loop_
 _atom_site_type_symbol
 _atom_site_label
 _atom_site_symmetry_multiplicity
 _atom_site_fract_x
 _atom_site_fract_y
 _atom_site_fract_z
 _atom_site_occupancy
  Y  Y0  1  0.000266  0.753112  0.750000  1
  Y  Y1  1  0.001524  0.247443  0.250000  1
  Y  Y2  1  0.754082  0.752557  0.250000  1
  Y  Y3  1  0.749786  0.000000  0.750000  1
  Y  Y4  1  0.247153  0.246888  0.750000  1
  Y  Y5  1  0.249093  0.000000  0.250000  1
  Sc  Sc6  1  0.333692  0.668034  0.499444  1
  Sc  Sc7  1  0.665659  0.331966  0.000556  1
  Sc  Sc8  1  0.665659  0.331966  0.499444  1
  Sc  Sc9  1  0.333692  0.668034  0.000556  1
  Si  Si10  1  0.398755  0.397876  0.250000  1
  Si  Si11  1  0.000879  0.602124  0.250000  1
  Si  Si12  1  0.000123  0.398034  0.750000  1
  Si  Si13  1  0.602088  0.601966  0.750000  1
  Si  Si14  1  0.604513  0.000000  0.250000  1
  P  P15  1  0.393037  0.000000  0.750000  1
