# generated using pymatgen
data_TbSm2Mg3Si2Ag
_symmetry_space_group_name_H-M   'P 1'
_cell_length_a   7.33989241
_cell_length_b   7.33989217
_cell_length_c   4.36987800
_cell_angle_alpha   90.00000000
_cell_angle_beta   90.00000000
_cell_angle_gamma   119.68115210
_symmetry_Int_Tables_number   1
_chemical_formula_structural   TbSm2Mg3Si2Ag
_chemical_formula_sum   'Tb1 Sm2 Mg3 Si2 Ag1'
_cell_volume   204.53410067
_cell_formula_units_Z   1
loop_
 _symmetry_equiv_pos_site_id
 _symmetry_equiv_pos_as_xyz
  1  'x, y, z'
loop_
 _atom_site_type_symbol
 _atom_site_label
 _atom_site_symmetry_multiplicity
 _atom_site_fract_x
 _atom_site_fract_y
 _atom_site_fract_z
 _atom_site_occupancy
  Tb  Tb0  1  0.421531  0.421531  0.000000  1
  Sm  Sm1  1  0.577715  0.998774  0.000000  1
  Sm  Sm2  1  0.998774  0.577715  0.000000  1
  Mg  Mg3  1  0.247631  0.001085  0.500000  1
  Mg  Mg4  1  0.001085  0.247631  0.500000  1
  Mg  Mg5  1  0.751369  0.751369  0.500000  1
  Si  Si6  1  0.334457  0.664733  0.500000  1
  Si  Si7  1  0.664733  0.334457  0.500000  1
  Ag  Ag8  1  0.002704  0.002704  0.000000  1
