# generated using pymatgen
data_La2CoCu2NiAs4
_symmetry_space_group_name_H-M   'P 1'
_cell_length_a   4.28423700
_cell_length_b   4.28423700
_cell_length_c   9.70910700
_cell_angle_alpha   90.00000000
_cell_angle_beta   90.00000000
_cell_angle_gamma   90.00000000
_symmetry_Int_Tables_number   1
_chemical_formula_structural   La2CoCu2NiAs4
_chemical_formula_sum   'La2 Co1 Cu2 Ni1 As4'
_cell_volume   178.20761685
_cell_formula_units_Z   1
loop_
 _symmetry_equiv_pos_site_id
 _symmetry_equiv_pos_as_xyz
  1  'x, y, z'
loop_
 _atom_site_type_symbol
 _atom_site_label
 _atom_site_symmetry_multiplicity
 _atom_site_fract_x
 _atom_site_fract_y
 _atom_site_fract_z
 _atom_site_occupancy
  La  La0  1  0.000000  0.500000  0.760678  1
  La  La1  1  0.500000  0.000000  0.244764  1
  Co  Co2  1  0.000000  0.500000  0.107896  1
  Cu  Cu3  1  0.000000  0.000000  0.500025  1
  Cu  Cu4  1  0.500000  0.500000  0.500025  1
  Ni  Ni5  1  0.500000  0.000000  0.887403  1
  As  As6  1  0.000000  0.500000  0.354639  1
  As  As7  1  0.000000  0.000000  0.002244  1
  As  As8  1  0.500000  0.000000  0.640081  1
  As  As9  1  0.500000  0.500000  0.002244  1
