# generated using pymatgen
data_RbPrYCuSe4
_symmetry_space_group_name_H-M   'P 1'
_cell_length_a   7.56608864
_cell_length_b   7.56608694
_cell_length_c   14.59656100
_cell_angle_alpha   90.00000000
_cell_angle_beta   90.00000000
_cell_angle_gamma   147.68470925
_symmetry_Int_Tables_number   1
_chemical_formula_structural   RbPrYCuSe4
_chemical_formula_sum   'Rb2 Pr2 Y2 Cu2 Se8'
_cell_volume   446.68802161
_cell_formula_units_Z   2
loop_
 _symmetry_equiv_pos_site_id
 _symmetry_equiv_pos_as_xyz
  1  'x, y, z'
loop_
 _atom_site_type_symbol
 _atom_site_label
 _atom_site_symmetry_multiplicity
 _atom_site_fract_x
 _atom_site_fract_y
 _atom_site_fract_z
 _atom_site_occupancy
  Rb  Rb0  1  0.109479  0.890521  0.249373  1
  Rb  Rb1  1  0.890521  0.109479  0.749373  1
  Pr  Pr2  1  0.632295  0.367705  0.936853  1
  Pr  Pr3  1  0.367705  0.632295  0.436853  1
  Y  Y4  1  0.636214  0.363786  0.563137  1
  Y  Y5  1  0.363786  0.636214  0.063137  1
  Cu  Cu6  1  0.161821  0.838179  0.751646  1
  Cu  Cu7  1  0.838179  0.161821  0.251646  1
  Se  Se8  1  0.005582  0.994418  0.502576  1
  Se  Se9  1  0.994418  0.005582  0.002576  1
  Se  Se10  1  0.740959  0.259041  0.112088  1
  Se  Se11  1  0.265262  0.734738  0.888424  1
  Se  Se12  1  0.570441  0.429559  0.745903  1
  Se  Se13  1  0.734738  0.265262  0.388424  1
  Se  Se14  1  0.429559  0.570441  0.245903  1
  Se  Se15  1  0.259041  0.740959  0.612088  1
