# generated using pymatgen
data_NdPa(Al3Rh)3
_symmetry_space_group_name_H-M   'P 1'
_cell_length_a   7.62913693
_cell_length_b   7.62193732
_cell_length_c   9.45036400
_cell_angle_alpha   90.00000000
_cell_angle_beta   90.00000000
_cell_angle_gamma   119.59515842
_symmetry_Int_Tables_number   1
_chemical_formula_structural   NdPa(Al3Rh)3
_chemical_formula_sum   'Nd2 Pa2 Al18 Rh6'
_cell_volume   477.83418690
_cell_formula_units_Z   2
loop_
 _symmetry_equiv_pos_site_id
 _symmetry_equiv_pos_as_xyz
  1  'x, y, z'
loop_
 _atom_site_type_symbol
 _atom_site_label
 _atom_site_symmetry_multiplicity
 _atom_site_fract_x
 _atom_site_fract_y
 _atom_site_fract_z
 _atom_site_occupancy
  Nd  Nd0  1  0.669482  0.994139  0.750000  1
  Nd  Nd1  1  0.330518  0.005861  0.250000  1
  Pa  Pa2  1  0.997297  0.670828  0.750000  1
  Pa  Pa3  1  0.002703  0.329172  0.250000  1
  Al  Al4  1  0.130370  0.126908  0.750000  1
  Al  Al5  1  0.869630  0.873092  0.250000  1
  Al  Al6  1  0.002040  0.333948  0.575098  1
  Al  Al7  1  0.997960  0.666052  0.424902  1
  Al  Al8  1  0.997960  0.666052  0.075098  1
  Al  Al9  1  0.335702  0.002860  0.925137  1
  Al  Al10  1  0.002040  0.333948  0.924902  1
  Al  Al11  1  0.664298  0.997140  0.074863  1
  Al  Al12  1  0.664298  0.997140  0.425137  1
  Al  Al13  1  0.335702  0.002860  0.574863  1
  Al  Al14  1  0.334686  0.334617  0.051226  1
  Al  Al15  1  0.665314  0.665383  0.948774  1
  Al  Al16  1  0.665314  0.665383  0.551226  1
  Al  Al17  1  0.334686  0.334617  0.448774  1
  Al  Al18  1  0.337489  0.546264  0.750000  1
  Al  Al19  1  0.662511  0.453736  0.250000  1
  Al  Al20  1  0.549685  0.343870  0.750000  1
  Al  Al21  1  0.450315  0.656130  0.250000  1
  Rh  Rh22  1  0.675108  0.330453  0.499659  1
  Rh  Rh23  1  0.324892  0.669547  0.500341  1
  Rh  Rh24  1  0.324892  0.669547  0.999659  1
  Rh  Rh25  1  0.675108  0.330453  0.000341  1
  Rh  Rh26  1  0.000000  0.000000  0.500000  1
  Rh  Rh27  1  0.000000  0.000000  0.000000  1
