# generated using pymatgen
data_Lu12TlInFe2Rh
_symmetry_space_group_name_H-M   'P 1'
_cell_length_a   8.20017198
_cell_length_b   8.20015911
_cell_length_c   8.20017330
_cell_angle_alpha   108.67433995
_cell_angle_beta   108.49592742
_cell_angle_gamma   111.25842981
_symmetry_Int_Tables_number   1
_chemical_formula_structural   Lu12TlInFe2Rh
_chemical_formula_sum   'Lu12 Tl1 In1 Fe2 Rh1'
_cell_volume   424.15720200
_cell_formula_units_Z   1
loop_
 _symmetry_equiv_pos_site_id
 _symmetry_equiv_pos_as_xyz
  1  'x, y, z'
loop_
 _atom_site_type_symbol
 _atom_site_label
 _atom_site_symmetry_multiplicity
 _atom_site_fract_x
 _atom_site_fract_y
 _atom_site_fract_z
 _atom_site_occupancy
  Lu  Lu0  1  0.307969  0.307548  0.615513  1
  Lu  Lu1  1  0.692031  0.692452  0.384487  1
  Lu  Lu2  1  0.692034  0.307548  0.999579  1
  Lu  Lu3  1  0.307966  0.692452  0.000421  1
  Lu  Lu4  1  0.194782  0.433633  0.238851  1
  Lu  Lu5  1  0.805218  0.566367  0.761149  1
  Lu  Lu6  1  0.194783  0.955933  0.761150  1
  Lu  Lu7  1  0.955998  0.194498  0.761499  1
  Lu  Lu8  1  0.805217  0.044067  0.238850  1
  Lu  Lu9  1  0.044002  0.805502  0.238501  1
  Lu  Lu10  1  0.432999  0.194498  0.238501  1
  Lu  Lu11  1  0.567001  0.805502  0.761499  1
  Tl  Tl12  1  0.000000  0.500000  0.500000  1
  In  In13  1  0.500000  0.000000  0.500000  1
  Fe  Fe14  1  0.384456  0.384453  0.999997  1
  Fe  Fe15  1  0.615544  0.615547  0.000003  1
  Rh  Rh16  1  0.000000  0.000000  0.000000  1
