# generated using pymatgen
data_AcU2O6
_symmetry_space_group_name_H-M   'P 1'
_cell_length_a   3.95188300
_cell_length_b   3.95188405
_cell_length_c   9.54056200
_cell_angle_alpha   90.00000000
_cell_angle_beta   90.00000000
_cell_angle_gamma   119.99999954
_symmetry_Int_Tables_number   1
_chemical_formula_structural   AcU2O6
_chemical_formula_sum   'Ac1 U2 O6'
_cell_volume   129.03658609
_cell_formula_units_Z   1
loop_
 _symmetry_equiv_pos_site_id
 _symmetry_equiv_pos_as_xyz
  1  'x, y, z'
loop_
 _atom_site_type_symbol
 _atom_site_label
 _atom_site_symmetry_multiplicity
 _atom_site_fract_x
 _atom_site_fract_y
 _atom_site_fract_z
 _atom_site_occupancy
  Ac  Ac0  1  0.000000  0.000000  0.000000  1
  U  U1  1  0.333333  0.666667  0.658885  1
  U  U2  1  0.666667  0.333333  0.341115  1
  O  O3  1  0.000000  0.000000  0.280528  1
  O  O4  1  0.333333  0.666667  0.886191  1
  O  O5  1  0.666667  0.333333  0.574779  1
  O  O6  1  0.666667  0.333333  0.113809  1
  O  O7  1  0.000000  0.000000  0.719472  1
  O  O8  1  0.333333  0.666667  0.425221  1
