# generated using pymatgen
data_Tb3LuZn4Si3Ge
_symmetry_space_group_name_H-M   'P 1'
_cell_length_a   4.18237600
_cell_length_b   4.18237748
_cell_length_c   15.57688600
_cell_angle_alpha   90.00000000
_cell_angle_beta   90.00000000
_cell_angle_gamma   120.00000408
_symmetry_Int_Tables_number   1
_chemical_formula_structural   Tb3LuZn4Si3Ge
_chemical_formula_sum   'Tb3 Lu1 Zn4 Si3 Ge1'
_cell_volume   235.97041533
_cell_formula_units_Z   1
loop_
 _symmetry_equiv_pos_site_id
 _symmetry_equiv_pos_as_xyz
  1  'x, y, z'
loop_
 _atom_site_type_symbol
 _atom_site_label
 _atom_site_symmetry_multiplicity
 _atom_site_fract_x
 _atom_site_fract_y
 _atom_site_fract_z
 _atom_site_occupancy
  Tb  Tb0  1  0.000000  0.000000  0.747905  1
  Tb  Tb1  1  0.000000  0.000000  0.005230  1
  Tb  Tb2  1  0.000000  0.000000  0.496439  1
  Lu  Lu3  1  0.000000  0.000000  0.250562  1
  Zn  Zn4  1  0.333333  0.666667  0.148084  1
  Zn  Zn5  1  0.666667  0.333333  0.856814  1
  Zn  Zn6  1  0.666667  0.333333  0.637017  1
  Zn  Zn7  1  0.333333  0.666667  0.353513  1
  Si  Si8  1  0.333333  0.666667  0.616803  1
  Si  Si9  1  0.666667  0.333333  0.379324  1
  Si  Si10  1  0.666667  0.333333  0.122199  1
  Ge  Ge11  1  0.333333  0.666667  0.886111  1
