# generated using pymatgen
data_LuScInB2Ir5
_symmetry_space_group_name_H-M   'P 1'
_cell_length_a   3.16351100
_cell_length_b   9.62461339
_cell_length_c   9.62461339
_cell_angle_alpha   89.01524669
_cell_angle_beta   90.00000000
_cell_angle_gamma   90.00000000
_symmetry_Int_Tables_number   1
_chemical_formula_structural   LuScInB2Ir5
_chemical_formula_sum   'Lu2 Sc2 In2 B4 Ir10'
_cell_volume   293.00281109
_cell_formula_units_Z   2
loop_
 _symmetry_equiv_pos_site_id
 _symmetry_equiv_pos_as_xyz
  1  'x, y, z'
loop_
 _atom_site_type_symbol
 _atom_site_label
 _atom_site_symmetry_multiplicity
 _atom_site_fract_x
 _atom_site_fract_y
 _atom_site_fract_z
 _atom_site_occupancy
  Lu  Lu0  1  0.000000  0.177475  0.677475  1
  Lu  Lu1  1  0.000000  0.822525  0.322525  1
  Sc  Sc2  1  0.000000  0.324203  0.175797  1
  Sc  Sc3  1  0.000000  0.675797  0.824203  1
  In  In4  1  0.000000  0.000000  0.000000  1
  In  In5  1  0.000000  0.500000  0.500000  1
  B  B6  1  0.000000  0.620419  0.120419  1
  B  B7  1  0.000000  0.379581  0.879581  1
  B  B8  1  0.000000  0.876590  0.623410  1
  B  B9  1  0.000000  0.123410  0.376590  1
  Ir  Ir10  1  0.500000  0.075076  0.223552  1
  Ir  Ir11  1  0.500000  0.924924  0.776448  1
  Ir  Ir12  1  0.500000  0.772607  0.065736  1
  Ir  Ir13  1  0.500000  0.434264  0.727393  1
  Ir  Ir14  1  0.500000  0.227393  0.934264  1
  Ir  Ir15  1  0.500000  0.565736  0.272607  1
  Ir  Ir16  1  0.500000  0.723552  0.575076  1
  Ir  Ir17  1  0.500000  0.276448  0.424924  1
  Ir  Ir18  1  0.500000  0.000000  0.500000  1
  Ir  Ir19  1  0.500000  0.500000  0.000000  1
