# generated using pymatgen
data_YTmB6Ru
_symmetry_space_group_name_H-M   'P 1'
_cell_length_a   3.63910500
_cell_length_b   9.10169800
_cell_length_c   11.49347200
_cell_angle_alpha   90.00000000
_cell_angle_beta   90.00000000
_cell_angle_gamma   90.00000000
_symmetry_Int_Tables_number   1
_chemical_formula_structural   YTmB6Ru
_chemical_formula_sum   'Y4 Tm4 B24 Ru4'
_cell_volume   380.68717841
_cell_formula_units_Z   4
loop_
 _symmetry_equiv_pos_site_id
 _symmetry_equiv_pos_as_xyz
  1  'x, y, z'
loop_
 _atom_site_type_symbol
 _atom_site_label
 _atom_site_symmetry_multiplicity
 _atom_site_fract_x
 _atom_site_fract_y
 _atom_site_fract_z
 _atom_site_occupancy
  Y  Y0  1  0.000000  0.322114  0.414141  1
  Y  Y1  1  0.000000  0.677886  0.585859  1
  Y  Y2  1  0.000000  0.822114  0.085859  1
  Y  Y3  1  0.000000  0.177886  0.914141  1
  Tm  Tm4  1  0.000000  0.943835  0.372393  1
  Tm  Tm5  1  0.000000  0.056165  0.627607  1
  Tm  Tm6  1  0.000000  0.443835  0.127607  1
  Tm  Tm7  1  0.000000  0.556165  0.872393  1
  B  B8  1  0.500000  0.554461  0.432704  1
  B  B9  1  0.500000  0.445539  0.567296  1
  B  B10  1  0.500000  0.054461  0.067296  1
  B  B11  1  0.500000  0.945539  0.932704  1
  B  B12  1  0.500000  0.749300  0.419298  1
  B  B13  1  0.500000  0.250700  0.580702  1
  B  B14  1  0.500000  0.249300  0.080702  1
  B  B15  1  0.500000  0.750700  0.919298  1
  B  B16  1  0.500000  0.791651  0.266097  1
  B  B17  1  0.500000  0.208349  0.733903  1
  B  B18  1  0.500000  0.291651  0.233903  1
  B  B19  1  0.500000  0.708349  0.766097  1
  B  B20  1  0.500000  0.631209  0.184634  1
  B  B21  1  0.500000  0.368791  0.815366  1
  B  B22  1  0.500000  0.131209  0.315366  1
  B  B23  1  0.500000  0.868791  0.684634  1
  B  B24  1  0.500000  0.983372  0.213437  1
  B  B25  1  0.500000  0.016628  0.786563  1
  B  B26  1  0.500000  0.483372  0.286563  1
  B  B27  1  0.500000  0.516628  0.713437  1
  B  B28  1  0.500000  0.604934  0.028872  1
  B  B29  1  0.500000  0.395066  0.971128  1
  B  B30  1  0.500000  0.104934  0.471128  1
  B  B31  1  0.500000  0.895066  0.528872  1
  Ru  Ru32  1  0.000000  0.638428  0.320295  1
  Ru  Ru33  1  0.000000  0.361572  0.679705  1
  Ru  Ru34  1  0.000000  0.138428  0.179705  1
  Ru  Ru35  1  0.000000  0.861572  0.820295  1
