# generated using pymatgen
data_Pr2CoGeBr
_symmetry_space_group_name_H-M   'P 1'
_cell_length_a   4.22387100
_cell_length_b   4.22386887
_cell_length_c   16.41862800
_cell_angle_alpha   90.00000000
_cell_angle_beta   90.00000000
_cell_angle_gamma   119.99999315
_symmetry_Int_Tables_number   1
_chemical_formula_structural   Pr2CoGeBr
_chemical_formula_sum   'Pr4 Co2 Ge2 Br2'
_cell_volume   253.68138397
_cell_formula_units_Z   2
loop_
 _symmetry_equiv_pos_site_id
 _symmetry_equiv_pos_as_xyz
  1  'x, y, z'
loop_
 _atom_site_type_symbol
 _atom_site_label
 _atom_site_symmetry_multiplicity
 _atom_site_fract_x
 _atom_site_fract_y
 _atom_site_fract_z
 _atom_site_occupancy
  Pr  Pr0  1  0.000000  0.000000  0.609292  1
  Pr  Pr1  1  0.000000  0.000000  0.393545  1
  Pr  Pr2  1  0.000000  0.000000  0.109292  1
  Pr  Pr3  1  0.000000  0.000000  0.893545  1
  Co  Co4  1  0.666667  0.333333  0.996586  1
  Co  Co5  1  0.333333  0.666667  0.496586  1
  Ge  Ge6  1  0.666667  0.333333  0.503301  1
  Ge  Ge7  1  0.333333  0.666667  0.003301  1
  Br  Br8  1  0.666667  0.333333  0.247277  1
  Br  Br9  1  0.333333  0.666667  0.747277  1
