# generated using pymatgen
data_Nb2GaMo2C3
_symmetry_space_group_name_H-M   'P 1'
_cell_length_a   3.15070200
_cell_length_b   3.15070016
_cell_length_c   23.53749100
_cell_angle_alpha   90.00000000
_cell_angle_beta   90.00000000
_cell_angle_gamma   119.99997734
_symmetry_Int_Tables_number   1
_chemical_formula_structural   Nb2GaMo2C3
_chemical_formula_sum   'Nb4 Ga2 Mo4 C6'
_cell_volume   202.35097497
_cell_formula_units_Z   2
loop_
 _symmetry_equiv_pos_site_id
 _symmetry_equiv_pos_as_xyz
  1  'x, y, z'
loop_
 _atom_site_type_symbol
 _atom_site_label
 _atom_site_symmetry_multiplicity
 _atom_site_fract_x
 _atom_site_fract_y
 _atom_site_fract_z
 _atom_site_occupancy
  Nb  Nb0  1  0.333333  0.666667  0.442456  1
  Nb  Nb1  1  0.666667  0.333333  0.557544  1
  Nb  Nb2  1  0.666667  0.333333  0.942456  1
  Nb  Nb3  1  0.333333  0.666667  0.057544  1
  Ga  Ga4  1  0.333333  0.666667  0.250000  1
  Ga  Ga5  1  0.666667  0.333333  0.750000  1
  Mo  Mo6  1  0.000000  0.000000  0.342441  1
  Mo  Mo7  1  0.000000  0.000000  0.657559  1
  Mo  Mo8  1  0.000000  0.000000  0.842441  1
  Mo  Mo9  1  0.000000  0.000000  0.157559  1
  C  C10  1  0.000000  0.000000  0.500000  1
  C  C11  1  0.000000  0.000000  0.000000  1
  C  C12  1  0.666667  0.333333  0.386506  1
  C  C13  1  0.333333  0.666667  0.613494  1
  C  C14  1  0.333333  0.666667  0.886506  1
  C  C15  1  0.666667  0.333333  0.113494  1
