# generated using pymatgen
data_Ho2B8IrW
_symmetry_space_group_name_H-M   'P 1'
_cell_length_a   3.59207200
_cell_length_b   5.99567716
_cell_length_c   11.61562489
_cell_angle_alpha   90.38639811
_cell_angle_beta   90.00000000
_cell_angle_gamma   90.00000000
_symmetry_Int_Tables_number   1
_chemical_formula_structural   Ho2B8IrW
_chemical_formula_sum   'Ho4 B16 Ir2 W2'
_cell_volume   250.15890997
_cell_formula_units_Z   2
loop_
 _symmetry_equiv_pos_site_id
 _symmetry_equiv_pos_as_xyz
  1  'x, y, z'
loop_
 _atom_site_type_symbol
 _atom_site_label
 _atom_site_symmetry_multiplicity
 _atom_site_fract_x
 _atom_site_fract_y
 _atom_site_fract_z
 _atom_site_occupancy
  Ho  Ho0  1  0.000000  0.127441  0.150579  1
  Ho  Ho1  1  0.000000  0.872559  0.849421  1
  Ho  Ho2  1  0.000000  0.629563  0.351762  1
  Ho  Ho3  1  0.000000  0.370437  0.648238  1
  B  B4  1  0.500000  0.475765  0.194198  1
  B  B5  1  0.500000  0.524235  0.805802  1
  B  B6  1  0.500000  0.974610  0.309298  1
  B  B7  1  0.500000  0.025390  0.690702  1
  B  B8  1  0.500000  0.289607  0.314408  1
  B  B9  1  0.500000  0.710393  0.685592  1
  B  B10  1  0.500000  0.790908  0.188047  1
  B  B11  1  0.500000  0.209092  0.811953  1
  B  B12  1  0.500000  0.364944  0.468919  1
  B  B13  1  0.500000  0.635056  0.531081  1
  B  B14  1  0.500000  0.867618  0.032451  1
  B  B15  1  0.500000  0.132382  0.967549  1
  B  B16  1  0.500000  0.385472  0.046857  1
  B  B17  1  0.500000  0.614528  0.953143  1
  B  B18  1  0.500000  0.886339  0.453373  1
  B  B19  1  0.500000  0.113661  0.546627  1
  Ir  Ir20  1  0.000000  0.145734  0.405327  1
  Ir  Ir21  1  0.000000  0.854266  0.594673  1
  W  W22  1  0.000000  0.629552  0.086769  1
  W  W23  1  0.000000  0.370448  0.913231  1
