# generated using pymatgen
data_Co2NiSb12Os
_symmetry_space_group_name_H-M   'P 1'
_cell_length_a   7.98809027
_cell_length_b   7.92424838
_cell_length_c   9.21012968
_cell_angle_alpha   54.99577760
_cell_angle_beta   54.80935567
_cell_angle_gamma   70.68971169
_symmetry_Int_Tables_number   1
_chemical_formula_structural   Co2NiSb12Os
_chemical_formula_sum   'Co2 Ni1 Sb12 Os1'
_cell_volume   390.26354191
_cell_formula_units_Z   1
loop_
 _symmetry_equiv_pos_site_id
 _symmetry_equiv_pos_as_xyz
  1  'x, y, z'
loop_
 _atom_site_type_symbol
 _atom_site_label
 _atom_site_symmetry_multiplicity
 _atom_site_fract_x
 _atom_site_fract_y
 _atom_site_fract_z
 _atom_site_occupancy
  Co  Co0  1  0.500000  0.000000  0.500000  1
  Co  Co1  1  0.000000  0.500000  0.500000  1
  Ni  Ni2  1  0.500000  0.000000  0.000000  1
  Sb  Sb3  1  0.667330  0.666211  0.492995  1
  Sb  Sb4  1  0.332670  0.333789  0.507005  1
  Sb  Sb5  1  0.657958  0.664740  0.182677  1
  Sb  Sb6  1  0.342042  0.335260  0.817323  1
  Sb  Sb7  1  0.163168  0.848088  0.659439  1
  Sb  Sb8  1  0.836832  0.151912  0.340561  1
  Sb  Sb9  1  0.844047  0.160716  0.661186  1
  Sb  Sb10  1  0.155953  0.839284  0.338814  1
  Sb  Sb11  1  0.822543  0.492339  0.836939  1
  Sb  Sb12  1  0.177457  0.507661  0.163061  1
  Sb  Sb13  1  0.505293  0.177863  0.161786  1
  Sb  Sb14  1  0.494707  0.822137  0.838214  1
  Os  Os15  1  0.000000  0.500000  0.000000  1
