# generated using pymatgen
data_Mn2Nb12Al9FeN4
_symmetry_space_group_name_H-M   'P 1'
_cell_length_a   8.26312557
_cell_length_b   8.26312581
_cell_length_c   8.24428141
_cell_angle_alpha   59.98770273
_cell_angle_beta   59.98770646
_cell_angle_gamma   60.09443590
_symmetry_Int_Tables_number   1
_chemical_formula_structural   Mn2Nb12Al9FeN4
_chemical_formula_sum   'Mn2 Nb12 Al9 Fe1 N4'
_cell_volume   398.24898076
_cell_formula_units_Z   1
loop_
 _symmetry_equiv_pos_site_id
 _symmetry_equiv_pos_as_xyz
  1  'x, y, z'
loop_
 _atom_site_type_symbol
 _atom_site_label
 _atom_site_symmetry_multiplicity
 _atom_site_fract_x
 _atom_site_fract_y
 _atom_site_fract_z
 _atom_site_occupancy
  Mn  Mn0  1  0.125000  0.625000  0.625000  1
  Mn  Mn1  1  0.625000  0.125000  0.625000  1
  Nb  Nb2  1  0.807376  0.807376  0.189784  1
  Nb  Nb3  1  0.192414  0.192414  0.808399  1
  Nb  Nb4  1  0.808585  0.188566  0.809870  1
  Nb  Nb5  1  0.195615  0.805941  0.192706  1
  Nb  Nb6  1  0.188566  0.808585  0.809870  1
  Nb  Nb7  1  0.805941  0.195615  0.192706  1
  Nb  Nb8  1  0.442624  0.442624  0.060216  1
  Nb  Nb9  1  0.057586  0.057586  0.441601  1
  Nb  Nb10  1  0.441415  0.061434  0.440130  1
  Nb  Nb11  1  0.054385  0.444059  0.057294  1
  Nb  Nb12  1  0.061434  0.441415  0.440130  1
  Nb  Nb13  1  0.444059  0.054385  0.057294  1
  Al  Al14  1  0.625000  0.625000  0.125000  1
  Al  Al15  1  0.751217  0.413311  0.429040  1
  Al  Al16  1  0.413311  0.751217  0.429040  1
  Al  Al17  1  0.418133  0.418133  0.751980  1
  Al  Al18  1  0.411731  0.411731  0.426816  1
  Al  Al19  1  0.498783  0.836689  0.820960  1
  Al  Al20  1  0.836689  0.498783  0.820960  1
  Al  Al21  1  0.831867  0.831867  0.498020  1
  Al  Al22  1  0.838269  0.838269  0.823184  1
  Fe  Fe23  1  0.625000  0.625000  0.625000  1
  N  N24  1  0.625000  0.125000  0.125000  1
  N  N25  1  0.125000  0.625000  0.125000  1
  N  N26  1  0.125000  0.125000  0.625000  1
  N  N27  1  0.125000  0.125000  0.125000  1
