# generated using pymatgen
data_K4CaMg3(CoH6)4
_symmetry_space_group_name_H-M   'P 1'
_cell_length_a   7.19727600
_cell_length_b   7.15805200
_cell_length_c   7.15805200
_cell_angle_alpha   90.00000000
_cell_angle_beta   90.00000000
_cell_angle_gamma   90.00000000
_symmetry_Int_Tables_number   1
_chemical_formula_structural   K4CaMg3(CoH6)4
_chemical_formula_sum   'K4 Ca1 Mg3 Co4 H24'
_cell_volume   368.77192921
_cell_formula_units_Z   1
loop_
 _symmetry_equiv_pos_site_id
 _symmetry_equiv_pos_as_xyz
  1  'x, y, z'
loop_
 _atom_site_type_symbol
 _atom_site_label
 _atom_site_symmetry_multiplicity
 _atom_site_fract_x
 _atom_site_fract_y
 _atom_site_fract_z
 _atom_site_occupancy
  K  K0  1  0.000000  0.000000  0.500000  1
  K  K1  1  0.000000  0.500000  0.000000  1
  K  K2  1  0.500000  0.000000  0.000000  1
  K  K3  1  0.000000  0.000000  0.000000  1
  Ca  Ca4  1  0.000000  0.500000  0.500000  1
  Mg  Mg5  1  0.500000  0.500000  0.500000  1
  Mg  Mg6  1  0.500000  0.000000  0.500000  1
  Mg  Mg7  1  0.500000  0.500000  0.000000  1
  Co  Co8  1  0.290729  0.721288  0.721288  1
  Co  Co9  1  0.709271  0.278712  0.721288  1
  Co  Co10  1  0.709271  0.721288  0.278712  1
  Co  Co11  1  0.290729  0.278712  0.278712  1
  H  H12  1  0.719479  0.722762  0.491607  1
  H  H13  1  0.280521  0.277238  0.491607  1
  H  H14  1  0.074375  0.728645  0.728645  1
  H  H15  1  0.295063  0.939338  0.715225  1
  H  H16  1  0.704937  0.060662  0.715225  1
  H  H17  1  0.925625  0.271355  0.728645  1
  H  H18  1  0.719479  0.491607  0.722762  1
  H  H19  1  0.501604  0.722304  0.722304  1
  H  H20  1  0.498396  0.277696  0.722304  1
  H  H21  1  0.280521  0.508393  0.722762  1
  H  H22  1  0.295063  0.715225  0.939338  1
  H  H23  1  0.704937  0.284775  0.939338  1
  H  H24  1  0.704937  0.715225  0.060662  1
  H  H25  1  0.295063  0.284775  0.060662  1
  H  H26  1  0.280521  0.491607  0.277238  1
  H  H27  1  0.498396  0.722304  0.277696  1
  H  H28  1  0.501604  0.277696  0.277696  1
  H  H29  1  0.719479  0.508393  0.277238  1
  H  H30  1  0.925625  0.728645  0.271355  1
  H  H31  1  0.704937  0.939338  0.284775  1
  H  H32  1  0.295063  0.060662  0.284775  1
  H  H33  1  0.074375  0.271355  0.271355  1
  H  H34  1  0.280521  0.722762  0.508393  1
  H  H35  1  0.719479  0.277238  0.508393  1
