# generated using pymatgen
data_Ac8Mg(VN4)3
_symmetry_space_group_name_H-M   'P 1'
_cell_length_a   6.43133652
_cell_length_b   6.36570133
_cell_length_c   12.57341904
_cell_angle_alpha   88.86403744
_cell_angle_beta   88.42222478
_cell_angle_gamma   126.82788232
_symmetry_Int_Tables_number   1
_chemical_formula_structural   Ac8Mg(VN4)3
_chemical_formula_sum   'Ac8 Mg1 V3 N12'
_cell_volume   411.44969530
_cell_formula_units_Z   1
loop_
 _symmetry_equiv_pos_site_id
 _symmetry_equiv_pos_as_xyz
  1  'x, y, z'
loop_
 _atom_site_type_symbol
 _atom_site_label
 _atom_site_symmetry_multiplicity
 _atom_site_fract_x
 _atom_site_fract_y
 _atom_site_fract_z
 _atom_site_occupancy
  Ac  Ac0  1  0.626164  0.841153  0.072987  1
  Ac  Ac1  1  0.475018  0.075754  0.349776  1
  Ac  Ac2  1  0.053835  0.467209  0.853539  1
  Ac  Ac3  1  0.532028  0.931344  0.652151  1
  Ac  Ac4  1  0.367135  0.152934  0.928706  1
  Ac  Ac5  1  0.848014  0.632444  0.565439  1
  Ac  Ac6  1  0.156785  0.375767  0.425788  1
  Ac  Ac7  1  0.925246  0.528175  0.149592  1
  Mg  Mg8  1  0.776717  0.775374  0.833104  1
  V  V9  1  0.237511  0.222162  0.667100  1
  V  V10  1  0.216765  0.219888  0.174041  1
  V  V11  1  0.775167  0.781786  0.326623  1
  N  N12  1  0.120754  0.911806  0.743234  1
  N  N13  1  0.886849  0.112891  0.250158  1
  N  N14  1  0.496081  0.487492  0.739594  1
  N  N15  1  0.493364  0.504116  0.249838  1
  N  N16  1  0.360999  0.037008  0.135654  1
  N  N17  1  0.963359  0.645169  0.362249  1
  N  N18  1  0.638916  0.996056  0.870539  1
  N  N19  1  0.018665  0.320523  0.638929  1
  N  N20  1  0.829785  0.616050  0.966262  1
  N  N21  1  0.648904  0.822988  0.453666  1
  N  N22  1  0.180064  0.353755  0.049092  1
  N  N23  1  0.371876  0.188155  0.541942  1
