# generated using pymatgen
data_La11In9Pt4
_symmetry_space_group_name_H-M   'P 1'
_cell_length_a   13.72159481
_cell_length_b   13.72159475
_cell_length_c   3.90592000
_cell_angle_alpha   90.00000000
_cell_angle_beta   90.00000000
_cell_angle_gamma   112.01500419
_symmetry_Int_Tables_number   1
_chemical_formula_structural   La11In9Pt4
_chemical_formula_sum   'La11 In9 Pt4'
_cell_volume   681.79280955
_cell_formula_units_Z   1
loop_
 _symmetry_equiv_pos_site_id
 _symmetry_equiv_pos_as_xyz
  1  'x, y, z'
loop_
 _atom_site_type_symbol
 _atom_site_label
 _atom_site_symmetry_multiplicity
 _atom_site_fract_x
 _atom_site_fract_y
 _atom_site_fract_z
 _atom_site_occupancy
  La  La0  1  0.310794  0.310794  0.000000  1
  La  La1  1  0.689206  0.689206  0.000000  1
  La  La2  1  0.000000  0.000000  0.000000  1
  La  La3  1  0.071680  0.418101  0.000000  1
  La  La4  1  0.928320  0.581899  0.000000  1
  La  La5  1  0.418101  0.071680  0.000000  1
  La  La6  1  0.581899  0.928320  0.000000  1
  La  La7  1  0.839314  0.160686  0.000000  1
  La  La8  1  0.160686  0.839314  0.000000  1
  La  La9  1  0.626515  0.373485  0.000000  1
  La  La10  1  0.373485  0.626515  0.000000  1
  In  In11  1  0.837016  0.366144  0.500000  1
  In  In12  1  0.162984  0.633856  0.500000  1
  In  In13  1  0.366144  0.837016  0.500000  1
  In  In14  1  0.633856  0.162984  0.500000  1
  In  In15  1  0.077865  0.218878  0.500000  1
  In  In16  1  0.922135  0.781122  0.500000  1
  In  In17  1  0.218878  0.077865  0.500000  1
  In  In18  1  0.781122  0.922135  0.500000  1
  In  In19  1  0.500000  0.500000  0.500000  1
  Pt  Pt20  1  0.245526  0.448055  0.500000  1
  Pt  Pt21  1  0.754474  0.551945  0.500000  1
  Pt  Pt22  1  0.448055  0.245526  0.500000  1
  Pt  Pt23  1  0.551945  0.754474  0.500000  1
