# generated using pymatgen
data_Nd2ThGa3NiPt2
_symmetry_space_group_name_H-M   'P 1'
_cell_length_a   7.42960600
_cell_length_b   7.41938409
_cell_length_c   3.93988200
_cell_angle_alpha   90.00000000
_cell_angle_beta   90.00000000
_cell_angle_gamma   120.04559435
_symmetry_Int_Tables_number   1
_chemical_formula_structural   Nd2ThGa3NiPt2
_chemical_formula_sum   'Nd2 Th1 Ga3 Ni1 Pt2'
_cell_volume   187.99563643
_cell_formula_units_Z   1
loop_
 _symmetry_equiv_pos_site_id
 _symmetry_equiv_pos_as_xyz
  1  'x, y, z'
loop_
 _atom_site_type_symbol
 _atom_site_label
 _atom_site_symmetry_multiplicity
 _atom_site_fract_x
 _atom_site_fract_y
 _atom_site_fract_z
 _atom_site_occupancy
  Nd  Nd0  1  0.998727  0.407327  0.500000  1
  Nd  Nd1  1  0.591400  0.592673  0.500000  1
  Th  Th2  1  0.408741  0.000000  0.500000  1
  Ga  Ga3  1  0.994909  0.762915  0.000000  1
  Ga  Ga4  1  0.231995  0.237085  0.000000  1
  Ga  Ga5  1  0.773498  0.000000  0.000000  1
  Ni  Ni6  1  0.011049  0.000000  0.500000  1
  Pt  Pt7  1  0.334607  0.679534  0.000000  1
  Pt  Pt8  1  0.655074  0.320466  0.000000  1
