# generated using pymatgen
data_Cs3Rb11V2(In3P5)2
_symmetry_space_group_name_H-M   'P 1'
_cell_length_a   8.50791191
_cell_length_b   9.45562471
_cell_length_c   14.26955028
_cell_angle_alpha   85.28611487
_cell_angle_beta   84.86310489
_cell_angle_gamma   86.07733753
_symmetry_Int_Tables_number   1
_chemical_formula_structural   Cs3Rb11V2(In3P5)2
_chemical_formula_sum   'Cs3 Rb11 V2 In6 P10'
_cell_volume   1137.31606868
_cell_formula_units_Z   1
loop_
 _symmetry_equiv_pos_site_id
 _symmetry_equiv_pos_as_xyz
  1  'x, y, z'
loop_
 _atom_site_type_symbol
 _atom_site_label
 _atom_site_symmetry_multiplicity
 _atom_site_fract_x
 _atom_site_fract_y
 _atom_site_fract_z
 _atom_site_occupancy
  Cs  Cs0  1  0.181175  0.190897  0.869833  1
  Cs  Cs1  1  0.317274  0.920946  0.113032  1
  Cs  Cs2  1  0.681516  0.657435  0.406634  1
  Rb  Rb3  1  0.848467  0.360689  0.651956  1
  Rb  Rb4  1  0.814985  0.804396  0.136843  1
  Rb  Rb5  1  0.238290  0.006514  0.466309  1
  Rb  Rb6  1  0.273066  0.260870  0.251705  1
  Rb  Rb7  1  0.738471  0.500139  0.975679  1
  Rb  Rb8  1  0.259971  0.502491  0.023699  1
  Rb  Rb9  1  0.678626  0.084531  0.885563  1
  Rb  Rb10  1  0.758385  0.997059  0.533887  1
  Rb  Rb11  1  0.724664  0.740069  0.747750  1
  Rb  Rb12  1  0.345128  0.345290  0.598937  1
  Rb  Rb13  1  0.162347  0.636056  0.348634  1
  V  V14  1  0.352246  0.606723  0.772143  1
  V  V15  1  0.647094  0.393109  0.226332  1
  In  In16  1  0.059145  0.808801  0.868091  1
  In  In17  1  0.937344  0.189083  0.132305  1
  In  In18  1  0.360487  0.946639  0.701359  1
  In  In19  1  0.091900  0.716255  0.622860  1
  In  In20  1  0.904215  0.281126  0.376077  1
  In  In21  1  0.635661  0.053234  0.296128  1
  P  P22  1  0.910240  0.449622  0.210674  1
  P  P23  1  0.620124  0.210357  0.127049  1
  P  P24  1  0.089351  0.549923  0.788783  1
  P  P25  1  0.585181  0.301004  0.382235  1
  P  P26  1  0.409838  0.698884  0.616250  1
  P  P27  1  0.029952  0.986561  0.701147  1
  P  P28  1  0.509736  0.416336  0.805605  1
  P  P29  1  0.492325  0.584106  0.192303  1
  P  P30  1  0.378489  0.790546  0.870205  1
  P  P31  1  0.964309  0.010304  0.299997  1
