# generated using pymatgen
data_Tb4Nd2CoCl10
_symmetry_space_group_name_H-M   'P 1'
_cell_length_a   7.18893278
_cell_length_b   8.91677064
_cell_length_c   8.96918682
_cell_angle_alpha   109.51830117
_cell_angle_beta   98.17976443
_cell_angle_gamma   107.05226946
_symmetry_Int_Tables_number   1
_chemical_formula_structural   Tb4Nd2CoCl10
_chemical_formula_sum   'Tb4 Nd2 Co1 Cl10'
_cell_volume   499.32658672
_cell_formula_units_Z   1
loop_
 _symmetry_equiv_pos_site_id
 _symmetry_equiv_pos_as_xyz
  1  'x, y, z'
loop_
 _atom_site_type_symbol
 _atom_site_label
 _atom_site_symmetry_multiplicity
 _atom_site_fract_x
 _atom_site_fract_y
 _atom_site_fract_z
 _atom_site_occupancy
  Tb  Tb0  1  0.524425  0.689993  0.895618  1
  Tb  Tb1  1  0.475575  0.310007  0.104382  1
  Tb  Tb2  1  0.633194  0.051350  0.754362  1
  Tb  Tb3  1  0.366806  0.948650  0.245638  1
  Nd  Nd4  1  0.863473  0.143236  0.191084  1
  Nd  Nd5  1  0.136527  0.856764  0.808916  1
  Co  Co6  1  0.500000  0.000000  0.000000  1
  Cl  Cl7  1  0.740410  0.079226  0.460205  1
  Cl  Cl8  1  0.259590  0.920774  0.539795  1
  Cl  Cl9  1  0.948803  0.822578  0.077732  1
  Cl  Cl10  1  0.051197  0.177422  0.922268  1
  Cl  Cl11  1  0.310265  0.258983  0.352249  1
  Cl  Cl12  1  0.689735  0.741017  0.647751  1
  Cl  Cl13  1  0.590182  0.369548  0.839732  1
  Cl  Cl14  1  0.409818  0.630452  0.160268  1
  Cl  Cl15  1  0.856661  0.470621  0.280650  1
  Cl  Cl16  1  0.143339  0.529379  0.719350  1
