# generated using pymatgen
data_LiTb2Rh5C
_symmetry_space_group_name_H-M   'P 1'
_cell_length_a   5.85858184
_cell_length_b   5.80643403
_cell_length_c   5.80627131
_cell_angle_alpha   60.59600602
_cell_angle_beta   59.70338878
_cell_angle_gamma   59.70062454
_symmetry_Int_Tables_number   1
_chemical_formula_structural   LiTb2Rh5C
_chemical_formula_sum   'Li1 Tb2 Rh5 C1'
_cell_volume   139.64116588
_cell_formula_units_Z   1
loop_
 _symmetry_equiv_pos_site_id
 _symmetry_equiv_pos_as_xyz
  1  'x, y, z'
loop_
 _atom_site_type_symbol
 _atom_site_label
 _atom_site_symmetry_multiplicity
 _atom_site_fract_x
 _atom_site_fract_y
 _atom_site_fract_z
 _atom_site_occupancy
  Li  Li0  1  0.738873  0.261128  0.261128  1
  Tb  Tb1  1  0.247373  0.252627  0.252627  1
  Tb  Tb2  1  0.747373  0.752627  0.752627  1
  Rh  Rh3  1  0.245052  0.754949  0.251462  1
  Rh  Rh4  1  0.748538  0.754952  0.251463  1
  Rh  Rh5  1  0.245048  0.251462  0.754953  1
  Rh  Rh6  1  0.748538  0.251463  0.754948  1
  Rh  Rh7  1  0.261832  0.738169  0.738169  1
  C  C8  1  0.017374  0.982626  0.982626  1
