# generated using pymatgen
data_K3BiF6
_symmetry_space_group_name_H-M   'P 1'
_cell_length_a   6.73037300
_cell_length_b   6.48602966
_cell_length_c   11.40226652
_cell_angle_alpha   54.71168286
_cell_angle_beta   90.00000000
_cell_angle_gamma   90.00000000
_symmetry_Int_Tables_number   1
_chemical_formula_structural   K3BiF6
_chemical_formula_sum   'K6 Bi2 F12'
_cell_volume   406.28923913
_cell_formula_units_Z   2
loop_
 _symmetry_equiv_pos_site_id
 _symmetry_equiv_pos_as_xyz
  1  'x, y, z'
loop_
 _atom_site_type_symbol
 _atom_site_label
 _atom_site_symmetry_multiplicity
 _atom_site_fract_x
 _atom_site_fract_y
 _atom_site_fract_z
 _atom_site_occupancy
  K  K0  1  0.000000  0.500000  0.500000  1
  K  K1  1  0.500000  0.500000  0.000000  1
  K  K2  1  0.447777  0.239160  0.745099  1
  K  K3  1  0.552223  0.760840  0.254901  1
  K  K4  1  0.947777  0.760840  0.754901  1
  K  K5  1  0.052223  0.239160  0.245099  1
  Bi  Bi6  1  0.000000  0.000000  0.000000  1
  Bi  Bi7  1  0.500000  0.000000  0.500000  1
  F  F8  1  0.721483  0.902425  0.926093  1
  F  F9  1  0.278517  0.097575  0.073907  1
  F  F10  1  0.221483  0.097575  0.573907  1
  F  F11  1  0.778517  0.902425  0.426093  1
  F  F12  1  0.062415  0.348090  0.771842  1
  F  F13  1  0.937585  0.651910  0.228158  1
  F  F14  1  0.562415  0.651910  0.728158  1
  F  F15  1  0.437585  0.348090  0.271842  1
  F  F16  1  0.178366  0.767645  0.944699  1
  F  F17  1  0.821634  0.232355  0.055301  1
  F  F18  1  0.678366  0.232355  0.555301  1
  F  F19  1  0.321634  0.767645  0.444699  1
