# generated using pymatgen
data_La4Pr12Cd4OsPt3
_symmetry_space_group_name_H-M   'P 1'
_cell_length_a   10.12320462
_cell_length_b   10.12320362
_cell_length_c   10.12320395
_cell_angle_alpha   59.88680976
_cell_angle_beta   59.88681434
_cell_angle_gamma   59.88681059
_symmetry_Int_Tables_number   1
_chemical_formula_structural   La4Pr12Cd4OsPt3
_chemical_formula_sum   'La4 Pr12 Cd4 Os1 Pt3'
_cell_volume   731.68177290
_cell_formula_units_Z   1
loop_
 _symmetry_equiv_pos_site_id
 _symmetry_equiv_pos_as_xyz
  1  'x, y, z'
loop_
 _atom_site_type_symbol
 _atom_site_label
 _atom_site_symmetry_multiplicity
 _atom_site_fract_x
 _atom_site_fract_y
 _atom_site_fract_z
 _atom_site_occupancy
  La  La0  1  0.351120  0.351120  0.351120  1
  La  La1  1  0.346466  0.346466  0.954503  1
  La  La2  1  0.346466  0.954503  0.346466  1
  La  La3  1  0.954503  0.346466  0.346466  1
  Pr  Pr4  1  0.816503  0.188491  0.188491  1
  Pr  Pr5  1  0.189020  0.808368  0.808368  1
  Pr  Pr6  1  0.188491  0.816503  0.188491  1
  Pr  Pr7  1  0.808368  0.189020  0.808368  1
  Pr  Pr8  1  0.188491  0.188491  0.816503  1
  Pr  Pr9  1  0.808368  0.808368  0.189020  1
  Pr  Pr10  1  0.936709  0.564192  0.564192  1
  Pr  Pr11  1  0.557662  0.937286  0.937286  1
  Pr  Pr12  1  0.564192  0.936709  0.564192  1
  Pr  Pr13  1  0.937286  0.557662  0.937286  1
  Pr  Pr14  1  0.564192  0.564192  0.936709  1
  Pr  Pr15  1  0.937286  0.937286  0.557662  1
  Cd  Cd16  1  0.579746  0.579746  0.579746  1
  Cd  Cd17  1  0.580281  0.580281  0.258927  1
  Cd  Cd18  1  0.580281  0.258927  0.580281  1
  Cd  Cd19  1  0.258927  0.580281  0.580281  1
  Os  Os20  1  0.143707  0.143707  0.143707  1
  Pt  Pt21  1  0.144615  0.144615  0.572706  1
  Pt  Pt22  1  0.144615  0.572706  0.144615  1
  Pt  Pt23  1  0.572706  0.144615  0.144615  1
