# generated using pymatgen
data_Zr2Sc2AlFe3B16
_symmetry_space_group_name_H-M   'P 1'
_cell_length_a   5.78089049
_cell_length_b   11.19819582
_cell_length_c   3.28579300
_cell_angle_alpha   90.00000000
_cell_angle_beta   90.00000000
_cell_angle_gamma   90.01254191
_symmetry_Int_Tables_number   1
_chemical_formula_structural   Zr2Sc2AlFe3B16
_chemical_formula_sum   'Zr2 Sc2 Al1 Fe3 B16'
_cell_volume   212.70759152
_cell_formula_units_Z   1
loop_
 _symmetry_equiv_pos_site_id
 _symmetry_equiv_pos_as_xyz
  1  'x, y, z'
loop_
 _atom_site_type_symbol
 _atom_site_label
 _atom_site_symmetry_multiplicity
 _atom_site_fract_x
 _atom_site_fract_y
 _atom_site_fract_z
 _atom_site_occupancy
  Zr  Zr0  1  0.628382  0.349777  0.000000  1
  Zr  Zr1  1  0.371730  0.648473  0.000000  1
  Sc  Sc2  1  0.124633  0.152681  0.000000  1
  Sc  Sc3  1  0.876716  0.847203  0.000000  1
  Al  Al4  1  0.633459  0.085227  0.000000  1
  Fe  Fe5  1  0.371439  0.911961  0.000000  1
  Fe  Fe6  1  0.135364  0.414448  0.000000  1
  Fe  Fe7  1  0.863090  0.590952  0.000000  1
  B  B8  1  0.792874  0.188579  0.500000  1
  B  B9  1  0.211280  0.815153  0.500000  1
  B  B10  1  0.285309  0.313964  0.500000  1
  B  B11  1  0.713273  0.686636  0.500000  1
  B  B12  1  0.868885  0.030349  0.500000  1
  B  B13  1  0.134133  0.966399  0.500000  1
  B  B14  1  0.365286  0.467396  0.500000  1
  B  B15  1  0.634886  0.533014  0.500000  1
  B  B16  1  0.886897  0.453066  0.500000  1
  B  B17  1  0.112814  0.548056  0.500000  1
  B  B18  1  0.380354  0.045123  0.500000  1
  B  B19  1  0.613041  0.949505  0.500000  1
  B  B20  1  0.978832  0.307450  0.500000  1
  B  B21  1  0.023522  0.693561  0.500000  1
  B  B22  1  0.471384  0.194255  0.500000  1
  B  B23  1  0.522415  0.806771  0.500000  1
