# generated using pymatgen
data_Dy3ErGa18(NiIr2)2
_symmetry_space_group_name_H-M   'P 1'
_cell_length_a   7.54166040
_cell_length_b   7.54173474
_cell_length_c   9.44252000
_cell_angle_alpha   90.00000000
_cell_angle_beta   90.00000000
_cell_angle_gamma   120.05613672
_symmetry_Int_Tables_number   1
_chemical_formula_structural   Dy3ErGa18(NiIr2)2
_chemical_formula_sum   'Dy3 Er1 Ga18 Ni2 Ir4'
_cell_volume   464.84784853
_cell_formula_units_Z   1
loop_
 _symmetry_equiv_pos_site_id
 _symmetry_equiv_pos_as_xyz
  1  'x, y, z'
loop_
 _atom_site_type_symbol
 _atom_site_label
 _atom_site_symmetry_multiplicity
 _atom_site_fract_x
 _atom_site_fract_y
 _atom_site_fract_z
 _atom_site_occupancy
  Dy  Dy0  1  0.996392  0.661892  0.750000  1
  Dy  Dy1  1  0.003694  0.338545  0.250000  1
  Dy  Dy2  1  0.661713  0.996450  0.750000  1
  Er  Er3  1  0.338224  0.003566  0.250000  1
  Ga  Ga4  1  0.112473  0.112381  0.750000  1
  Ga  Ga5  1  0.888606  0.888388  0.250000  1
  Ga  Ga6  1  0.999178  0.327702  0.578068  1
  Ga  Ga7  1  0.001301  0.672827  0.421028  1
  Ga  Ga8  1  0.001301  0.672827  0.078972  1
  Ga  Ga9  1  0.327770  0.999200  0.922288  1
  Ga  Ga10  1  0.999178  0.327702  0.921932  1
  Ga  Ga11  1  0.671837  0.000890  0.078992  1
  Ga  Ga12  1  0.671837  0.000890  0.421008  1
  Ga  Ga13  1  0.327770  0.999200  0.577712  1
  Ga  Ga14  1  0.326798  0.326391  0.066143  1
  Ga  Ga15  1  0.672867  0.672885  0.934939  1
  Ga  Ga16  1  0.672867  0.672885  0.565061  1
  Ga  Ga17  1  0.326798  0.326391  0.433857  1
  Ga  Ga18  1  0.337253  0.541016  0.750000  1
  Ga  Ga19  1  0.662039  0.458426  0.250000  1
  Ga  Ga20  1  0.540928  0.337223  0.750000  1
  Ga  Ga21  1  0.458902  0.662703  0.250000  1
  Ni  Ni22  1  0.000093  0.999835  0.500096  1
  Ni  Ni23  1  0.000093  0.999835  0.999904  1
  Ir  Ir24  1  0.671531  0.328422  0.499869  1
  Ir  Ir25  1  0.328513  0.671553  0.499878  1
  Ir  Ir26  1  0.328513  0.671553  0.000122  1
  Ir  Ir27  1  0.671531  0.328422  0.000131  1
