# generated using pymatgen
data_Yb5Pr15Si15Pd
_symmetry_space_group_name_H-M   'P 1'
_cell_length_a   7.95363211
_cell_length_b   7.90647432
_cell_length_c   15.13243358
_cell_angle_alpha   89.75073010
_cell_angle_beta   89.68805137
_cell_angle_gamma   90.20977131
_symmetry_Int_Tables_number   1
_chemical_formula_structural   Yb5Pr15Si15Pd
_chemical_formula_sum   'Yb5 Pr15 Si15 Pd1'
_cell_volume   951.57636109
_cell_formula_units_Z   1
loop_
 _symmetry_equiv_pos_site_id
 _symmetry_equiv_pos_as_xyz
  1  'x, y, z'
loop_
 _atom_site_type_symbol
 _atom_site_label
 _atom_site_symmetry_multiplicity
 _atom_site_fract_x
 _atom_site_fract_y
 _atom_site_fract_z
 _atom_site_occupancy
  Yb  Yb0  1  0.309468  0.309049  0.999358  1
  Yb  Yb1  1  0.191803  0.811366  0.252484  1
  Yb  Yb2  1  0.812032  0.192325  0.747985  1
  Yb  Yb3  1  0.686512  0.692310  0.499340  1
  Yb  Yb4  1  0.376729  0.011635  0.450964  1
  Pr  Pr5  1  0.495664  0.876910  0.696923  1
  Pr  Pr6  1  0.508098  0.122530  0.199242  1
  Pr  Pr7  1  0.878687  0.490578  0.301366  1
  Pr  Pr8  1  0.123902  0.511631  0.800695  1
  Pr  Pr9  1  0.624980  0.991441  0.949094  1
  Pr  Pr10  1  0.998943  0.376451  0.549515  1
  Pr  Pr11  1  0.991823  0.623201  0.051622  1
  Pr  Pr12  1  0.130063  0.991832  0.873942  1
  Pr  Pr13  1  0.513252  0.626468  0.125447  1
  Pr  Pr14  1  0.480680  0.366408  0.628272  1
  Pr  Pr15  1  0.627103  0.512604  0.874615  1
  Pr  Pr16  1  0.372451  0.482459  0.375505  1
  Pr  Pr17  1  0.874269  0.014579  0.376217  1
  Pr  Pr18  1  0.988411  0.124033  0.124279  1
  Pr  Pr19  1  0.018384  0.877438  0.622612  1
  Si  Si20  1  0.332687  0.699743  0.948364  1
  Si  Si21  1  0.664193  0.299453  0.449797  1
  Si  Si22  1  0.703869  0.334346  0.053080  1
  Si  Si23  1  0.296272  0.661800  0.551595  1
  Si  Si24  1  0.800330  0.832538  0.199519  1
  Si  Si25  1  0.164758  0.202400  0.299627  1
  Si  Si26  1  0.834088  0.800904  0.799633  1
  Si  Si27  1  0.286858  0.919009  0.058126  1
  Si  Si28  1  0.582824  0.783056  0.307877  1
  Si  Si29  1  0.430404  0.207001  0.813912  1
  Si  Si30  1  0.785852  0.583358  0.689468  1
  Si  Si31  1  0.210860  0.422296  0.190406  1
  Si  Si32  1  0.711749  0.078785  0.558456  1
  Si  Si33  1  0.920675  0.288605  0.941708  1
  Si  Si34  1  0.077070  0.709037  0.440952  1
  Pd  Pd35  1  0.194254  0.172417  0.697999  1
