# generated using pymatgen
data_TaTi2Al2CoC
_symmetry_space_group_name_H-M   'P 1'
_cell_length_a   8.10505945
_cell_length_b   8.14875968
_cell_length_c   8.10505945
_cell_angle_alpha   120.17851614
_cell_angle_beta   89.38048605
_cell_angle_gamma   120.17851614
_symmetry_Int_Tables_number   1
_chemical_formula_structural   TaTi2Al2CoC
_chemical_formula_sum   'Ta4 Ti8 Al8 Co4 C4'
_cell_volume   378.49793680
_cell_formula_units_Z   4
loop_
 _symmetry_equiv_pos_site_id
 _symmetry_equiv_pos_as_xyz
  1  'x, y, z'
loop_
 _atom_site_type_symbol
 _atom_site_label
 _atom_site_symmetry_multiplicity
 _atom_site_fract_x
 _atom_site_fract_y
 _atom_site_fract_z
 _atom_site_occupancy
  Ta  Ta0  1  0.433735  0.750001  0.066265  1
  Ta  Ta1  1  0.183736  0.250001  0.316266  1
  Ta  Ta2  1  0.816265  0.750001  0.683736  1
  Ta  Ta3  1  0.566265  0.250001  0.933736  1
  Ti  Ti4  1  0.815027  0.750001  0.065027  1
  Ti  Ti5  1  0.815027  0.130055  0.065027  1
  Ti  Ti6  1  0.565027  0.250001  0.315027  1
  Ti  Ti7  1  0.565027  0.630054  0.315027  1
  Ti  Ti8  1  0.434973  0.750001  0.684974  1
  Ti  Ti9  1  0.434973  0.369945  0.684974  1
  Ti  Ti10  1  0.184974  0.250001  0.934975  1
  Ti  Ti11  1  0.184974  0.869947  0.934975  1
  Al  Al12  1  0.208167  0.585058  0.291833  1
  Al  Al13  1  0.876891  0.585058  0.293226  1
  Al  Al14  1  0.208167  0.914941  0.291833  1
  Al  Al15  1  0.793226  0.085059  0.376892  1
  Al  Al16  1  0.206774  0.914941  0.623108  1
  Al  Al17  1  0.123108  0.414941  0.706774  1
  Al  Al18  1  0.791833  0.085059  0.708167  1
  Al  Al19  1  0.791833  0.414941  0.708168  1
  Co  Co20  1  0.000000  0.500000  0.000000  1
  Co  Co21  1  0.000000  0.000000  0.500000  1
  Co  Co22  1  0.500000  0.000000  0.500000  1
  Co  Co23  1  0.000000  0.500000  0.500000  1
  C  C24  1  0.000000  0.000000  0.000000  1
  C  C25  1  0.500000  0.000000  0.000000  1
  C  C26  1  0.500000  0.500000  0.000000  1
  C  C27  1  0.500000  0.500000  0.500000  1
