# generated using pymatgen
data_TbPrUCo2Si7
_symmetry_space_group_name_H-M   'P 1'
_cell_length_a   4.04650520
_cell_length_b   4.07115000
_cell_length_c   12.41200478
_cell_angle_alpha   90.00000000
_cell_angle_beta   99.38152574
_cell_angle_gamma   90.00000000
_symmetry_Int_Tables_number   1
_chemical_formula_structural   TbPrUCo2Si7
_chemical_formula_sum   'Tb1 Pr1 U1 Co2 Si7'
_cell_volume   201.73960084
_cell_formula_units_Z   1
loop_
 _symmetry_equiv_pos_site_id
 _symmetry_equiv_pos_as_xyz
  1  'x, y, z'
loop_
 _atom_site_type_symbol
 _atom_site_label
 _atom_site_symmetry_multiplicity
 _atom_site_fract_x
 _atom_site_fract_y
 _atom_site_fract_z
 _atom_site_occupancy
  Tb  Tb0  1  0.682356  0.000000  0.364712  1
  Pr  Pr1  1  0.316128  0.000000  0.632257  1
  U  U2  1  0.000543  0.500000  0.001085  1
  Co  Co3  1  0.126247  0.500000  0.252495  1
  Co  Co4  1  0.874464  0.500000  0.748928  1
  Si  Si5  1  0.500284  0.000000  0.000568  1
  Si  Si6  1  0.415281  0.500000  0.830561  1
  Si  Si7  1  0.586075  0.500000  0.172150  1
  Si  Si8  1  0.086033  0.000000  0.172066  1
  Si  Si9  1  0.915422  0.000000  0.830844  1
  Si  Si10  1  0.219518  0.500000  0.439036  1
  Si  Si11  1  0.777649  0.500000  0.555297  1
