# generated using pymatgen
data_Y3HoAl17GaIr6
_symmetry_space_group_name_H-M   'P 1'
_cell_length_a   7.54317206
_cell_length_b   7.54408174
_cell_length_c   9.50172100
_cell_angle_alpha   90.00000000
_cell_angle_beta   90.00000000
_cell_angle_gamma   119.39119055
_symmetry_Int_Tables_number   1
_chemical_formula_structural   Y3HoAl17GaIr6
_chemical_formula_sum   'Y3 Ho1 Al17 Ga1 Ir6'
_cell_volume   471.11295173
_cell_formula_units_Z   1
loop_
 _symmetry_equiv_pos_site_id
 _symmetry_equiv_pos_as_xyz
  1  'x, y, z'
loop_
 _atom_site_type_symbol
 _atom_site_label
 _atom_site_symmetry_multiplicity
 _atom_site_fract_x
 _atom_site_fract_y
 _atom_site_fract_z
 _atom_site_occupancy
  Y  Y0  1  0.993737  0.674743  0.250000  1
  Y  Y1  1  0.004907  0.327656  0.750000  1
  Y  Y2  1  0.674776  0.993752  0.250000  1
  Ho  Ho3  1  0.327519  0.004837  0.750000  1
  Al  Al4  1  0.869702  0.869433  0.750000  1
  Al  Al5  1  0.001560  0.335930  0.073354  1
  Al  Al6  1  0.998749  0.664464  0.925766  1
  Al  Al7  1  0.998749  0.664464  0.574234  1
  Al  Al8  1  0.335928  0.001561  0.426910  1
  Al  Al9  1  0.001560  0.335930  0.426646  1
  Al  Al10  1  0.663927  0.998489  0.574251  1
  Al  Al11  1  0.663927  0.998489  0.925749  1
  Al  Al12  1  0.335928  0.001561  0.073090  1
  Al  Al13  1  0.333226  0.332986  0.553638  1
  Al  Al14  1  0.665652  0.665648  0.449850  1
  Al  Al15  1  0.665652  0.665648  0.050150  1
  Al  Al16  1  0.333226  0.332986  0.946362  1
  Al  Al17  1  0.338909  0.549677  0.250000  1
  Al  Al18  1  0.660285  0.450802  0.750000  1
  Al  Al19  1  0.549664  0.338883  0.250000  1
  Al  Al20  1  0.451146  0.660934  0.750000  1
  Ga  Ga21  1  0.135047  0.135043  0.250000  1
  Ir  Ir22  1  0.670968  0.327519  0.000023  1
  Ir  Ir23  1  0.327675  0.671286  0.999999  1
  Ir  Ir24  1  0.327675  0.671286  0.500001  1
  Ir  Ir25  1  0.670968  0.327519  0.499977  1
  Ir  Ir26  1  0.999468  0.999236  0.997502  1
  Ir  Ir27  1  0.999468  0.999236  0.502498  1
