# generated using pymatgen
data_TmLu2Ga5Ru
_symmetry_space_group_name_H-M   'P 1'
_cell_length_a   6.81495500
_cell_length_b   6.82587947
_cell_length_c   4.27575800
_cell_angle_alpha   90.00000000
_cell_angle_beta   90.00000000
_cell_angle_gamma   119.94707652
_symmetry_Int_Tables_number   1
_chemical_formula_structural   TmLu2Ga5Ru
_chemical_formula_sum   'Tm1 Lu2 Ga5 Ru1'
_cell_volume   172.34421712
_cell_formula_units_Z   1
loop_
 _symmetry_equiv_pos_site_id
 _symmetry_equiv_pos_as_xyz
  1  'x, y, z'
loop_
 _atom_site_type_symbol
 _atom_site_label
 _atom_site_symmetry_multiplicity
 _atom_site_fract_x
 _atom_site_fract_y
 _atom_site_fract_z
 _atom_site_occupancy
  Tm  Tm0  1  0.582834  0.000000  0.500000  1
  Lu  Lu1  1  0.416364  0.416338  0.500000  1
  Lu  Lu2  1  0.000026  0.583662  0.500000  1
  Ga  Ga3  1  0.235429  0.000000  0.000000  1
  Ga  Ga4  1  0.000168  0.235530  0.000000  1
  Ga  Ga5  1  0.666804  0.333775  0.000000  1
  Ga  Ga6  1  0.333028  0.666225  0.000000  1
  Ga  Ga7  1  0.764638  0.764470  0.000000  1
  Ru  Ru8  1  0.000709  0.000000  0.500000  1
