# generated using pymatgen
data_Yb2PrEr(Pt2O7)2
_symmetry_space_group_name_H-M   'P 1'
_cell_length_a   7.30628275
_cell_length_b   7.30628321
_cell_length_c   7.30654438
_cell_angle_alpha   59.89437500
_cell_angle_beta   59.89437650
_cell_angle_gamma   59.94764014
_symmetry_Int_Tables_number   1
_chemical_formula_structural   Yb2PrEr(Pt2O7)2
_chemical_formula_sum   'Yb2 Pr1 Er1 Pt4 O14'
_cell_volume   275.24738642
_cell_formula_units_Z   1
loop_
 _symmetry_equiv_pos_site_id
 _symmetry_equiv_pos_as_xyz
  1  'x, y, z'
loop_
 _atom_site_type_symbol
 _atom_site_label
 _atom_site_symmetry_multiplicity
 _atom_site_fract_x
 _atom_site_fract_y
 _atom_site_fract_z
 _atom_site_occupancy
  Yb  Yb0  1  0.625000  0.125000  0.625000  1
  Yb  Yb1  1  0.125000  0.625000  0.625000  1
  Pr  Pr2  1  0.625000  0.625000  0.625000  1
  Er  Er3  1  0.625000  0.625000  0.125000  1
  Pt  Pt4  1  0.625000  0.125000  0.125000  1
  Pt  Pt5  1  0.125000  0.125000  0.125000  1
  Pt  Pt6  1  0.125000  0.625000  0.125000  1
  Pt  Pt7  1  0.125000  0.125000  0.625000  1
  O  O8  1  0.044709  0.458928  0.457896  1
  O  O9  1  0.789846  0.789846  0.201086  1
  O  O10  1  0.790633  0.216974  0.201825  1
  O  O11  1  0.033026  0.459367  0.048175  1
  O  O12  1  0.458928  0.044709  0.457896  1
  O  O13  1  0.749109  0.749109  0.761929  1
  O  O14  1  0.042276  0.042276  0.456701  1
  O  O15  1  0.791072  0.205291  0.792104  1
  O  O16  1  0.500891  0.500891  0.488071  1
  O  O17  1  0.207724  0.207724  0.793299  1
  O  O18  1  0.216974  0.790633  0.201825  1
  O  O19  1  0.459367  0.033026  0.048175  1
  O  O20  1  0.460154  0.460154  0.048914  1
  O  O21  1  0.205291  0.791072  0.792104  1
