# generated using pymatgen
data_POsO5
_symmetry_space_group_name_H-M   'P 1'
_cell_length_a   8.78137687
_cell_length_b   8.78137659
_cell_length_c   5.19423725
_cell_angle_alpha   90.50484753
_cell_angle_beta   90.50485307
_cell_angle_gamma   91.65982741
_symmetry_Int_Tables_number   1
_chemical_formula_structural   POsO5
_chemical_formula_sum   'P4 Os4 O20'
_cell_volume   400.34094828
_cell_formula_units_Z   4
loop_
 _symmetry_equiv_pos_site_id
 _symmetry_equiv_pos_as_xyz
  1  'x, y, z'
loop_
 _atom_site_type_symbol
 _atom_site_label
 _atom_site_symmetry_multiplicity
 _atom_site_fract_x
 _atom_site_fract_y
 _atom_site_fract_z
 _atom_site_occupancy
  P  P0  1  0.154129  0.610385  0.777673  1
  P  P1  1  0.389615  0.845871  0.722327  1
  P  P2  1  0.845871  0.389615  0.222327  1
  P  P3  1  0.610385  0.154129  0.277673  1
  Os  Os4  1  0.051404  0.243460  0.745287  1
  Os  Os5  1  0.756540  0.948596  0.754713  1
  Os  Os6  1  0.948596  0.756540  0.254713  1
  Os  Os7  1  0.243460  0.051404  0.245287  1
  O  O8  1  0.301985  0.942561  0.910100  1
  O  O9  1  0.057439  0.698015  0.589900  1
  O  O10  1  0.698015  0.057439  0.089900  1
  O  O11  1  0.942561  0.301985  0.410100  1
  O  O12  1  0.672133  0.327867  0.250000  1
  O  O13  1  0.327867  0.672133  0.750000  1
  O  O14  1  0.558756  0.829453  0.786160  1
  O  O15  1  0.170547  0.441244  0.713840  1
  O  O16  1  0.441244  0.170547  0.213840  1
  O  O17  1  0.829453  0.558756  0.286160  1
  O  O18  1  0.891167  0.363234  0.940337  1
  O  O19  1  0.636766  0.108833  0.559663  1
  O  O20  1  0.108833  0.636766  0.059663  1
  O  O21  1  0.363234  0.891167  0.440337  1
  O  O22  1  0.929788  0.070212  0.750000  1
  O  O23  1  0.070212  0.929788  0.250000  1
  O  O24  1  0.209527  0.160075  0.546548  1
  O  O25  1  0.839925  0.790473  0.953452  1
  O  O26  1  0.790473  0.839925  0.453452  1
  O  O27  1  0.160075  0.209527  0.046548  1
