# generated using pymatgen
data_TbSm5Al18(Si3Os4)2
_symmetry_space_group_name_H-M   'P 1'
_cell_length_a   8.75468807
_cell_length_b   8.72475792
_cell_length_c   9.60819300
_cell_angle_alpha   90.00000000
_cell_angle_beta   90.00000000
_cell_angle_gamma   120.12760329
_symmetry_Int_Tables_number   1
_chemical_formula_structural   TbSm5Al18(Si3Os4)2
_chemical_formula_sum   'Tb1 Sm5 Al18 Si6 Os8'
_cell_volume   634.75561675
_cell_formula_units_Z   1
loop_
 _symmetry_equiv_pos_site_id
 _symmetry_equiv_pos_as_xyz
  1  'x, y, z'
loop_
 _atom_site_type_symbol
 _atom_site_label
 _atom_site_symmetry_multiplicity
 _atom_site_fract_x
 _atom_site_fract_y
 _atom_site_fract_z
 _atom_site_occupancy
  Tb  Tb0  1  0.802730  0.191975  0.750000  1
  Sm  Sm1  1  0.191698  0.383374  0.250000  1
  Sm  Sm2  1  0.808306  0.616235  0.750000  1
  Sm  Sm3  1  0.613342  0.809154  0.250000  1
  Sm  Sm4  1  0.386976  0.190842  0.750000  1
  Sm  Sm5  1  0.195973  0.809040  0.250000  1
  Al  Al6  1  0.164706  0.330283  0.577748  1
  Al  Al7  1  0.834601  0.669276  0.422779  1
  Al  Al8  1  0.670294  0.834892  0.576010  1
  Al  Al9  1  0.834601  0.669276  0.077221  1
  Al  Al10  1  0.330102  0.165802  0.424560  1
  Al  Al11  1  0.164706  0.330283  0.922252  1
  Al  Al12  1  0.164322  0.834224  0.575726  1
  Al  Al13  1  0.330102  0.165802  0.075440  1
  Al  Al14  1  0.835655  0.165732  0.425217  1
  Al  Al15  1  0.670294  0.834892  0.923990  1
  Al  Al16  1  0.835655  0.165732  0.074783  1
  Al  Al17  1  0.164322  0.834224  0.924274  1
  Al  Al18  1  0.871084  0.431955  0.250000  1
  Al  Al19  1  0.128146  0.566922  0.750000  1
  Al  Al20  1  0.561020  0.432041  0.250000  1
  Al  Al21  1  0.438913  0.568043  0.750000  1
  Al  Al22  1  0.999283  0.998488  0.250000  1
  Al  Al23  1  0.999785  0.002350  0.750000  1
  Si  Si24  1  0.332017  0.663729  0.035907  1
  Si  Si25  1  0.668555  0.335591  0.962994  1
  Si  Si26  1  0.668555  0.335591  0.537006  1
  Si  Si27  1  0.332017  0.663729  0.464093  1
  Si  Si28  1  0.564273  0.128379  0.250000  1
  Si  Si29  1  0.437106  0.872562  0.750000  1
  Os  Os30  1  0.500709  0.000472  0.999238  1
  Os  Os31  1  0.999613  0.499360  0.999389  1
  Os  Os32  1  0.500709  0.000472  0.500762  1
  Os  Os33  1  0.500170  0.499890  0.999825  1
  Os  Os34  1  0.999613  0.499360  0.500611  1
  Os  Os35  1  0.500170  0.499890  0.500175  1
  Os  Os36  1  0.999940  0.000069  0.999900  1
  Os  Os37  1  0.999940  0.000069  0.500100  1
