# generated using pymatgen
data_YHo2Er6ScCd3Ru
_symmetry_space_group_name_H-M   'P 1'
_cell_length_a   9.47222711
_cell_length_b   9.47883864
_cell_length_c   9.69641000
_cell_angle_alpha   90.00000000
_cell_angle_beta   90.00000000
_cell_angle_gamma   119.95701189
_symmetry_Int_Tables_number   1
_chemical_formula_structural   YHo2Er6ScCd3Ru
_chemical_formula_sum   'Y2 Ho4 Er12 Sc2 Cd6 Ru2'
_cell_volume   754.28730499
_cell_formula_units_Z   2
loop_
 _symmetry_equiv_pos_site_id
 _symmetry_equiv_pos_as_xyz
  1  'x, y, z'
loop_
 _atom_site_type_symbol
 _atom_site_label
 _atom_site_symmetry_multiplicity
 _atom_site_fract_x
 _atom_site_fract_y
 _atom_site_fract_z
 _atom_site_occupancy
  Y  Y0  1  0.459402  0.918969  0.750000  1
  Y  Y1  1  0.081097  0.540667  0.750000  1
  Ho  Ho2  1  0.540619  0.459407  0.250000  1
  Ho  Ho3  1  0.540624  0.081062  0.250000  1
  Ho  Ho4  1  0.918874  0.459355  0.250000  1
  Ho  Ho5  1  0.459507  0.540438  0.750000  1
  Er  Er6  1  0.208578  0.791400  0.441052  1
  Er  Er7  1  0.208709  0.417153  0.441014  1
  Er  Er8  1  0.582878  0.791351  0.441032  1
  Er  Er9  1  0.791357  0.208623  0.558979  1
  Er  Er10  1  0.791366  0.582907  0.559069  1
  Er  Er11  1  0.417117  0.208672  0.559080  1
  Er  Er12  1  0.791357  0.208623  0.941021  1
  Er  Er13  1  0.791366  0.582907  0.940931  1
  Er  Er14  1  0.417117  0.208672  0.940920  1
  Er  Er15  1  0.208578  0.791400  0.058948  1
  Er  Er16  1  0.208709  0.417153  0.058986  1
  Er  Er17  1  0.582878  0.791351  0.058968  1
  Sc  Sc18  1  0.999948  0.999993  0.499984  1
  Sc  Sc19  1  0.999948  0.999993  0.000016  1
  Cd  Cd20  1  0.888649  0.111355  0.250000  1
  Cd  Cd21  1  0.888550  0.777231  0.250000  1
  Cd  Cd22  1  0.222723  0.111426  0.250000  1
  Cd  Cd23  1  0.111273  0.888672  0.750000  1
  Cd  Cd24  1  0.111480  0.222801  0.750000  1
  Cd  Cd25  1  0.777279  0.888509  0.750000  1
  Ru  Ru26  1  0.333330  0.666780  0.250000  1
  Ru  Ru27  1  0.666685  0.333130  0.750000  1
