# generated using pymatgen
data_Ce2Sm2Zn7NiRu2
_symmetry_space_group_name_H-M   'P 1'
_cell_length_a   7.15974620
_cell_length_b   7.15974620
_cell_length_c   5.11341156
_cell_angle_alpha   90.32562505
_cell_angle_beta   90.32562505
_cell_angle_gamma   90.33844210
_symmetry_Int_Tables_number   1
_chemical_formula_structural   Ce2Sm2Zn7NiRu2
_chemical_formula_sum   'Ce2 Sm2 Zn7 Ni1 Ru2'
_cell_volume   262.11043840
_cell_formula_units_Z   1
loop_
 _symmetry_equiv_pos_site_id
 _symmetry_equiv_pos_as_xyz
  1  'x, y, z'
loop_
 _atom_site_type_symbol
 _atom_site_label
 _atom_site_symmetry_multiplicity
 _atom_site_fract_x
 _atom_site_fract_y
 _atom_site_fract_z
 _atom_site_occupancy
  Ce  Ce0  1  0.009864  0.990993  0.011738  1
  Ce  Ce1  1  0.490993  0.509864  0.011738  1
  Sm  Sm2  1  0.006064  0.506064  0.764939  1
  Sm  Sm3  1  0.494129  0.994129  0.234797  1
  Zn  Zn4  1  0.823966  0.684031  0.293112  1
  Zn  Zn5  1  0.808494  0.308494  0.287028  1
  Zn  Zn6  1  0.316678  0.185719  0.713666  1
  Zn  Zn7  1  0.184031  0.323966  0.293112  1
  Zn  Zn8  1  0.690305  0.190305  0.727391  1
  Zn  Zn9  1  0.685719  0.816678  0.713666  1
  Zn  Zn10  1  0.303760  0.803760  0.686346  1
  Ni  Ni11  1  0.182154  0.682154  0.249919  1
  Ru  Ru12  1  0.504893  0.498949  0.506274  1
  Ru  Ru13  1  0.998949  0.004893  0.506274  1
