# generated using pymatgen
data_LiTmBPt6
_symmetry_space_group_name_H-M   'P 1'
_cell_length_a   5.81656967
_cell_length_b   5.81656954
_cell_length_c   5.81656900
_cell_angle_alpha   59.99999739
_cell_angle_beta   59.99999811
_cell_angle_gamma   59.99999801
_symmetry_Int_Tables_number   1
_chemical_formula_structural   LiTmBPt6
_chemical_formula_sum   'Li1 Tm1 B1 Pt6'
_cell_volume   139.15080535
_cell_formula_units_Z   1
loop_
 _symmetry_equiv_pos_site_id
 _symmetry_equiv_pos_as_xyz
  1  'x, y, z'
loop_
 _atom_site_type_symbol
 _atom_site_label
 _atom_site_symmetry_multiplicity
 _atom_site_fract_x
 _atom_site_fract_y
 _atom_site_fract_z
 _atom_site_occupancy
  Li  Li0  1  0.250000  0.250000  0.250000  1
  Tm  Tm1  1  0.750000  0.750000  0.750000  1
  B  B2  1  0.000000  0.000000  0.000000  1
  Pt  Pt3  1  0.257667  0.742334  0.257667  1
  Pt  Pt4  1  0.742334  0.257667  0.257667  1
  Pt  Pt5  1  0.742334  0.742334  0.257667  1
  Pt  Pt6  1  0.257667  0.257667  0.742334  1
  Pt  Pt7  1  0.742334  0.257667  0.742334  1
  Pt  Pt8  1  0.257667  0.742334  0.742334  1
