# generated using pymatgen
data_ErTh3Zn2(HgRh2)2
_symmetry_space_group_name_H-M   'P 1'
_cell_length_a   3.94561000
_cell_length_b   7.36301716
_cell_length_c   8.73964780
_cell_angle_alpha   90.90422316
_cell_angle_beta   90.00000000
_cell_angle_gamma   90.00000000
_symmetry_Int_Tables_number   1
_chemical_formula_structural   ErTh3Zn2(HgRh2)2
_chemical_formula_sum   'Er1 Th3 Zn2 Hg2 Rh4'
_cell_volume   253.86908289
_cell_formula_units_Z   1
loop_
 _symmetry_equiv_pos_site_id
 _symmetry_equiv_pos_as_xyz
  1  'x, y, z'
loop_
 _atom_site_type_symbol
 _atom_site_label
 _atom_site_symmetry_multiplicity
 _atom_site_fract_x
 _atom_site_fract_y
 _atom_site_fract_z
 _atom_site_occupancy
  Er  Er0  1  0.250000  0.056966  0.307650  1
  Th  Th1  1  0.250000  0.555977  0.195574  1
  Th  Th2  1  0.750000  0.449031  0.816589  1
  Th  Th3  1  0.750000  0.945289  0.676929  1
  Zn  Zn4  1  0.250000  0.626983  0.557525  1
  Zn  Zn5  1  0.250000  0.130018  0.943400  1
  Hg  Hg6  1  0.750000  0.357283  0.441855  1
  Hg  Hg7  1  0.750000  0.883760  0.062484  1
  Rh  Rh8  1  0.250000  0.727756  0.851125  1
  Rh  Rh9  1  0.750000  0.282294  0.117794  1
  Rh  Rh10  1  0.750000  0.761755  0.375996  1
  Rh  Rh11  1  0.250000  0.222888  0.653079  1
