# generated using pymatgen
data_Lu16InAg3Rh4
_symmetry_space_group_name_H-M   'P 1'
_cell_length_a   9.37004328
_cell_length_b   9.38248346
_cell_length_c   9.38248300
_cell_angle_alpha   60.00000515
_cell_angle_beta   59.95607699
_cell_angle_gamma   59.95607627
_symmetry_Int_Tables_number   1
_chemical_formula_structural   Lu16InAg3Rh4
_chemical_formula_sum   'Lu16 In1 Ag3 Rh4'
_cell_volume   582.87249475
_cell_formula_units_Z   1
loop_
 _symmetry_equiv_pos_site_id
 _symmetry_equiv_pos_as_xyz
  1  'x, y, z'
loop_
 _atom_site_type_symbol
 _atom_site_label
 _atom_site_symmetry_multiplicity
 _atom_site_fract_x
 _atom_site_fract_y
 _atom_site_fract_z
 _atom_site_occupancy
  Lu  Lu0  1  0.600799  0.601179  0.601179  1
  Lu  Lu1  1  0.600799  0.601179  0.196844  1
  Lu  Lu2  1  0.600799  0.196844  0.601179  1
  Lu  Lu3  1  0.197554  0.600816  0.600816  1
  Lu  Lu4  1  0.061144  0.439103  0.439103  1
  Lu  Lu5  1  0.439151  0.060522  0.060522  1
  Lu  Lu6  1  0.439151  0.060522  0.439806  1
  Lu  Lu7  1  0.061144  0.439103  0.060650  1
  Lu  Lu8  1  0.439151  0.439806  0.060522  1
  Lu  Lu9  1  0.061144  0.060650  0.439103  1
  Lu  Lu10  1  0.183098  0.813908  0.813908  1
  Lu  Lu11  1  0.813049  0.186630  0.186630  1
  Lu  Lu12  1  0.813049  0.186630  0.813691  1
  Lu  Lu13  1  0.183098  0.813908  0.189085  1
  Lu  Lu14  1  0.813049  0.813691  0.186630  1
  Lu  Lu15  1  0.183098  0.189085  0.813908  1
  In  In16  1  0.507883  0.830706  0.830706  1
  Ag  Ag17  1  0.834089  0.833138  0.833138  1
  Ag  Ag18  1  0.834089  0.833138  0.499635  1
  Ag  Ag19  1  0.834089  0.499635  0.833138  1
  Rh  Rh20  1  0.392968  0.392663  0.392663  1
  Rh  Rh21  1  0.392968  0.392663  0.821705  1
  Rh  Rh22  1  0.392968  0.821705  0.392663  1
  Rh  Rh23  1  0.821672  0.392776  0.392776  1
