# generated using pymatgen
data_Ba3P6Os5Rh
_symmetry_space_group_name_H-M   'P 1'
_cell_length_a   8.92238018
_cell_length_b   8.91789925
_cell_length_c   8.91790053
_cell_angle_alpha   153.50593129
_cell_angle_beta   92.03814877
_cell_angle_gamma   93.97963611
_symmetry_Int_Tables_number   1
_chemical_formula_structural   Ba3P6Os5Rh
_chemical_formula_sum   'Ba3 P6 Os5 Rh1'
_cell_volume   308.08698957
_cell_formula_units_Z   1
loop_
 _symmetry_equiv_pos_site_id
 _symmetry_equiv_pos_as_xyz
  1  'x, y, z'
loop_
 _atom_site_type_symbol
 _atom_site_label
 _atom_site_symmetry_multiplicity
 _atom_site_fract_x
 _atom_site_fract_y
 _atom_site_fract_z
 _atom_site_occupancy
  Ba  Ba0  1  0.332909  0.332297  0.000611  1
  Ba  Ba1  1  0.665242  0.666930  0.998312  1
  Ba  Ba2  1  0.001522  0.000867  0.000655  1
  P  P3  1  0.322506  0.666585  0.655921  1
  P  P4  1  0.679215  0.334662  0.344553  1
  P  P5  1  0.990429  0.335564  0.654865  1
  P  P6  1  0.343688  0.998792  0.344896  1
  P  P7  1  0.012039  0.666473  0.345566  1
  P  P8  1  0.652314  0.997886  0.654428  1
  Os  Os9  1  0.584420  0.834251  0.750168  1
  Os  Os10  1  0.249559  0.499022  0.750536  1
  Os  Os11  1  0.751284  0.502131  0.249151  1
  Os  Os12  1  0.080812  0.831238  0.249574  1
  Os  Os13  1  0.417304  0.166683  0.250623  1
  Rh  Rh14  1  0.916758  0.166618  0.750140  1
