# generated using pymatgen
data_YHo5(CI5)2
_symmetry_space_group_name_H-M   'P 1'
_cell_length_a   7.61880181
_cell_length_b   9.49142344
_cell_length_c   9.54653300
_cell_angle_alpha   106.83899747
_cell_angle_beta   96.28796287
_cell_angle_gamma   104.30629074
_symmetry_Int_Tables_number   1
_chemical_formula_structural   YHo5(CI5)2
_chemical_formula_sum   'Y1 Ho5 C2 I10'
_cell_volume   627.92448367
_cell_formula_units_Z   1
loop_
 _symmetry_equiv_pos_site_id
 _symmetry_equiv_pos_as_xyz
  1  'x, y, z'
loop_
 _atom_site_type_symbol
 _atom_site_label
 _atom_site_symmetry_multiplicity
 _atom_site_fract_x
 _atom_site_fract_y
 _atom_site_fract_z
 _atom_site_occupancy
  Y  Y0  1  0.104402  0.038429  0.781589  1
  Ho  Ho1  1  0.373436  0.130805  0.176178  1
  Ho  Ho2  1  0.896099  0.961680  0.217393  1
  Ho  Ho3  1  0.029513  0.746077  0.926342  1
  Ho  Ho4  1  0.970983  0.253711  0.073011  1
  Ho  Ho5  1  0.626504  0.869103  0.823794  1
  C  C6  1  0.907418  0.969688  0.959647  1
  C  C7  1  0.091630  0.029697  0.042358  1
  I  I8  1  0.195011  0.736135  0.650915  1
  I  I9  1  0.086400  0.364850  0.823813  1
  I  I10  1  0.456204  0.810905  0.093756  1
  I  I11  1  0.253300  0.083538  0.455819  1
  I  I12  1  0.545898  0.190065  0.907137  1
  I  I13  1  0.805943  0.261513  0.348490  1
  I  I14  1  0.342703  0.449765  0.271129  1
  I  I15  1  0.913331  0.638261  0.177290  1
  I  I16  1  0.657387  0.550224  0.728758  1
  I  I17  1  0.743837  0.915552  0.542581  1
