# generated using pymatgen
data_LiLa6Rh17
_symmetry_space_group_name_H-M   'P 1'
_cell_length_a   5.37903300
_cell_length_b   5.37903119
_cell_length_c   17.64933900
_cell_angle_alpha   90.00000000
_cell_angle_beta   90.00000000
_cell_angle_gamma   119.99999269
_symmetry_Int_Tables_number   1
_chemical_formula_structural   LiLa6Rh17
_chemical_formula_sum   'Li1 La6 Rh17'
_cell_volume   442.24952959
_cell_formula_units_Z   1
loop_
 _symmetry_equiv_pos_site_id
 _symmetry_equiv_pos_as_xyz
  1  'x, y, z'
loop_
 _atom_site_type_symbol
 _atom_site_label
 _atom_site_symmetry_multiplicity
 _atom_site_fract_x
 _atom_site_fract_y
 _atom_site_fract_z
 _atom_site_occupancy
  Li  Li0  1  0.000000  0.000000  0.250000  1
  La  La1  1  0.333333  0.666667  0.538320  1
  La  La2  1  0.666667  0.333333  0.044610  1
  La  La3  1  0.666667  0.333333  0.455390  1
  La  La4  1  0.333333  0.666667  0.961680  1
  La  La5  1  0.333333  0.666667  0.750000  1
  La  La6  1  0.666667  0.333333  0.250000  1
  Rh  Rh7  1  0.166448  0.332895  0.128583  1
  Rh  Rh8  1  0.833193  0.666385  0.626676  1
  Rh  Rh9  1  0.667105  0.833552  0.128583  1
  Rh  Rh10  1  0.166448  0.833552  0.128583  1
  Rh  Rh11  1  0.833193  0.166807  0.626676  1
  Rh  Rh12  1  0.333615  0.166807  0.626676  1
  Rh  Rh13  1  0.833193  0.666385  0.873324  1
  Rh  Rh14  1  0.833193  0.166807  0.873324  1
  Rh  Rh15  1  0.333615  0.166807  0.873324  1
  Rh  Rh16  1  0.667105  0.833552  0.371417  1
  Rh  Rh17  1  0.166448  0.833552  0.371417  1
  Rh  Rh18  1  0.166448  0.332895  0.371417  1
  Rh  Rh19  1  0.000000  0.000000  0.750000  1
  Rh  Rh20  1  0.333333  0.666667  0.250000  1
  Rh  Rh21  1  0.666667  0.333333  0.750000  1
  Rh  Rh22  1  0.000000  0.000000  0.001725  1
  Rh  Rh23  1  0.000000  0.000000  0.498275  1
