# generated using pymatgen
data_HoCoTeO6
_symmetry_space_group_name_H-M   'P 1'
_cell_length_a   5.04759358
_cell_length_b   5.04111862
_cell_length_c   4.77471600
_cell_angle_alpha   90.90922498
_cell_angle_beta   90.73346052
_cell_angle_gamma   117.85665843
_symmetry_Int_Tables_number   1
_chemical_formula_structural   HoCoTeO6
_chemical_formula_sum   'Ho1 Co1 Te1 O6'
_cell_volume   107.37457588
_cell_formula_units_Z   1
loop_
 _symmetry_equiv_pos_site_id
 _symmetry_equiv_pos_as_xyz
  1  'x, y, z'
loop_
 _atom_site_type_symbol
 _atom_site_label
 _atom_site_symmetry_multiplicity
 _atom_site_fract_x
 _atom_site_fract_y
 _atom_site_fract_z
 _atom_site_occupancy
  Ho  Ho0  1  0.521018  0.479209  0.500105  1
  Co  Co1  1  0.849137  0.150710  0.000012  1
  Te  Te2  1  0.185606  0.814481  0.999927  1
  O  O3  1  0.154287  0.124383  0.223133  1
  O  O4  1  0.528671  0.852489  0.221854  1
  O  O5  1  0.887106  0.490427  0.221534  1
  O  O6  1  0.510033  0.112940  0.778814  1
  O  O7  1  0.147109  0.470723  0.777778  1
  O  O8  1  0.876365  0.845324  0.776878  1
