# generated using pymatgen
data_YbEr3OsRu7
_symmetry_space_group_name_H-M   'P 1'
_cell_length_a   5.24908825
_cell_length_b   5.36747099
_cell_length_c   8.83218229
_cell_angle_alpha   89.99999842
_cell_angle_beta   90.02506626
_cell_angle_gamma   120.74889353
_symmetry_Int_Tables_number   1
_chemical_formula_structural   YbEr3OsRu7
_chemical_formula_sum   'Yb1 Er3 Os1 Ru7'
_cell_volume   213.85781604
_cell_formula_units_Z   1
loop_
 _symmetry_equiv_pos_site_id
 _symmetry_equiv_pos_as_xyz
  1  'x, y, z'
loop_
 _atom_site_type_symbol
 _atom_site_label
 _atom_site_symmetry_multiplicity
 _atom_site_fract_x
 _atom_site_fract_y
 _atom_site_fract_z
 _atom_site_occupancy
  Yb  Yb0  1  0.323734  0.661867  0.065026  1
  Er  Er1  1  0.326257  0.663129  0.427557  1
  Er  Er2  1  0.656562  0.328281  0.566672  1
  Er  Er3  1  0.654422  0.327211  0.938071  1
  Os  Os4  1  0.686376  0.843188  0.751212  1
  Ru  Ru5  1  0.971317  0.985658  0.500727  1
  Ru  Ru6  1  0.969725  0.984863  0.000492  1
  Ru  Ru7  1  0.837336  0.164898  0.250476  1
  Ru  Ru8  1  0.837336  0.672439  0.250476  1
  Ru  Ru9  1  0.366113  0.183056  0.251874  1
  Ru  Ru10  1  0.185409  0.827357  0.748709  1
  Ru  Ru11  1  0.185409  0.358054  0.748709  1
