# generated using pymatgen
data_KSm2Ag3Te5
_symmetry_space_group_name_H-M   'P 1'
_cell_length_a   4.61615800
_cell_length_b   8.38490376
_cell_length_c   18.55837000
_cell_angle_alpha   90.00000000
_cell_angle_beta   90.00000000
_cell_angle_gamma   74.02213278
_symmetry_Int_Tables_number   1
_chemical_formula_structural   KSm2Ag3Te5
_chemical_formula_sum   'K2 Sm4 Ag6 Te10'
_cell_volume   690.57091656
_cell_formula_units_Z   2
loop_
 _symmetry_equiv_pos_site_id
 _symmetry_equiv_pos_as_xyz
  1  'x, y, z'
loop_
 _atom_site_type_symbol
 _atom_site_label
 _atom_site_symmetry_multiplicity
 _atom_site_fract_x
 _atom_site_fract_y
 _atom_site_fract_z
 _atom_site_occupancy
  K  K0  1  0.560512  0.878978  0.250000  1
  K  K1  1  0.439488  0.121022  0.750000  1
  Sm  Sm2  1  0.311423  0.377153  0.094148  1
  Sm  Sm3  1  0.311423  0.377153  0.405852  1
  Sm  Sm4  1  0.688576  0.622848  0.594148  1
  Sm  Sm5  1  0.688576  0.622848  0.905851  1
  Ag  Ag6  1  0.089294  0.821408  0.025172  1
  Ag  Ag7  1  0.834138  0.331724  0.250000  1
  Ag  Ag8  1  0.089294  0.821408  0.474828  1
  Ag  Ag9  1  0.910705  0.178592  0.525172  1
  Ag  Ag10  1  0.165861  0.668276  0.750000  1
  Ag  Ag11  1  0.910705  0.178592  0.974828  1
  Te  Te12  1  0.673727  0.652547  0.075219  1
  Te  Te13  1  0.943450  0.113102  0.124735  1
  Te  Te14  1  0.236593  0.526812  0.250000  1
  Te  Te15  1  0.943450  0.113102  0.375264  1
  Te  Te16  1  0.673727  0.652547  0.424782  1
  Te  Te17  1  0.326272  0.347453  0.575218  1
  Te  Te18  1  0.056550  0.886898  0.624736  1
  Te  Te19  1  0.763406  0.473187  0.750000  1
  Te  Te20  1  0.056550  0.886898  0.875265  1
  Te  Te21  1  0.326272  0.347453  0.924782  1
