# generated using pymatgen
data_Nd4Dy4Re(TcB8)3
_symmetry_space_group_name_H-M   'P 1'
_cell_length_a   3.74132100
_cell_length_b   9.24538560
_cell_length_c   11.69777001
_cell_angle_alpha   90.01798855
_cell_angle_beta   90.00000000
_cell_angle_gamma   90.00000000
_symmetry_Int_Tables_number   1
_chemical_formula_structural   Nd4Dy4Re(TcB8)3
_chemical_formula_sum   'Nd4 Dy4 Re1 Tc3 B24'
_cell_volume   404.62532196
_cell_formula_units_Z   1
loop_
 _symmetry_equiv_pos_site_id
 _symmetry_equiv_pos_as_xyz
  1  'x, y, z'
loop_
 _atom_site_type_symbol
 _atom_site_label
 _atom_site_symmetry_multiplicity
 _atom_site_fract_x
 _atom_site_fract_y
 _atom_site_fract_z
 _atom_site_occupancy
  Nd  Nd0  1  0.000000  0.323357  0.414264  1
  Nd  Nd1  1  0.000000  0.676890  0.585702  1
  Nd  Nd2  1  0.000000  0.823166  0.085947  1
  Nd  Nd3  1  0.000000  0.177071  0.914408  1
  Dy  Dy4  1  0.000000  0.942301  0.368469  1
  Dy  Dy5  1  0.000000  0.058177  0.630646  1
  Dy  Dy6  1  0.000000  0.442289  0.131542  1
  Dy  Dy7  1  0.000000  0.556616  0.869032  1
  Re  Re8  1  0.000000  0.861022  0.819532  1
  Tc  Tc9  1  0.000000  0.639333  0.319411  1
  Tc  Tc10  1  0.000000  0.360701  0.680541  1
  Tc  Tc11  1  0.000000  0.139186  0.180595  1
  B  B12  1  0.500000  0.555085  0.430672  1
  B  B13  1  0.500000  0.445183  0.569391  1
  B  B14  1  0.500000  0.054985  0.069371  1
  B  B15  1  0.500000  0.945187  0.930819  1
  B  B16  1  0.500000  0.749271  0.416021  1
  B  B17  1  0.500000  0.251139  0.583880  1
  B  B18  1  0.500000  0.249186  0.084029  1
  B  B19  1  0.500000  0.750442  0.916184  1
  B  B20  1  0.500000  0.790646  0.266136  1
  B  B21  1  0.500000  0.209280  0.733709  1
  B  B22  1  0.500000  0.290603  0.233910  1
  B  B23  1  0.500000  0.708985  0.766190  1
  B  B24  1  0.500000  0.629655  0.186845  1
  B  B25  1  0.500000  0.370136  0.813139  1
  B  B26  1  0.500000  0.129779  0.313257  1
  B  B27  1  0.500000  0.870420  0.686618  1
  B  B28  1  0.500000  0.984160  0.212679  1
  B  B29  1  0.500000  0.016130  0.787087  1
  B  B30  1  0.500000  0.484159  0.287328  1
  B  B31  1  0.500000  0.515850  0.712849  1
  B  B32  1  0.500000  0.596448  0.026942  1
  B  B33  1  0.500000  0.402959  0.973307  1
  B  B34  1  0.500000  0.096652  0.472812  1
  B  B35  1  0.500000  0.903555  0.526736  1
