# generated using pymatgen
data_LaNb8InSe16
_symmetry_space_group_name_H-M   'P 1'
_cell_length_a   7.01097900
_cell_length_b   7.01097795
_cell_length_c   16.02862500
_cell_angle_alpha   90.00000000
_cell_angle_beta   90.00000000
_cell_angle_gamma   120.00000022
_symmetry_Int_Tables_number   1
_chemical_formula_structural   LaNb8InSe16
_chemical_formula_sum   'La1 Nb8 In1 Se16'
_cell_volume   682.31381853
_cell_formula_units_Z   1
loop_
 _symmetry_equiv_pos_site_id
 _symmetry_equiv_pos_as_xyz
  1  'x, y, z'
loop_
 _atom_site_type_symbol
 _atom_site_label
 _atom_site_symmetry_multiplicity
 _atom_site_fract_x
 _atom_site_fract_y
 _atom_site_fract_z
 _atom_site_occupancy
  La  La0  1  0.000000  0.000000  0.000000  1
  Nb  Nb1  1  0.992258  0.496129  0.243251  1
  Nb  Nb2  1  0.007742  0.503871  0.756749  1
  Nb  Nb3  1  0.496129  0.503871  0.756749  1
  Nb  Nb4  1  0.503871  0.007742  0.243251  1
  Nb  Nb5  1  0.000000  0.000000  0.759072  1
  Nb  Nb6  1  0.000000  0.000000  0.240928  1
  Nb  Nb7  1  0.503871  0.496129  0.243251  1
  Nb  Nb8  1  0.496129  0.992258  0.756749  1
  In  In9  1  0.000000  0.000000  0.500000  1
  Se  Se10  1  0.333333  0.666667  0.652267  1
  Se  Se11  1  0.666667  0.333333  0.137400  1
  Se  Se12  1  0.666667  0.333333  0.347733  1
  Se  Se13  1  0.333333  0.666667  0.862600  1
  Se  Se14  1  0.165660  0.331322  0.345076  1
  Se  Se15  1  0.830726  0.169274  0.862014  1
  Se  Se16  1  0.338550  0.169274  0.862014  1
  Se  Se17  1  0.668678  0.834340  0.345076  1
  Se  Se18  1  0.165660  0.834340  0.345076  1
  Se  Se19  1  0.830726  0.661450  0.862014  1
  Se  Se20  1  0.169274  0.338550  0.137986  1
  Se  Se21  1  0.834340  0.165660  0.654924  1
  Se  Se22  1  0.331322  0.165660  0.654924  1
  Se  Se23  1  0.661450  0.830726  0.137986  1
  Se  Se24  1  0.169274  0.830726  0.137986  1
  Se  Se25  1  0.834340  0.668678  0.654924  1
