# generated using pymatgen
data_SrDyErGa8Ag3
_symmetry_space_group_name_H-M   'P 1'
_cell_length_a   4.38898091
_cell_length_b   8.48293915
_cell_length_c   8.48294007
_cell_angle_alpha   68.76755130
_cell_angle_beta   75.00737719
_cell_angle_gamma   75.00737490
_symmetry_Int_Tables_number   1
_chemical_formula_structural   SrDyErGa8Ag3
_chemical_formula_sum   'Sr1 Dy1 Er1 Ga8 Ag3'
_cell_volume   279.55564237
_cell_formula_units_Z   1
loop_
 _symmetry_equiv_pos_site_id
 _symmetry_equiv_pos_as_xyz
  1  'x, y, z'
loop_
 _atom_site_type_symbol
 _atom_site_label
 _atom_site_symmetry_multiplicity
 _atom_site_fract_x
 _atom_site_fract_y
 _atom_site_fract_z
 _atom_site_occupancy
  Sr  Sr0  1  0.500087  0.499913  0.499913  1
  Dy  Dy1  1  0.200563  0.799437  0.799437  1
  Er  Er2  1  0.799568  0.200432  0.200432  1
  Ga  Ga3  1  0.353652  0.362315  0.930381  1
  Ga  Ga4  1  0.646318  0.637355  0.070010  1
  Ga  Ga5  1  0.353652  0.930381  0.362315  1
  Ga  Ga6  1  0.646318  0.070010  0.637355  1
  Ga  Ga7  1  0.162883  0.470610  0.203625  1
  Ga  Ga8  1  0.837290  0.529031  0.796388  1
  Ga  Ga9  1  0.162883  0.203625  0.470610  1
  Ga  Ga10  1  0.837290  0.796388  0.529031  1
  Ag  Ag11  1  0.499842  0.000158  0.000158  1
  Ag  Ag12  1  0.999827  0.809991  0.190354  1
  Ag  Ag13  1  0.999827  0.190354  0.809991  1
