# generated using pymatgen
data_Dy12InCo2Ni2Ir
_symmetry_space_group_name_H-M   'P 1'
_cell_length_a   8.30115180
_cell_length_b   8.30153066
_cell_length_c   8.30115333
_cell_angle_alpha   110.94927034
_cell_angle_beta   109.54576150
_cell_angle_gamma   107.93083731
_symmetry_Int_Tables_number   1
_chemical_formula_structural   Dy12InCo2Ni2Ir
_chemical_formula_sum   'Dy12 In1 Co2 Ni2 Ir1'
_cell_volume   440.06963931
_cell_formula_units_Z   1
loop_
 _symmetry_equiv_pos_site_id
 _symmetry_equiv_pos_as_xyz
  1  'x, y, z'
loop_
 _atom_site_type_symbol
 _atom_site_label
 _atom_site_symmetry_multiplicity
 _atom_site_fract_x
 _atom_site_fract_y
 _atom_site_fract_z
 _atom_site_occupancy
  Dy  Dy0  1  0.410461  0.217898  0.192475  1
  Dy  Dy1  1  0.589539  0.782102  0.807525  1
  Dy  Dy2  1  0.025422  0.217898  0.807436  1
  Dy  Dy3  1  0.974578  0.782102  0.192564  1
  Dy  Dy4  1  0.181245  0.288476  0.469658  1
  Dy  Dy5  1  0.818755  0.711524  0.530342  1
  Dy  Dy6  1  0.181182  0.711524  0.892769  1
  Dy  Dy7  1  0.818818  0.288476  0.107231  1
  Dy  Dy8  1  0.316963  0.622421  0.305460  1
  Dy  Dy9  1  0.683037  0.377579  0.694540  1
  Dy  Dy10  1  0.316945  0.011431  0.694486  1
  Dy  Dy11  1  0.683055  0.988569  0.305514  1
  In  In12  1  0.500000  0.500000  0.000000  1
  Co  Co13  1  0.113922  0.613951  0.500028  1
  Co  Co14  1  0.886078  0.386049  0.499972  1
  Ni  Ni15  1  0.367684  0.000000  0.367684  1
  Ni  Ni16  1  0.632316  0.000000  0.632316  1
  Ir  Ir17  1  0.000000  0.000000  0.000000  1
