# generated using pymatgen
data_Ce7Th(Si4W3)4
_symmetry_space_group_name_H-M   'P 1'
_cell_length_a   6.91968009
_cell_length_b   6.97841554
_cell_length_c   13.03661600
_cell_angle_alpha   90.01573939
_cell_angle_beta   89.99060206
_cell_angle_gamma   90.05552972
_symmetry_Int_Tables_number   1
_chemical_formula_structural   Ce7Th(Si4W3)4
_chemical_formula_sum   'Ce7 Th1 Si16 W12'
_cell_volume   629.51704057
_cell_formula_units_Z   1
loop_
 _symmetry_equiv_pos_site_id
 _symmetry_equiv_pos_as_xyz
  1  'x, y, z'
loop_
 _atom_site_type_symbol
 _atom_site_label
 _atom_site_symmetry_multiplicity
 _atom_site_fract_x
 _atom_site_fract_y
 _atom_site_fract_z
 _atom_site_occupancy
  Ce  Ce0  1  0.493557  0.660324  0.592182  1
  Ce  Ce1  1  0.993809  0.837499  0.907275  1
  Ce  Ce2  1  0.505858  0.338804  0.092113  1
  Ce  Ce3  1  0.005614  0.163910  0.405609  1
  Ce  Ce4  1  0.506505  0.338782  0.407195  1
  Ce  Ce5  1  0.006564  0.162072  0.092377  1
  Ce  Ce6  1  0.494194  0.661781  0.908481  1
  Th  Th7  1  0.993496  0.836619  0.592179  1
  Si  Si8  1  0.655902  0.954570  0.451861  1
  Si  Si9  1  0.156585  0.546971  0.047014  1
  Si  Si10  1  0.343310  0.046078  0.952785  1
  Si  Si11  1  0.841894  0.449222  0.546288  1
  Si  Si12  1  0.345822  0.047831  0.546558  1
  Si  Si13  1  0.843111  0.454438  0.953075  1
  Si  Si14  1  0.657327  0.953945  0.047160  1
  Si  Si15  1  0.157885  0.543849  0.451208  1
  Si  Si16  1  0.461776  0.364809  0.750852  1
  Si  Si17  1  0.961391  0.136801  0.751672  1
  Si  Si18  1  0.538162  0.635896  0.250097  1
  Si  Si19  1  0.038377  0.866033  0.250122  1
  Si  Si20  1  0.687706  0.868615  0.751453  1
  Si  Si21  1  0.194420  0.627358  0.751671  1
  Si  Si22  1  0.309249  0.131026  0.249844  1
  Si  Si23  1  0.808113  0.370681  0.249184  1
  W  W24  1  0.667992  0.161312  0.627066  1
  W  W25  1  0.167989  0.337771  0.874226  1
  W  W26  1  0.331768  0.838111  0.126685  1
  W  W27  1  0.832110  0.662359  0.373324  1
  W  W28  1  0.330371  0.838543  0.373823  1
  W  W29  1  0.832853  0.663285  0.126583  1
  W  W30  1  0.668909  0.161808  0.873862  1
  W  W31  1  0.167578  0.336590  0.626674  1
  W  W32  1  0.832237  0.498730  0.749888  1
  W  W33  1  0.331505  0.001939  0.750417  1
  W  W34  1  0.167990  0.502955  0.249509  1
  W  W35  1  0.668070  0.998682  0.249689  1
