# generated using pymatgen
data_DyTm9(SiHg)4
_symmetry_space_group_name_H-M   'P 1'
_cell_length_a   8.68696858
_cell_length_b   8.67987043
_cell_length_c   7.46377879
_cell_angle_alpha   90.06213796
_cell_angle_beta   89.99895013
_cell_angle_gamma   129.19888589
_symmetry_Int_Tables_number   1
_chemical_formula_structural   DyTm9(SiHg)4
_chemical_formula_sum   'Dy1 Tm9 Si4 Hg4'
_cell_volume   436.13136153
_cell_formula_units_Z   1
loop_
 _symmetry_equiv_pos_site_id
 _symmetry_equiv_pos_as_xyz
  1  'x, y, z'
loop_
 _atom_site_type_symbol
 _atom_site_label
 _atom_site_symmetry_multiplicity
 _atom_site_fract_x
 _atom_site_fract_y
 _atom_site_fract_z
 _atom_site_occupancy
  Dy  Dy0  1  0.554179  0.809638  0.175973  1
  Tm  Tm1  1  0.308505  0.053855  0.324800  1
  Tm  Tm2  1  0.191365  0.445812  0.824324  1
  Tm  Tm3  1  0.946089  0.691464  0.675336  1
  Tm  Tm4  1  0.691893  0.946434  0.675212  1
  Tm  Tm5  1  0.446128  0.191279  0.824549  1
  Tm  Tm6  1  0.808309  0.553776  0.175493  1
  Tm  Tm7  1  0.053717  0.308267  0.324879  1
  Tm  Tm8  1  0.500124  0.499601  0.500261  1
  Tm  Tm9  1  0.000248  0.000016  0.999896  1
  Si  Si10  1  0.620623  0.620240  0.875528  1
  Si  Si11  1  0.120561  0.120410  0.623747  1
  Si  Si12  1  0.880574  0.879654  0.376947  1
  Si  Si13  1  0.379072  0.378615  0.123709  1
  Hg  Hg14  1  0.281254  0.717599  0.501088  1
  Hg  Hg15  1  0.216480  0.781860  0.999189  1
  Hg  Hg16  1  0.717811  0.281970  0.499930  1
  Hg  Hg17  1  0.783068  0.219510  0.999141  1
