# generated using pymatgen
data_Ta2(TiB2)3
_symmetry_space_group_name_H-M   'P 1'
_cell_length_a   11.41476976
_cell_length_b   11.41476870
_cell_length_c   3.29665400
_cell_angle_alpha   90.00000000
_cell_angle_beta   90.00000000
_cell_angle_gamma   164.65226975
_symmetry_Int_Tables_number   1
_chemical_formula_structural   Ta2(TiB2)3
_chemical_formula_sum   'Ta2 Ti3 B6'
_cell_volume   113.69019073
_cell_formula_units_Z   1
loop_
 _symmetry_equiv_pos_site_id
 _symmetry_equiv_pos_as_xyz
  1  'x, y, z'
loop_
 _atom_site_type_symbol
 _atom_site_label
 _atom_site_symmetry_multiplicity
 _atom_site_fract_x
 _atom_site_fract_y
 _atom_site_fract_z
 _atom_site_occupancy
  Ta  Ta0  1  0.191998  0.808002  0.500000  1
  Ta  Ta1  1  0.808002  0.191998  0.500000  1
  Ti  Ti2  1  0.388603  0.611397  0.000000  1
  Ti  Ti3  1  0.611397  0.388603  0.000000  1
  Ti  Ti4  1  0.000000  0.000000  0.000000  1
  B  B5  1  0.461055  0.538945  0.500000  1
  B  B6  1  0.538945  0.461055  0.500000  1
  B  B7  1  0.271477  0.728523  0.000000  1
  B  B8  1  0.728523  0.271477  0.000000  1
  B  B9  1  0.079919  0.920081  0.500000  1
  B  B10  1  0.920081  0.079919  0.500000  1
