# generated using pymatgen
data_YbPaZn5Sn
_symmetry_space_group_name_H-M   'P 1'
_cell_length_a   8.39695549
_cell_length_b   8.39695397
_cell_length_c   9.04242200
_cell_angle_alpha   90.00000000
_cell_angle_beta   90.00000000
_cell_angle_gamma   149.27087866
_symmetry_Int_Tables_number   1
_chemical_formula_structural   YbPaZn5Sn
_chemical_formula_sum   'Yb2 Pa2 Zn10 Sn2'
_cell_volume   325.78583508
_cell_formula_units_Z   2
loop_
 _symmetry_equiv_pos_site_id
 _symmetry_equiv_pos_as_xyz
  1  'x, y, z'
loop_
 _atom_site_type_symbol
 _atom_site_label
 _atom_site_symmetry_multiplicity
 _atom_site_fract_x
 _atom_site_fract_y
 _atom_site_fract_z
 _atom_site_occupancy
  Yb  Yb0  1  0.000000  0.000000  0.500000  1
  Yb  Yb1  1  0.000000  0.000000  0.000000  1
  Pa  Pa2  1  0.206522  0.793478  0.250000  1
  Pa  Pa3  1  0.793478  0.206522  0.750000  1
  Zn  Zn4  1  0.812869  0.187131  0.391197  1
  Zn  Zn5  1  0.187131  0.812869  0.608803  1
  Zn  Zn6  1  0.812869  0.187131  0.108803  1
  Zn  Zn7  1  0.187131  0.812869  0.891197  1
  Zn  Zn8  1  0.659547  0.340453  0.481529  1
  Zn  Zn9  1  0.340453  0.659547  0.518471  1
  Zn  Zn10  1  0.659547  0.340453  0.018471  1
  Zn  Zn11  1  0.340453  0.659547  0.981529  1
  Zn  Zn12  1  0.393283  0.606717  0.250000  1
  Zn  Zn13  1  0.606717  0.393283  0.750000  1
  Sn  Sn14  1  0.557364  0.442636  0.250000  1
  Sn  Sn15  1  0.442636  0.557364  0.750000  1
