# generated using pymatgen
data_BiB2MoO6
_symmetry_space_group_name_H-M   'P 1'
_cell_length_a   6.20307793
_cell_length_b   6.20307757
_cell_length_c   6.20307803
_cell_angle_alpha   47.65655037
_cell_angle_beta   47.65656003
_cell_angle_gamma   47.65657232
_symmetry_Int_Tables_number   1
_chemical_formula_structural   BiB2MoO6
_chemical_formula_sum   'Bi1 B2 Mo1 O6'
_cell_volume   119.36520088
_cell_formula_units_Z   1
loop_
 _symmetry_equiv_pos_site_id
 _symmetry_equiv_pos_as_xyz
  1  'x, y, z'
loop_
 _atom_site_type_symbol
 _atom_site_label
 _atom_site_symmetry_multiplicity
 _atom_site_fract_x
 _atom_site_fract_y
 _atom_site_fract_z
 _atom_site_occupancy
  Bi  Bi0  1  0.000000  0.000000  0.000000  1
  B  B1  1  0.243970  0.243970  0.243970  1
  B  B2  1  0.756030  0.756030  0.756030  1
  Mo  Mo3  1  0.500000  0.500000  0.500000  1
  O  O4  1  0.728507  0.043370  0.491692  1
  O  O5  1  0.956630  0.508308  0.271493  1
  O  O6  1  0.508308  0.271493  0.956630  1
  O  O7  1  0.491692  0.728507  0.043370  1
  O  O8  1  0.043370  0.491692  0.728507  1
  O  O9  1  0.271493  0.956630  0.508308  1
