# generated using pymatgen
data_Dy5Sc5Si20(IrPt3)2
_symmetry_space_group_name_H-M   'P 1'
_cell_length_a   12.52989620
_cell_length_b   12.51111520
_cell_length_c   4.21294400
_cell_angle_alpha   90.00000000
_cell_angle_beta   90.00000000
_cell_angle_gamma   89.94987735
_symmetry_Int_Tables_number   1
_chemical_formula_structural   Dy5Sc5Si20(IrPt3)2
_chemical_formula_sum   'Dy5 Sc5 Si20 Ir2 Pt6'
_cell_volume   660.43338116
_cell_formula_units_Z   1
loop_
 _symmetry_equiv_pos_site_id
 _symmetry_equiv_pos_as_xyz
  1  'x, y, z'
loop_
 _atom_site_type_symbol
 _atom_site_label
 _atom_site_symmetry_multiplicity
 _atom_site_fract_x
 _atom_site_fract_y
 _atom_site_fract_z
 _atom_site_occupancy
  Dy  Dy0  1  0.000000  0.000000  0.000000  1
  Dy  Dy1  1  0.887025  0.386403  0.500000  1
  Dy  Dy2  1  0.112975  0.613597  0.500000  1
  Dy  Dy3  1  0.386443  0.114023  0.500000  1
  Dy  Dy4  1  0.613557  0.885977  0.500000  1
  Sc  Sc5  1  0.500000  0.500000  0.000000  1
  Sc  Sc6  1  0.673918  0.175427  0.500000  1
  Sc  Sc7  1  0.326082  0.824573  0.500000  1
  Sc  Sc8  1  0.174306  0.326130  0.500000  1
  Sc  Sc9  1  0.825694  0.673870  0.500000  1
  Si  Si10  1  0.564980  0.067186  0.000000  1
  Si  Si11  1  0.435020  0.932814  0.000000  1
  Si  Si12  1  0.065904  0.432531  0.000000  1
  Si  Si13  1  0.934096  0.567469  0.000000  1
  Si  Si14  1  0.667663  0.703474  0.000000  1
  Si  Si15  1  0.332337  0.296526  0.000000  1
  Si  Si16  1  0.163708  0.798174  0.000000  1
  Si  Si17  1  0.836292  0.201826  0.000000  1
  Si  Si18  1  0.297253  0.667542  0.000000  1
  Si  Si19  1  0.702747  0.332458  0.000000  1
  Si  Si20  1  0.198522  0.166068  0.000000  1
  Si  Si21  1  0.801478  0.833932  0.000000  1
  Si  Si22  1  0.648280  0.506997  0.500000  1
  Si  Si23  1  0.351720  0.493003  0.500000  1
  Si  Si24  1  0.154644  0.993206  0.500000  1
  Si  Si25  1  0.845356  0.006794  0.500000  1
  Si  Si26  1  0.492369  0.647840  0.500000  1
  Si  Si27  1  0.507631  0.352160  0.500000  1
  Si  Si28  1  0.006618  0.157577  0.500000  1
  Si  Si29  1  0.993382  0.842423  0.500000  1
  Ir  Ir30  1  0.021800  0.244998  0.000000  1
  Ir  Ir31  1  0.978200  0.755002  0.000000  1
  Pt  Pt32  1  0.741619  0.520976  0.000000  1
  Pt  Pt33  1  0.258381  0.479024  0.000000  1
  Pt  Pt34  1  0.245927  0.978048  0.000000  1
  Pt  Pt35  1  0.754073  0.021952  0.000000  1
  Pt  Pt36  1  0.479070  0.741047  0.000000  1
  Pt  Pt37  1  0.520930  0.258953  0.000000  1
