# generated using pymatgen
data_Dy10Y6CdIn3Ir3Ru
_symmetry_space_group_name_H-M   'P 1'
_cell_length_a   9.67200489
_cell_length_b   9.67200387
_cell_length_c   9.67200400
_cell_angle_alpha   59.74057617
_cell_angle_beta   59.74057967
_cell_angle_gamma   59.74058321
_symmetry_Int_Tables_number   1
_chemical_formula_structural   Dy10Y6CdIn3Ir3Ru
_chemical_formula_sum   'Dy10 Y6 Cd1 In3 Ir3 Ru1'
_cell_volume   636.01644310
_cell_formula_units_Z   1
loop_
 _symmetry_equiv_pos_site_id
 _symmetry_equiv_pos_as_xyz
  1  'x, y, z'
loop_
 _atom_site_type_symbol
 _atom_site_label
 _atom_site_symmetry_multiplicity
 _atom_site_fract_x
 _atom_site_fract_y
 _atom_site_fract_z
 _atom_site_occupancy
  Dy  Dy0  1  0.348964  0.348890  0.348890  1
  Dy  Dy1  1  0.349168  0.348987  0.954885  1
  Dy  Dy2  1  0.349168  0.954885  0.348987  1
  Dy  Dy3  1  0.954188  0.349017  0.349017  1
  Dy  Dy4  1  0.809802  0.191054  0.191054  1
  Dy  Dy5  1  0.188748  0.808970  0.808970  1
  Dy  Dy6  1  0.190048  0.810484  0.189627  1
  Dy  Dy7  1  0.807167  0.189941  0.807742  1
  Dy  Dy8  1  0.190048  0.189627  0.810484  1
  Dy  Dy9  1  0.807167  0.807742  0.189941  1
  Y  Y10  1  0.939306  0.561614  0.561614  1
  Y  Y11  1  0.558977  0.939735  0.939735  1
  Y  Y12  1  0.561876  0.938416  0.560484  1
  Y  Y13  1  0.941378  0.558468  0.938707  1
  Y  Y14  1  0.561876  0.560484  0.938416  1
  Y  Y15  1  0.941378  0.938707  0.558468  1
  Cd  Cd16  1  0.253472  0.581823  0.581823  1
  In  In17  1  0.581191  0.582124  0.582124  1
  In  In18  1  0.580997  0.582899  0.252310  1
  In  In19  1  0.580997  0.252310  0.582899  1
  Ir  Ir20  1  0.142686  0.142746  0.577537  1
  Ir  Ir21  1  0.142686  0.577537  0.142746  1
  Ir  Ir22  1  0.577953  0.142520  0.142520  1
  Ru  Ru23  1  0.140757  0.141019  0.141019  1
