# generated using pymatgen
data_DyHoMgNi7B2
_symmetry_space_group_name_H-M   'P 1'
_cell_length_a   5.00442600
_cell_length_b   4.99882607
_cell_length_c   14.21913300
_cell_angle_alpha   90.00000000
_cell_angle_beta   90.00000000
_cell_angle_gamma   119.96189002
_symmetry_Int_Tables_number   1
_chemical_formula_structural   DyHoMgNi7B2
_chemical_formula_sum   'Dy2 Ho2 Mg2 Ni14 B4'
_cell_volume   308.17165933
_cell_formula_units_Z   2
loop_
 _symmetry_equiv_pos_site_id
 _symmetry_equiv_pos_as_xyz
  1  'x, y, z'
loop_
 _atom_site_type_symbol
 _atom_site_label
 _atom_site_symmetry_multiplicity
 _atom_site_fract_x
 _atom_site_fract_y
 _atom_site_fract_z
 _atom_site_occupancy
  Dy  Dy0  1  0.666635  0.333312  0.755324  1
  Dy  Dy1  1  0.333365  0.666688  0.255324  1
  Ho  Ho2  1  0.666798  0.333396  0.529635  1
  Ho  Ho3  1  0.333202  0.666604  0.029635  1
  Mg  Mg4  1  0.333276  0.666646  0.467835  1
  Mg  Mg5  1  0.666724  0.333354  0.967835  1
  Ni  Ni6  1  0.834631  0.669207  0.352953  1
  Ni  Ni7  1  0.330800  0.165405  0.352940  1
  Ni  Ni8  1  0.999932  0.999967  0.998862  1
  Ni  Ni9  1  0.000068  0.000033  0.498862  1
  Ni  Ni10  1  0.833735  0.166231  0.147274  1
  Ni  Ni11  1  0.667542  0.833766  0.647349  1
  Ni  Ni12  1  0.166262  0.332486  0.647273  1
  Ni  Ni13  1  0.833738  0.667514  0.147273  1
  Ni  Ni14  1  0.332458  0.166234  0.147349  1
  Ni  Ni15  1  0.669200  0.834595  0.852940  1
  Ni  Ni16  1  0.165369  0.330793  0.852953  1
  Ni  Ni17  1  0.166265  0.833769  0.647274  1
  Ni  Ni18  1  0.165385  0.834564  0.852958  1
  Ni  Ni19  1  0.834615  0.165436  0.352958  1
  B  B20  1  0.666711  0.333364  0.249887  1
  B  B21  1  0.333289  0.666636  0.749887  1
  B  B22  1  0.000021  0.000018  0.747709  1
  B  B23  1  0.999979  0.999982  0.247709  1
