# generated using pymatgen
data_Li8La6Nd2Sn3Sb5
_symmetry_space_group_name_H-M   'P 1'
_cell_length_a   9.61378192
_cell_length_b   9.62186359
_cell_length_c   7.74380690
_cell_angle_alpha   90.00000489
_cell_angle_beta   89.94949124
_cell_angle_gamma   120.02781577
_symmetry_Int_Tables_number   1
_chemical_formula_structural   Li8La6Nd2Sn3Sb5
_chemical_formula_sum   'Li8 La6 Nd2 Sn3 Sb5'
_cell_volume   620.17832884
_cell_formula_units_Z   1
loop_
 _symmetry_equiv_pos_site_id
 _symmetry_equiv_pos_as_xyz
  1  'x, y, z'
loop_
 _atom_site_type_symbol
 _atom_site_label
 _atom_site_symmetry_multiplicity
 _atom_site_fract_x
 _atom_site_fract_y
 _atom_site_fract_z
 _atom_site_occupancy
  Li  Li0  1  0.166539  0.332685  0.280736  1
  Li  Li1  1  0.166539  0.833855  0.280736  1
  Li  Li2  1  0.667145  0.833573  0.281666  1
  Li  Li3  1  0.833692  0.667507  0.781307  1
  Li  Li4  1  0.833692  0.166185  0.781307  1
  Li  Li5  1  0.332905  0.166453  0.783039  1
  Li  Li6  1  0.333623  0.666812  0.674358  1
  Li  Li7  1  0.665986  0.332993  0.174786  1
  La  La8  1  0.509639  0.021867  0.492756  1
  La  La9  1  0.509639  0.487773  0.492756  1
  La  La10  1  0.979552  0.489777  0.492983  1
  La  La11  1  0.488491  0.979454  0.994088  1
  La  La12  1  0.488491  0.509036  0.994088  1
  La  La13  1  0.020517  0.510258  0.993706  1
  Nd  Nd14  1  0.002515  0.001258  0.501175  1
  Nd  Nd15  1  0.002166  0.001084  0.003444  1
  Sn  Sn16  1  0.328523  0.164261  0.232852  1
  Sn  Sn17  1  0.332828  0.666415  0.264890  1
  Sn  Sn18  1  0.667483  0.333741  0.764993  1
  Sb  Sb19  1  0.164498  0.330018  0.735179  1
  Sb  Sb20  1  0.164498  0.834482  0.735179  1
  Sb  Sb21  1  0.670437  0.835219  0.735273  1
  Sb  Sb22  1  0.835300  0.670031  0.235342  1
  Sb  Sb23  1  0.835300  0.165269  0.235342  1
