# generated using pymatgen
data_Ho18Er2Ir7Ru5
_symmetry_space_group_name_H-M   'P 1'
_cell_length_a   10.78502512
_cell_length_b   10.78502540
_cell_length_c   6.38483701
_cell_angle_alpha   89.96275206
_cell_angle_beta   89.96275051
_cell_angle_gamma   90.05415599
_symmetry_Int_Tables_number   1
_chemical_formula_structural   Ho18Er2Ir7Ru5
_chemical_formula_sum   'Ho18 Er2 Ir7 Ru5'
_cell_volume   742.66297116
_cell_formula_units_Z   1
loop_
 _symmetry_equiv_pos_site_id
 _symmetry_equiv_pos_as_xyz
  1  'x, y, z'
loop_
 _atom_site_type_symbol
 _atom_site_label
 _atom_site_symmetry_multiplicity
 _atom_site_fract_x
 _atom_site_fract_y
 _atom_site_fract_z
 _atom_site_occupancy
  Ho  Ho0  1  0.293507  0.086191  0.377481  1
  Ho  Ho1  1  0.292909  0.913578  0.877501  1
  Ho  Ho2  1  0.707258  0.086574  0.877752  1
  Ho  Ho3  1  0.706995  0.913917  0.376548  1
  Ho  Ho4  1  0.586275  0.793382  0.877473  1
  Ho  Ho5  1  0.587029  0.206854  0.377571  1
  Ho  Ho6  1  0.413612  0.793239  0.377375  1
  Ho  Ho7  1  0.413527  0.206553  0.876777  1
  Ho  Ho8  1  0.206618  0.413725  0.622527  1
  Ho  Ho9  1  0.206761  0.586388  0.122625  1
  Ho  Ho10  1  0.793146  0.412971  0.122429  1
  Ho  Ho11  1  0.793447  0.586473  0.623223  1
  Ho  Ho12  1  0.913809  0.706493  0.122519  1
  Ho  Ho13  1  0.913426  0.292742  0.622248  1
  Ho  Ho14  1  0.086422  0.707091  0.622499  1
  Ho  Ho15  1  0.086083  0.293005  0.123452  1
  Ho  Ho16  1  0.999580  0.000935  0.499481  1
  Ho  Ho17  1  0.999065  0.000420  0.000519  1
  Er  Er18  1  0.500125  0.500168  0.000188  1
  Er  Er19  1  0.499832  0.499875  0.499812  1
  Ir  Ir20  1  0.846797  0.846494  0.749821  1
  Ir  Ir21  1  0.153506  0.153203  0.750179  1
  Ir  Ir22  1  0.153154  0.846846  0.250000  1
  Ir  Ir23  1  0.651927  0.348073  0.750000  1
  Ir  Ir24  1  0.652824  0.652500  0.249762  1
  Ir  Ir25  1  0.347500  0.347176  0.250238  1
  Ir  Ir26  1  0.347548  0.652452  0.750000  1
  Ru  Ru27  1  0.847555  0.152445  0.250000  1
  Ru  Ru28  1  0.500171  0.000257  0.121915  1
  Ru  Ru29  1  0.499878  0.000029  0.622006  1
  Ru  Ru30  1  0.999971  0.500122  0.877994  1
  Ru  Ru31  1  0.999743  0.499829  0.378085  1
