# generated using pymatgen
data_Dy3Er5Pd4
_symmetry_space_group_name_H-M   'P 1'
_cell_length_a   4.86713701
_cell_length_b   7.09106207
_cell_length_c   8.70677200
_cell_angle_alpha   89.96953032
_cell_angle_beta   89.99566792
_cell_angle_gamma   89.99185306
_symmetry_Int_Tables_number   1
_chemical_formula_structural   Dy3Er5Pd4
_chemical_formula_sum   'Dy3 Er5 Pd4'
_cell_volume   300.49826181
_cell_formula_units_Z   1
loop_
 _symmetry_equiv_pos_site_id
 _symmetry_equiv_pos_as_xyz
  1  'x, y, z'
loop_
 _atom_site_type_symbol
 _atom_site_label
 _atom_site_symmetry_multiplicity
 _atom_site_fract_x
 _atom_site_fract_y
 _atom_site_fract_z
 _atom_site_occupancy
  Dy  Dy0  1  0.249998  0.984305  0.326464  1
  Dy  Dy1  1  0.750002  0.515761  0.827384  1
  Dy  Dy2  1  0.750015  0.015814  0.672738  1
  Er  Er3  1  0.249940  0.855384  0.920955  1
  Er  Er4  1  0.249996  0.355425  0.578987  1
  Er  Er5  1  0.750065  0.144967  0.079403  1
  Er  Er6  1  0.750045  0.644433  0.419865  1
  Er  Er7  1  0.249950  0.483819  0.172660  1
  Pd  Pd8  1  0.249957  0.257092  0.908689  1
  Pd  Pd9  1  0.249947  0.757004  0.592676  1
  Pd  Pd10  1  0.750001  0.742269  0.093355  1
  Pd  Pd11  1  0.750085  0.243729  0.406823  1
