# generated using pymatgen
data_NaNdH9W
_symmetry_space_group_name_H-M   'P 1'
_cell_length_a   8.78359600
_cell_length_b   8.78359490
_cell_length_c   5.12275900
_cell_angle_alpha   90.00000000
_cell_angle_beta   90.00000000
_cell_angle_gamma   120.00000415
_symmetry_Int_Tables_number   1
_chemical_formula_structural   NaNdH9W
_chemical_formula_sum   'Na3 Nd3 H27 W3'
_cell_volume   342.27815992
_cell_formula_units_Z   3
loop_
 _symmetry_equiv_pos_site_id
 _symmetry_equiv_pos_as_xyz
  1  'x, y, z'
loop_
 _atom_site_type_symbol
 _atom_site_label
 _atom_site_symmetry_multiplicity
 _atom_site_fract_x
 _atom_site_fract_y
 _atom_site_fract_z
 _atom_site_occupancy
  Na  Na0  1  0.000000  0.598810  0.000000  1
  Na  Na1  1  0.401190  0.401190  0.000000  1
  Na  Na2  1  0.598810  0.000000  0.000000  1
  Nd  Nd3  1  0.000000  0.264596  0.500000  1
  Nd  Nd4  1  0.735404  0.735404  0.500000  1
  Nd  Nd5  1  0.264596  0.000000  0.500000  1
  H  H6  1  0.814380  0.341647  0.748290  1
  H  H7  1  0.658353  0.472731  0.748290  1
  H  H8  1  0.527269  0.185620  0.748290  1
  H  H9  1  0.185620  0.527269  0.251710  1
  H  H10  1  0.527269  0.185620  0.251710  1
  H  H11  1  0.814380  0.341647  0.251710  1
  H  H12  1  0.658353  0.472731  0.251710  1
  H  H13  1  0.341647  0.814380  0.748290  1
  H  H14  1  0.472731  0.658353  0.748290  1
  H  H15  1  0.204250  0.000000  0.000000  1
  H  H16  1  0.795750  0.795750  0.000000  1
  H  H17  1  0.000000  0.204250  0.000000  1
  H  H18  1  0.849048  0.000000  0.250939  1
  H  H19  1  0.150952  0.150952  0.749061  1
  H  H20  1  0.000000  0.849048  0.749061  1
  H  H21  1  0.000000  0.849048  0.250939  1
  H  H22  1  0.150952  0.150952  0.250939  1
  H  H23  1  0.849048  0.000000  0.749061  1
  H  H24  1  0.139144  0.683132  0.500000  1
  H  H25  1  0.543988  0.860856  0.500000  1
  H  H26  1  0.316868  0.456012  0.500000  1
  H  H27  1  0.456012  0.316868  0.500000  1
  H  H28  1  0.860856  0.543988  0.500000  1
  H  H29  1  0.683132  0.139144  0.500000  1
  H  H30  1  0.185620  0.527269  0.748290  1
  H  H31  1  0.341647  0.814380  0.251710  1
  H  H32  1  0.472731  0.658353  0.251710  1
  W  W33  1  0.666667  0.333333  0.500000  1
  W  W34  1  0.333333  0.666667  0.500000  1
  W  W35  1  0.000000  0.000000  0.000000  1
