# generated using pymatgen
data_Y8Ho9(LuBi4)3
_symmetry_space_group_name_H-M   'P 1'
_cell_length_a   8.24149895
_cell_length_b   9.49381300
_cell_length_c   12.05687000
_cell_angle_alpha   90.00000000
_cell_angle_beta   90.05611741
_cell_angle_gamma   90.00000000
_symmetry_Int_Tables_number   1
_chemical_formula_structural   Y8Ho9(LuBi4)3
_chemical_formula_sum   'Y8 Ho9 Lu3 Bi12'
_cell_volume   943.36823993
_cell_formula_units_Z   1
loop_
 _symmetry_equiv_pos_site_id
 _symmetry_equiv_pos_as_xyz
  1  'x, y, z'
loop_
 _atom_site_type_symbol
 _atom_site_label
 _atom_site_symmetry_multiplicity
 _atom_site_fract_x
 _atom_site_fract_y
 _atom_site_fract_z
 _atom_site_occupancy
  Y  Y0  1  0.186129  0.750000  0.718892  1
  Y  Y1  1  0.686705  0.750000  0.781516  1
  Y  Y2  1  0.813240  0.250000  0.281194  1
  Y  Y3  1  0.313872  0.250000  0.218633  1
  Y  Y4  1  0.354302  0.750000  0.215687  1
  Y  Y5  1  0.853939  0.750000  0.284252  1
  Y  Y6  1  0.646112  0.250000  0.784707  1
  Y  Y7  1  0.145472  0.250000  0.715795  1
  Ho  Ho8  1  0.474426  0.250000  0.488646  1
  Ho  Ho9  1  0.306317  0.435861  0.940236  1
  Ho  Ho10  1  0.806842  0.064019  0.559823  1
  Ho  Ho11  1  0.693550  0.935771  0.059798  1
  Ho  Ho12  1  0.193418  0.564070  0.440120  1
  Ho  Ho13  1  0.693550  0.564229  0.059798  1
  Ho  Ho14  1  0.193418  0.935930  0.440120  1
  Ho  Ho15  1  0.306317  0.064139  0.940236  1
  Ho  Ho16  1  0.806842  0.435981  0.559823  1
  Lu  Lu17  1  0.024834  0.750000  0.988850  1
  Lu  Lu18  1  0.525478  0.750000  0.510969  1
  Lu  Lu19  1  0.974707  0.250000  0.010997  1
  Bi  Bi20  1  0.434073  0.003157  0.672965  1
  Bi  Bi21  1  0.934067  0.496331  0.827670  1
  Bi  Bi22  1  0.566540  0.504485  0.326964  1
  Bi  Bi23  1  0.066241  0.996202  0.172241  1
  Bi  Bi24  1  0.566540  0.995515  0.326964  1
  Bi  Bi25  1  0.066241  0.503798  0.172241  1
  Bi  Bi26  1  0.434073  0.496843  0.672965  1
  Bi  Bi27  1  0.934067  0.003669  0.827670  1
  Bi  Bi28  1  0.407255  0.750000  0.957977  1
  Bi  Bi29  1  0.907214  0.750000  0.542154  1
  Bi  Bi30  1  0.592658  0.250000  0.042267  1
  Bi  Bi31  1  0.091562  0.250000  0.457829  1
