# generated using pymatgen
data_Pu2HfReF14
_symmetry_space_group_name_H-M   'P 1'
_cell_length_a   5.83486916
_cell_length_b   6.22669517
_cell_length_c   8.43289500
_cell_angle_alpha   101.99908072
_cell_angle_beta   89.98675343
_cell_angle_gamma   90.02980672
_symmetry_Int_Tables_number   1
_chemical_formula_structural   Pu2HfReF14
_chemical_formula_sum   'Pu2 Hf1 Re1 F14'
_cell_volume   299.68929661
_cell_formula_units_Z   1
loop_
 _symmetry_equiv_pos_site_id
 _symmetry_equiv_pos_as_xyz
  1  'x, y, z'
loop_
 _atom_site_type_symbol
 _atom_site_label
 _atom_site_symmetry_multiplicity
 _atom_site_fract_x
 _atom_site_fract_y
 _atom_site_fract_z
 _atom_site_occupancy
  Pu  Pu0  1  0.699191  0.662224  0.684763  1
  Pu  Pu1  1  0.201930  0.340134  0.311707  1
  Hf  Hf2  1  0.210599  0.192457  0.776659  1
  Re  Re3  1  0.709465  0.810043  0.222371  1
  F  F4  1  0.889837  0.446735  0.477166  1
  F  F5  1  0.382377  0.552821  0.527362  1
  F  F6  1  0.426594  0.939466  0.775494  1
  F  F7  1  0.921492  0.060622  0.230205  1
  F  F8  1  0.955512  0.970755  0.760391  1
  F  F9  1  0.451162  0.022669  0.235641  1
  F  F10  1  0.999000  0.447194  0.789859  1
  F  F11  1  0.497985  0.556400  0.212862  1
  F  F12  1  0.704540  0.759487  0.983230  1
  F  F13  1  0.200552  0.239733  0.018374  1
  F  F14  1  0.715041  0.864249  0.463914  1
  F  F15  1  0.216242  0.140178  0.533176  1
  F  F16  1  0.491172  0.382673  0.786231  1
  F  F17  1  0.980029  0.612162  0.210595  1
