# generated using pymatgen
data_Rb4MnFe3I16
_symmetry_space_group_name_H-M   'P 1'
_cell_length_a   8.25742682
_cell_length_b   8.62453574
_cell_length_c   16.76627100
_cell_angle_alpha   85.78588104
_cell_angle_beta   91.58461174
_cell_angle_gamma   89.93490225
_symmetry_Int_Tables_number   1
_chemical_formula_structural   Rb4MnFe3I16
_chemical_formula_sum   'Rb4 Mn1 Fe3 I16'
_cell_volume   1190.34508640
_cell_formula_units_Z   1
loop_
 _symmetry_equiv_pos_site_id
 _symmetry_equiv_pos_as_xyz
  1  'x, y, z'
loop_
 _atom_site_type_symbol
 _atom_site_label
 _atom_site_symmetry_multiplicity
 _atom_site_fract_x
 _atom_site_fract_y
 _atom_site_fract_z
 _atom_site_occupancy
  Rb  Rb0  1  0.503042  0.253040  0.638063  1
  Rb  Rb1  1  0.986738  0.745841  0.860583  1
  Rb  Rb2  1  0.503106  0.742696  0.358880  1
  Rb  Rb3  1  0.997487  0.257132  0.139062  1
  Mn  Mn4  1  0.139362  0.250573  0.859690  1
  Fe  Fe5  1  0.360484  0.246786  0.360619  1
  Fe  Fe6  1  0.855727  0.752144  0.140778  1
  Fe  Fe7  1  0.644799  0.751319  0.638658  1
  I  I8  1  0.876999  0.137266  0.920804  1
  I  I9  1  0.366865  0.847804  0.587054  1
  I  I10  1  0.134595  0.845991  0.097560  1
  I  I11  1  0.638799  0.146408  0.409811  1
  I  I12  1  0.392537  0.409523  0.227470  1
  I  I13  1  0.892957  0.585888  0.273674  1
  I  I14  1  0.611071  0.585696  0.770744  1
  I  I15  1  0.136898  0.429898  0.729069  1
  I  I16  1  0.656711  0.973379  0.160473  1
  I  I17  1  0.157597  0.028022  0.339782  1
  I  I18  1  0.320196  0.020711  0.824362  1
  I  I19  1  0.845076  0.971730  0.661326  1
  I  I20  1  0.244997  0.420748  0.463387  1
  I  I21  1  0.731170  0.583169  0.035337  1
  I  I22  1  0.765924  0.578358  0.536947  1
  I  I23  1  0.236867  0.435874  0.965867  1
