# generated using pymatgen
data_Er3Lu(ZnSi)4
_symmetry_space_group_name_H-M   'P 1'
_cell_length_a   4.14269800
_cell_length_b   4.14269825
_cell_length_c   15.31837500
_cell_angle_alpha   90.00000000
_cell_angle_beta   90.00000000
_cell_angle_gamma   119.99999798
_symmetry_Int_Tables_number   1
_chemical_formula_structural   Er3Lu(ZnSi)4
_chemical_formula_sum   'Er3 Lu1 Zn4 Si4'
_cell_volume   227.67215241
_cell_formula_units_Z   1
loop_
 _symmetry_equiv_pos_site_id
 _symmetry_equiv_pos_as_xyz
  1  'x, y, z'
loop_
 _atom_site_type_symbol
 _atom_site_label
 _atom_site_symmetry_multiplicity
 _atom_site_fract_x
 _atom_site_fract_y
 _atom_site_fract_z
 _atom_site_occupancy
  Er  Er0  1  0.000000  0.000000  0.999215  1
  Er  Er1  1  0.000000  0.000000  0.250000  1
  Er  Er2  1  0.000000  0.000000  0.500785  1
  Lu  Lu3  1  0.000000  0.000000  0.750000  1
  Zn  Zn4  1  0.666667  0.333334  0.140464  1
  Zn  Zn5  1  0.666667  0.333334  0.359536  1
  Zn  Zn6  1  0.333334  0.666668  0.642508  1
  Zn  Zn7  1  0.333334  0.666668  0.857492  1
  Si  Si8  1  0.333334  0.666668  0.117276  1
  Si  Si9  1  0.333334  0.666668  0.382724  1
  Si  Si10  1  0.666667  0.333334  0.617994  1
  Si  Si11  1  0.666667  0.333334  0.882006  1
