# generated using pymatgen
data_Er20(IrRh3)3
_symmetry_space_group_name_H-M   'P 1'
_cell_length_a   10.79953150
_cell_length_b   10.79953075
_cell_length_c   6.32441611
_cell_angle_alpha   90.00358141
_cell_angle_beta   90.00358596
_cell_angle_gamma   89.85450778
_symmetry_Int_Tables_number   1
_chemical_formula_structural   Er20(IrRh3)3
_chemical_formula_sum   'Er20 Ir3 Rh9'
_cell_volume   737.61346347
_cell_formula_units_Z   1
loop_
 _symmetry_equiv_pos_site_id
 _symmetry_equiv_pos_as_xyz
  1  'x, y, z'
loop_
 _atom_site_type_symbol
 _atom_site_label
 _atom_site_symmetry_multiplicity
 _atom_site_fract_x
 _atom_site_fract_y
 _atom_site_fract_z
 _atom_site_occupancy
  Er  Er0  1  0.290851  0.089242  0.377410  1
  Er  Er1  1  0.291282  0.910606  0.877201  1
  Er  Er2  1  0.708850  0.087672  0.877246  1
  Er  Er3  1  0.708819  0.910585  0.376955  1
  Er  Er4  1  0.586943  0.789809  0.878223  1
  Er  Er5  1  0.586420  0.209131  0.376887  1
  Er  Er6  1  0.413292  0.790337  0.377384  1
  Er  Er7  1  0.411127  0.209334  0.878111  1
  Er  Er8  1  0.210191  0.413057  0.621777  1
  Er  Er9  1  0.209663  0.586708  0.122616  1
  Er  Er10  1  0.790869  0.413580  0.123113  1
  Er  Er11  1  0.790666  0.588873  0.621889  1
  Er  Er12  1  0.910758  0.709149  0.122590  1
  Er  Er13  1  0.912328  0.291150  0.622754  1
  Er  Er14  1  0.089394  0.708718  0.622799  1
  Er  Er15  1  0.089415  0.291181  0.123045  1
  Er  Er16  1  0.999818  0.999992  0.499752  1
  Er  Er17  1  0.000008  0.000182  0.000248  1
  Er  Er18  1  0.499942  0.499849  0.999792  1
  Er  Er19  1  0.500151  0.500058  0.500208  1
  Ir  Ir20  1  0.654592  0.653725  0.249960  1
  Ir  Ir21  1  0.346275  0.345408  0.250040  1
  Ir  Ir22  1  0.345241  0.654759  0.750000  1
  Rh  Rh23  1  0.845646  0.154354  0.250000  1
  Rh  Rh24  1  0.846275  0.846849  0.750175  1
  Rh  Rh25  1  0.153151  0.153725  0.749825  1
  Rh  Rh26  1  0.153556  0.846444  0.250000  1
  Rh  Rh27  1  0.655078  0.344922  0.750000  1
  Rh  Rh28  1  0.500216  0.000489  0.122490  1
  Rh  Rh29  1  0.500276  0.000605  0.623113  1
  Rh  Rh30  1  0.999395  0.499724  0.876887  1
  Rh  Rh31  1  0.999511  0.499784  0.377510  1
