# generated using pymatgen
data_Rb4BaTi3O9
_symmetry_space_group_name_H-M   'P 1'
_cell_length_a   7.82721749
_cell_length_b   7.82721777
_cell_length_c   12.11910866
_cell_angle_alpha   89.81270427
_cell_angle_beta   89.81270140
_cell_angle_gamma   111.68121577
_symmetry_Int_Tables_number   1
_chemical_formula_structural   Rb4BaTi3O9
_chemical_formula_sum   'Rb8 Ba2 Ti6 O18'
_cell_volume   689.94179778
_cell_formula_units_Z   2
loop_
 _symmetry_equiv_pos_site_id
 _symmetry_equiv_pos_as_xyz
  1  'x, y, z'
loop_
 _atom_site_type_symbol
 _atom_site_label
 _atom_site_symmetry_multiplicity
 _atom_site_fract_x
 _atom_site_fract_y
 _atom_site_fract_z
 _atom_site_occupancy
  Rb  Rb0  1  0.297106  0.158401  0.747562  1
  Rb  Rb1  1  0.048771  0.951229  0.000000  1
  Rb  Rb2  1  0.841599  0.702894  0.252438  1
  Rb  Rb3  1  0.577178  0.422822  0.000000  1
  Rb  Rb4  1  0.592385  0.407615  0.500000  1
  Rb  Rb5  1  0.303299  0.577266  0.252219  1
  Rb  Rb6  1  0.994353  0.005647  0.500000  1
  Rb  Rb7  1  0.422734  0.696701  0.747781  1
  Ba  Ba8  1  0.814632  0.194945  0.232961  1
  Ba  Ba9  1  0.805055  0.185368  0.767039  1
  Ti  Ti10  1  0.880533  0.662476  0.740234  1
  Ti  Ti11  1  0.337524  0.119467  0.259766  1
  Ti  Ti12  1  0.484785  0.908481  0.474909  1
  Ti  Ti13  1  0.103287  0.503368  0.968771  1
  Ti  Ti14  1  0.091519  0.515215  0.525091  1
  Ti  Ti15  1  0.496632  0.896713  0.031229  1
  O  O16  1  0.344395  0.655605  0.500000  1
  O  O17  1  0.114640  0.124020  0.239747  1
  O  O18  1  0.875980  0.885360  0.760253  1
  O  O19  1  0.977760  0.658913  0.597707  1
  O  O20  1  0.352213  0.647787  0.000000  1
  O  O21  1  0.517141  0.041836  0.912534  1
  O  O22  1  0.381908  0.973174  0.148043  1
  O  O23  1  0.341087  0.022240  0.402293  1
  O  O24  1  0.026826  0.618092  0.851957  1
  O  O25  1  0.710307  0.904881  0.084922  1
  O  O26  1  0.518503  0.342819  0.252066  1
  O  O27  1  0.080673  0.329785  0.614611  1
  O  O28  1  0.670215  0.919327  0.385389  1
  O  O29  1  0.558351  0.026558  0.603068  1
  O  O30  1  0.958164  0.482859  0.087466  1
  O  O31  1  0.095119  0.289693  0.915078  1
  O  O32  1  0.973442  0.441649  0.396932  1
  O  O33  1  0.657181  0.481497  0.747934  1
