# generated using pymatgen
data_TbYGe(PRh2)6
_symmetry_space_group_name_H-M   'P 1'
_cell_length_a   9.67773200
_cell_length_b   9.67773121
_cell_length_c   3.87159600
_cell_angle_alpha   90.00000000
_cell_angle_beta   90.00000000
_cell_angle_gamma   119.99998904
_symmetry_Int_Tables_number   1
_chemical_formula_structural   TbYGe(PRh2)6
_chemical_formula_sum   'Tb1 Y1 Ge1 P6 Rh12'
_cell_volume   314.02762816
_cell_formula_units_Z   1
loop_
 _symmetry_equiv_pos_site_id
 _symmetry_equiv_pos_as_xyz
  1  'x, y, z'
loop_
 _atom_site_type_symbol
 _atom_site_label
 _atom_site_symmetry_multiplicity
 _atom_site_fract_x
 _atom_site_fract_y
 _atom_site_fract_z
 _atom_site_occupancy
  Tb  Tb0  1  0.333333  0.666667  0.748585  1
  Y  Y1  1  0.666667  0.333333  0.251455  1
  Ge  Ge2  1  0.000000  0.000000  0.499883  1
  P  P3  1  0.404095  0.286219  0.750966  1
  P  P4  1  0.713781  0.117876  0.750966  1
  P  P5  1  0.882124  0.595905  0.750966  1
  P  P6  1  0.596014  0.713815  0.249025  1
  P  P7  1  0.286185  0.882199  0.249025  1
  P  P8  1  0.117801  0.403986  0.249025  1
  Rh  Rh9  1  0.451317  0.067188  0.750003  1
  Rh  Rh10  1  0.932812  0.384130  0.750003  1
  Rh  Rh11  1  0.615870  0.548683  0.750003  1
  Rh  Rh12  1  0.548833  0.932940  0.249980  1
  Rh  Rh13  1  0.067060  0.615891  0.249980  1
  Rh  Rh14  1  0.384109  0.451167  0.249980  1
  Rh  Rh15  1  0.155785  0.275160  0.752085  1
  Rh  Rh16  1  0.724840  0.880625  0.752085  1
  Rh  Rh17  1  0.119375  0.844215  0.752085  1
  Rh  Rh18  1  0.844294  0.724859  0.247966  1
  Rh  Rh19  1  0.275141  0.119435  0.247966  1
  Rh  Rh20  1  0.880565  0.155706  0.247966  1
