# generated using pymatgen
data_Tm8Ti11Si16Ag
_symmetry_space_group_name_H-M   'P 1'
_cell_length_a   7.01496950
_cell_length_b   7.01496954
_cell_length_c   12.80863756
_cell_angle_alpha   90.09533658
_cell_angle_beta   89.90466445
_cell_angle_gamma   89.68018501
_symmetry_Int_Tables_number   1
_chemical_formula_structural   Tm8Ti11Si16Ag
_chemical_formula_sum   'Tm8 Ti11 Si16 Ag1'
_cell_volume   630.29888438
_cell_formula_units_Z   1
loop_
 _symmetry_equiv_pos_site_id
 _symmetry_equiv_pos_as_xyz
  1  'x, y, z'
loop_
 _atom_site_type_symbol
 _atom_site_label
 _atom_site_symmetry_multiplicity
 _atom_site_fract_x
 _atom_site_fract_y
 _atom_site_fract_z
 _atom_site_occupancy
  Tm  Tm0  1  0.340991  0.001857  0.466681  1
  Tm  Tm1  1  0.497777  0.840791  0.716801  1
  Tm  Tm2  1  0.501329  0.157699  0.214779  1
  Tm  Tm3  1  0.840791  0.497777  0.283199  1
  Tm  Tm4  1  0.157699  0.501329  0.785221  1
  Tm  Tm5  1  0.656390  0.001123  0.968235  1
  Tm  Tm6  1  0.001857  0.340991  0.533319  1
  Tm  Tm7  1  0.001123  0.656390  0.031765  1
  Ti  Ti8  1  0.174039  0.826357  0.250028  1
  Ti  Ti9  1  0.826357  0.174039  0.749972  1
  Ti  Ti10  1  0.672774  0.672774  0.500000  1
  Ti  Ti11  1  0.147547  0.007507  0.876618  1
  Ti  Ti12  1  0.495713  0.650564  0.123283  1
  Ti  Ti13  1  0.507166  0.350700  0.625053  1
  Ti  Ti14  1  0.650564  0.495713  0.876717  1
  Ti  Ti15  1  0.350700  0.507166  0.374947  1
  Ti  Ti16  1  0.850073  0.992678  0.374261  1
  Ti  Ti17  1  0.007507  0.147547  0.123382  1
  Ti  Ti18  1  0.992678  0.850073  0.625739  1
  Si  Si19  1  0.202364  0.133359  0.683680  1
  Si  Si20  1  0.373131  0.719244  0.928420  1
  Si  Si21  1  0.631939  0.294110  0.431994  1
  Si  Si22  1  0.719244  0.373131  0.071580  1
  Si  Si23  1  0.294110  0.631939  0.568006  1
  Si  Si24  1  0.797284  0.866545  0.182117  1
  Si  Si25  1  0.133359  0.202364  0.316320  1
  Si  Si26  1  0.866545  0.797284  0.817883  1
  Si  Si27  1  0.286977  0.938632  0.066165  1
  Si  Si28  1  0.546522  0.791772  0.314397  1
  Si  Si29  1  0.455179  0.207262  0.809055  1
  Si  Si30  1  0.791772  0.546522  0.685603  1
  Si  Si31  1  0.207262  0.455179  0.190945  1
  Si  Si32  1  0.708087  0.047078  0.564111  1
  Si  Si33  1  0.938632  0.286977  0.933835  1
  Si  Si34  1  0.047078  0.708087  0.435889  1
  Ag  Ag35  1  0.327439  0.327439  0.000000  1
