# generated using pymatgen
data_LuPa2(AlNi)3
_symmetry_space_group_name_H-M   'P 1'
_cell_length_a   6.67896800
_cell_length_b   6.79707322
_cell_length_c   4.00271200
_cell_angle_alpha   90.00000000
_cell_angle_beta   90.00000000
_cell_angle_gamma   119.42684590
_symmetry_Int_Tables_number   1
_chemical_formula_structural   LuPa2(AlNi)3
_chemical_formula_sum   'Lu1 Pa2 Al3 Ni3'
_cell_volume   158.26893610
_cell_formula_units_Z   1
loop_
 _symmetry_equiv_pos_site_id
 _symmetry_equiv_pos_as_xyz
  1  'x, y, z'
loop_
 _atom_site_type_symbol
 _atom_site_label
 _atom_site_symmetry_multiplicity
 _atom_site_fract_x
 _atom_site_fract_y
 _atom_site_fract_z
 _atom_site_occupancy
  Lu  Lu0  1  0.417991  0.000000  0.500000  1
  Pa  Pa1  1  0.000696  0.424057  0.500000  1
  Pa  Pa2  1  0.576639  0.575943  0.500000  1
  Al  Al3  1  0.005739  0.769428  0.000000  1
  Al  Al4  1  0.236311  0.230572  0.000000  1
  Al  Al5  1  0.757462  0.000000  0.000000  1
  Ni  Ni6  1  0.332146  0.651671  0.000000  1
  Ni  Ni7  1  0.680476  0.348329  0.000000  1
  Ni  Ni8  1  0.992541  0.000000  0.500000  1
