# generated using pymatgen
data_CaHoTm5Co6Sn23
_symmetry_space_group_name_H-M   'P 1'
_cell_length_a   9.69056905
_cell_length_b   9.69056888
_cell_length_c   9.93688103
_cell_angle_alpha   89.99294422
_cell_angle_beta   90.00705248
_cell_angle_gamma   119.99082130
_symmetry_Int_Tables_number   1
_chemical_formula_structural   CaHoTm5Co6Sn23
_chemical_formula_sum   'Ca1 Ho1 Tm5 Co6 Sn23'
_cell_volume   808.20108888
_cell_formula_units_Z   1
loop_
 _symmetry_equiv_pos_site_id
 _symmetry_equiv_pos_as_xyz
  1  'x, y, z'
loop_
 _atom_site_type_symbol
 _atom_site_label
 _atom_site_symmetry_multiplicity
 _atom_site_fract_x
 _atom_site_fract_y
 _atom_site_fract_z
 _atom_site_occupancy
  Ca  Ca0  1  0.000058  0.999942  0.999933  1
  Ho  Ho1  1  0.479406  0.520594  0.306449  1
  Tm  Tm2  1  0.520123  0.479877  0.693886  1
  Tm  Tm3  1  0.520141  0.040196  0.693912  1
  Tm  Tm4  1  0.959804  0.479859  0.693912  1
  Tm  Tm5  1  0.040269  0.520087  0.306155  1
  Tm  Tm6  1  0.479913  0.959731  0.306155  1
  Co  Co7  1  0.169152  0.830848  0.800990  1
  Co  Co8  1  0.169107  0.338204  0.801027  1
  Co  Co9  1  0.661796  0.830893  0.801027  1
  Co  Co10  1  0.338036  0.168617  0.198857  1
  Co  Co11  1  0.831383  0.661964  0.198857  1
  Co  Co12  1  0.830771  0.169229  0.198883  1
  Sn  Sn13  1  0.666779  0.333221  0.183550  1
  Sn  Sn14  1  0.666679  0.333321  0.878068  1
  Sn  Sn15  1  0.332776  0.667224  0.121131  1
  Sn  Sn16  1  0.346441  0.346480  0.999930  1
  Sn  Sn17  1  0.000062  0.653567  0.999950  1
  Sn  Sn18  1  0.653546  0.999996  0.999953  1
  Sn  Sn19  1  0.653520  0.653559  0.999930  1
  Sn  Sn20  1  0.333324  0.666676  0.816372  1
  Sn  Sn21  1  0.438115  0.218536  0.452806  1
  Sn  Sn22  1  0.219045  0.780955  0.547511  1
  Sn  Sn23  1  0.218844  0.438087  0.547795  1
  Sn  Sn24  1  0.561913  0.781156  0.547795  1
  Sn  Sn25  1  0.118122  0.881878  0.274291  1
  Sn  Sn26  1  0.781464  0.561885  0.452806  1
  Sn  Sn27  1  0.780996  0.219004  0.452581  1
  Sn  Sn28  1  0.346433  0.999938  0.999950  1
  Sn  Sn29  1  0.117389  0.235379  0.274215  1
  Sn  Sn30  1  0.764621  0.882611  0.274215  1
  Sn  Sn31  1  0.235848  0.117860  0.725704  1
  Sn  Sn32  1  0.882140  0.764152  0.725704  1
  Sn  Sn33  1  0.881896  0.118104  0.725716  1
  Sn  Sn34  1  0.000085  0.999915  0.500028  1
  Sn  Sn35  1  0.000004  0.346454  0.999953  1
