# generated using pymatgen
data_Tm6Co17Si11MoP
_symmetry_space_group_name_H-M   'P 1'
_cell_length_a   3.74523100
_cell_length_b   10.67193220
_cell_length_c   12.29312840
_cell_angle_alpha   90.05455129
_cell_angle_beta   90.00000000
_cell_angle_gamma   90.00000000
_symmetry_Int_Tables_number   1
_chemical_formula_structural   Tm6Co17Si11MoP
_chemical_formula_sum   'Tm6 Co17 Si11 Mo1 P1'
_cell_volume   491.34199854
_cell_formula_units_Z   1
loop_
 _symmetry_equiv_pos_site_id
 _symmetry_equiv_pos_as_xyz
  1  'x, y, z'
loop_
 _atom_site_type_symbol
 _atom_site_label
 _atom_site_symmetry_multiplicity
 _atom_site_fract_x
 _atom_site_fract_y
 _atom_site_fract_z
 _atom_site_occupancy
  Tm  Tm0  1  0.000000  0.499749  0.527256  1
  Tm  Tm1  1  0.500000  0.999931  0.473099  1
  Tm  Tm2  1  0.500000  0.819698  0.207232  1
  Tm  Tm3  1  0.500000  0.182814  0.205289  1
  Tm  Tm4  1  0.000000  0.681112  0.797780  1
  Tm  Tm5  1  0.000000  0.317980  0.796156  1
  Co  Co6  1  0.000000  0.002359  0.847518  1
  Co  Co7  1  0.500000  0.499769  0.696452  1
  Co  Co8  1  0.000000  0.999918  0.303749  1
  Co  Co9  1  0.000000  0.496326  0.985256  1
  Co  Co10  1  0.500000  0.001272  0.017605  1
  Co  Co11  1  0.500000  0.327056  0.993265  1
  Co  Co12  1  0.500000  0.671228  0.991616  1
  Co  Co13  1  0.000000  0.168335  0.006107  1
  Co  Co14  1  0.000000  0.835335  0.003158  1
  Co  Co15  1  0.500000  0.300606  0.431339  1
  Co  Co16  1  0.500000  0.699219  0.432681  1
  Co  Co17  1  0.000000  0.197884  0.570574  1
  Co  Co18  1  0.000000  0.802281  0.571566  1
  Co  Co19  1  0.500000  0.883688  0.706994  1
  Co  Co20  1  0.500000  0.117036  0.706474  1
  Co  Co21  1  0.000000  0.619105  0.292977  1
  Co  Co22  1  0.000000  0.378735  0.289174  1
  Si  Si23  1  0.500000  0.499166  0.882363  1
  Si  Si24  1  0.000000  0.000133  0.118602  1
  Si  Si25  1  0.500000  0.499886  0.345843  1
  Si  Si26  1  0.000000  0.000202  0.659916  1
  Si  Si27  1  0.500000  0.304779  0.616089  1
  Si  Si28  1  0.500000  0.695367  0.617213  1
  Si  Si29  1  0.000000  0.194777  0.385728  1
  Si  Si30  1  0.000000  0.804848  0.386715  1
  Si  Si31  1  0.500000  0.854792  0.890729  1
  Si  Si32  1  0.500000  0.145960  0.890257  1
  Si  Si33  1  0.000000  0.657982  0.103698  1
  Mo  Mo34  1  0.500000  0.498271  0.146195  1
  P  P35  1  0.000000  0.342404  0.103336  1
