# generated using pymatgen
data_Ho8Be(Si4Ni)3
_symmetry_space_group_name_H-M   'P 1'
_cell_length_a   7.90514800
_cell_length_b   7.90514764
_cell_length_c   8.04358000
_cell_angle_alpha   90.00000000
_cell_angle_beta   90.00000000
_cell_angle_gamma   120.00000986
_symmetry_Int_Tables_number   1
_chemical_formula_structural   Ho8Be(Si4Ni)3
_chemical_formula_sum   'Ho8 Be1 Si12 Ni3'
_cell_volume   435.31132411
_cell_formula_units_Z   1
loop_
 _symmetry_equiv_pos_site_id
 _symmetry_equiv_pos_as_xyz
  1  'x, y, z'
loop_
 _atom_site_type_symbol
 _atom_site_label
 _atom_site_symmetry_multiplicity
 _atom_site_fract_x
 _atom_site_fract_y
 _atom_site_fract_z
 _atom_site_occupancy
  Ho  Ho0  1  0.000000  0.000000  0.250628  1
  Ho  Ho1  1  0.000000  0.000000  0.749390  1
  Ho  Ho2  1  0.500376  0.499624  0.250827  1
  Ho  Ho3  1  0.500376  0.000751  0.250827  1
  Ho  Ho4  1  0.999249  0.499624  0.250827  1
  Ho  Ho5  1  0.499605  0.500395  0.749239  1
  Ho  Ho6  1  0.499605  0.999211  0.749239  1
  Ho  Ho7  1  0.000789  0.500395  0.749239  1
  Be  Be8  1  0.333333  0.666667  0.002847  1
  Si  Si9  1  0.170882  0.829118  0.499741  1
  Si  Si10  1  0.170882  0.341763  0.499741  1
  Si  Si11  1  0.658237  0.829118  0.499741  1
  Si  Si12  1  0.829068  0.170932  0.500190  1
  Si  Si13  1  0.829068  0.658137  0.500190  1
  Si  Si14  1  0.341863  0.170932  0.500190  1
  Si  Si15  1  0.827999  0.172001  0.999966  1
  Si  Si16  1  0.827999  0.656000  0.999966  1
  Si  Si17  1  0.344000  0.172001  0.999966  1
  Si  Si18  1  0.171277  0.828723  0.000114  1
  Si  Si19  1  0.171277  0.342552  0.000114  1
  Si  Si20  1  0.657448  0.828723  0.000114  1
  Ni  Ni21  1  0.333333  0.666667  0.497446  1
  Ni  Ni22  1  0.666667  0.333333  0.502467  1
  Ni  Ni23  1  0.666667  0.333333  0.996990  1
