# generated using pymatgen
data_Ce3Ho5Lu2(SiB4)4
_symmetry_space_group_name_H-M   'P 1'
_cell_length_a   7.23286888
_cell_length_b   7.23286888
_cell_length_c   8.09736101
_cell_angle_alpha   89.99565351
_cell_angle_beta   89.99565351
_cell_angle_gamma   90.13300335
_symmetry_Int_Tables_number   1
_chemical_formula_structural   Ce3Ho5Lu2(SiB4)4
_chemical_formula_sum   'Ce3 Ho5 Lu2 Si4 B16'
_cell_volume   423.60737592
_cell_formula_units_Z   1
loop_
 _symmetry_equiv_pos_site_id
 _symmetry_equiv_pos_as_xyz
  1  'x, y, z'
loop_
 _atom_site_type_symbol
 _atom_site_label
 _atom_site_symmetry_multiplicity
 _atom_site_fract_x
 _atom_site_fract_y
 _atom_site_fract_z
 _atom_site_occupancy
  Ce  Ce0  1  0.681822  0.181822  0.230140  1
  Ce  Ce1  1  0.317726  0.817726  0.769829  1
  Ce  Ce2  1  0.318527  0.818527  0.230828  1
  Ho  Ho3  1  0.820099  0.679599  0.222487  1
  Ho  Ho4  1  0.819916  0.679985  0.777598  1
  Ho  Ho5  1  0.681533  0.181533  0.776875  1
  Ho  Ho6  1  0.179985  0.319916  0.777598  1
  Ho  Ho7  1  0.179599  0.320099  0.222487  1
  Lu  Lu8  1  0.999500  0.000729  0.500640  1
  Lu  Lu9  1  0.500729  0.499500  0.500640  1
  Si  Si10  1  0.114689  0.614689  0.500409  1
  Si  Si11  1  0.883339  0.383339  0.500830  1
  Si  Si12  1  0.384079  0.117130  0.500951  1
  Si  Si13  1  0.617130  0.884079  0.500951  1
  B  B14  1  0.172027  0.039371  0.998967  1
  B  B15  1  0.827145  0.961361  0.999190  1
  B  B16  1  0.959810  0.172604  0.999050  1
  B  B17  1  0.328336  0.538936  0.999108  1
  B  B18  1  0.038936  0.828336  0.999108  1
  B  B19  1  0.672604  0.459810  0.999050  1
  B  B20  1  0.539371  0.672027  0.998967  1
  B  B21  1  0.461361  0.327145  0.999190  1
  B  B22  1  0.091047  0.591047  0.999316  1
  B  B23  1  0.909109  0.409109  0.000636  1
  B  B24  1  0.410002  0.090685  0.999369  1
  B  B25  1  0.590685  0.910002  0.999369  1
  B  B26  1  0.999686  0.000309  0.162036  1
  B  B27  1  0.000362  0.000535  0.836173  1
  B  B28  1  0.500535  0.500362  0.836173  1
  B  B29  1  0.500309  0.499686  0.162036  1
