# generated using pymatgen
data_Al4RuRh3
_symmetry_space_group_name_H-M   'P 1'
_cell_length_a   6.02318200
_cell_length_b   4.24813900
_cell_length_c   8.52446000
_cell_angle_alpha   90.00000000
_cell_angle_beta   89.99979072
_cell_angle_gamma   90.00000000
_symmetry_Int_Tables_number   1
_chemical_formula_structural   Al4RuRh3
_chemical_formula_sum   'Al8 Ru2 Rh6'
_cell_volume   218.11803775
_cell_formula_units_Z   2
loop_
 _symmetry_equiv_pos_site_id
 _symmetry_equiv_pos_as_xyz
  1  'x, y, z'
loop_
 _atom_site_type_symbol
 _atom_site_label
 _atom_site_symmetry_multiplicity
 _atom_site_fract_x
 _atom_site_fract_y
 _atom_site_fract_z
 _atom_site_occupancy
  Al  Al0  1  0.498149  0.750000  0.122389  1
  Al  Al1  1  0.001850  0.750000  0.122394  1
  Al  Al2  1  0.501854  0.250000  0.377605  1
  Al  Al3  1  0.998148  0.250000  0.377610  1
  Al  Al4  1  0.998271  0.750000  0.627452  1
  Al  Al5  1  0.501726  0.750000  0.627456  1
  Al  Al6  1  0.001739  0.250000  0.872546  1
  Al  Al7  1  0.498255  0.250000  0.872552  1
  Ru  Ru8  1  0.750002  0.250000  0.624553  1
  Ru  Ru9  1  0.249995  0.750000  0.875445  1
  Rh  Rh10  1  0.750003  0.250000  0.125621  1
  Rh  Rh11  1  0.250005  0.750000  0.374379  1
  Rh  Rh12  1  0.249995  0.250000  0.127265  1
  Rh  Rh13  1  0.750004  0.750000  0.372740  1
  Rh  Rh14  1  0.249999  0.250000  0.623043  1
  Rh  Rh15  1  0.750002  0.750000  0.876953  1
