# generated using pymatgen
data_Ho8Zn3Si12Ru
_symmetry_space_group_name_H-M   'P 1'
_cell_length_a   8.10886700
_cell_length_b   8.10886741
_cell_length_c   7.98086600
_cell_angle_alpha   90.00000000
_cell_angle_beta   90.00000000
_cell_angle_gamma   120.00000242
_symmetry_Int_Tables_number   1
_chemical_formula_structural   Ho8Zn3Si12Ru
_chemical_formula_sum   'Ho8 Zn3 Si12 Ru1'
_cell_volume   454.46560091
_cell_formula_units_Z   1
loop_
 _symmetry_equiv_pos_site_id
 _symmetry_equiv_pos_as_xyz
  1  'x, y, z'
loop_
 _atom_site_type_symbol
 _atom_site_label
 _atom_site_symmetry_multiplicity
 _atom_site_fract_x
 _atom_site_fract_y
 _atom_site_fract_z
 _atom_site_occupancy
  Ho  Ho0  1  0.499435  0.998868  0.252051  1
  Ho  Ho1  1  0.496736  0.993473  0.748013  1
  Ho  Ho2  1  0.001132  0.500565  0.252051  1
  Ho  Ho3  1  0.006527  0.503264  0.748013  1
  Ho  Ho4  1  0.499435  0.500565  0.252051  1
  Ho  Ho5  1  0.496736  0.503264  0.748013  1
  Ho  Ho6  1  0.000000  0.000000  0.248857  1
  Ho  Ho7  1  0.000000  0.000000  0.751458  1
  Zn  Zn8  1  0.333333  0.666667  0.007630  1
  Zn  Zn9  1  0.666667  0.333333  0.993424  1
  Zn  Zn10  1  0.666667  0.333333  0.502328  1
  Si  Si11  1  0.166747  0.333493  0.998096  1
  Si  Si12  1  0.833993  0.667987  0.001741  1
  Si  Si13  1  0.666507  0.833253  0.998096  1
  Si  Si14  1  0.836828  0.673658  0.501595  1
  Si  Si15  1  0.332013  0.166007  0.001741  1
  Si  Si16  1  0.170045  0.340088  0.498308  1
  Si  Si17  1  0.166747  0.833253  0.998096  1
  Si  Si18  1  0.326342  0.163172  0.501595  1
  Si  Si19  1  0.833993  0.166007  0.001741  1
  Si  Si20  1  0.659912  0.829955  0.498308  1
  Si  Si21  1  0.836828  0.163172  0.501595  1
  Si  Si22  1  0.170045  0.829955  0.498308  1
  Ru  Ru23  1  0.333333  0.666667  0.496891  1
