# generated using pymatgen
data_Er3Co9CuGeB4
_symmetry_space_group_name_H-M   'P 1'
_cell_length_a   5.08847700
_cell_length_b   5.08847645
_cell_length_c   9.58602700
_cell_angle_alpha   90.00000000
_cell_angle_beta   90.00000000
_cell_angle_gamma   119.99999709
_symmetry_Int_Tables_number   1
_chemical_formula_structural   Er3Co9CuGeB4
_chemical_formula_sum   'Er3 Co9 Cu1 Ge1 B4'
_cell_volume   214.95367618
_cell_formula_units_Z   1
loop_
 _symmetry_equiv_pos_site_id
 _symmetry_equiv_pos_as_xyz
  1  'x, y, z'
loop_
 _atom_site_type_symbol
 _atom_site_label
 _atom_site_symmetry_multiplicity
 _atom_site_fract_x
 _atom_site_fract_y
 _atom_site_fract_z
 _atom_site_occupancy
  Er  Er0  1  0.000000  0.000000  0.000000  1
  Er  Er1  1  0.000000  0.000000  0.659706  1
  Er  Er2  1  0.000000  0.000000  0.340294  1
  Co  Co3  1  0.500123  0.499877  0.500000  1
  Co  Co4  1  0.500123  0.000247  0.500000  1
  Co  Co5  1  0.999753  0.499877  0.500000  1
  Co  Co6  1  0.499676  0.500324  0.794246  1
  Co  Co7  1  0.499676  0.999352  0.794246  1
  Co  Co8  1  0.000648  0.500324  0.794246  1
  Co  Co9  1  0.499676  0.500324  0.205754  1
  Co  Co10  1  0.499676  0.999352  0.205754  1
  Co  Co11  1  0.000648  0.500324  0.205754  1
  Cu  Cu12  1  0.666667  0.333333  0.000000  1
  Ge  Ge13  1  0.333333  0.666667  0.000000  1
  B  B14  1  0.666667  0.333333  0.651548  1
  B  B15  1  0.333333  0.666667  0.650983  1
  B  B16  1  0.333333  0.666667  0.349017  1
  B  B17  1  0.666667  0.333333  0.348452  1
