# generated using pymatgen
data_Er8Zr2IrRh5
_symmetry_space_group_name_H-M   'P 1'
_cell_length_a   10.83562712
_cell_length_b   10.83705500
_cell_length_c   6.21854500
_cell_angle_alpha   90.00000000
_cell_angle_beta   90.29344868
_cell_angle_gamma   90.00000000
_symmetry_Int_Tables_number   1
_chemical_formula_structural   Er8Zr2IrRh5
_chemical_formula_sum   'Er16 Zr4 Ir2 Rh10'
_cell_volume   730.21107269
_cell_formula_units_Z   2
loop_
 _symmetry_equiv_pos_site_id
 _symmetry_equiv_pos_as_xyz
  1  'x, y, z'
loop_
 _atom_site_type_symbol
 _atom_site_label
 _atom_site_symmetry_multiplicity
 _atom_site_fract_x
 _atom_site_fract_y
 _atom_site_fract_z
 _atom_site_occupancy
  Er  Er0  1  0.289751  0.088714  0.373520  1
  Er  Er1  1  0.289751  0.911286  0.873520  1
  Er  Er2  1  0.710515  0.087319  0.873919  1
  Er  Er3  1  0.710515  0.912681  0.373919  1
  Er  Er4  1  0.585791  0.788914  0.874283  1
  Er  Er5  1  0.585791  0.211086  0.374283  1
  Er  Er6  1  0.412335  0.789210  0.374533  1
  Er  Er7  1  0.412335  0.210790  0.874533  1
  Er  Er8  1  0.211393  0.414010  0.625451  1
  Er  Er9  1  0.211393  0.585990  0.125451  1
  Er  Er10  1  0.789539  0.412488  0.125790  1
  Er  Er11  1  0.789539  0.587512  0.625790  1
  Er  Er12  1  0.912914  0.710657  0.126105  1
  Er  Er13  1  0.912914  0.289343  0.626105  1
  Er  Er14  1  0.089024  0.710124  0.626532  1
  Er  Er15  1  0.089024  0.289876  0.126532  1
  Zr  Zr16  1  0.000174  0.000406  0.500010  1
  Zr  Zr17  1  0.000174  0.999594  0.000010  1
  Zr  Zr18  1  0.499514  0.500300  0.000136  1
  Zr  Zr19  1  0.499514  0.499700  0.500136  1
  Ir  Ir20  1  0.353604  0.352288  0.249556  1
  Ir  Ir21  1  0.353604  0.647712  0.749556  1
  Rh  Rh22  1  0.853165  0.146415  0.250243  1
  Rh  Rh23  1  0.853165  0.853585  0.750243  1
  Rh  Rh24  1  0.145601  0.145965  0.749771  1
  Rh  Rh25  1  0.145601  0.854035  0.249771  1
  Rh  Rh26  1  0.647396  0.353581  0.750093  1
  Rh  Rh27  1  0.647396  0.646419  0.250093  1
  Rh  Rh28  1  0.500527  0.999692  0.119972  1
  Rh  Rh29  1  0.500527  0.000308  0.619972  1
  Rh  Rh30  1  0.998759  0.500013  0.880086  1
  Rh  Rh31  1  0.998759  0.499987  0.380086  1
