# generated using pymatgen
data_K5Rb9V2(In3P5)2
_symmetry_space_group_name_H-M   'P 1'
_cell_length_a   8.27961405
_cell_length_b   9.22896669
_cell_length_c   14.11224828
_cell_angle_alpha   85.45895570
_cell_angle_beta   83.91881694
_cell_angle_gamma   87.90015658
_symmetry_Int_Tables_number   1
_chemical_formula_structural   K5Rb9V2(In3P5)2
_chemical_formula_sum   'K5 Rb9 V2 In6 P10'
_cell_volume   1068.48068591
_cell_formula_units_Z   1
loop_
 _symmetry_equiv_pos_site_id
 _symmetry_equiv_pos_as_xyz
  1  'x, y, z'
loop_
 _atom_site_type_symbol
 _atom_site_label
 _atom_site_symmetry_multiplicity
 _atom_site_fract_x
 _atom_site_fract_y
 _atom_site_fract_z
 _atom_site_occupancy
  K  K0  1  0.823366  0.799084  0.134613  1
  K  K1  1  0.179469  0.200020  0.864225  1
  K  K2  1  0.276009  0.265023  0.246700  1
  K  K3  1  0.723532  0.732921  0.755135  1
  K  K4  1  0.737234  0.496943  0.977411  1
  Rb  Rb5  1  0.258324  0.498916  0.025120  1
  Rb  Rb6  1  0.679142  0.085034  0.888151  1
  Rb  Rb7  1  0.322505  0.916689  0.110877  1
  Rb  Rb8  1  0.678765  0.651146  0.399688  1
  Rb  Rb9  1  0.325976  0.349860  0.599723  1
  Rb  Rb10  1  0.752915  0.983683  0.534474  1
  Rb  Rb11  1  0.243402  0.015384  0.466154  1
  Rb  Rb12  1  0.829446  0.357574  0.650574  1
  Rb  Rb13  1  0.174891  0.640808  0.349663  1
  V  V14  1  0.651055  0.392989  0.223389  1
  V  V15  1  0.349676  0.608627  0.775979  1
  In  In16  1  0.908060  0.278434  0.373351  1
  In  In17  1  0.089975  0.720526  0.627123  1
  In  In18  1  0.945942  0.186455  0.125168  1
  In  In19  1  0.052377  0.812435  0.875078  1
  In  In20  1  0.633992  0.044099  0.292141  1
  In  In21  1  0.363664  0.956850  0.706622  1
  P  P22  1  0.501852  0.587593  0.187304  1
  P  P23  1  0.504073  0.416623  0.812300  1
  P  P24  1  0.922382  0.452008  0.207072  1
  P  P25  1  0.078463  0.546699  0.793508  1
  P  P26  1  0.579667  0.297527  0.381035  1
  P  P27  1  0.418754  0.703847  0.618113  1
  P  P28  1  0.619274  0.206294  0.123161  1
  P  P29  1  0.379016  0.797098  0.875361  1
  P  P30  1  0.971794  0.004197  0.293748  1
  P  P31  1  0.025009  0.994613  0.707040  1
