# generated using pymatgen
data_NdZn3As2P
_symmetry_space_group_name_H-M   'P 1'
_cell_length_a   4.15097949
_cell_length_b   4.15385004
_cell_length_c   20.48036900
_cell_angle_alpha   90.00000000
_cell_angle_beta   90.00000000
_cell_angle_gamma   60.01247214
_symmetry_Int_Tables_number   1
_chemical_formula_structural   NdZn3As2P
_chemical_formula_sum   'Nd2 Zn6 As4 P2'
_cell_volume   305.86119206
_cell_formula_units_Z   2
loop_
 _symmetry_equiv_pos_site_id
 _symmetry_equiv_pos_as_xyz
  1  'x, y, z'
loop_
 _atom_site_type_symbol
 _atom_site_label
 _atom_site_symmetry_multiplicity
 _atom_site_fract_x
 _atom_site_fract_y
 _atom_site_fract_z
 _atom_site_occupancy
  Nd  Nd0  1  0.997553  0.000744  0.500026  1
  Nd  Nd1  1  0.997553  0.000744  0.999974  1
  Zn  Zn2  1  0.332631  0.335219  0.132163  1
  Zn  Zn3  1  0.667779  0.666721  0.867791  1
  Zn  Zn4  1  0.667779  0.666721  0.632209  1
  Zn  Zn5  1  0.332631  0.335219  0.367837  1
  Zn  Zn6  1  0.271762  0.362544  0.750000  1
  Zn  Zn7  1  0.637228  0.635428  0.250000  1
  As  As8  1  0.332947  0.333829  0.588222  1
  As  As9  1  0.664999  0.668098  0.411833  1
  As  As10  1  0.664999  0.668098  0.088167  1
  As  As11  1  0.332947  0.333829  0.911778  1
  P  P12  1  0.598836  0.698746  0.750000  1
  P  P13  1  0.301157  0.299157  0.250000  1
