# generated using pymatgen
data_Hg3(WF6)2
_symmetry_space_group_name_H-M   'P 1'
_cell_length_a   8.99623800
_cell_length_b   6.07651923
_cell_length_c   12.50468771
_cell_angle_alpha   87.00574758
_cell_angle_beta   90.00000000
_cell_angle_gamma   90.00000000
_symmetry_Int_Tables_number   1
_chemical_formula_structural   Hg3(WF6)2
_chemical_formula_sum   'Hg6 W4 F24'
_cell_volume   682.64568643
_cell_formula_units_Z   2
loop_
 _symmetry_equiv_pos_site_id
 _symmetry_equiv_pos_as_xyz
  1  'x, y, z'
loop_
 _atom_site_type_symbol
 _atom_site_label
 _atom_site_symmetry_multiplicity
 _atom_site_fract_x
 _atom_site_fract_y
 _atom_site_fract_z
 _atom_site_occupancy
  Hg  Hg0  1  0.726553  0.748907  0.560880  1
  Hg  Hg1  1  0.226553  0.251093  0.939120  1
  Hg  Hg2  1  0.273447  0.251093  0.439120  1
  Hg  Hg3  1  0.773447  0.748907  0.060880  1
  Hg  Hg4  1  0.500000  0.000000  0.500000  1
  Hg  Hg5  1  0.000000  0.000000  0.000000  1
  W  W6  1  0.144610  0.710496  0.670727  1
  W  W7  1  0.644610  0.289504  0.829273  1
  W  W8  1  0.855390  0.289504  0.329273  1
  W  W9  1  0.355390  0.710496  0.170727  1
  F  F10  1  0.953531  0.589690  0.615010  1
  F  F11  1  0.453531  0.410310  0.884990  1
  F  F12  1  0.046469  0.410310  0.384990  1
  F  F13  1  0.546469  0.589690  0.115010  1
  F  F14  1  0.203984  0.420034  0.719540  1
  F  F15  1  0.703984  0.579966  0.780460  1
  F  F16  1  0.796016  0.579966  0.280460  1
  F  F17  1  0.296016  0.420034  0.219540  1
  F  F18  1  0.057348  0.734151  0.811894  1
  F  F19  1  0.557348  0.265849  0.688106  1
  F  F20  1  0.171419  0.843492  0.215397  1
  F  F21  1  0.671419  0.156508  0.284603  1
  F  F22  1  0.828581  0.156508  0.784603  1
  F  F23  1  0.328581  0.843492  0.715397  1
  F  F24  1  0.259539  0.664535  0.032222  1
  F  F25  1  0.759539  0.335465  0.467778  1
  F  F26  1  0.740461  0.335465  0.967778  1
  F  F27  1  0.240461  0.664535  0.532222  1
  F  F28  1  0.424517  0.988856  0.114044  1
  F  F29  1  0.924517  0.011144  0.385956  1
  F  F30  1  0.575483  0.011144  0.885956  1
  F  F31  1  0.075483  0.988856  0.614044  1
  F  F32  1  0.442652  0.734151  0.311894  1
  F  F33  1  0.942652  0.265849  0.188106  1
