# generated using pymatgen
data_Er2Co9Tc3As7
_symmetry_space_group_name_H-M   'P 1'
_cell_length_a   3.81339000
_cell_length_b   9.33380454
_cell_length_c   9.33380600
_cell_angle_alpha   119.99999809
_cell_angle_beta   90.00000000
_cell_angle_gamma   90.00000000
_symmetry_Int_Tables_number   1
_chemical_formula_structural   Er2Co9Tc3As7
_chemical_formula_sum   'Er2 Co9 Tc3 As7'
_cell_volume   287.71290058
_cell_formula_units_Z   1
loop_
 _symmetry_equiv_pos_site_id
 _symmetry_equiv_pos_as_xyz
  1  'x, y, z'
loop_
 _atom_site_type_symbol
 _atom_site_label
 _atom_site_symmetry_multiplicity
 _atom_site_fract_x
 _atom_site_fract_y
 _atom_site_fract_z
 _atom_site_occupancy
  Er  Er0  1  0.000000  0.666667  0.333333  1
  Er  Er1  1  0.500000  0.333333  0.666667  1
  Co  Co2  1  0.000000  0.568403  0.940290  1
  Co  Co3  1  0.000000  0.371887  0.431597  1
  Co  Co4  1  0.000000  0.059710  0.628113  1
  Co  Co5  1  0.000000  0.875382  0.157675  1
  Co  Co6  1  0.000000  0.282292  0.124618  1
  Co  Co7  1  0.000000  0.842325  0.717708  1
  Co  Co8  1  0.500000  0.946322  0.380865  1
  Co  Co9  1  0.500000  0.434541  0.053678  1
  Co  Co10  1  0.500000  0.619135  0.565459  1
  Tc  Tc11  1  0.500000  0.782612  0.900509  1
  Tc  Tc12  1  0.500000  0.117897  0.217388  1
  Tc  Tc13  1  0.500000  0.099491  0.882103  1
  As  As14  1  0.000000  0.000000  0.000000  1
  As  As15  1  0.500000  0.706625  0.117246  1
  As  As16  1  0.500000  0.410622  0.293375  1
  As  As17  1  0.500000  0.882754  0.589378  1
  As  As18  1  0.000000  0.587054  0.701641  1
  As  As19  1  0.000000  0.114588  0.412946  1
  As  As20  1  0.000000  0.298359  0.885412  1
