# generated using pymatgen
data_PrNdFe5(PIr)7
_symmetry_space_group_name_H-M   'P 1'
_cell_length_a   9.42234285
_cell_length_b   9.43188613
_cell_length_c   3.89921000
_cell_angle_alpha   90.00000000
_cell_angle_beta   90.00000000
_cell_angle_gamma   120.22953683
_symmetry_Int_Tables_number   1
_chemical_formula_structural   PrNdFe5(PIr)7
_chemical_formula_sum   'Pr1 Nd1 Fe5 P7 Ir7'
_cell_volume   299.40258609
_cell_formula_units_Z   1
loop_
 _symmetry_equiv_pos_site_id
 _symmetry_equiv_pos_as_xyz
  1  'x, y, z'
loop_
 _atom_site_type_symbol
 _atom_site_label
 _atom_site_symmetry_multiplicity
 _atom_site_fract_x
 _atom_site_fract_y
 _atom_site_fract_z
 _atom_site_occupancy
  Pr  Pr0  1  0.334132  0.670130  0.000000  1
  Nd  Nd1  1  0.667355  0.333900  0.500000  1
  Fe  Fe2  1  0.158709  0.897826  0.000000  1
  Fe  Fe3  1  0.107059  0.263350  0.000000  1
  Fe  Fe4  1  0.733072  0.839694  0.000000  1
  Fe  Fe5  1  0.879407  0.086845  0.500000  1
  Fe  Fe6  1  0.911029  0.788750  0.500000  1
  P  P7  1  0.407966  0.107016  0.000000  1
  P  P8  1  0.892158  0.295102  0.000000  1
  P  P9  1  0.706736  0.597058  0.000000  1
  P  P10  1  0.107493  0.721635  0.500000  1
  P  P11  1  0.278379  0.396817  0.500000  1
  P  P12  1  0.614374  0.888736  0.500000  1
  P  P13  1  0.994456  0.996974  0.000000  1
  Ir  Ir14  1  0.425595  0.362635  0.000000  1
  Ir  Ir15  1  0.635601  0.061289  0.000000  1
  Ir  Ir16  1  0.940165  0.573749  0.000000  1
  Ir  Ir17  1  0.381857  0.946581  0.500000  1
  Ir  Ir18  1  0.050798  0.433661  0.500000  1
  Ir  Ir19  1  0.563178  0.613529  0.500000  1
  Ir  Ir20  1  0.210483  0.124724  0.500000  1
