# generated using pymatgen
data_Sr8YScSn6
_symmetry_space_group_name_H-M   'P 1'
_cell_length_a   9.71045046
_cell_length_b   9.71011050
_cell_length_c   9.71045062
_cell_angle_alpha   96.82795496
_cell_angle_beta   96.83032470
_cell_angle_gamma   139.65965566
_symmetry_Int_Tables_number   1
_chemical_formula_structural   Sr8YScSn6
_chemical_formula_sum   'Sr8 Y1 Sc1 Sn6'
_cell_volume   556.33071059
_cell_formula_units_Z   1
loop_
 _symmetry_equiv_pos_site_id
 _symmetry_equiv_pos_as_xyz
  1  'x, y, z'
loop_
 _atom_site_type_symbol
 _atom_site_label
 _atom_site_symmetry_multiplicity
 _atom_site_fract_x
 _atom_site_fract_y
 _atom_site_fract_z
 _atom_site_occupancy
  Sr  Sr0  1  0.084997  0.212056  0.299033  1
  Sr  Sr1  1  0.913037  0.785973  0.700971  1
  Sr  Sr2  1  0.787939  0.086964  0.872936  1
  Sr  Sr3  1  0.414998  0.714027  0.127064  1
  Sr  Sr4  1  0.214038  0.915008  0.127058  1
  Sr  Sr5  1  0.586978  0.287944  0.872941  1
  Sr  Sr6  1  0.712050  0.584992  0.299030  1
  Sr  Sr7  1  0.285973  0.413036  0.700976  1
  Y  Y8  1  0.250007  0.750000  0.500007  1
  Sc  Sc9  1  0.749988  0.250000  0.499988  1
  Sn  Sn10  1  0.132925  0.632924  0.785640  1
  Sn  Sn11  1  0.847294  0.347296  0.214370  1
  Sn  Sn12  1  0.367072  0.152704  0.499998  1
  Sn  Sn13  1  0.652717  0.867076  0.500000  1
  Sn  Sn14  1  0.249995  0.250000  0.999995  1
  Sn  Sn15  1  0.749994  0.750000  0.999994  1
