# generated using pymatgen
data_Er6Tm10MgCd3Ir4
_symmetry_space_group_name_H-M   'P 1'
_cell_length_a   9.59092115
_cell_length_b   9.59092118
_cell_length_c   9.59092166
_cell_angle_alpha   59.41582834
_cell_angle_beta   59.41582756
_cell_angle_gamma   59.41583508
_symmetry_Int_Tables_number   1
_chemical_formula_structural   Er6Tm10MgCd3Ir4
_chemical_formula_sum   'Er6 Tm10 Mg1 Cd3 Ir4'
_cell_volume   615.53745373
_cell_formula_units_Z   1
loop_
 _symmetry_equiv_pos_site_id
 _symmetry_equiv_pos_as_xyz
  1  'x, y, z'
loop_
 _atom_site_type_symbol
 _atom_site_label
 _atom_site_symmetry_multiplicity
 _atom_site_fract_x
 _atom_site_fract_y
 _atom_site_fract_z
 _atom_site_occupancy
  Er  Er0  1  0.188831  0.812534  0.812534  1
  Er  Er1  1  0.811851  0.187683  0.187683  1
  Er  Er2  1  0.812534  0.188831  0.812534  1
  Er  Er3  1  0.187683  0.811851  0.187683  1
  Er  Er4  1  0.812534  0.812534  0.188831  1
  Er  Er5  1  0.187683  0.187683  0.811851  1
  Tm  Tm6  1  0.600282  0.600282  0.600282  1
  Tm  Tm7  1  0.598614  0.598614  0.206503  1
  Tm  Tm8  1  0.598614  0.206503  0.598614  1
  Tm  Tm9  1  0.206503  0.598614  0.598614  1
  Tm  Tm10  1  0.059348  0.440018  0.440018  1
  Tm  Tm11  1  0.436305  0.061606  0.061606  1
  Tm  Tm12  1  0.440018  0.059348  0.440018  1
  Tm  Tm13  1  0.061606  0.436305  0.061606  1
  Tm  Tm14  1  0.440018  0.440018  0.059348  1
  Tm  Tm15  1  0.061606  0.061606  0.436305  1
  Mg  Mg16  1  0.824381  0.824381  0.824381  1
  Cd  Cd17  1  0.831075  0.831075  0.504260  1
  Cd  Cd18  1  0.831075  0.504260  0.831075  1
  Cd  Cd19  1  0.504260  0.831075  0.831075  1
  Ir  Ir20  1  0.392218  0.392218  0.392218  1
  Ir  Ir21  1  0.393570  0.393570  0.825818  1
  Ir  Ir22  1  0.393570  0.825818  0.393570  1
  Ir  Ir23  1  0.825818  0.393570  0.393570  1
