# generated using pymatgen
data_BaCd10Au
_symmetry_space_group_name_H-M   'P 1'
_cell_length_a   9.44389084
_cell_length_b   9.44389111
_cell_length_c   9.44471946
_cell_angle_alpha   99.87735447
_cell_angle_beta   99.87735725
_cell_angle_gamma   131.07169673
_symmetry_Int_Tables_number   1
_chemical_formula_structural   BaCd10Au
_chemical_formula_sum   'Ba2 Cd20 Au2'
_cell_volume   577.99339035
_cell_formula_units_Z   2
loop_
 _symmetry_equiv_pos_site_id
 _symmetry_equiv_pos_as_xyz
  1  'x, y, z'
loop_
 _atom_site_type_symbol
 _atom_site_label
 _atom_site_symmetry_multiplicity
 _atom_site_fract_x
 _atom_site_fract_y
 _atom_site_fract_z
 _atom_site_occupancy
  Ba  Ba0  1  0.749295  0.250705  0.500000  1
  Ba  Ba1  1  0.500705  0.499295  0.000000  1
  Cd  Cd2  1  0.924173  0.011588  0.326060  1
  Cd  Cd3  1  0.680631  0.603157  0.677342  1
  Cd  Cd4  1  0.253416  0.746584  0.500000  1
  Cd  Cd5  1  0.996584  0.003416  0.000000  1
  Cd  Cd6  1  0.125000  0.875000  0.250000  1
  Cd  Cd7  1  0.125000  0.875000  0.750000  1
  Cd  Cd8  1  0.921379  0.595406  0.915020  1
  Cd  Cd9  1  0.853157  0.430631  0.177342  1
  Cd  Cd10  1  0.261588  0.674173  0.826060  1
  Cd  Cd11  1  0.685471  0.008499  0.080046  1
  Cd  Cd12  1  0.404594  0.078621  0.084980  1
  Cd  Cd13  1  0.991501  0.314529  0.919954  1
  Cd  Cd14  1  0.569369  0.146843  0.822658  1
  Cd  Cd15  1  0.325827  0.738412  0.173940  1
  Cd  Cd16  1  0.328621  0.154594  0.584980  1
  Cd  Cd17  1  0.396843  0.319369  0.322658  1
  Cd  Cd18  1  0.988412  0.075827  0.673940  1
  Cd  Cd19  1  0.564529  0.741501  0.419954  1
  Cd  Cd20  1  0.845406  0.671379  0.415020  1
  Cd  Cd21  1  0.258499  0.435471  0.580046  1
  Au  Au22  1  0.125000  0.375000  0.250000  1
  Au  Au23  1  0.625000  0.875000  0.750000  1
