# generated using pymatgen
data_PrSm5CoBr10
_symmetry_space_group_name_H-M   'P 1'
_cell_length_a   7.52376887
_cell_length_b   9.31706085
_cell_length_c   9.46409380
_cell_angle_alpha   108.08341215
_cell_angle_beta   96.78276079
_cell_angle_gamma   104.60205756
_symmetry_Int_Tables_number   1
_chemical_formula_structural   PrSm5CoBr10
_chemical_formula_sum   'Pr1 Sm5 Co1 Br10'
_cell_volume   596.22214125
_cell_formula_units_Z   1
loop_
 _symmetry_equiv_pos_site_id
 _symmetry_equiv_pos_as_xyz
  1  'x, y, z'
loop_
 _atom_site_type_symbol
 _atom_site_label
 _atom_site_symmetry_multiplicity
 _atom_site_fract_x
 _atom_site_fract_y
 _atom_site_fract_z
 _atom_site_occupancy
  Pr  Pr0  1  0.036204  0.711891  0.409839  1
  Sm  Sm1  1  0.963819  0.282042  0.588093  1
  Sm  Sm2  1  0.874245  0.950064  0.744222  1
  Sm  Sm3  1  0.127795  0.049801  0.256500  1
  Sm  Sm4  1  0.355882  0.131828  0.678196  1
  Sm  Sm5  1  0.644500  0.870767  0.322359  1
  Co  Co6  1  0.000641  0.999574  0.499977  1
  Br  Br7  1  0.457531  0.822919  0.583468  1
  Br  Br8  1  0.546891  0.181096  0.419089  1
  Br  Br9  1  0.911844  0.628893  0.673298  1
  Br  Br10  1  0.084440  0.365928  0.329856  1
  Br  Br11  1  0.245888  0.084169  0.953493  1
  Br  Br12  1  0.756567  0.920117  0.047962  1
  Br  Br13  1  0.338855  0.447143  0.769603  1
  Br  Br14  1  0.649594  0.551964  0.227664  1
  Br  Br15  1  0.780900  0.249583  0.843252  1
  Br  Br16  1  0.224409  0.752219  0.153129  1
