# generated using pymatgen
data_PuRuCl6
_symmetry_space_group_name_H-M   'P 1'
_cell_length_a   7.26681373
_cell_length_b   7.26681229
_cell_length_c   7.26681492
_cell_angle_alpha   51.88793774
_cell_angle_beta   51.88793810
_cell_angle_gamma   51.88794088
_symmetry_Int_Tables_number   1
_chemical_formula_structural   PuRuCl6
_chemical_formula_sum   'Pu1 Ru1 Cl6'
_cell_volume   219.57507251
_cell_formula_units_Z   1
loop_
 _symmetry_equiv_pos_site_id
 _symmetry_equiv_pos_as_xyz
  1  'x, y, z'
loop_
 _atom_site_type_symbol
 _atom_site_label
 _atom_site_symmetry_multiplicity
 _atom_site_fract_x
 _atom_site_fract_y
 _atom_site_fract_z
 _atom_site_occupancy
  Pu  Pu0  1  0.333476  0.333476  0.333476  1
  Ru  Ru1  1  0.666682  0.666682  0.666682  1
  Cl  Cl2  1  0.042425  0.438697  0.748323  1
  Cl  Cl3  1  0.286319  0.889896  0.594180  1
  Cl  Cl4  1  0.438697  0.748323  0.042425  1
  Cl  Cl5  1  0.594180  0.286319  0.889896  1
  Cl  Cl6  1  0.748323  0.042425  0.438697  1
  Cl  Cl7  1  0.889896  0.594180  0.286319  1
