# generated using pymatgen
data_La5Pr2Dy3Si8O3
_symmetry_space_group_name_H-M   'P 1'
_cell_length_a   10.73996100
_cell_length_b   10.75551703
_cell_length_c   4.53957500
_cell_angle_alpha   90.00000000
_cell_angle_beta   90.00000000
_cell_angle_gamma   119.95217038
_symmetry_Int_Tables_number   1
_chemical_formula_structural   La5Pr2Dy3Si8O3
_chemical_formula_sum   'La5 Pr2 Dy3 Si8 O3'
_cell_volume   454.34832989
_cell_formula_units_Z   1
loop_
 _symmetry_equiv_pos_site_id
 _symmetry_equiv_pos_as_xyz
  1  'x, y, z'
loop_
 _atom_site_type_symbol
 _atom_site_label
 _atom_site_symmetry_multiplicity
 _atom_site_fract_x
 _atom_site_fract_y
 _atom_site_fract_z
 _atom_site_occupancy
  La  La0  1  0.788261  0.576523  0.000000  1
  La  La1  1  0.999895  0.999791  0.000000  1
  La  La2  1  0.211844  0.423686  0.000000  1
  La  La3  1  0.423552  0.211538  0.000000  1
  La  La4  1  0.787985  0.211538  0.000000  1
  Pr  Pr5  1  0.211708  0.788745  0.000000  1
  Pr  Pr6  1  0.577038  0.788745  0.000000  1
  Dy  Dy7  1  0.000495  0.500654  0.500000  1
  Dy  Dy8  1  0.500159  0.500654  0.500000  1
  Dy  Dy9  1  0.499489  0.998977  0.500000  1
  Si  Si10  1  0.000078  0.776517  0.500000  1
  Si  Si11  1  0.999856  0.223046  0.500000  1
  Si  Si12  1  0.223190  0.223046  0.500000  1
  Si  Si13  1  0.776393  0.999789  0.500000  1
  Si  Si14  1  0.333504  0.667009  0.500000  1
  Si  Si15  1  0.223396  0.999789  0.500000  1
  Si  Si16  1  0.666646  0.333291  0.500000  1
  Si  Si17  1  0.776438  0.776517  0.500000  1
  O  O18  1  0.000212  0.500109  0.000000  1
  O  O19  1  0.499897  0.500109  0.000000  1
  O  O20  1  0.499964  0.999928  0.000000  1
