# generated using pymatgen
data_SrAc2B10O19
_symmetry_space_group_name_H-M   'P 1'
_cell_length_a   6.57813657
_cell_length_b   6.57814377
_cell_length_c   9.33890400
_cell_angle_alpha   91.55475560
_cell_angle_beta   91.55470502
_cell_angle_gamma   60.94839666
_symmetry_Int_Tables_number   1
_chemical_formula_structural   SrAc2B10O19
_chemical_formula_sum   'Sr1 Ac2 B10 O19'
_cell_volume   353.09296399
_cell_formula_units_Z   1
loop_
 _symmetry_equiv_pos_site_id
 _symmetry_equiv_pos_as_xyz
  1  'x, y, z'
loop_
 _atom_site_type_symbol
 _atom_site_label
 _atom_site_symmetry_multiplicity
 _atom_site_fract_x
 _atom_site_fract_y
 _atom_site_fract_z
 _atom_site_occupancy
  Sr  Sr0  1  0.188214  0.811787  0.500000  1
  Ac  Ac1  1  0.163873  0.165273  0.143301  1
  Ac  Ac2  1  0.834726  0.836128  0.856699  1
  B  B3  1  0.243864  0.628809  0.125143  1
  B  B4  1  0.636002  0.285226  0.160460  1
  B  B5  1  0.813759  0.840409  0.207398  1
  B  B6  1  0.560580  0.671463  0.265099  1
  B  B7  1  0.744382  0.786965  0.465313  1
  B  B8  1  0.213034  0.255619  0.534688  1
  B  B9  1  0.328535  0.439421  0.734901  1
  B  B10  1  0.159591  0.186241  0.792603  1
  B  B11  1  0.714774  0.363998  0.839539  1
  B  B12  1  0.371190  0.756136  0.874857  1
  O  O13  1  0.235730  0.764270  0.000000  1
  O  O14  1  0.410742  0.371465  0.113410  1
  O  O15  1  0.798324  0.053604  0.135172  1
  O  O16  1  0.014825  0.640450  0.138274  1
  O  O17  1  0.599020  0.832478  0.176942  1
  O  O18  1  0.718876  0.423905  0.218147  1
  O  O19  1  0.314312  0.726034  0.248280  1
  O  O20  1  0.846523  0.857814  0.360849  1
  O  O21  1  0.195188  0.202047  0.396310  1
  O  O22  1  0.602338  0.695500  0.418604  1
  O  O23  1  0.304496  0.397665  0.581396  1
  O  O24  1  0.797951  0.804813  0.603690  1
  O  O25  1  0.142187  0.153477  0.639151  1
  O  O26  1  0.273965  0.685689  0.751720  1
  O  O27  1  0.576094  0.281125  0.781851  1
  O  O28  1  0.167522  0.400980  0.823058  1
  O  O29  1  0.359550  0.985176  0.861727  1
  O  O30  1  0.946395  0.201676  0.864828  1
  O  O31  1  0.628535  0.589258  0.886589  1
