# generated using pymatgen
data_Sc8Be3Si13Mo7W5
_symmetry_space_group_name_H-M   'P 1'
_cell_length_a   6.52338425
_cell_length_b   6.69326284
_cell_length_c   12.66180907
_cell_angle_alpha   89.99354519
_cell_angle_beta   90.00967316
_cell_angle_gamma   89.86891908
_symmetry_Int_Tables_number   1
_chemical_formula_structural   Sc8Be3Si13Mo7W5
_chemical_formula_sum   'Sc8 Be3 Si13 Mo7 W5'
_cell_volume   552.84763400
_cell_formula_units_Z   1
loop_
 _symmetry_equiv_pos_site_id
 _symmetry_equiv_pos_as_xyz
  1  'x, y, z'
loop_
 _atom_site_type_symbol
 _atom_site_label
 _atom_site_symmetry_multiplicity
 _atom_site_fract_x
 _atom_site_fract_y
 _atom_site_fract_z
 _atom_site_occupancy
  Sc  Sc0  1  0.499601  0.670496  0.596057  1
  Sc  Sc1  1  0.998950  0.829646  0.903623  1
  Sc  Sc2  1  0.504379  0.331785  0.092449  1
  Sc  Sc3  1  0.002449  0.173058  0.406207  1
  Sc  Sc4  1  0.504233  0.332040  0.407767  1
  Sc  Sc5  1  0.002633  0.172831  0.094182  1
  Sc  Sc6  1  0.499835  0.670678  0.904041  1
  Sc  Sc7  1  0.998630  0.830217  0.596476  1
  Be  Be8  1  0.458858  0.378984  0.750047  1
  Be  Be9  1  0.957723  0.121052  0.750246  1
  Be  Be10  1  0.540304  0.621802  0.250023  1
  Si  Si11  1  0.669135  0.961644  0.458389  1
  Si  Si12  1  0.168174  0.537839  0.040832  1
  Si  Si13  1  0.331943  0.038957  0.957935  1
  Si  Si14  1  0.831681  0.459583  0.542830  1
  Si  Si15  1  0.332084  0.037907  0.541508  1
  Si  Si16  1  0.832036  0.459153  0.956811  1
  Si  Si17  1  0.668659  0.961804  0.041630  1
  Si  Si18  1  0.168139  0.538268  0.459234  1
  Si  Si19  1  0.035663  0.880871  0.249980  1
  Si  Si20  1  0.708909  0.867009  0.750023  1
  Si  Si21  1  0.209288  0.632827  0.750096  1
  Si  Si22  1  0.300971  0.143814  0.250021  1
  Si  Si23  1  0.790066  0.366427  0.250018  1
  Mo  Mo24  1  0.662452  0.168716  0.627946  1
  Mo  Mo25  1  0.163752  0.330623  0.872313  1
  Mo  Mo26  1  0.336853  0.830218  0.126261  1
  Mo  Mo27  1  0.831220  0.662369  0.375054  1
  Mo  Mo28  1  0.337429  0.830113  0.373396  1
  Mo  Mo29  1  0.831181  0.662363  0.124935  1
  Mo  Mo30  1  0.662332  0.168427  0.871978  1
  W  W31  1  0.163135  0.329428  0.628386  1
  W  W32  1  0.835990  0.488942  0.749730  1
  W  W33  1  0.333591  0.010565  0.749653  1
  W  W34  1  0.164406  0.504316  0.249992  1
  W  W35  1  0.663316  0.995229  0.249933  1
