# generated using pymatgen
data_Sr20IrAu15
_symmetry_space_group_name_H-M   'P 1'
_cell_length_a   8.34623346
_cell_length_b   8.43417601
_cell_length_c   16.24460000
_cell_angle_alpha   90.00000000
_cell_angle_beta   90.00000000
_cell_angle_gamma   89.62822517
_symmetry_Int_Tables_number   1
_chemical_formula_structural   Sr20IrAu15
_chemical_formula_sum   'Sr20 Ir1 Au15'
_cell_volume   1143.49183542
_cell_formula_units_Z   1
loop_
 _symmetry_equiv_pos_site_id
 _symmetry_equiv_pos_as_xyz
  1  'x, y, z'
loop_
 _atom_site_type_symbol
 _atom_site_label
 _atom_site_symmetry_multiplicity
 _atom_site_fract_x
 _atom_site_fract_y
 _atom_site_fract_z
 _atom_site_occupancy
  Sr  Sr0  1  0.335703  0.831046  0.880237  1
  Sr  Sr1  1  0.834354  0.671656  0.618755  1
  Sr  Sr2  1  0.665140  0.166238  0.378472  1
  Sr  Sr3  1  0.167419  0.340881  0.123961  1
  Sr  Sr4  1  0.665140  0.166238  0.121528  1
  Sr  Sr5  1  0.167419  0.340881  0.376039  1
  Sr  Sr6  1  0.335703  0.831046  0.619763  1
  Sr  Sr7  1  0.834354  0.671656  0.881245  1
  Sr  Sr8  1  0.489739  0.322595  0.901434  1
  Sr  Sr9  1  0.990132  0.180262  0.596512  1
  Sr  Sr10  1  0.500437  0.674671  0.394274  1
  Sr  Sr11  1  0.020298  0.808360  0.106819  1
  Sr  Sr12  1  0.500437  0.674671  0.105726  1
  Sr  Sr13  1  0.020298  0.808360  0.393181  1
  Sr  Sr14  1  0.489739  0.322595  0.598566  1
  Sr  Sr15  1  0.990132  0.180262  0.903488  1
  Sr  Sr16  1  0.168680  0.491153  0.750000  1
  Sr  Sr17  1  0.669401  0.013149  0.750000  1
  Sr  Sr18  1  0.839398  0.508461  0.250000  1
  Sr  Sr19  1  0.326561  0.977975  0.250000  1
  Ir  Ir20  1  0.213302  0.625856  0.250000  1
  Au  Au21  1  0.331321  0.025573  0.046848  1
  Au  Au22  1  0.827966  0.475277  0.453462  1
  Au  Au23  1  0.664427  0.983958  0.548834  1
  Au  Au24  1  0.166793  0.520654  0.951959  1
  Au  Au25  1  0.664427  0.983958  0.951166  1
  Au  Au26  1  0.166793  0.520654  0.548041  1
  Au  Au27  1  0.331321  0.025573  0.453152  1
  Au  Au28  1  0.827966  0.475277  0.046538  1
  Au  Au29  1  0.540184  0.612841  0.750000  1
  Au  Au30  1  0.039963  0.887303  0.750000  1
  Au  Au31  1  0.462801  0.395144  0.250000  1
  Au  Au32  1  0.961291  0.113428  0.250000  1
  Au  Au33  1  0.288486  0.129469  0.750000  1
  Au  Au34  1  0.790447  0.373433  0.750000  1
  Au  Au35  1  0.712030  0.869444  0.250000  1
