# generated using pymatgen
data_Ho3ErCr2(SbO7)2
_symmetry_space_group_name_H-M   'P 1'
_cell_length_a   7.25301052
_cell_length_b   7.22513798
_cell_length_c   7.31507000
_cell_angle_alpha   90.00006656
_cell_angle_beta   59.71654635
_cell_angle_gamma   119.88569909
_symmetry_Int_Tables_number   1
_chemical_formula_structural   Ho3ErCr2(SbO7)2
_chemical_formula_sum   'Ho3 Er1 Cr2 Sb2 O14'
_cell_volume   270.36395199
_cell_formula_units_Z   1
loop_
 _symmetry_equiv_pos_site_id
 _symmetry_equiv_pos_as_xyz
  1  'x, y, z'
loop_
 _atom_site_type_symbol
 _atom_site_label
 _atom_site_symmetry_multiplicity
 _atom_site_fract_x
 _atom_site_fract_y
 _atom_site_fract_z
 _atom_site_occupancy
  Ho  Ho0  1  0.500020  0.000036  0.000000  1
  Ho  Ho1  1  0.000202  0.000000  0.500003  1
  Ho  Ho2  1  0.999774  0.999802  0.000253  1
  Er  Er3  1  0.500035  0.500022  0.999916  1
  Cr  Cr4  1  0.499710  0.999939  0.500096  1
  Cr  Cr5  1  0.499952  0.499953  0.500045  1
  Sb  Sb6  1  0.000043  0.500033  0.999946  1
  Sb  Sb7  1  0.000040  0.499989  0.499913  1
  O  O8  1  0.256164  0.128925  0.121925  1
  O  O9  1  0.743856  0.871123  0.878079  1
  O  O10  1  0.683191  0.841591  0.408395  1
  O  O11  1  0.835558  0.418033  0.832186  1
  O  O12  1  0.252529  0.832482  0.837791  1
  O  O13  1  0.252828  0.420257  0.409245  1
  O  O14  1  0.252807  0.420272  0.837880  1
  O  O15  1  0.252562  0.832424  0.409726  1
  O  O16  1  0.316703  0.158325  0.591639  1
  O  O17  1  0.164582  0.582084  0.167674  1
  O  O18  1  0.747465  0.167638  0.162302  1
  O  O19  1  0.747260  0.579746  0.590604  1
  O  O20  1  0.747234  0.579749  0.162098  1
  O  O21  1  0.747487  0.167573  0.590283  1
