# generated using pymatgen
data_La3VOsC6
_symmetry_space_group_name_H-M   'P 1'
_cell_length_a   8.52896300
_cell_length_b   8.52896271
_cell_length_c   5.21344000
_cell_angle_alpha   90.00000000
_cell_angle_beta   90.00000000
_cell_angle_gamma   120.00000501
_symmetry_Int_Tables_number   1
_chemical_formula_structural   La3VOsC6
_chemical_formula_sum   'La6 V2 Os2 C12'
_cell_volume   328.43349011
_cell_formula_units_Z   2
loop_
 _symmetry_equiv_pos_site_id
 _symmetry_equiv_pos_as_xyz
  1  'x, y, z'
loop_
 _atom_site_type_symbol
 _atom_site_label
 _atom_site_symmetry_multiplicity
 _atom_site_fract_x
 _atom_site_fract_y
 _atom_site_fract_z
 _atom_site_occupancy
  La  La0  1  0.616601  0.690691  0.750000  1
  La  La1  1  0.925911  0.616601  0.250000  1
  La  La2  1  0.690691  0.074089  0.250000  1
  La  La3  1  0.309309  0.925911  0.750000  1
  La  La4  1  0.074089  0.383399  0.750000  1
  La  La5  1  0.383399  0.309309  0.250000  1
  V  V6  1  0.000000  0.000000  0.500000  1
  V  V7  1  0.000000  0.000000  0.000000  1
  Os  Os8  1  0.666667  0.333333  0.750000  1
  Os  Os9  1  0.333333  0.666667  0.250000  1
  C  C10  1  0.950314  0.769198  0.750000  1
  C  C11  1  0.181117  0.950314  0.250000  1
  C  C12  1  0.769198  0.818883  0.250000  1
  C  C13  1  0.230802  0.181117  0.750000  1
  C  C14  1  0.818883  0.049686  0.750000  1
  C  C15  1  0.049686  0.230802  0.250000  1
  C  C16  1  0.861030  0.584416  0.750000  1
  C  C17  1  0.276613  0.861030  0.250000  1
  C  C18  1  0.584416  0.723387  0.250000  1
  C  C19  1  0.415584  0.276613  0.750000  1
  C  C20  1  0.138970  0.415584  0.250000  1
  C  C21  1  0.723387  0.138970  0.750000  1
