# generated using pymatgen
data_Ba4MnFe3(P2O7)4
_symmetry_space_group_name_H-M   'P 1'
_cell_length_a   5.65015628
_cell_length_b   8.59635579
_cell_length_c   13.13196545
_cell_angle_alpha   89.90394989
_cell_angle_beta   90.69352419
_cell_angle_gamma   89.95785387
_symmetry_Int_Tables_number   1
_chemical_formula_structural   Ba4MnFe3(P2O7)4
_chemical_formula_sum   'Ba4 Mn1 Fe3 P8 O28'
_cell_volume   637.78165579
_cell_formula_units_Z   1
loop_
 _symmetry_equiv_pos_site_id
 _symmetry_equiv_pos_as_xyz
  1  'x, y, z'
loop_
 _atom_site_type_symbol
 _atom_site_label
 _atom_site_symmetry_multiplicity
 _atom_site_fract_x
 _atom_site_fract_y
 _atom_site_fract_z
 _atom_site_occupancy
  Ba  Ba0  1  0.780335  0.354115  0.217492  1
  Ba  Ba1  1  0.718731  0.856102  0.282879  1
  Ba  Ba2  1  0.219018  0.645483  0.780484  1
  Ba  Ba3  1  0.280581  0.145839  0.717805  1
  Mn  Mn4  1  0.182881  0.658725  0.107627  1
  Fe  Fe5  1  0.688998  0.842265  0.607599  1
  Fe  Fe6  1  0.311970  0.158343  0.392744  1
  Fe  Fe7  1  0.812971  0.341348  0.892795  1
  P  P8  1  0.309049  0.305198  0.017742  1
  P  P9  1  0.191251  0.807622  0.482382  1
  P  P10  1  0.688420  0.692813  0.980840  1
  P  P11  1  0.809485  0.192554  0.518065  1
  P  P12  1  0.253063  0.547438  0.336900  1
  P  P13  1  0.753846  0.952964  0.835368  1
  P  P14  1  0.746211  0.452463  0.663909  1
  P  P15  1  0.249126  0.048433  0.164717  1
  O  O16  1  0.240362  0.628357  0.448276  1
  O  O17  1  0.265690  0.125249  0.051942  1
  O  O18  1  0.762005  0.371819  0.552446  1
  O  O19  1  0.738444  0.872017  0.946917  1
  O  O20  1  0.499411  0.576771  0.294905  1
  O  O21  1  0.999562  0.076257  0.203674  1
  O  O22  1  0.497970  0.423689  0.703812  1
  O  O23  1  0.001983  0.923924  0.795381  1
  O  O24  1  0.186260  0.407881  0.097474  1
  O  O25  1  0.311423  0.913578  0.403004  1
  O  O26  1  0.814307  0.586862  0.903191  1
  O  O27  1  0.688817  0.086743  0.597474  1
  O  O28  1  0.802994  0.682182  0.087427  1
  O  O29  1  0.690894  0.181729  0.412335  1
  O  O30  1  0.190632  0.316482  0.911761  1
  O  O31  1  0.309623  0.818468  0.588165  1
  O  O32  1  0.561823  0.878838  0.766162  1
  O  O33  1  0.938287  0.378505  0.733432  1
  O  O34  1  0.438334  0.125467  0.234202  1
  O  O35  1  0.059689  0.621784  0.268194  1
  O  O36  1  0.803307  0.624779  0.647267  1
  O  O37  1  0.696484  0.125183  0.851858  1
  O  O38  1  0.419527  0.669392  0.978636  1
  O  O39  1  0.311301  0.876813  0.150470  1
  O  O40  1  0.921685  0.830393  0.481682  1
  O  O41  1  0.578246  0.330717  0.018057  1
  O  O42  1  0.078883  0.169032  0.518742  1
  O  O43  1  0.196120  0.375386  0.353767  1
