# generated using pymatgen
data_La10AgBi6Te
_symmetry_space_group_name_H-M   'P 1'
_cell_length_a   9.97414300
_cell_length_b   9.97414379
_cell_length_c   6.83511200
_cell_angle_alpha   90.00000000
_cell_angle_beta   90.00000000
_cell_angle_gamma   119.99998742
_symmetry_Int_Tables_number   1
_chemical_formula_structural   La10AgBi6Te
_chemical_formula_sum   'La10 Ag1 Bi6 Te1'
_cell_volume   588.88099350
_cell_formula_units_Z   1
loop_
 _symmetry_equiv_pos_site_id
 _symmetry_equiv_pos_as_xyz
  1  'x, y, z'
loop_
 _atom_site_type_symbol
 _atom_site_label
 _atom_site_symmetry_multiplicity
 _atom_site_fract_x
 _atom_site_fract_y
 _atom_site_fract_z
 _atom_site_occupancy
  La  La0  1  0.666667  0.333333  0.000000  1
  La  La1  1  0.333333  0.666667  0.000000  1
  La  La2  1  0.333333  0.666667  0.500000  1
  La  La3  1  0.666667  0.333333  0.500000  1
  La  La4  1  0.729986  0.729986  0.747594  1
  La  La5  1  0.270014  0.000000  0.747594  1
  La  La6  1  0.000000  0.270014  0.747594  1
  La  La7  1  0.270014  0.270014  0.252406  1
  La  La8  1  0.729986  0.000000  0.252406  1
  La  La9  1  0.000000  0.729986  0.252406  1
  Ag  Ag10  1  0.000000  0.000000  0.500000  1
  Bi  Bi11  1  0.382081  0.382081  0.748976  1
  Bi  Bi12  1  0.617919  0.000000  0.748976  1
  Bi  Bi13  1  0.000000  0.617919  0.748976  1
  Bi  Bi14  1  0.617919  0.617919  0.251024  1
  Bi  Bi15  1  0.382081  0.000000  0.251024  1
  Bi  Bi16  1  0.000000  0.382081  0.251024  1
  Te  Te17  1  0.000000  0.000000  0.000000  1
