# generated using pymatgen
data_Ho8Sc11Si16Hg
_symmetry_space_group_name_H-M   'P 1'
_cell_length_a   7.04070144
_cell_length_b   7.38574153
_cell_length_c   13.99205900
_cell_angle_alpha   90.00000000
_cell_angle_beta   90.00000000
_cell_angle_gamma   89.88732688
_symmetry_Int_Tables_number   1
_chemical_formula_structural   Ho8Sc11Si16Hg
_chemical_formula_sum   'Ho8 Sc11 Si16 Hg1'
_cell_volume   727.59686933
_cell_formula_units_Z   1
loop_
 _symmetry_equiv_pos_site_id
 _symmetry_equiv_pos_as_xyz
  1  'x, y, z'
loop_
 _atom_site_type_symbol
 _atom_site_label
 _atom_site_symmetry_multiplicity
 _atom_site_fract_x
 _atom_site_fract_y
 _atom_site_fract_z
 _atom_site_occupancy
  Ho  Ho0  1  0.010402  0.174636  0.096573  1
  Ho  Ho1  1  0.990783  0.818066  0.901897  1
  Ho  Ho2  1  0.485075  0.673889  0.902075  1
  Ho  Ho3  1  0.990783  0.818066  0.598103  1
  Ho  Ho4  1  0.510928  0.323861  0.096788  1
  Ho  Ho5  1  0.010402  0.174636  0.403427  1
  Ho  Ho6  1  0.510928  0.323861  0.403212  1
  Ho  Ho7  1  0.485075  0.673889  0.597925  1
  Sc  Sc8  1  0.838387  0.497277  0.250000  1
  Sc  Sc9  1  0.339369  0.003390  0.250000  1
  Sc  Sc10  1  0.658479  0.997431  0.750000  1
  Sc  Sc11  1  0.326362  0.182194  0.625566  1
  Sc  Sc12  1  0.670673  0.823809  0.375080  1
  Sc  Sc13  1  0.170026  0.679113  0.373943  1
  Sc  Sc14  1  0.670673  0.823809  0.124920  1
  Sc  Sc15  1  0.836252  0.325045  0.625767  1
  Sc  Sc16  1  0.326362  0.182194  0.874434  1
  Sc  Sc17  1  0.836252  0.325045  0.874233  1
  Sc  Sc18  1  0.170026  0.679113  0.126057  1
  Si  Si19  1  0.027526  0.095414  0.750000  1
  Si  Si20  1  0.967647  0.888026  0.250000  1
  Si  Si21  1  0.467063  0.616286  0.250000  1
  Si  Si22  1  0.543501  0.380305  0.750000  1
  Si  Si23  1  0.291465  0.887194  0.750000  1
  Si  Si24  1  0.713618  0.128828  0.250000  1
  Si  Si25  1  0.213036  0.372681  0.250000  1
  Si  Si26  1  0.770145  0.631741  0.750000  1
  Si  Si27  1  0.162612  0.459537  0.528916  1
  Si  Si28  1  0.841631  0.536379  0.462242  1
  Si  Si29  1  0.343494  0.966306  0.462353  1
  Si  Si30  1  0.841631  0.536379  0.037758  1
  Si  Si31  1  0.658123  0.033486  0.540587  1
  Si  Si32  1  0.162612  0.459537  0.971084  1
  Si  Si33  1  0.658123  0.033486  0.959413  1
  Si  Si34  1  0.343494  0.966306  0.037647  1
  Hg  Hg35  1  0.157040  0.508784  0.750000  1
