# generated using pymatgen
data_Nb3Ni2MoN
_symmetry_space_group_name_H-M   'P 1'
_cell_length_a   8.15652264
_cell_length_b   8.15652171
_cell_length_c   8.15652200
_cell_angle_alpha   59.99999882
_cell_angle_beta   60.00000260
_cell_angle_gamma   60.00000030
_symmetry_Int_Tables_number   1
_chemical_formula_structural   Nb3Ni2MoN
_chemical_formula_sum   'Nb12 Ni8 Mo4 N4'
_cell_volume   383.70730053
_cell_formula_units_Z   4
loop_
 _symmetry_equiv_pos_site_id
 _symmetry_equiv_pos_as_xyz
  1  'x, y, z'
loop_
 _atom_site_type_symbol
 _atom_site_label
 _atom_site_symmetry_multiplicity
 _atom_site_fract_x
 _atom_site_fract_y
 _atom_site_fract_z
 _atom_site_occupancy
  Nb  Nb0  1  0.312452  0.687548  0.687548  1
  Nb  Nb1  1  0.562452  0.562452  0.937548  1
  Nb  Nb2  1  0.312452  0.687548  0.312452  1
  Nb  Nb3  1  0.312452  0.312452  0.687548  1
  Nb  Nb4  1  0.687548  0.312452  0.312452  1
  Nb  Nb5  1  0.937548  0.937548  0.562452  1
  Nb  Nb6  1  0.937548  0.562452  0.937548  1
  Nb  Nb7  1  0.937548  0.562452  0.562452  1
  Nb  Nb8  1  0.562452  0.937548  0.937548  1
  Nb  Nb9  1  0.687548  0.687548  0.312452  1
  Nb  Nb10  1  0.687548  0.312452  0.687548  1
  Nb  Nb11  1  0.562452  0.937548  0.562452  1
  Ni  Ni12  1  0.011132  0.329623  0.329623  1
  Ni  Ni13  1  0.920377  0.920377  0.920377  1
  Ni  Ni14  1  0.329623  0.329623  0.011132  1
  Ni  Ni15  1  0.920377  0.920377  0.238868  1
  Ni  Ni16  1  0.238868  0.920377  0.920377  1
  Ni  Ni17  1  0.329623  0.011132  0.329623  1
  Ni  Ni18  1  0.920377  0.238868  0.920377  1
  Ni  Ni19  1  0.329623  0.329623  0.329623  1
  Mo  Mo20  1  0.125000  0.125000  0.625000  1
  Mo  Mo21  1  0.125000  0.125000  0.125000  1
  Mo  Mo22  1  0.625000  0.125000  0.125000  1
  Mo  Mo23  1  0.125000  0.625000  0.125000  1
  N  N24  1  0.625000  0.125000  0.625000  1
  N  N25  1  0.625000  0.625000  0.125000  1
  N  N26  1  0.125000  0.625000  0.625000  1
  N  N27  1  0.625000  0.625000  0.625000  1
