# generated using pymatgen
data_Dy10In8CuRh3
_symmetry_space_group_name_H-M   'P 1'
_cell_length_a   3.61939700
_cell_length_b   8.09793378
_cell_length_c   18.26801745
_cell_angle_alpha   90.07796807
_cell_angle_beta   90.00000000
_cell_angle_gamma   90.00000000
_symmetry_Int_Tables_number   1
_chemical_formula_structural   Dy10In8CuRh3
_chemical_formula_sum   'Dy10 In8 Cu1 Rh3'
_cell_volume   535.42846853
_cell_formula_units_Z   1
loop_
 _symmetry_equiv_pos_site_id
 _symmetry_equiv_pos_as_xyz
  1  'x, y, z'
loop_
 _atom_site_type_symbol
 _atom_site_label
 _atom_site_symmetry_multiplicity
 _atom_site_fract_x
 _atom_site_fract_y
 _atom_site_fract_z
 _atom_site_occupancy
  Dy  Dy0  1  0.500000  0.383362  0.586992  1
  Dy  Dy1  1  0.500000  0.880153  0.915217  1
  Dy  Dy2  1  0.500000  0.116210  0.087862  1
  Dy  Dy3  1  0.500000  0.742614  0.720108  1
  Dy  Dy4  1  0.500000  0.265860  0.778571  1
  Dy  Dy5  1  0.500000  0.500148  0.000454  1
  Dy  Dy6  1  0.500000  0.746119  0.221245  1
  Dy  Dy7  1  0.500000  0.246738  0.278069  1
  Dy  Dy8  1  0.500000  0.999165  0.499839  1
  Dy  Dy9  1  0.500000  0.618426  0.411713  1
  In  In10  1  0.000000  0.792762  0.068385  1
  In  In11  1  0.000000  0.929008  0.349369  1
  In  In12  1  0.000000  0.074685  0.651283  1
  In  In13  1  0.000000  0.573842  0.850774  1
  In  In14  1  0.000000  0.707314  0.568582  1
  In  In15  1  0.000000  0.205462  0.931347  1
  In  In16  1  0.000000  0.293171  0.432035  1
  In  In17  1  0.000000  0.428506  0.149661  1
  Cu  Cu18  1  0.000000  0.976295  0.802395  1
  Rh  Rh19  1  0.000000  0.522100  0.304902  1
  Rh  Rh20  1  0.000000  0.475406  0.695941  1
  Rh  Rh21  1  0.000000  0.022655  0.195256  1
