# generated using pymatgen
data_Ho2Tm3Pt4
_symmetry_space_group_name_H-M   'P 1'
_cell_length_a   7.42035200
_cell_length_b   7.51548600
_cell_length_c   14.61792600
_cell_angle_alpha   90.00000000
_cell_angle_beta   90.00000000
_cell_angle_gamma   90.00000000
_symmetry_Int_Tables_number   1
_chemical_formula_structural   Ho2Tm3Pt4
_chemical_formula_sum   'Ho8 Tm12 Pt16'
_cell_volume   815.20594207
_cell_formula_units_Z   4
loop_
 _symmetry_equiv_pos_site_id
 _symmetry_equiv_pos_as_xyz
  1  'x, y, z'
loop_
 _atom_site_type_symbol
 _atom_site_label
 _atom_site_symmetry_multiplicity
 _atom_site_fract_x
 _atom_site_fract_y
 _atom_site_fract_z
 _atom_site_occupancy
  Ho  Ho0  1  0.500968  0.679812  0.592548  1
  Ho  Ho1  1  0.000968  0.820188  0.907452  1
  Ho  Ho2  1  0.499032  0.320188  0.092548  1
  Ho  Ho3  1  0.999032  0.179812  0.407452  1
  Ho  Ho4  1  0.499032  0.320188  0.407452  1
  Ho  Ho5  1  0.999032  0.179812  0.092548  1
  Ho  Ho6  1  0.500968  0.679812  0.907452  1
  Ho  Ho7  1  0.000968  0.820188  0.592548  1
  Tm  Tm8  1  0.657012  0.167758  0.622617  1
  Tm  Tm9  1  0.157012  0.332242  0.877383  1
  Tm  Tm10  1  0.342988  0.832242  0.122617  1
  Tm  Tm11  1  0.842988  0.667758  0.377383  1
  Tm  Tm12  1  0.342988  0.832242  0.377383  1
  Tm  Tm13  1  0.842988  0.667758  0.122617  1
  Tm  Tm14  1  0.657012  0.167758  0.877383  1
  Tm  Tm15  1  0.157012  0.332242  0.622617  1
  Tm  Tm16  1  0.819214  0.511346  0.750000  1
  Tm  Tm17  1  0.319214  0.988654  0.750000  1
  Tm  Tm18  1  0.180786  0.488654  0.250000  1
  Tm  Tm19  1  0.680786  0.011346  0.250000  1
  Pt  Pt20  1  0.683241  0.966769  0.458334  1
  Pt  Pt21  1  0.183241  0.533231  0.041666  1
  Pt  Pt22  1  0.316759  0.033231  0.958334  1
  Pt  Pt23  1  0.816759  0.466769  0.541666  1
  Pt  Pt24  1  0.316759  0.033231  0.541666  1
  Pt  Pt25  1  0.816759  0.466769  0.958334  1
  Pt  Pt26  1  0.683241  0.966769  0.041666  1
  Pt  Pt27  1  0.183241  0.533231  0.458334  1
  Pt  Pt28  1  0.454449  0.386549  0.750000  1
  Pt  Pt29  1  0.954449  0.113451  0.750000  1
  Pt  Pt30  1  0.545551  0.613451  0.250000  1
  Pt  Pt31  1  0.045551  0.886549  0.250000  1
  Pt  Pt32  1  0.682898  0.856726  0.750000  1
  Pt  Pt33  1  0.182898  0.643274  0.750000  1
  Pt  Pt34  1  0.317102  0.143274  0.250000  1
  Pt  Pt35  1  0.817102  0.356726  0.250000  1
