# generated using pymatgen
data_Pr(NbSe2)3
_symmetry_space_group_name_H-M   'P 1'
_cell_length_a   6.11152500
_cell_length_b   6.11152447
_cell_length_c   15.08453400
_cell_angle_alpha   90.00000000
_cell_angle_beta   90.00000000
_cell_angle_gamma   120.00000831
_symmetry_Int_Tables_number   1
_chemical_formula_structural   Pr(NbSe2)3
_chemical_formula_sum   'Pr2 Nb6 Se12'
_cell_volume   487.93462850
_cell_formula_units_Z   2
loop_
 _symmetry_equiv_pos_site_id
 _symmetry_equiv_pos_as_xyz
  1  'x, y, z'
loop_
 _atom_site_type_symbol
 _atom_site_label
 _atom_site_symmetry_multiplicity
 _atom_site_fract_x
 _atom_site_fract_y
 _atom_site_fract_z
 _atom_site_occupancy
  Pr  Pr0  1  0.333333  0.666667  0.250000  1
  Pr  Pr1  1  0.666667  0.333333  0.750000  1
  Nb  Nb2  1  0.333333  0.666667  0.001829  1
  Nb  Nb3  1  0.000000  0.000000  0.000000  1
  Nb  Nb4  1  0.666667  0.333333  0.998171  1
  Nb  Nb5  1  0.333333  0.666667  0.498171  1
  Nb  Nb6  1  0.000000  0.000000  0.500000  1
  Nb  Nb7  1  0.666667  0.333333  0.501829  1
  Se  Se8  1  0.673955  0.665845  0.389185  1
  Se  Se9  1  0.665845  0.673955  0.610815  1
  Se  Se10  1  0.008109  0.673955  0.889185  1
  Se  Se11  1  0.665845  0.991891  0.889185  1
  Se  Se12  1  0.673955  0.008109  0.110815  1
  Se  Se13  1  0.334155  0.008109  0.389185  1
  Se  Se14  1  0.008109  0.334155  0.610815  1
  Se  Se15  1  0.326045  0.991891  0.610815  1
  Se  Se16  1  0.991891  0.665845  0.110815  1
  Se  Se17  1  0.326045  0.334155  0.889185  1
  Se  Se18  1  0.991891  0.326045  0.389185  1
  Se  Se19  1  0.334155  0.326045  0.110815  1
