# generated using pymatgen
data_Ta6Re2Si6Mo3W
_symmetry_space_group_name_H-M   'P 1'
_cell_length_a   7.67335082
_cell_length_b   7.67278598
_cell_length_c   7.67278639
_cell_angle_alpha   126.46102280
_cell_angle_beta   128.38918111
_cell_angle_gamma   77.56654538
_symmetry_Int_Tables_number   1
_chemical_formula_structural   Ta6Re2Si6Mo3W
_chemical_formula_sum   'Ta6 Re2 Si6 Mo3 W1'
_cell_volume   276.17487655
_cell_formula_units_Z   1
loop_
 _symmetry_equiv_pos_site_id
 _symmetry_equiv_pos_as_xyz
  1  'x, y, z'
loop_
 _atom_site_type_symbol
 _atom_site_label
 _atom_site_symmetry_multiplicity
 _atom_site_fract_x
 _atom_site_fract_y
 _atom_site_fract_z
 _atom_site_occupancy
  Ta  Ta0  1  0.551685  0.097206  0.044488  1
  Ta  Ta1  1  0.448315  0.492803  0.545522  1
  Ta  Ta2  1  0.948654  0.492599  0.042687  1
  Ta  Ta3  1  0.051346  0.094034  0.543945  1
  Ta  Ta4  1  0.751580  0.902400  0.651802  1
  Ta  Ta5  1  0.248420  0.900221  0.150819  1
  Re  Re6  1  0.627600  0.754364  0.124906  1
  Re  Re7  1  0.372400  0.497306  0.126764  1
  Si  Si8  1  0.752125  0.501282  0.251633  1
  Si  Si9  1  0.247875  0.499507  0.749158  1
  Si  Si10  1  0.334058  0.825998  0.494337  1
  Si  Si11  1  0.665942  0.160279  0.491940  1
  Si  Si12  1  0.830591  0.827967  0.995129  1
  Si  Si13  1  0.169409  0.164539  0.997376  1
  Mo  Mo14  1  0.000000  0.238839  0.238839  1
  Mo  Mo15  1  0.131411  0.756956  0.627941  1
  Mo  Mo16  1  0.868589  0.496529  0.625544  1
  W  W17  1  0.500000  0.239367  0.739367  1
