# generated using pymatgen
data_Ce3ZnCd2Pd2Pt
_symmetry_space_group_name_H-M   'P 1'
_cell_length_a   7.57809229
_cell_length_b   7.61220762
_cell_length_c   4.01573600
_cell_angle_alpha   90.00000000
_cell_angle_beta   90.00000000
_cell_angle_gamma   119.76117613
_symmetry_Int_Tables_number   1
_chemical_formula_structural   Ce3ZnCd2Pd2Pt
_chemical_formula_sum   'Ce3 Zn1 Cd2 Pd2 Pt1'
_cell_volume   201.09738752
_cell_formula_units_Z   1
loop_
 _symmetry_equiv_pos_site_id
 _symmetry_equiv_pos_as_xyz
  1  'x, y, z'
loop_
 _atom_site_type_symbol
 _atom_site_label
 _atom_site_symmetry_multiplicity
 _atom_site_fract_x
 _atom_site_fract_y
 _atom_site_fract_z
 _atom_site_occupancy
  Ce  Ce0  1  0.421037  0.425186  0.000000  1
  Ce  Ce1  1  0.591296  0.992619  0.000000  1
  Ce  Ce2  1  0.001416  0.595676  0.000000  1
  Zn  Zn3  1  0.745768  0.744013  0.500000  1
  Cd  Cd4  1  0.250833  0.009417  0.500000  1
  Cd  Cd5  1  0.004505  0.248226  0.500000  1
  Pd  Pd6  1  0.672530  0.343396  0.500000  1
  Pd  Pd7  1  0.969684  0.969413  0.000000  1
  Pt  Pt8  1  0.342929  0.672053  0.500000  1
