# generated using pymatgen
data_Nd2In2SiPRh6
_symmetry_space_group_name_H-M   'P 1'
_cell_length_a   6.94156734
_cell_length_b   6.94200208
_cell_length_c   6.94156730
_cell_angle_alpha   130.92459442
_cell_angle_beta   113.24544618
_cell_angle_gamma   87.14698097
_symmetry_Int_Tables_number   1
_chemical_formula_structural   Nd2In2SiPRh6
_chemical_formula_sum   'Nd2 In2 Si1 P1 Rh6'
_cell_volume   221.47618062
_cell_formula_units_Z   1
loop_
 _symmetry_equiv_pos_site_id
 _symmetry_equiv_pos_as_xyz
  1  'x, y, z'
loop_
 _atom_site_type_symbol
 _atom_site_label
 _atom_site_symmetry_multiplicity
 _atom_site_fract_x
 _atom_site_fract_y
 _atom_site_fract_z
 _atom_site_occupancy
  Nd  Nd0  1  0.772136  0.022159  0.250024  1
  Nd  Nd1  1  0.231181  0.981118  0.749937  1
  In  In2  1  0.567944  0.317969  0.750026  1
  In  In3  1  0.447852  0.697880  0.250028  1
  Si  Si4  1  0.883762  0.633750  0.749988  1
  P  P5  1  0.098991  0.348967  0.249976  1
  Rh  Rh6  1  0.199734  0.499836  0.700359  1
  Rh  Rh7  1  0.799627  0.999440  0.799791  1
  Rh  Rh8  1  0.799477  0.499836  0.300101  1
  Rh  Rh9  1  0.199649  0.999440  0.199813  1
  Rh  Rh10  1  0.484365  0.499803  0.484521  1
  Rh  Rh11  1  0.015282  0.499803  0.015438  1
