# generated using pymatgen
data_Tl3Ru3RhPbO13
_symmetry_space_group_name_H-M   'P 1'
_cell_length_a   7.32545687
_cell_length_b   7.30785851
_cell_length_c   7.32545700
_cell_angle_alpha   59.92031124
_cell_angle_beta   60.00000395
_cell_angle_gamma   59.92030469
_symmetry_Int_Tables_number   1
_chemical_formula_structural   Tl3Ru3RhPbO13
_chemical_formula_sum   'Tl3 Ru3 Rh1 Pb1 O13'
_cell_volume   276.96214003
_cell_formula_units_Z   1
loop_
 _symmetry_equiv_pos_site_id
 _symmetry_equiv_pos_as_xyz
  1  'x, y, z'
loop_
 _atom_site_type_symbol
 _atom_site_label
 _atom_site_symmetry_multiplicity
 _atom_site_fract_x
 _atom_site_fract_y
 _atom_site_fract_z
 _atom_site_occupancy
  Tl  Tl0  1  0.880680  0.372646  0.373337  1
  Tl  Tl1  1  0.373337  0.372646  0.373337  1
  Tl  Tl2  1  0.373337  0.372646  0.880680  1
  Ru  Ru3  1  0.875840  0.874889  0.373429  1
  Ru  Ru4  1  0.875840  0.874889  0.875840  1
  Ru  Ru5  1  0.373429  0.874889  0.875840  1
  Rh  Rh6  1  0.876118  0.371643  0.876118  1
  Pb  Pb7  1  0.373197  0.880408  0.373197  1
  O  O8  1  0.193067  0.813706  0.800159  1
  O  O9  1  0.193067  0.813706  0.193067  1
  O  O10  1  0.556711  0.936191  0.950387  1
  O  O11  1  0.556711  0.936191  0.556711  1
  O  O12  1  0.950387  0.936191  0.556711  1
  O  O13  1  0.800159  0.813706  0.193067  1
  O  O14  1  0.545873  0.551796  0.951166  1
  O  O15  1  0.799773  0.195869  0.799773  1
  O  O16  1  0.799773  0.195869  0.204585  1
  O  O17  1  0.951166  0.551796  0.951166  1
  O  O18  1  0.951166  0.551796  0.545873  1
  O  O19  1  0.204585  0.195869  0.799773  1
  O  O20  1  0.495781  0.512655  0.495781  1
