# generated using pymatgen
data_Ta3Nb(CoP)4
_symmetry_space_group_name_H-M   'P 1'
_cell_length_a   3.60092800
_cell_length_b   6.12839400
_cell_length_c   6.96474700
_cell_angle_alpha   89.99795860
_cell_angle_beta   90.00000000
_cell_angle_gamma   90.00000000
_symmetry_Int_Tables_number   1
_chemical_formula_structural   Ta3Nb(CoP)4
_chemical_formula_sum   'Ta3 Nb1 Co4 P4'
_cell_volume   153.69737892
_cell_formula_units_Z   1
loop_
 _symmetry_equiv_pos_site_id
 _symmetry_equiv_pos_as_xyz
  1  'x, y, z'
loop_
 _atom_site_type_symbol
 _atom_site_label
 _atom_site_symmetry_multiplicity
 _atom_site_fract_x
 _atom_site_fract_y
 _atom_site_fract_z
 _atom_site_occupancy
  Ta  Ta0  1  0.250000  0.025591  0.827360  1
  Ta  Ta1  1  0.250000  0.525933  0.672760  1
  Ta  Ta2  1  0.750000  0.974358  0.172847  1
  Nb  Nb3  1  0.750000  0.474456  0.328112  1
  Co  Co4  1  0.250000  0.145446  0.438205  1
  Co  Co5  1  0.250000  0.648915  0.060423  1
  Co  Co6  1  0.750000  0.853768  0.564222  1
  Co  Co7  1  0.750000  0.351210  0.935591  1
  P  P8  1  0.250000  0.778272  0.378787  1
  P  P9  1  0.250000  0.278268  0.121639  1
  P  P10  1  0.750000  0.222251  0.620860  1
  P  P11  1  0.750000  0.721532  0.879193  1
