# generated using pymatgen
data_CeEu2(InP2)2
_symmetry_space_group_name_H-M   'P 1'
_cell_length_a   4.32323600
_cell_length_b   6.50614861
_cell_length_c   16.00490834
_cell_angle_alpha   90.76297080
_cell_angle_beta   90.00000000
_cell_angle_gamma   90.00000000
_symmetry_Int_Tables_number   1
_chemical_formula_structural   CeEu2(InP2)2
_chemical_formula_sum   'Ce2 Eu4 In4 P8'
_cell_volume   450.14000054
_cell_formula_units_Z   2
loop_
 _symmetry_equiv_pos_site_id
 _symmetry_equiv_pos_as_xyz
  1  'x, y, z'
loop_
 _atom_site_type_symbol
 _atom_site_label
 _atom_site_symmetry_multiplicity
 _atom_site_fract_x
 _atom_site_fract_y
 _atom_site_fract_z
 _atom_site_occupancy
  Ce  Ce0  1  0.000000  0.202219  0.298638  1
  Ce  Ce1  1  0.500000  0.009077  0.005659  1
  Eu  Eu2  1  0.000000  0.794928  0.694017  1
  Eu  Eu3  1  0.500000  0.296841  0.804540  1
  Eu  Eu4  1  0.500000  0.691045  0.195873  1
  Eu  Eu5  1  0.000000  0.502050  0.496130  1
  In  In6  1  0.500000  0.852727  0.403449  1
  In  In7  1  0.500000  0.152160  0.584516  1
  In  In8  1  0.000000  0.651208  0.912714  1
  In  In9  1  0.000000  0.361684  0.104010  1
  P  P10  1  0.500000  0.165024  0.181356  1
  P  P11  1  0.500000  0.791001  0.831860  1
  P  P12  1  0.000000  0.282392  0.668770  1
  P  P13  1  0.000000  0.704276  0.325361  1
  P  P14  1  0.000000  0.780768  0.068762  1
  P  P15  1  0.000000  0.256216  0.936453  1
  P  P16  1  0.500000  0.755612  0.564704  1
  P  P17  1  0.500000  0.250771  0.423188  1
