# generated using pymatgen
data_Ho3Th(InGa2)2
_symmetry_space_group_name_H-M   'P 1'
_cell_length_a   7.29737816
_cell_length_b   7.29737816
_cell_length_c   4.44098200
_cell_angle_alpha   90.00000000
_cell_angle_beta   90.00000000
_cell_angle_gamma   89.09982545
_symmetry_Int_Tables_number   1
_chemical_formula_structural   Ho3Th(InGa2)2
_chemical_formula_sum   'Ho3 Th1 In2 Ga4'
_cell_volume   236.46077878
_cell_formula_units_Z   1
loop_
 _symmetry_equiv_pos_site_id
 _symmetry_equiv_pos_as_xyz
  1  'x, y, z'
loop_
 _atom_site_type_symbol
 _atom_site_label
 _atom_site_symmetry_multiplicity
 _atom_site_fract_x
 _atom_site_fract_y
 _atom_site_fract_z
 _atom_site_occupancy
  Ho  Ho0  1  0.676485  0.176485  0.500000  1
  Ho  Ho1  1  0.172128  0.326430  0.500000  1
  Ho  Ho2  1  0.826430  0.672128  0.500000  1
  Th  Th3  1  0.328313  0.828313  0.500000  1
  In  In4  1  0.997415  0.002145  0.000000  1
  In  In5  1  0.502145  0.497415  0.000000  1
  Ga  Ga6  1  0.874721  0.374721  0.000000  1
  Ga  Ga7  1  0.376155  0.126530  0.000000  1
  Ga  Ga8  1  0.626530  0.876155  0.000000  1
  Ga  Ga9  1  0.119678  0.619678  0.000000  1
