# generated using pymatgen
data_TbLuGa9Ir2Pd
_symmetry_space_group_name_H-M   'P 1'
_cell_length_a   7.61952018
_cell_length_b   7.61547565
_cell_length_c   9.47185700
_cell_angle_alpha   90.00000000
_cell_angle_beta   90.00000000
_cell_angle_gamma   120.20666794
_symmetry_Int_Tables_number   1
_chemical_formula_structural   TbLuGa9Ir2Pd
_chemical_formula_sum   'Tb2 Lu2 Ga18 Ir4 Pd2'
_cell_volume   474.98754439
_cell_formula_units_Z   2
loop_
 _symmetry_equiv_pos_site_id
 _symmetry_equiv_pos_as_xyz
  1  'x, y, z'
loop_
 _atom_site_type_symbol
 _atom_site_label
 _atom_site_symmetry_multiplicity
 _atom_site_fract_x
 _atom_site_fract_y
 _atom_site_fract_z
 _atom_site_occupancy
  Tb  Tb0  1  0.666628  0.996126  0.250000  1
  Tb  Tb1  1  0.333372  0.003874  0.750000  1
  Lu  Lu2  1  0.995718  0.665889  0.250000  1
  Lu  Lu3  1  0.004282  0.334111  0.750000  1
  Ga  Ga4  1  0.124117  0.123781  0.250000  1
  Ga  Ga5  1  0.875883  0.876219  0.750000  1
  Ga  Ga6  1  0.998650  0.337264  0.080631  1
  Ga  Ga7  1  0.001350  0.662736  0.919369  1
  Ga  Ga8  1  0.001350  0.662736  0.580631  1
  Ga  Ga9  1  0.334317  0.997184  0.418330  1
  Ga  Ga10  1  0.998650  0.337264  0.419369  1
  Ga  Ga11  1  0.665683  0.002816  0.581670  1
  Ga  Ga12  1  0.665683  0.002816  0.918330  1
  Ga  Ga13  1  0.334317  0.997184  0.081670  1
  Ga  Ga14  1  0.334051  0.335276  0.569684  1
  Ga  Ga15  1  0.665949  0.664724  0.430316  1
  Ga  Ga16  1  0.665949  0.664724  0.069684  1
  Ga  Ga17  1  0.334051  0.335276  0.930316  1
  Ga  Ga18  1  0.334621  0.542701  0.250000  1
  Ga  Ga19  1  0.665379  0.457299  0.750000  1
  Ga  Ga20  1  0.543873  0.335880  0.250000  1
  Ga  Ga21  1  0.456127  0.664120  0.750000  1
  Ir  Ir22  1  0.671154  0.328808  0.999892  1
  Ir  Ir23  1  0.328846  0.671192  0.000108  1
  Ir  Ir24  1  0.328846  0.671192  0.499892  1
  Ir  Ir25  1  0.671154  0.328808  0.500108  1
  Pd  Pd26  1  0.000000  0.000000  0.000000  1
  Pd  Pd27  1  0.000000  0.000000  0.500000  1
