# generated using pymatgen
data_Li3Sn2BiRh6
_symmetry_space_group_name_H-M   'P 1'
_cell_length_a   4.41759500
_cell_length_b   6.25156400
_cell_length_c   13.33111500
_cell_angle_alpha   89.99963189
_cell_angle_beta   90.00120699
_cell_angle_gamma   90.00000000
_symmetry_Int_Tables_number   1
_chemical_formula_structural   Li3Sn2BiRh6
_chemical_formula_sum   'Li6 Sn4 Bi2 Rh12'
_cell_volume   368.16377476
_cell_formula_units_Z   2
loop_
 _symmetry_equiv_pos_site_id
 _symmetry_equiv_pos_as_xyz
  1  'x, y, z'
loop_
 _atom_site_type_symbol
 _atom_site_label
 _atom_site_symmetry_multiplicity
 _atom_site_fract_x
 _atom_site_fract_y
 _atom_site_fract_z
 _atom_site_occupancy
  Li  Li0  1  0.999993  0.999964  0.997622  1
  Li  Li1  1  0.499773  0.500038  0.169028  1
  Li  Li2  1  0.999762  0.999972  0.336963  1
  Li  Li3  1  0.499994  0.500022  0.501485  1
  Li  Li4  1  0.000220  0.999978  0.665138  1
  Li  Li5  1  0.500265  0.500030  0.829809  1
  Sn  Sn6  1  0.999776  0.499985  0.336933  1
  Sn  Sn7  1  0.499983  0.999979  0.501763  1
  Sn  Sn8  1  0.000199  0.500020  0.664949  1
  Sn  Sn9  1  0.500289  0.000013  0.829636  1
  Bi  Bi10  1  0.999993  0.499997  0.997442  1
  Bi  Bi11  1  0.499659  0.000002  0.169269  1
  Rh  Rh12  1  0.499999  0.245301  0.998043  1
  Rh  Rh13  1  0.500003  0.754695  0.998032  1
  Rh  Rh14  1  0.999750  0.254636  0.168597  1
  Rh  Rh15  1  0.999758  0.745364  0.168589  1
  Rh  Rh16  1  0.499753  0.252097  0.335975  1
  Rh  Rh17  1  0.499752  0.747865  0.335997  1
  Rh  Rh18  1  0.000000  0.249042  0.500462  1
  Rh  Rh19  1  0.999996  0.750989  0.500473  1
  Rh  Rh20  1  0.500208  0.251038  0.666224  1
  Rh  Rh21  1  0.500208  0.748925  0.666214  1
  Rh  Rh22  1  0.000328  0.247891  0.830679  1
  Rh  Rh23  1  0.000329  0.752148  0.830677  1
