# generated using pymatgen
data_Er8InAgPt2
_symmetry_space_group_name_H-M   'P 1'
_cell_length_a   9.56176070
_cell_length_b   9.56176028
_cell_length_c   9.55656700
_cell_angle_alpha   60.01796152
_cell_angle_beta   60.01796296
_cell_angle_gamma   59.81706516
_symmetry_Int_Tables_number   1
_chemical_formula_structural   Er8InAgPt2
_chemical_formula_sum   'Er16 In2 Ag2 Pt4'
_cell_volume   617.12926484
_cell_formula_units_Z   2
loop_
 _symmetry_equiv_pos_site_id
 _symmetry_equiv_pos_as_xyz
  1  'x, y, z'
loop_
 _atom_site_type_symbol
 _atom_site_label
 _atom_site_symmetry_multiplicity
 _atom_site_fract_x
 _atom_site_fract_y
 _atom_site_fract_z
 _atom_site_occupancy
  Er  Er0  1  0.353190  0.353190  0.351909  1
  Er  Er1  1  0.353190  0.353190  0.941712  1
  Er  Er2  1  0.356678  0.935307  0.354008  1
  Er  Er3  1  0.935307  0.356678  0.354008  1
  Er  Er4  1  0.810391  0.190154  0.190540  1
  Er  Er5  1  0.190154  0.810391  0.808915  1
  Er  Er6  1  0.190154  0.810391  0.190540  1
  Er  Er7  1  0.810391  0.190154  0.808915  1
  Er  Er8  1  0.190752  0.190752  0.809248  1
  Er  Er9  1  0.810952  0.810952  0.189048  1
  Er  Er10  1  0.931930  0.563442  0.565914  1
  Er  Er11  1  0.563442  0.931930  0.938714  1
  Er  Er12  1  0.563442  0.931930  0.565914  1
  Er  Er13  1  0.931930  0.563442  0.938714  1
  Er  Er14  1  0.564280  0.564280  0.935720  1
  Er  Er15  1  0.935548  0.935548  0.564452  1
  In  In16  1  0.582143  0.255962  0.580948  1
  In  In17  1  0.255962  0.582143  0.580948  1
  Ag  Ag18  1  0.585052  0.585052  0.583674  1
  Ag  Ag19  1  0.585052  0.585052  0.246223  1
  Pt  Pt20  1  0.143683  0.143683  0.144986  1
  Pt  Pt21  1  0.143683  0.143683  0.567647  1
  Pt  Pt22  1  0.142607  0.570091  0.143651  1
  Pt  Pt23  1  0.570091  0.142607  0.143651  1
