# generated using pymatgen
data_Sc2MnFe10P7Rh
_symmetry_space_group_name_H-M   'P 1'
_cell_length_a   8.91389724
_cell_length_b   8.93185353
_cell_length_c   3.60915400
_cell_angle_alpha   90.00000000
_cell_angle_beta   90.00000000
_cell_angle_gamma   119.96963805
_symmetry_Int_Tables_number   1
_chemical_formula_structural   Sc2MnFe10P7Rh
_chemical_formula_sum   'Sc2 Mn1 Fe10 P7 Rh1'
_cell_volume   248.93046530
_cell_formula_units_Z   1
loop_
 _symmetry_equiv_pos_site_id
 _symmetry_equiv_pos_as_xyz
  1  'x, y, z'
loop_
 _atom_site_type_symbol
 _atom_site_label
 _atom_site_symmetry_multiplicity
 _atom_site_fract_x
 _atom_site_fract_y
 _atom_site_fract_z
 _atom_site_occupancy
  Sc  Sc0  1  0.000681  0.001670  0.000000  1
  Sc  Sc1  1  0.666168  0.334010  0.500000  1
  Mn  Mn2  1  0.452591  0.886628  0.500000  1
  Fe  Fe3  1  0.392061  0.298822  0.000000  1
  Fe  Fe4  1  0.904506  0.607262  0.000000  1
  Fe  Fe5  1  0.700879  0.092111  0.000000  1
  Fe  Fe6  1  0.609472  0.784223  0.000000  1
  Fe  Fe7  1  0.176064  0.388191  0.000000  1
  Fe  Fe8  1  0.214533  0.824651  0.000000  1
  Fe  Fe9  1  0.770520  0.717083  0.500000  1
  Fe  Fe10  1  0.946872  0.226296  0.500000  1
  Fe  Fe11  1  0.283848  0.055029  0.500000  1
  Fe  Fe12  1  0.432610  0.546105  0.500000  1
  P  P13  1  0.633500  0.549729  0.000000  1
  P  P14  1  0.911315  0.360033  0.000000  1
  P  P15  1  0.449407  0.085844  0.000000  1
  P  P16  1  0.745246  0.955094  0.500000  1
  P  P17  1  0.216947  0.261347  0.500000  1
  P  P18  1  0.044222  0.792256  0.500000  1
  P  P19  1  0.335289  0.664564  0.000000  1
  Rh  Rh20  1  0.113272  0.569053  0.500000  1
