# generated using pymatgen
data_Ho2U(GaRh)3
_symmetry_space_group_name_H-M   'P 1'
_cell_length_a   7.19204926
_cell_length_b   7.34529363
_cell_length_c   3.75256800
_cell_angle_alpha   90.00000000
_cell_angle_beta   90.00000000
_cell_angle_gamma   120.70756276
_symmetry_Int_Tables_number   1
_chemical_formula_structural   Ho2U(GaRh)3
_chemical_formula_sum   'Ho2 U1 Ga3 Rh3'
_cell_volume   170.44339911
_cell_formula_units_Z   1
loop_
 _symmetry_equiv_pos_site_id
 _symmetry_equiv_pos_as_xyz
  1  'x, y, z'
loop_
 _atom_site_type_symbol
 _atom_site_label
 _atom_site_symmetry_multiplicity
 _atom_site_fract_x
 _atom_site_fract_y
 _atom_site_fract_z
 _atom_site_occupancy
  Ho  Ho0  1  0.404334  0.409542  0.500000  1
  Ho  Ho1  1  0.595665  0.005216  0.500000  1
  U  U2  1  0.000015  0.585019  0.500000  1
  Ga  Ga3  1  0.733092  0.745804  0.000000  1
  Ga  Ga4  1  0.266914  0.012722  0.000000  1
  Ga  Ga5  1  0.999999  0.237233  0.000000  1
  Rh  Rh6  1  0.704065  0.364878  0.000000  1
  Rh  Rh7  1  0.295916  0.660799  0.000000  1
  Rh  Rh8  1  0.999999  0.978786  0.500000  1
