# generated using pymatgen
data_Nd5ReRuO12
_symmetry_space_group_name_H-M   'P 1'
_cell_length_a   7.09171628
_cell_length_b   7.09171601
_cell_length_c   7.82455887
_cell_angle_alpha   73.75302004
_cell_angle_beta   73.75301963
_cell_angle_gamma   48.27242299
_symmetry_Int_Tables_number   1
_chemical_formula_structural   Nd5ReRuO12
_chemical_formula_sum   'Nd5 Re1 Ru1 O12'
_cell_volume   279.54547000
_cell_formula_units_Z   1
loop_
 _symmetry_equiv_pos_site_id
 _symmetry_equiv_pos_as_xyz
  1  'x, y, z'
loop_
 _atom_site_type_symbol
 _atom_site_label
 _atom_site_symmetry_multiplicity
 _atom_site_fract_x
 _atom_site_fract_y
 _atom_site_fract_z
 _atom_site_occupancy
  Nd  Nd0  1  0.176876  0.210380  0.645020  1
  Nd  Nd1  1  0.179994  0.191540  0.170153  1
  Nd  Nd2  1  0.488864  0.511136  0.500000  1
  Nd  Nd3  1  0.789620  0.823124  0.354980  1
  Nd  Nd4  1  0.808460  0.820006  0.829847  1
  Re  Re5  1  0.299567  0.700433  0.000000  1
  Ru  Ru6  1  0.732655  0.267345  0.000000  1
  O  O7  1  0.411048  0.894647  0.920610  1
  O  O8  1  0.925180  0.413205  0.918430  1
  O  O9  1  0.898777  0.415841  0.420227  1
  O  O10  1  0.390908  0.911916  0.429130  1
  O  O11  1  0.500116  0.501494  0.195375  1
  O  O12  1  0.016732  0.981692  0.166241  1
  O  O13  1  0.018308  0.983268  0.833759  1
  O  O14  1  0.498506  0.499884  0.804625  1
  O  O15  1  0.105353  0.588952  0.079390  1
  O  O16  1  0.586795  0.074820  0.081570  1
  O  O17  1  0.088084  0.609092  0.570870  1
  O  O18  1  0.584159  0.101223  0.579773  1
