# generated using pymatgen
data_Ca3Pr6NdIr4
_symmetry_space_group_name_H-M   'P 1'
_cell_length_a   8.92284367
_cell_length_b   8.87294954
_cell_length_c   7.46978042
_cell_angle_alpha   83.25248235
_cell_angle_beta   83.58339874
_cell_angle_gamma   44.41506720
_symmetry_Int_Tables_number   1
_chemical_formula_structural   Ca3Pr6NdIr4
_chemical_formula_sum   'Ca3 Pr6 Nd1 Ir4'
_cell_volume   410.69342319
_cell_formula_units_Z   1
loop_
 _symmetry_equiv_pos_site_id
 _symmetry_equiv_pos_as_xyz
  1  'x, y, z'
loop_
 _atom_site_type_symbol
 _atom_site_label
 _atom_site_symmetry_multiplicity
 _atom_site_fract_x
 _atom_site_fract_y
 _atom_site_fract_z
 _atom_site_occupancy
  Ca  Ca0  1  0.016689  0.800081  0.917832  1
  Ca  Ca1  1  0.200716  0.983614  0.582191  1
  Ca  Ca2  1  0.986532  0.199113  0.082328  1
  Pr  Pr3  1  0.798861  0.018434  0.416314  1
  Pr  Pr4  1  0.351451  0.213410  0.816036  1
  Pr  Pr5  1  0.787278  0.650635  0.682431  1
  Pr  Pr6  1  0.653218  0.784039  0.182112  1
  Pr  Pr7  1  0.209409  0.349679  0.316368  1
  Pr  Pr8  1  0.563341  0.436932  0.751896  1
  Nd  Nd9  1  0.433646  0.567656  0.248633  1
  Ir  Ir10  1  0.180206  0.593067  0.568425  1
  Ir  Ir11  1  0.415231  0.815228  0.926739  1
  Ir  Ir12  1  0.810890  0.408000  0.430061  1
  Ir  Ir13  1  0.592534  0.180113  0.078635  1
