# generated using pymatgen
data_Tm6V(Fe3Co8)2
_symmetry_space_group_name_H-M   'P 1'
_cell_length_a   8.31722240
_cell_length_b   8.31722279
_cell_length_c   8.31722200
_cell_angle_alpha   60.00000313
_cell_angle_beta   60.00000158
_cell_angle_gamma   59.99999801
_symmetry_Int_Tables_number   1
_chemical_formula_structural   Tm6V(Fe3Co8)2
_chemical_formula_sum   'Tm6 V1 Fe6 Co16'
_cell_volume   406.83654168
_cell_formula_units_Z   1
loop_
 _symmetry_equiv_pos_site_id
 _symmetry_equiv_pos_as_xyz
  1  'x, y, z'
loop_
 _atom_site_type_symbol
 _atom_site_label
 _atom_site_symmetry_multiplicity
 _atom_site_fract_x
 _atom_site_fract_y
 _atom_site_fract_z
 _atom_site_occupancy
  Tm  Tm0  1  0.711734  0.288266  0.288266  1
  Tm  Tm1  1  0.288266  0.711734  0.711734  1
  Tm  Tm2  1  0.288266  0.711734  0.288266  1
  Tm  Tm3  1  0.288266  0.288266  0.711734  1
  Tm  Tm4  1  0.711734  0.288266  0.711734  1
  Tm  Tm5  1  0.711734  0.711734  0.288266  1
  V  V6  1  0.000000  0.000000  0.000000  1
  Fe  Fe7  1  0.500000  0.000000  0.000000  1
  Fe  Fe8  1  0.000000  0.500000  0.500000  1
  Fe  Fe9  1  0.000000  0.500000  0.000000  1
  Fe  Fe10  1  0.000000  0.000000  0.500000  1
  Fe  Fe11  1  0.500000  0.000000  0.500000  1
  Fe  Fe12  1  0.500000  0.500000  0.000000  1
  Co  Co13  1  0.323757  0.323757  0.323757  1
  Co  Co14  1  0.323757  0.323757  0.028732  1
  Co  Co15  1  0.028732  0.323757  0.323757  1
  Co  Co16  1  0.323757  0.028732  0.323757  1
  Co  Co17  1  0.676243  0.676243  0.676243  1
  Co  Co18  1  0.676243  0.676243  0.971268  1
  Co  Co19  1  0.676243  0.971268  0.676243  1
  Co  Co20  1  0.971268  0.676243  0.676243  1
  Co  Co21  1  0.122281  0.122281  0.122281  1
  Co  Co22  1  0.122281  0.122281  0.633155  1
  Co  Co23  1  0.633155  0.122281  0.122281  1
  Co  Co24  1  0.122281  0.633155  0.122281  1
  Co  Co25  1  0.877719  0.877719  0.877719  1
  Co  Co26  1  0.877719  0.877719  0.366845  1
  Co  Co27  1  0.877719  0.366845  0.877719  1
  Co  Co28  1  0.366845  0.877719  0.877719  1
