# generated using pymatgen
data_KRb2Ho(AsSe2)6
_symmetry_space_group_name_H-M   'P 1'
_cell_length_a   9.90603100
_cell_length_b   9.90603069
_cell_length_c   8.28896500
_cell_angle_alpha   90.00000000
_cell_angle_beta   90.00000000
_cell_angle_gamma   119.99999681
_symmetry_Int_Tables_number   1
_chemical_formula_structural   KRb2Ho(AsSe2)6
_chemical_formula_sum   'K1 Rb2 Ho1 As6 Se12'
_cell_volume   704.41777000
_cell_formula_units_Z   1
loop_
 _symmetry_equiv_pos_site_id
 _symmetry_equiv_pos_as_xyz
  1  'x, y, z'
loop_
 _atom_site_type_symbol
 _atom_site_label
 _atom_site_symmetry_multiplicity
 _atom_site_fract_x
 _atom_site_fract_y
 _atom_site_fract_z
 _atom_site_occupancy
  K  K0  1  0.000000  0.000000  0.000000  1
  Rb  Rb1  1  0.333333  0.666667  0.837286  1
  Rb  Rb2  1  0.666667  0.333333  0.162714  1
  Ho  Ho3  1  0.000000  0.000000  0.500000  1
  As  As4  1  0.292245  0.839973  0.372385  1
  As  As5  1  0.160027  0.452273  0.372385  1
  As  As6  1  0.547727  0.707755  0.372385  1
  As  As7  1  0.707755  0.160027  0.627615  1
  As  As8  1  0.839973  0.547727  0.627615  1
  As  As9  1  0.452273  0.292245  0.627615  1
  Se  Se10  1  0.261163  0.055549  0.297541  1
  Se  Se11  1  0.944451  0.205614  0.297541  1
  Se  Se12  1  0.794386  0.738837  0.297541  1
  Se  Se13  1  0.738837  0.944451  0.702459  1
  Se  Se14  1  0.055549  0.794386  0.702459  1
  Se  Se15  1  0.205614  0.261163  0.702459  1
  Se  Se16  1  0.529569  0.906772  0.210522  1
  Se  Se17  1  0.093228  0.622797  0.210522  1
  Se  Se18  1  0.377203  0.470431  0.210522  1
  Se  Se19  1  0.470431  0.093228  0.789478  1
  Se  Se20  1  0.906772  0.377203  0.789478  1
  Se  Se21  1  0.622797  0.529569  0.789478  1
