# generated using pymatgen
data_Er2Tm10Mn2In3
_symmetry_space_group_name_H-M   'P 1'
_cell_length_a   8.36617928
_cell_length_b   8.36422722
_cell_length_c   8.36617838
_cell_angle_alpha   110.10158506
_cell_angle_beta   110.15126482
_cell_angle_gamma   108.17784603
_symmetry_Int_Tables_number   1
_chemical_formula_structural   Er2Tm10Mn2In3
_chemical_formula_sum   'Er2 Tm10 Mn2 In3'
_cell_volume   450.44513990
_cell_formula_units_Z   1
loop_
 _symmetry_equiv_pos_site_id
 _symmetry_equiv_pos_as_xyz
  1  'x, y, z'
loop_
 _atom_site_type_symbol
 _atom_site_label
 _atom_site_symmetry_multiplicity
 _atom_site_fract_x
 _atom_site_fract_y
 _atom_site_fract_z
 _atom_site_occupancy
  Er  Er0  1  0.210497  0.457200  0.246703  1
  Er  Er1  1  0.789503  0.542800  0.753297  1
  Tm  Tm2  1  0.303588  0.303549  0.607346  1
  Tm  Tm3  1  0.696412  0.696451  0.392654  1
  Tm  Tm4  1  0.303798  0.696451  0.000039  1
  Tm  Tm5  1  0.696202  0.303549  0.999961  1
  Tm  Tm6  1  0.457155  0.210422  0.246512  1
  Tm  Tm7  1  0.542845  0.789578  0.753488  1
  Tm  Tm8  1  0.963910  0.210422  0.753266  1
  Tm  Tm9  1  0.210557  0.963927  0.753370  1
  Tm  Tm10  1  0.036090  0.789578  0.246734  1
  Tm  Tm11  1  0.789443  0.036073  0.246630  1
  Mn  Mn12  1  0.393569  0.393519  0.999950  1
  Mn  Mn13  1  0.606431  0.606481  0.000050  1
  In  In14  1  0.000000  0.000000  0.000000  1
  In  In15  1  0.500000  0.000000  0.500000  1
  In  In16  1  0.000000  0.500000  0.500000  1
