# generated using pymatgen
data_Tb5Sm(Si3Os)8
_symmetry_space_group_name_H-M   'P 1'
_cell_length_a   10.15376039
_cell_length_b   10.15376072
_cell_length_c   8.19048990
_cell_angle_alpha   89.97987977
_cell_angle_beta   90.02011438
_cell_angle_gamma   132.46581176
_symmetry_Int_Tables_number   1
_chemical_formula_structural   Tb5Sm(Si3Os)8
_chemical_formula_sum   'Tb5 Sm1 Si24 Os8'
_cell_volume   622.91944042
_cell_formula_units_Z   1
loop_
 _symmetry_equiv_pos_site_id
 _symmetry_equiv_pos_as_xyz
  1  'x, y, z'
loop_
 _atom_site_type_symbol
 _atom_site_label
 _atom_site_symmetry_multiplicity
 _atom_site_fract_x
 _atom_site_fract_y
 _atom_site_fract_z
 _atom_site_occupancy
  Tb  Tb0  1  0.501023  0.001023  0.750000  1
  Tb  Tb1  1  0.999041  0.499041  0.250000  1
  Tb  Tb2  1  0.498837  0.998837  0.250000  1
  Tb  Tb3  1  0.999982  0.000006  0.000022  1
  Tb  Tb4  1  0.500006  0.499982  0.499978  1
  Sm  Sm5  1  0.001195  0.501195  0.750000  1
  Si  Si6  1  0.794632  0.204270  0.499605  1
  Si  Si7  1  0.704270  0.294632  0.000395  1
  Si  Si8  1  0.205374  0.795743  0.499522  1
  Si  Si9  1  0.295743  0.705374  0.000478  1
  Si  Si10  1  0.667549  0.667634  0.166773  1
  Si  Si11  1  0.167634  0.167549  0.333227  1
  Si  Si12  1  0.832438  0.832420  0.666767  1
  Si  Si13  1  0.332420  0.332438  0.833233  1
  Si  Si14  1  0.844838  0.611126  0.995891  1
  Si  Si15  1  0.111126  0.344838  0.504109  1
  Si  Si16  1  0.654880  0.888983  0.495506  1
  Si  Si17  1  0.388983  0.154880  0.004494  1
  Si  Si18  1  0.155179  0.388915  0.004760  1
  Si  Si19  1  0.888915  0.655179  0.495240  1
  Si  Si20  1  0.121408  0.886847  0.728015  1
  Si  Si21  1  0.386847  0.621408  0.771985  1
  Si  Si22  1  0.379102  0.613851  0.228014  1
  Si  Si23  1  0.113851  0.879102  0.271986  1
  Si  Si24  1  0.878883  0.113521  0.272052  1
  Si  Si25  1  0.613521  0.378883  0.227948  1
  Si  Si26  1  0.620394  0.385890  0.771922  1
  Si  Si27  1  0.885890  0.120394  0.728078  1
  Si  Si28  1  0.611030  0.845093  0.995467  1
  Si  Si29  1  0.345093  0.111030  0.504533  1
  Os  Os30  1  0.626470  0.626516  0.872398  1
  Os  Os31  1  0.126516  0.126470  0.627602  1
  Os  Os32  1  0.373494  0.373482  0.127552  1
  Os  Os33  1  0.873482  0.873494  0.372448  1
  Os  Os34  1  0.168915  0.831431  0.000505  1
  Os  Os35  1  0.331431  0.668915  0.499495  1
  Os  Os36  1  0.831009  0.168599  0.000582  1
  Os  Os37  1  0.668599  0.331009  0.499418  1
