# generated using pymatgen
data_DyTm3Th6(Bi3C)2
_symmetry_space_group_name_H-M   'P 1'
_cell_length_a   9.32564500
_cell_length_b   9.32564657
_cell_length_c   6.45150900
_cell_angle_alpha   90.00000000
_cell_angle_beta   90.00000000
_cell_angle_gamma   119.99999798
_symmetry_Int_Tables_number   1
_chemical_formula_structural   DyTm3Th6(Bi3C)2
_chemical_formula_sum   'Dy1 Tm3 Th6 Bi6 C2'
_cell_volume   485.90322249
_cell_formula_units_Z   1
loop_
 _symmetry_equiv_pos_site_id
 _symmetry_equiv_pos_as_xyz
  1  'x, y, z'
loop_
 _atom_site_type_symbol
 _atom_site_label
 _atom_site_symmetry_multiplicity
 _atom_site_fract_x
 _atom_site_fract_y
 _atom_site_fract_z
 _atom_site_occupancy
  Dy  Dy0  1  0.666667  0.333333  0.000000  1
  Tm  Tm1  1  0.333333  0.666667  0.000000  1
  Tm  Tm2  1  0.333333  0.666667  0.500000  1
  Tm  Tm3  1  0.666667  0.333333  0.500000  1
  Th  Th4  1  0.779831  0.779839  0.750030  1
  Th  Th5  1  0.220161  0.999992  0.750030  1
  Th  Th6  1  0.000008  0.220169  0.750030  1
  Th  Th7  1  0.220161  0.220169  0.249970  1
  Th  Th8  1  0.779831  0.999992  0.249970  1
  Th  Th9  1  0.000008  0.779839  0.249970  1
  Bi  Bi10  1  0.406138  0.406575  0.749617  1
  Bi  Bi11  1  0.593425  0.999563  0.749617  1
  Bi  Bi12  1  0.000437  0.593862  0.749617  1
  Bi  Bi13  1  0.593425  0.593862  0.250383  1
  Bi  Bi14  1  0.406138  0.999563  0.250383  1
  Bi  Bi15  1  0.000437  0.406575  0.250383  1
  C  C16  1  0.000000  0.000000  0.000000  1
  C  C17  1  0.000000  0.000000  0.500000  1
