# generated using pymatgen
data_YbHgPd4
_symmetry_space_group_name_H-M   'P 1'
_cell_length_a   5.76321100
_cell_length_b   4.20252900
_cell_length_c   8.60105000
_cell_angle_alpha   90.00000000
_cell_angle_beta   90.00000000
_cell_angle_gamma   90.00000000
_symmetry_Int_Tables_number   1
_chemical_formula_structural   YbHgPd4
_chemical_formula_sum   'Yb2 Hg2 Pd8'
_cell_volume   208.31795877
_cell_formula_units_Z   2
loop_
 _symmetry_equiv_pos_site_id
 _symmetry_equiv_pos_as_xyz
  1  'x, y, z'
loop_
 _atom_site_type_symbol
 _atom_site_label
 _atom_site_symmetry_multiplicity
 _atom_site_fract_x
 _atom_site_fract_y
 _atom_site_fract_z
 _atom_site_occupancy
  Yb  Yb0  1  0.351565  0.250000  0.092998  1
  Yb  Yb1  1  0.851566  0.250000  0.407002  1
  Hg  Hg2  1  0.143441  0.750000  0.588765  1
  Hg  Hg3  1  0.643441  0.750000  0.911235  1
  Pd  Pd4  1  0.864472  0.250000  0.077472  1
  Pd  Pd5  1  0.602517  0.750000  0.250259  1
  Pd  Pd6  1  0.102518  0.750000  0.249741  1
  Pd  Pd7  1  0.364473  0.250000  0.422528  1
  Pd  Pd8  1  0.635468  0.750000  0.582306  1
  Pd  Pd9  1  0.902536  0.250000  0.747904  1
  Pd  Pd10  1  0.402536  0.250000  0.752096  1
  Pd  Pd11  1  0.135468  0.750000  0.917694  1
