# generated using pymatgen
data_Y5HoCo14(P3Ru)4
_symmetry_space_group_name_H-M   'P 1'
_cell_length_a   3.74557200
_cell_length_b   10.57209400
_cell_length_c   12.33116400
_cell_angle_alpha   90.00053040
_cell_angle_beta   90.00000000
_cell_angle_gamma   90.00000000
_symmetry_Int_Tables_number   1
_chemical_formula_structural   Y5HoCo14(P3Ru)4
_chemical_formula_sum   'Y5 Ho1 Co14 P12 Ru4'
_cell_volume   488.29608186
_cell_formula_units_Z   1
loop_
 _symmetry_equiv_pos_site_id
 _symmetry_equiv_pos_as_xyz
  1  'x, y, z'
loop_
 _atom_site_type_symbol
 _atom_site_label
 _atom_site_symmetry_multiplicity
 _atom_site_fract_x
 _atom_site_fract_y
 _atom_site_fract_z
 _atom_site_occupancy
  Y  Y0  1  0.000000  0.500050  0.528479  1
  Y  Y1  1  0.500000  0.999956  0.478586  1
  Y  Y2  1  0.500000  0.817975  0.202776  1
  Y  Y3  1  0.500000  0.181960  0.202771  1
  Y  Y4  1  0.000000  0.683161  0.795803  1
  Ho  Ho5  1  0.000000  0.316759  0.795725  1
  Co  Co6  1  0.000000  0.499829  0.985596  1
  Co  Co7  1  0.500000  0.000155  0.013131  1
  Co  Co8  1  0.000000  0.200277  0.573869  1
  Co  Co9  1  0.000000  0.799826  0.573547  1
  Co  Co10  1  0.500000  0.880084  0.710652  1
  Co  Co11  1  0.500000  0.120368  0.710928  1
  Co  Co12  1  0.000000  0.620743  0.286883  1
  Co  Co13  1  0.000000  0.379301  0.286945  1
  Co  Co14  1  0.500000  0.332405  0.989728  1
  Co  Co15  1  0.500000  0.667479  0.989973  1
  Co  Co16  1  0.000000  0.167296  0.008458  1
  Co  Co17  1  0.000000  0.832842  0.008625  1
  Co  Co18  1  0.500000  0.499474  0.705338  1
  Co  Co19  1  0.000000  0.000021  0.294524  1
  P  P20  1  0.500000  0.309285  0.621620  1
  P  P21  1  0.500000  0.690620  0.621178  1
  P  P22  1  0.000000  0.183944  0.382042  1
  P  P23  1  0.000000  0.816115  0.382011  1
  P  P24  1  0.500000  0.499573  0.882261  1
  P  P25  1  0.000000  0.000037  0.116532  1
  P  P26  1  0.500000  0.846829  0.894078  1
  P  P27  1  0.500000  0.153606  0.893798  1
  P  P28  1  0.000000  0.653319  0.104392  1
  P  P29  1  0.000000  0.346670  0.104457  1
  P  P30  1  0.500000  0.499973  0.344836  1
  P  P31  1  0.000000  0.999987  0.651862  1
  Ru  Ru32  1  0.500000  0.295913  0.430690  1
  Ru  Ru33  1  0.500000  0.704042  0.430533  1
  Ru  Ru34  1  0.500000  0.499998  0.156456  1
  Ru  Ru35  1  0.000000  0.000127  0.840918  1
