# generated using pymatgen
data_Tb5ThCoTe2
_symmetry_space_group_name_H-M   'P 1'
_cell_length_a   8.52306775
_cell_length_b   8.49751760
_cell_length_c   3.86524900
_cell_angle_alpha   90.00000000
_cell_angle_beta   90.00000000
_cell_angle_gamma   119.90088589
_symmetry_Int_Tables_number   1
_chemical_formula_structural   Tb5ThCoTe2
_chemical_formula_sum   'Tb5 Th1 Co1 Te2'
_cell_volume   242.67721551
_cell_formula_units_Z   1
loop_
 _symmetry_equiv_pos_site_id
 _symmetry_equiv_pos_as_xyz
  1  'x, y, z'
loop_
 _atom_site_type_symbol
 _atom_site_label
 _atom_site_symmetry_multiplicity
 _atom_site_fract_x
 _atom_site_fract_y
 _atom_site_fract_z
 _atom_site_occupancy
  Tb  Tb0  1  0.000000  0.419831  0.500000  1
  Tb  Tb1  1  0.601607  0.595766  0.500000  1
  Tb  Tb2  1  0.398393  0.994159  0.500000  1
  Tb  Tb3  1  0.236621  0.240840  0.000000  1
  Tb  Tb4  1  0.763379  0.004220  0.000000  1
  Th  Th5  1  0.000000  0.768659  0.000000  1
  Co  Co6  1  0.000000  0.985923  0.500000  1
  Te  Te7  1  0.343542  0.667072  0.000000  1
  Te  Te8  1  0.656458  0.323530  0.000000  1
