# generated using pymatgen
data_Li2Yb2SmAlSi3
_symmetry_space_group_name_H-M   'P 1'
_cell_length_a   7.12862681
_cell_length_b   7.15251802
_cell_length_c   4.31377700
_cell_angle_alpha   90.00000000
_cell_angle_beta   90.00000000
_cell_angle_gamma   120.85316225
_symmetry_Int_Tables_number   1
_chemical_formula_structural   Li2Yb2SmAlSi3
_chemical_formula_sum   'Li2 Yb2 Sm1 Al1 Si3'
_cell_volume   188.82302519
_cell_formula_units_Z   1
loop_
 _symmetry_equiv_pos_site_id
 _symmetry_equiv_pos_as_xyz
  1  'x, y, z'
loop_
 _atom_site_type_symbol
 _atom_site_label
 _atom_site_symmetry_multiplicity
 _atom_site_fract_x
 _atom_site_fract_y
 _atom_site_fract_z
 _atom_site_occupancy
  Li  Li0  1  0.240820  0.998675  0.500000  1
  Li  Li1  1  0.996510  0.235208  0.500000  1
  Yb  Yb2  1  0.420774  0.421547  0.000000  1
  Yb  Yb3  1  0.574524  0.007890  0.000000  1
  Sm  Sm4  1  0.007954  0.578285  0.000000  1
  Al  Al5  1  0.753444  0.753813  0.500000  1
  Si  Si6  1  0.345935  0.671522  0.500000  1
  Si  Si7  1  0.678158  0.354118  0.500000  1
  Si  Si8  1  0.981882  0.978944  0.000000  1
