# generated using pymatgen
data_DyY7Ta10(TiSi8)2
_symmetry_space_group_name_H-M   'P 1'
_cell_length_a   7.04786120
_cell_length_b   7.04786533
_cell_length_c   12.97869101
_cell_angle_alpha   89.94777176
_cell_angle_beta   90.05311729
_cell_angle_gamma   90.01030277
_symmetry_Int_Tables_number   1
_chemical_formula_structural   DyY7Ta10(TiSi8)2
_chemical_formula_sum   'Dy1 Y7 Ta10 Ti2 Si16'
_cell_volume   644.68187288
_cell_formula_units_Z   1
loop_
 _symmetry_equiv_pos_site_id
 _symmetry_equiv_pos_as_xyz
  1  'x, y, z'
loop_
 _atom_site_type_symbol
 _atom_site_label
 _atom_site_symmetry_multiplicity
 _atom_site_fract_x
 _atom_site_fract_y
 _atom_site_fract_z
 _atom_site_occupancy
  Dy  Dy0  1  0.341286  0.001884  0.468012  1
  Y  Y1  1  0.998486  0.658000  0.032483  1
  Y  Y2  1  0.002012  0.341214  0.531945  1
  Y  Y3  1  0.657997  0.998480  0.967518  1
  Y  Y4  1  0.159483  0.502976  0.782261  1
  Y  Y5  1  0.841384  0.497909  0.281979  1
  Y  Y6  1  0.502988  0.159461  0.217741  1
  Y  Y7  1  0.497914  0.841388  0.718048  1
  Ta  Ta8  1  0.346272  0.508703  0.375972  1
  Ta  Ta9  1  0.847218  0.992146  0.374629  1
  Ta  Ta10  1  0.008357  0.153025  0.126288  1
  Ta  Ta11  1  0.992252  0.847289  0.625334  1
  Ta  Ta12  1  0.508694  0.346213  0.623990  1
  Ta  Ta13  1  0.153018  0.008402  0.873713  1
  Ta  Ta14  1  0.672090  0.672297  0.500000  1
  Ta  Ta15  1  0.829373  0.170337  0.750034  1
  Ta  Ta16  1  0.170405  0.829433  0.250008  1
  Ta  Ta17  1  0.326195  0.326199  0.999990  1
  Ti  Ti18  1  0.492498  0.652976  0.124086  1
  Ti  Ti19  1  0.652952  0.492472  0.875931  1
  Si  Si20  1  0.045711  0.705850  0.436003  1
  Si  Si21  1  0.952587  0.294924  0.935803  1
  Si  Si22  1  0.705647  0.045559  0.563991  1
  Si  Si23  1  0.208161  0.455241  0.185345  1
  Si  Si24  1  0.793501  0.545326  0.687331  1
  Si  Si25  1  0.455266  0.208210  0.814662  1
  Si  Si26  1  0.545242  0.793670  0.312764  1
  Si  Si27  1  0.294898  0.952621  0.064190  1
  Si  Si28  1  0.795080  0.865447  0.181808  1
  Si  Si29  1  0.296832  0.633461  0.568318  1
  Si  Si30  1  0.701136  0.368510  0.066247  1
  Si  Si31  1  0.633216  0.296670  0.431654  1
  Si  Si32  1  0.368556  0.701105  0.933693  1
  Si  Si33  1  0.133678  0.204029  0.317826  1
  Si  Si34  1  0.204175  0.133520  0.682191  1
  Si  Si35  1  0.865442  0.795055  0.818210  1
