# generated using pymatgen
data_Ba2YbEuPb2
_symmetry_space_group_name_H-M   'P 1'
_cell_length_a   5.42046700
_cell_length_b   9.02216600
_cell_length_c   10.02696600
_cell_angle_alpha   90.00000000
_cell_angle_beta   90.00000000
_cell_angle_gamma   90.00000000
_symmetry_Int_Tables_number   1
_chemical_formula_structural   Ba2YbEuPb2
_chemical_formula_sum   'Ba4 Yb2 Eu2 Pb4'
_cell_volume   490.36228550
_cell_formula_units_Z   2
loop_
 _symmetry_equiv_pos_site_id
 _symmetry_equiv_pos_as_xyz
  1  'x, y, z'
loop_
 _atom_site_type_symbol
 _atom_site_label
 _atom_site_symmetry_multiplicity
 _atom_site_fract_x
 _atom_site_fract_y
 _atom_site_fract_z
 _atom_site_occupancy
  Ba  Ba0  1  0.250000  0.522001  0.317756  1
  Ba  Ba1  1  0.250000  0.022001  0.182244  1
  Ba  Ba2  1  0.750000  0.479771  0.680920  1
  Ba  Ba3  1  0.750000  0.979771  0.819080  1
  Yb  Yb4  1  0.750000  0.354697  0.072066  1
  Yb  Yb5  1  0.750000  0.854697  0.427934  1
  Eu  Eu6  1  0.250000  0.645421  0.927164  1
  Eu  Eu7  1  0.250000  0.145421  0.572836  1
  Pb  Pb8  1  0.250000  0.270769  0.894755  1
  Pb  Pb9  1  0.250000  0.770769  0.605245  1
  Pb  Pb10  1  0.750000  0.727340  0.112527  1
  Pb  Pb11  1  0.750000  0.227340  0.387473  1
