# generated using pymatgen
data_LuPu7(OsC2)4
_symmetry_space_group_name_H-M   'P 1'
_cell_length_a   5.15666600
_cell_length_b   6.37113664
_cell_length_c   9.73797700
_cell_angle_alpha   90.06121552
_cell_angle_beta   90.00000000
_cell_angle_gamma   90.00000000
_symmetry_Int_Tables_number   1
_chemical_formula_structural   LuPu7(OsC2)4
_chemical_formula_sum   'Lu1 Pu7 Os4 C8'
_cell_volume   319.92959670
_cell_formula_units_Z   1
loop_
 _symmetry_equiv_pos_site_id
 _symmetry_equiv_pos_as_xyz
  1  'x, y, z'
loop_
 _atom_site_type_symbol
 _atom_site_label
 _atom_site_symmetry_multiplicity
 _atom_site_fract_x
 _atom_site_fract_y
 _atom_site_fract_z
 _atom_site_occupancy
  Lu  Lu0  1  0.250000  0.685303  0.553979  1
  Pu  Pu1  1  0.750000  0.309203  0.454510  1
  Pu  Pu2  1  0.750000  0.805588  0.045435  1
  Pu  Pu3  1  0.250000  0.191269  0.952587  1
  Pu  Pu4  1  0.250000  0.528789  0.218351  1
  Pu  Pu5  1  0.750000  0.473583  0.780963  1
  Pu  Pu6  1  0.750000  0.972005  0.717780  1
  Pu  Pu7  1  0.250000  0.030734  0.278341  1
  Os  Os8  1  0.250000  0.723292  0.864359  1
  Os  Os9  1  0.750000  0.277113  0.133274  1
  Os  Os10  1  0.750000  0.777739  0.369967  1
  Os  Os11  1  0.250000  0.223814  0.630623  1
  C  C12  1  0.250000  0.458529  0.758065  1
  C  C13  1  0.750000  0.537705  0.246364  1
  C  C14  1  0.750000  0.036313  0.255419  1
  C  C15  1  0.250000  0.965043  0.743070  1
  C  C16  1  0.250000  0.831992  0.055685  1
  C  C17  1  0.750000  0.168052  0.942686  1
  C  C18  1  0.750000  0.668853  0.558446  1
  C  C19  1  0.250000  0.335080  0.440099  1
