# generated using pymatgen
data_Cs4PaTe6Rh
_symmetry_space_group_name_H-M   'P 1'
_cell_length_a   15.22005900
_cell_length_b   6.94349264
_cell_length_c   10.23191065
_cell_angle_alpha   71.64874563
_cell_angle_beta   90.00000000
_cell_angle_gamma   90.00000000
_symmetry_Int_Tables_number   1
_chemical_formula_structural   Cs4PaTe6Rh
_chemical_formula_sum   'Cs8 Pa2 Te12 Rh2'
_cell_volume   1026.32110219
_cell_formula_units_Z   2
loop_
 _symmetry_equiv_pos_site_id
 _symmetry_equiv_pos_as_xyz
  1  'x, y, z'
loop_
 _atom_site_type_symbol
 _atom_site_label
 _atom_site_symmetry_multiplicity
 _atom_site_fract_x
 _atom_site_fract_y
 _atom_site_fract_z
 _atom_site_occupancy
  Cs  Cs0  1  0.953838  0.673299  0.655460  1
  Cs  Cs1  1  0.453838  0.826701  0.344540  1
  Cs  Cs2  1  0.046954  0.328884  0.343264  1
  Cs  Cs3  1  0.546954  0.171116  0.656736  1
  Cs  Cs4  1  0.868747  0.082387  0.900789  1
  Cs  Cs5  1  0.368747  0.417613  0.099211  1
  Cs  Cs6  1  0.130274  0.919321  0.101317  1
  Cs  Cs7  1  0.630274  0.580679  0.898683  1
  Pa  Pa8  1  0.749461  0.647873  0.296276  1
  Pa  Pa9  1  0.249461  0.852127  0.703724  1
  Te  Te10  1  0.899859  0.931883  0.282503  1
  Te  Te11  1  0.399859  0.568117  0.717497  1
  Te  Te12  1  0.098724  0.124371  0.717924  1
  Te  Te13  1  0.598724  0.375629  0.282076  1
  Te  Te14  1  0.814034  0.271886  0.508977  1
  Te  Te15  1  0.314034  0.228114  0.491023  1
  Te  Te16  1  0.187861  0.669654  0.491701  1
  Te  Te17  1  0.687861  0.830346  0.508299  1
  Te  Te18  1  0.838790  0.468862  0.098237  1
  Te  Te19  1  0.338790  0.031138  0.901763  1
  Te  Te20  1  0.160992  0.484112  0.898928  1
  Te  Te21  1  0.660992  0.015888  0.101072  1
  Rh  Rh22  1  0.250465  0.347588  0.706265  1
  Rh  Rh23  1  0.750465  0.152412  0.293735  1
