# generated using pymatgen
data_Dy2LuIn3NiHg2
_symmetry_space_group_name_H-M   'P 1'
_cell_length_a   7.80797338
_cell_length_b   7.80797340
_cell_length_c   3.90453100
_cell_angle_alpha   90.00000000
_cell_angle_beta   90.00000000
_cell_angle_gamma   119.64540634
_symmetry_Int_Tables_number   1
_chemical_formula_structural   Dy2LuIn3NiHg2
_chemical_formula_sum   'Dy2 Lu1 In3 Ni1 Hg2'
_cell_volume   206.87922451
_cell_formula_units_Z   1
loop_
 _symmetry_equiv_pos_site_id
 _symmetry_equiv_pos_as_xyz
  1  'x, y, z'
loop_
 _atom_site_type_symbol
 _atom_site_label
 _atom_site_symmetry_multiplicity
 _atom_site_fract_x
 _atom_site_fract_y
 _atom_site_fract_z
 _atom_site_occupancy
  Dy  Dy0  1  0.610965  0.000333  0.000000  1
  Dy  Dy1  1  0.000333  0.610965  0.000000  1
  Lu  Lu2  1  0.384761  0.384761  0.000000  1
  In  In3  1  0.242846  0.000289  0.500000  1
  In  In4  1  0.000289  0.242846  0.500000  1
  In  In5  1  0.759258  0.759258  0.500000  1
  Ni  Ni6  1  0.002089  0.002089  0.000000  1
  Hg  Hg7  1  0.335591  0.663867  0.500000  1
  Hg  Hg8  1  0.663867  0.335591  0.500000  1
