# generated using pymatgen
data_Re2AgCl12
_symmetry_space_group_name_H-M   'P 1'
_cell_length_a   6.31757171
_cell_length_b   6.85989746
_cell_length_c   10.67018400
_cell_angle_alpha   104.73858874
_cell_angle_beta   91.70856859
_cell_angle_gamma   115.81464384
_symmetry_Int_Tables_number   1
_chemical_formula_structural   Re2AgCl12
_chemical_formula_sum   'Re2 Ag1 Cl12'
_cell_volume   397.29513792
_cell_formula_units_Z   1
loop_
 _symmetry_equiv_pos_site_id
 _symmetry_equiv_pos_as_xyz
  1  'x, y, z'
loop_
 _atom_site_type_symbol
 _atom_site_label
 _atom_site_symmetry_multiplicity
 _atom_site_fract_x
 _atom_site_fract_y
 _atom_site_fract_z
 _atom_site_occupancy
  Re  Re0  1  0.265360  0.008456  0.757030  1
  Re  Re1  1  0.734640  0.991544  0.242970  1
  Ag  Ag2  1  0.500000  0.500000  0.500000  1
  Cl  Cl3  1  0.791950  0.771763  0.365393  1
  Cl  Cl4  1  0.208050  0.228237  0.634607  1
  Cl  Cl5  1  0.334295  0.765618  0.204393  1
  Cl  Cl6  1  0.300560  0.780728  0.869524  1
  Cl  Cl7  1  0.699440  0.219272  0.130476  1
  Cl  Cl8  1  0.847181  0.777826  0.714851  1
  Cl  Cl9  1  0.152819  0.222174  0.285149  1
  Cl  Cl10  1  0.288918  0.776076  0.559472  1
  Cl  Cl11  1  0.711082  0.223924  0.440528  1
  Cl  Cl12  1  0.215689  0.233491  0.939809  1
  Cl  Cl13  1  0.784311  0.766509  0.060191  1
  Cl  Cl14  1  0.665705  0.234382  0.795607  1
