# generated using pymatgen
data_Tb4Ni13Ir
_symmetry_space_group_name_H-M   'P 1'
_cell_length_a   4.94689763
_cell_length_b   4.94689917
_cell_length_c   12.54987130
_cell_angle_alpha   78.63318420
_cell_angle_beta   78.63317986
_cell_angle_gamma   60.00001065
_symmetry_Int_Tables_number   1
_chemical_formula_structural   Tb4Ni13Ir
_chemical_formula_sum   'Tb4 Ni13 Ir1'
_cell_volume   258.99277239
_cell_formula_units_Z   1
loop_
 _symmetry_equiv_pos_site_id
 _symmetry_equiv_pos_as_xyz
  1  'x, y, z'
loop_
 _atom_site_type_symbol
 _atom_site_label
 _atom_site_symmetry_multiplicity
 _atom_site_fract_x
 _atom_site_fract_y
 _atom_site_fract_z
 _atom_site_occupancy
  Tb  Tb0  1  0.949768  0.949768  0.150694  1
  Tb  Tb1  1  0.050232  0.050232  0.849306  1
  Tb  Tb2  1  0.853435  0.853435  0.439696  1
  Tb  Tb3  1  0.146565  0.146565  0.560304  1
  Ni  Ni4  1  0.720717  0.720717  0.837848  1
  Ni  Ni5  1  0.279283  0.279283  0.162152  1
  Ni  Ni6  1  0.612792  0.612792  0.161625  1
  Ni  Ni7  1  0.387208  0.387208  0.838375  1
  Ni  Ni8  1  0.000000  0.500000  0.000000  1
  Ni  Ni9  1  0.500000  0.000000  0.000000  1
  Ni  Ni10  1  0.500000  0.500000  0.000000  1
  Ni  Ni11  1  0.391179  0.391179  0.323360  1
  Ni  Ni12  1  0.894283  0.391179  0.323360  1
  Ni  Ni13  1  0.391179  0.894283  0.323360  1
  Ni  Ni14  1  0.608821  0.608821  0.676640  1
  Ni  Ni15  1  0.105717  0.608821  0.676640  1
  Ni  Ni16  1  0.608821  0.105717  0.676640  1
  Ir  Ir17  1  0.500000  0.500000  0.500000  1
