# generated using pymatgen
data_Cs5K(InI4)6
_symmetry_space_group_name_H-M   'P 1'
_cell_length_a   15.35502532
_cell_length_b   15.39780595
_cell_length_c   15.36021300
_cell_angle_alpha   115.24148128
_cell_angle_beta   114.99249422
_cell_angle_gamma   115.00529126
_symmetry_Int_Tables_number   1
_chemical_formula_structural   Cs5K(InI4)6
_chemical_formula_sum   'Cs5 K1 In6 I24'
_cell_volume   2017.64157822
_cell_formula_units_Z   1
loop_
 _symmetry_equiv_pos_site_id
 _symmetry_equiv_pos_as_xyz
  1  'x, y, z'
loop_
 _atom_site_type_symbol
 _atom_site_label
 _atom_site_symmetry_multiplicity
 _atom_site_fract_x
 _atom_site_fract_y
 _atom_site_fract_z
 _atom_site_occupancy
  Cs  Cs0  1  0.877868  0.688802  0.094554  1
  Cs  Cs1  1  0.094098  0.878417  0.688796  1
  Cs  Cs2  1  0.688883  0.094630  0.877766  1
  Cs  Cs3  1  0.188772  0.378048  0.595069  1
  Cs  Cs4  1  0.594183  0.188398  0.377575  1
  K  K5  1  0.374307  0.591682  0.188773  1
  In  In6  1  0.863470  0.074891  0.679617  1
  In  In7  1  0.679340  0.863126  0.074436  1
  In  In8  1  0.075370  0.679546  0.864357  1
  In  In9  1  0.573920  0.363876  0.179505  1
  In  In10  1  0.179909  0.574223  0.362359  1
  In  In11  1  0.363268  0.179392  0.574424  1
  I  I12  1  0.964621  0.114510  0.904470  1
  I  I13  1  0.904744  0.964811  0.115268  1
  I  I14  1  0.115716  0.904453  0.965421  1
  I  I15  1  0.616117  0.465535  0.406058  1
  I  I16  1  0.404639  0.614292  0.457088  1
  I  I17  1  0.464703  0.404138  0.615141  1
  I  I18  1  0.074377  0.327367  0.785980  1
  I  I19  1  0.776031  0.067913  0.322894  1
  I  I20  1  0.322384  0.774073  0.068358  1
  I  I21  1  0.821721  0.566414  0.275012  1
  I  I22  1  0.275501  0.821417  0.566788  1
  I  I23  1  0.567306  0.275811  0.822544  1
  I  I24  1  0.620022  0.007398  0.549140  1
  I  I25  1  0.552322  0.622421  0.010382  1
  I  I26  1  0.010175  0.552351  0.621886  1
  I  I27  1  0.509481  0.122384  0.051694  1
  I  I28  1  0.055895  0.510340  0.121043  1
  I  I29  1  0.121722  0.052503  0.510078  1
  I  I30  1  0.788176  0.847088  0.473054  1
  I  I31  1  0.479293  0.796513  0.851410  1
  I  I32  1  0.852063  0.479665  0.797029  1
  I  I33  1  0.352774  0.302175  0.984015  1
  I  I34  1  0.981010  0.353166  0.297452  1
  I  I35  1  0.296618  0.979026  0.351361  1
