# generated using pymatgen
data_Ce3NdTm4(B6Os)4
_symmetry_space_group_name_H-M   'P 1'
_cell_length_a   3.67592400
_cell_length_b   9.16351923
_cell_length_c   11.56328129
_cell_angle_alpha   89.97426019
_cell_angle_beta   90.00000000
_cell_angle_gamma   90.00000000
_symmetry_Int_Tables_number   1
_chemical_formula_structural   Ce3NdTm4(B6Os)4
_chemical_formula_sum   'Ce3 Nd1 Tm4 B24 Os4'
_cell_volume   389.50215612
_cell_formula_units_Z   1
loop_
 _symmetry_equiv_pos_site_id
 _symmetry_equiv_pos_as_xyz
  1  'x, y, z'
loop_
 _atom_site_type_symbol
 _atom_site_label
 _atom_site_symmetry_multiplicity
 _atom_site_fract_x
 _atom_site_fract_y
 _atom_site_fract_z
 _atom_site_occupancy
  Ce  Ce0  1  0.000000  0.677300  0.585913  1
  Ce  Ce1  1  0.000000  0.822776  0.086144  1
  Ce  Ce2  1  0.000000  0.177551  0.913929  1
  Nd  Nd3  1  0.000000  0.321595  0.413584  1
  Tm  Tm4  1  0.000000  0.944994  0.373752  1
  Tm  Tm5  1  0.000000  0.055448  0.626172  1
  Tm  Tm6  1  0.000000  0.444804  0.125982  1
  Tm  Tm7  1  0.000000  0.555007  0.874241  1
  B  B8  1  0.500000  0.556615  0.431420  1
  B  B9  1  0.500000  0.445095  0.569979  1
  B  B10  1  0.500000  0.054483  0.067704  1
  B  B11  1  0.500000  0.944967  0.931475  1
  B  B12  1  0.500000  0.750372  0.418864  1
  B  B13  1  0.500000  0.249388  0.582663  1
  B  B14  1  0.500000  0.249908  0.081052  1
  B  B15  1  0.500000  0.749925  0.918738  1
  B  B16  1  0.500000  0.792777  0.266046  1
  B  B17  1  0.500000  0.207512  0.733988  1
  B  B18  1  0.500000  0.291552  0.232456  1
  B  B19  1  0.500000  0.707785  0.766387  1
  B  B20  1  0.500000  0.632449  0.184328  1
  B  B21  1  0.500000  0.368180  0.816044  1
  B  B22  1  0.500000  0.130683  0.314680  1
  B  B23  1  0.500000  0.868164  0.684396  1
  B  B24  1  0.500000  0.984143  0.214120  1
  B  B25  1  0.500000  0.015435  0.785801  1
  B  B26  1  0.500000  0.485487  0.284914  1
  B  B27  1  0.500000  0.515955  0.714586  1
  B  B28  1  0.500000  0.605758  0.028711  1
  B  B29  1  0.500000  0.394585  0.971519  1
  B  B30  1  0.500000  0.103379  0.471930  1
  B  B31  1  0.500000  0.895692  0.528640  1
  Os  Os32  1  0.000000  0.640979  0.319348  1
  Os  Os33  1  0.000000  0.360627  0.682241  1
  Os  Os34  1  0.000000  0.138328  0.178125  1
  Os  Os35  1  0.000000  0.860303  0.820125  1
