# generated using pymatgen
data_Sm3Zn2In3Ir
_symmetry_space_group_name_H-M   'P 1'
_cell_length_a   7.83715900
_cell_length_b   7.83715843
_cell_length_c   3.92387100
_cell_angle_alpha   90.00000000
_cell_angle_beta   90.00000000
_cell_angle_gamma   119.99998973
_symmetry_Int_Tables_number   1
_chemical_formula_structural   Sm3Zn2In3Ir
_chemical_formula_sum   'Sm3 Zn2 In3 Ir1'
_cell_volume   208.71933487
_cell_formula_units_Z   1
loop_
 _symmetry_equiv_pos_site_id
 _symmetry_equiv_pos_as_xyz
  1  'x, y, z'
loop_
 _atom_site_type_symbol
 _atom_site_label
 _atom_site_symmetry_multiplicity
 _atom_site_fract_x
 _atom_site_fract_y
 _atom_site_fract_z
 _atom_site_occupancy
  Sm  Sm0  1  0.583509  0.605520  0.000000  1
  Sm  Sm1  1  0.394480  0.977988  0.000000  1
  Sm  Sm2  1  0.022012  0.416491  0.000000  1
  Zn  Zn3  1  0.000000  0.000000  0.000000  1
  Zn  Zn4  1  0.666667  0.333333  0.500000  1
  In  In5  1  0.996845  0.738550  0.500000  1
  In  In6  1  0.261450  0.258295  0.500000  1
  In  In7  1  0.741705  0.003155  0.500000  1
  Ir  Ir8  1  0.333333  0.666667  0.500000  1
