# generated using pymatgen
data_Ac11(Ni2Ge3)2
_symmetry_space_group_name_H-M   'P 1'
_cell_length_a   4.48199701
_cell_length_b   10.04829103
_cell_length_c   14.59089739
_cell_angle_alpha   105.01698233
_cell_angle_beta   90.02753237
_cell_angle_gamma   102.77999409
_symmetry_Int_Tables_number   1
_chemical_formula_structural   Ac11(Ni2Ge3)2
_chemical_formula_sum   'Ac11 Ni4 Ge6'
_cell_volume   617.79085567
_cell_formula_units_Z   1
loop_
 _symmetry_equiv_pos_site_id
 _symmetry_equiv_pos_as_xyz
  1  'x, y, z'
loop_
 _atom_site_type_symbol
 _atom_site_label
 _atom_site_symmetry_multiplicity
 _atom_site_fract_x
 _atom_site_fract_y
 _atom_site_fract_z
 _atom_site_occupancy
  Ac  Ac0  1  0.905948  0.810458  0.215964  1
  Ac  Ac1  1  0.859668  0.715398  0.648375  1
  Ac  Ac2  1  0.215637  0.431637  0.100729  1
  Ac  Ac3  1  0.546203  0.092660  0.124668  1
  Ac  Ac4  1  0.335969  0.672165  0.406564  1
  Ac  Ac5  1  0.454427  0.906945  0.876646  1
  Ac  Ac6  1  0.000259  0.999904  0.500573  1
  Ac  Ac7  1  0.140612  0.284654  0.352884  1
  Ac  Ac8  1  0.784402  0.567722  0.900227  1
  Ac  Ac9  1  0.664192  0.328054  0.594104  1
  Ac  Ac10  1  0.094414  0.189388  0.785020  1
  Ni  Ni11  1  0.746984  0.498331  0.449372  1
  Ni  Ni12  1  0.940452  0.880364  0.023417  1
  Ni  Ni13  1  0.059603  0.118438  0.977893  1
  Ni  Ni14  1  0.252908  0.502304  0.551819  1
  Ge  Ge15  1  0.626574  0.254176  0.952232  1
  Ge  Ge16  1  0.261315  0.520842  0.731103  1
  Ge  Ge17  1  0.738677  0.478587  0.269869  1
  Ge  Ge18  1  0.373621  0.745120  0.048868  1
  Ge  Ge19  1  0.515121  0.031859  0.347509  1
  Ge  Ge20  1  0.485605  0.968041  0.653689  1
