# generated using pymatgen
data_Dy3Y2Tm7Co5Sn
_symmetry_space_group_name_H-M   'P 1'
_cell_length_a   8.23693679
_cell_length_b   8.23689181
_cell_length_c   8.23600708
_cell_angle_alpha   106.89120759
_cell_angle_beta   110.66751474
_cell_angle_gamma   110.90069580
_symmetry_Int_Tables_number   1
_chemical_formula_structural   Dy3Y2Tm7Co5Sn
_chemical_formula_sum   'Dy3 Y2 Tm7 Co5 Sn1'
_cell_volume   429.41869807
_cell_formula_units_Z   1
loop_
 _symmetry_equiv_pos_site_id
 _symmetry_equiv_pos_as_xyz
  1  'x, y, z'
loop_
 _atom_site_type_symbol
 _atom_site_label
 _atom_site_symmetry_multiplicity
 _atom_site_fract_x
 _atom_site_fract_y
 _atom_site_fract_z
 _atom_site_occupancy
  Dy  Dy0  1  0.806372  0.791182  0.598211  1
  Dy  Dy1  1  0.193095  0.791466  0.985219  1
  Dy  Dy2  1  0.807116  0.208089  0.015896  1
  Y  Y3  1  0.479797  0.292549  0.187961  1
  Y  Y4  1  0.105216  0.293012  0.811497  1
  Tm  Tm5  1  0.893794  0.709045  0.185448  1
  Tm  Tm6  1  0.521891  0.707172  0.814035  1
  Tm  Tm7  1  0.307023  0.621381  0.315211  1
  Tm  Tm8  1  0.306669  0.992314  0.684329  1
  Tm  Tm9  1  0.691559  0.379101  0.686273  1
  Tm  Tm10  1  0.693380  0.005789  0.313273  1
  Tm  Tm11  1  0.193246  0.207972  0.401915  1
  Co  Co12  1  0.502447  0.614763  0.112636  1
  Co  Co13  1  0.501573  0.389590  0.886560  1
  Co  Co14  1  0.377463  0.999942  0.378511  1
  Co  Co15  1  0.620833  0.999164  0.621116  1
  Co  Co16  1  0.998290  0.998014  0.002060  1
  Sn  Sn17  1  0.000239  0.499453  0.499848  1
