# generated using pymatgen
data_Lu2ZrFe9
_symmetry_space_group_name_H-M   'P 1'
_cell_length_a   8.49163085
_cell_length_b   8.49163077
_cell_length_c   8.49163075
_cell_angle_alpha   34.22315758
_cell_angle_beta   34.22315515
_cell_angle_gamma   34.22316532
_symmetry_Int_Tables_number   1
_chemical_formula_structural   Lu2ZrFe9
_chemical_formula_sum   'Lu2 Zr1 Fe9'
_cell_volume   172.70859856
_cell_formula_units_Z   1
loop_
 _symmetry_equiv_pos_site_id
 _symmetry_equiv_pos_as_xyz
  1  'x, y, z'
loop_
 _atom_site_type_symbol
 _atom_site_label
 _atom_site_symmetry_multiplicity
 _atom_site_fract_x
 _atom_site_fract_y
 _atom_site_fract_z
 _atom_site_occupancy
  Lu  Lu0  1  0.000213  0.000213  0.000213  1
  Lu  Lu1  1  0.858015  0.858015  0.858015  1
  Zr  Zr2  1  0.141854  0.141854  0.141854  1
  Fe  Fe3  1  0.583461  0.583461  0.081516  1
  Fe  Fe4  1  0.332901  0.332901  0.332901  1
  Fe  Fe5  1  0.918493  0.416417  0.416418  1
  Fe  Fe6  1  0.416417  0.918493  0.416418  1
  Fe  Fe7  1  0.499911  0.499911  0.499911  1
  Fe  Fe8  1  0.583462  0.081515  0.583461  1
  Fe  Fe9  1  0.081515  0.583462  0.583461  1
  Fe  Fe10  1  0.667341  0.667341  0.667341  1
  Fe  Fe11  1  0.416418  0.416418  0.918492  1
