# generated using pymatgen
data_HfZr6(Pd4Au)2
_symmetry_space_group_name_H-M   'P 1'
_cell_length_a   8.18725176
_cell_length_b   8.18725101
_cell_length_c   9.80884500
_cell_angle_alpha   90.00000000
_cell_angle_beta   90.00000000
_cell_angle_gamma   106.36958319
_symmetry_Int_Tables_number   1
_chemical_formula_structural   HfZr6(Pd4Au)2
_chemical_formula_sum   'Hf2 Zr12 Pd16 Au4'
_cell_volume   630.84502595
_cell_formula_units_Z   2
loop_
 _symmetry_equiv_pos_site_id
 _symmetry_equiv_pos_as_xyz
  1  'x, y, z'
loop_
 _atom_site_type_symbol
 _atom_site_label
 _atom_site_symmetry_multiplicity
 _atom_site_fract_x
 _atom_site_fract_y
 _atom_site_fract_z
 _atom_site_occupancy
  Hf  Hf0  1  0.000000  0.000000  0.000000  1
  Hf  Hf1  1  0.500000  0.500000  0.500000  1
  Zr  Zr2  1  0.696275  0.303725  0.000000  1
  Zr  Zr3  1  0.303725  0.696275  0.000000  1
  Zr  Zr4  1  0.803725  0.196275  0.500000  1
  Zr  Zr5  1  0.196275  0.803725  0.500000  1
  Zr  Zr6  1  0.999891  0.499891  0.250000  1
  Zr  Zr7  1  0.000109  0.500109  0.750000  1
  Zr  Zr8  1  0.500109  0.000109  0.750000  1
  Zr  Zr9  1  0.499891  0.999891  0.250000  1
  Zr  Zr10  1  0.314935  0.314935  0.186456  1
  Zr  Zr11  1  0.685065  0.685065  0.813544  1
  Zr  Zr12  1  0.185065  0.185065  0.686456  1
  Zr  Zr13  1  0.814935  0.814935  0.313544  1
  Pd  Pd14  1  0.855233  0.147181  0.205176  1
  Pd  Pd15  1  0.144767  0.852819  0.794824  1
  Pd  Pd16  1  0.644767  0.352819  0.705176  1
  Pd  Pd17  1  0.647181  0.355233  0.294824  1
  Pd  Pd18  1  0.355233  0.647181  0.294824  1
  Pd  Pd19  1  0.352819  0.644767  0.705176  1
  Pd  Pd20  1  0.852819  0.144767  0.794824  1
  Pd  Pd21  1  0.147181  0.855233  0.205176  1
  Pd  Pd22  1  0.939437  0.647804  0.001174  1
  Pd  Pd23  1  0.060563  0.352196  0.998826  1
  Pd  Pd24  1  0.560563  0.852196  0.501174  1
  Pd  Pd25  1  0.147804  0.439437  0.498826  1
  Pd  Pd26  1  0.439437  0.147804  0.498826  1
  Pd  Pd27  1  0.852196  0.560563  0.501174  1
  Pd  Pd28  1  0.352196  0.060563  0.998826  1
  Pd  Pd29  1  0.647804  0.939437  0.001174  1
  Au  Au30  1  0.106374  0.106374  0.393055  1
  Au  Au31  1  0.893626  0.893626  0.606945  1
  Au  Au32  1  0.393626  0.393626  0.893055  1
  Au  Au33  1  0.606374  0.606374  0.106945  1
