# generated using pymatgen
data_Th2Si3(PPd7)3
_symmetry_space_group_name_H-M   'P 1'
_cell_length_a   8.69977102
_cell_length_b   8.69977065
_cell_length_c   8.68673689
_cell_angle_alpha   59.95035629
_cell_angle_beta   59.95035706
_cell_angle_gamma   59.99999899
_symmetry_Int_Tables_number   1
_chemical_formula_structural   Th2Si3(PPd7)3
_chemical_formula_sum   'Th2 Si3 P3 Pd21'
_cell_volume   464.54844151
_cell_formula_units_Z   1
loop_
 _symmetry_equiv_pos_site_id
 _symmetry_equiv_pos_as_xyz
  1  'x, y, z'
loop_
 _atom_site_type_symbol
 _atom_site_label
 _atom_site_symmetry_multiplicity
 _atom_site_fract_x
 _atom_site_fract_y
 _atom_site_fract_z
 _atom_site_occupancy
  Th  Th0  1  0.749221  0.749221  0.752338  1
  Th  Th1  1  0.249702  0.249702  0.250895  1
  Si  Si2  1  0.259835  0.259835  0.741791  1
  Si  Si3  1  0.738538  0.259835  0.741791  1
  Si  Si4  1  0.259835  0.738538  0.741791  1
  P  P5  1  0.739101  0.739101  0.263003  1
  P  P6  1  0.258795  0.739101  0.263003  1
  P  P7  1  0.739101  0.258795  0.263003  1
  Pd  Pd8  1  0.002406  0.002406  0.992782  1
  Pd  Pd9  1  0.614064  0.614064  0.157807  1
  Pd  Pd10  1  0.615751  0.154733  0.613764  1
  Pd  Pd11  1  0.154733  0.615751  0.613764  1
  Pd  Pd12  1  0.615751  0.615751  0.613764  1
  Pd  Pd13  1  0.384642  0.384642  0.846076  1
  Pd  Pd14  1  0.385738  0.843980  0.384545  1
  Pd  Pd15  1  0.843980  0.385738  0.384545  1
  Pd  Pd16  1  0.385738  0.385738  0.384545  1
  Pd  Pd17  1  0.001244  0.001244  0.342335  1
  Pd  Pd18  1  0.655178  0.001244  0.342335  1
  Pd  Pd19  1  0.001244  0.655178  0.342335  1
  Pd  Pd20  1  0.655086  0.346908  0.001620  1
  Pd  Pd21  1  0.996385  0.346908  0.001620  1
  Pd  Pd22  1  0.000776  0.347091  0.651356  1
  Pd  Pd23  1  0.346908  0.655086  0.001620  1
  Pd  Pd24  1  0.347091  0.000776  0.651356  1
  Pd  Pd25  1  0.346908  0.996385  0.001620  1
  Pd  Pd26  1  0.000776  0.000776  0.651356  1
  Pd  Pd27  1  0.996385  0.655086  0.001620  1
  Pd  Pd28  1  0.655086  0.996385  0.001620  1
