# generated using pymatgen
data_TmMgCdNi7B2
_symmetry_space_group_name_H-M   'P 1'
_cell_length_a   4.94782300
_cell_length_b   4.94782203
_cell_length_c   13.98203100
_cell_angle_alpha   90.00000000
_cell_angle_beta   90.00000000
_cell_angle_gamma   120.00001319
_symmetry_Int_Tables_number   1
_chemical_formula_structural   TmMgCdNi7B2
_chemical_formula_sum   'Tm2 Mg2 Cd2 Ni14 B4'
_cell_volume   296.43471341
_cell_formula_units_Z   2
loop_
 _symmetry_equiv_pos_site_id
 _symmetry_equiv_pos_as_xyz
  1  'x, y, z'
loop_
 _atom_site_type_symbol
 _atom_site_label
 _atom_site_symmetry_multiplicity
 _atom_site_fract_x
 _atom_site_fract_y
 _atom_site_fract_z
 _atom_site_occupancy
  Tm  Tm0  1  0.333333  0.666667  0.751583  1
  Tm  Tm1  1  0.666667  0.333333  0.251583  1
  Mg  Mg2  1  0.333333  0.666667  0.526925  1
  Mg  Mg3  1  0.666667  0.333333  0.026925  1
  Cd  Cd4  1  0.666667  0.333333  0.471952  1
  Cd  Cd5  1  0.333333  0.666667  0.971952  1
  Ni  Ni6  1  0.000000  0.000000  0.000168  1
  Ni  Ni7  1  0.000000  0.000000  0.500168  1
  Ni  Ni8  1  0.166183  0.332366  0.146310  1
  Ni  Ni9  1  0.833817  0.667634  0.646310  1
  Ni  Ni10  1  0.667634  0.833817  0.146310  1
  Ni  Ni11  1  0.166183  0.833817  0.146310  1
  Ni  Ni12  1  0.833817  0.166183  0.646310  1
  Ni  Ni13  1  0.332366  0.166183  0.646310  1
  Ni  Ni14  1  0.833803  0.667607  0.853724  1
  Ni  Ni15  1  0.833803  0.166197  0.853724  1
  Ni  Ni16  1  0.332393  0.166197  0.853724  1
  Ni  Ni17  1  0.667607  0.833803  0.353724  1
  Ni  Ni18  1  0.166197  0.833803  0.353724  1
  Ni  Ni19  1  0.166197  0.332393  0.353724  1
  B  B20  1  0.333333  0.666667  0.250027  1
  B  B21  1  0.666667  0.333333  0.750027  1
  B  B22  1  0.000000  0.000000  0.249245  1
  B  B23  1  0.000000  0.000000  0.749245  1
