# generated using pymatgen
data_La3AsCl3
_symmetry_space_group_name_H-M   'P 1'
_cell_length_a   10.31375983
_cell_length_b   10.31375885
_cell_length_c   10.31375900
_cell_angle_alpha   109.47122289
_cell_angle_beta   109.47122097
_cell_angle_gamma   109.47121666
_symmetry_Int_Tables_number   1
_chemical_formula_structural   La3AsCl3
_chemical_formula_sum   'La12 As4 Cl12'
_cell_volume   844.55722709
_cell_formula_units_Z   4
loop_
 _symmetry_equiv_pos_site_id
 _symmetry_equiv_pos_as_xyz
  1  'x, y, z'
loop_
 _atom_site_type_symbol
 _atom_site_label
 _atom_site_symmetry_multiplicity
 _atom_site_fract_x
 _atom_site_fract_y
 _atom_site_fract_z
 _atom_site_occupancy
  La  La0  1  0.255324  0.005324  0.010646  1
  La  La1  1  0.010646  0.255324  0.005324  1
  La  La2  1  0.494676  0.750000  0.005324  1
  La  La3  1  0.750000  0.244676  0.255324  1
  La  La4  1  0.005324  0.010646  0.255324  1
  La  La5  1  0.005324  0.494676  0.750000  1
  La  La6  1  0.244676  0.255324  0.750000  1
  La  La7  1  0.255324  0.750000  0.244676  1
  La  La8  1  0.244676  0.489354  0.494676  1
  La  La9  1  0.489354  0.494676  0.244676  1
  La  La10  1  0.750000  0.005324  0.494676  1
  La  La11  1  0.494676  0.244676  0.489354  1
  As  As12  1  0.000000  0.250000  0.500000  1
  As  As13  1  0.250000  0.500000  0.000000  1
  As  As14  1  0.500000  0.000000  0.250000  1
  As  As15  1  0.250000  0.250000  0.250000  1
  Cl  Cl16  1  0.752319  0.747681  0.250000  1
  Cl  Cl17  1  0.502319  0.250000  0.997681  1
  Cl  Cl18  1  0.250000  0.997681  0.502319  1
  Cl  Cl19  1  0.504638  0.502319  0.752319  1
  Cl  Cl20  1  0.997681  0.995362  0.747681  1
  Cl  Cl21  1  0.747681  0.997681  0.995362  1
  Cl  Cl22  1  0.502319  0.752319  0.504638  1
  Cl  Cl23  1  0.752319  0.504638  0.502319  1
  Cl  Cl24  1  0.997681  0.502319  0.250000  1
  Cl  Cl25  1  0.995362  0.747681  0.997681  1
  Cl  Cl26  1  0.250000  0.752319  0.747681  1
  Cl  Cl27  1  0.747681  0.250000  0.752319  1
