# generated using pymatgen
data_Sm3Gd3TeO12
_symmetry_space_group_name_H-M   'P 1'
_cell_length_a   6.62569155
_cell_length_b   6.62481155
_cell_length_c   6.62565704
_cell_angle_alpha   98.65931154
_cell_angle_beta   98.65872267
_cell_angle_gamma   98.65036214
_symmetry_Int_Tables_number   1
_chemical_formula_structural   Sm3Gd3TeO12
_chemical_formula_sum   'Sm3 Gd3 Te1 O12'
_cell_volume   279.74217060
_cell_formula_units_Z   1
loop_
 _symmetry_equiv_pos_site_id
 _symmetry_equiv_pos_as_xyz
  1  'x, y, z'
loop_
 _atom_site_type_symbol
 _atom_site_label
 _atom_site_symmetry_multiplicity
 _atom_site_fract_x
 _atom_site_fract_y
 _atom_site_fract_z
 _atom_site_occupancy
  Sm  Sm0  1  0.856360  0.390857  0.687767  1
  Sm  Sm1  1  0.609867  0.312650  0.144226  1
  Sm  Sm2  1  0.311877  0.143425  0.609477  1
  Gd  Gd3  1  0.685638  0.854600  0.390998  1
  Gd  Gd4  1  0.391341  0.686306  0.855219  1
  Gd  Gd5  1  0.145272  0.609363  0.314026  1
  Te  Te6  1  0.999744  0.999216  0.000119  1
  O  O7  1  0.929671  0.032922  0.706822  1
  O  O8  1  0.967271  0.293276  0.070240  1
  O  O9  1  0.593807  0.174785  0.435677  1
  O  O10  1  0.823484  0.567258  0.406067  1
  O  O11  1  0.292562  0.070018  0.966813  1
  O  O12  1  0.563129  0.408994  0.822140  1
  O  O13  1  0.433696  0.595043  0.177246  1
  O  O14  1  0.706571  0.929783  0.033061  1
  O  O15  1  0.178538  0.437829  0.592124  1
  O  O16  1  0.407719  0.819794  0.565146  1
  O  O17  1  0.033537  0.707212  0.930013  1
  O  O18  1  0.069913  0.966668  0.292819  1
