# generated using pymatgen
data_Na2CaCeB24
_symmetry_space_group_name_H-M   'P 1'
_cell_length_a   4.15106900
_cell_length_b   5.88713200
_cell_length_c   11.70153300
_cell_angle_alpha   90.00000000
_cell_angle_beta   90.00000000
_cell_angle_gamma   90.00000000
_symmetry_Int_Tables_number   1
_chemical_formula_structural   Na2CaCeB24
_chemical_formula_sum   'Na2 Ca1 Ce1 B24'
_cell_volume   285.96078967
_cell_formula_units_Z   1
loop_
 _symmetry_equiv_pos_site_id
 _symmetry_equiv_pos_as_xyz
  1  'x, y, z'
loop_
 _atom_site_type_symbol
 _atom_site_label
 _atom_site_symmetry_multiplicity
 _atom_site_fract_x
 _atom_site_fract_y
 _atom_site_fract_z
 _atom_site_occupancy
  Na  Na0  1  0.000000  0.500000  0.240747  1
  Na  Na1  1  0.000000  0.500000  0.759253  1
  Ca  Ca2  1  0.000000  0.000000  0.000000  1
  Ce  Ce3  1  0.000000  0.000000  0.500000  1
  B  B4  1  0.200648  0.500000  0.500000  1
  B  B5  1  0.200871  0.000000  0.748229  1
  B  B6  1  0.200432  0.500000  0.000000  1
  B  B7  1  0.200871  0.000000  0.251771  1
  B  B8  1  0.500000  0.647863  0.575375  1
  B  B9  1  0.500000  0.150290  0.823465  1
  B  B10  1  0.500000  0.649164  0.075266  1
  B  B11  1  0.500000  0.149414  0.326131  1
  B  B12  1  0.500000  0.352137  0.575375  1
  B  B13  1  0.500000  0.849710  0.823465  1
  B  B14  1  0.500000  0.350836  0.075266  1
  B  B15  1  0.500000  0.850586  0.326131  1
  B  B16  1  0.500000  0.352137  0.424625  1
  B  B17  1  0.500000  0.850586  0.673869  1
  B  B18  1  0.500000  0.350836  0.924734  1
  B  B19  1  0.500000  0.849710  0.176535  1
  B  B20  1  0.500000  0.647863  0.424625  1
  B  B21  1  0.500000  0.149414  0.673869  1
  B  B22  1  0.500000  0.649164  0.924734  1
  B  B23  1  0.500000  0.150290  0.176535  1
  B  B24  1  0.799352  0.500000  0.500000  1
  B  B25  1  0.799129  0.000000  0.748229  1
  B  B26  1  0.799568  0.500000  0.000000  1
  B  B27  1  0.799129  0.000000  0.251771  1
