# generated using pymatgen
data_Ho5Lu3Si16(CN6)4
_symmetry_space_group_name_H-M   'P 1'
_cell_length_a   5.91638072
_cell_length_b   9.95298045
_cell_length_c   10.32610925
_cell_angle_alpha   90.07292550
_cell_angle_beta   90.42441154
_cell_angle_gamma   89.90415699
_symmetry_Int_Tables_number   1
_chemical_formula_structural   Ho5Lu3Si16(CN6)4
_chemical_formula_sum   'Ho5 Lu3 Si16 C4 N24'
_cell_volume   608.04134703
_cell_formula_units_Z   1
loop_
 _symmetry_equiv_pos_site_id
 _symmetry_equiv_pos_as_xyz
  1  'x, y, z'
loop_
 _atom_site_type_symbol
 _atom_site_label
 _atom_site_symmetry_multiplicity
 _atom_site_fract_x
 _atom_site_fract_y
 _atom_site_fract_z
 _atom_site_occupancy
  Ho  Ho0  1  0.236567  0.587836  0.582878  1
  Ho  Ho1  1  0.735791  0.066852  0.405119  1
  Ho  Ho2  1  0.766500  0.568689  0.095405  1
  Ho  Ho3  1  0.266041  0.932412  0.594918  1
  Ho  Ho4  1  0.234892  0.430274  0.906912  1
  Lu  Lu5  1  0.735314  0.909832  0.083915  1
  Lu  Lu6  1  0.764092  0.408656  0.414965  1
  Lu  Lu7  1  0.264864  0.090110  0.915533  1
  Si  Si8  1  0.016360  0.725835  0.341128  1
  Si  Si9  1  0.482289  0.224277  0.157810  1
  Si  Si10  1  0.981074  0.273860  0.657537  1
  Si  Si11  1  0.518807  0.775550  0.842601  1
  Si  Si12  1  0.523513  0.704881  0.324982  1
  Si  Si13  1  0.976724  0.203842  0.174409  1
  Si  Si14  1  0.476461  0.295419  0.675302  1
  Si  Si15  1  0.024246  0.796107  0.825852  1
  Si  Si16  1  0.242560  0.713246  0.080208  1
  Si  Si17  1  0.258148  0.213114  0.419456  1
  Si  Si18  1  0.758621  0.286933  0.919684  1
  Si  Si19  1  0.743157  0.788319  0.580397  1
  Si  Si20  1  0.253190  0.978026  0.249258  1
  Si  Si21  1  0.246329  0.478255  0.250163  1
  Si  Si22  1  0.747305  0.022065  0.751650  1
  Si  Si23  1  0.752581  0.521415  0.750286  1
  C  C24  1  0.268710  0.790036  0.248316  1
  C  C25  1  0.230713  0.290054  0.251320  1
  C  C26  1  0.730759  0.209500  0.751886  1
  C  C27  1  0.770373  0.709895  0.748282  1
  N  N28  1  0.058133  0.550573  0.362104  1
  N  N29  1  0.436056  0.049987  0.134903  1
  N  N30  1  0.930274  0.447450  0.634063  1
  N  N31  1  0.564546  0.949910  0.865937  1
  N  N32  1  0.770427  0.763240  0.253216  1
  N  N33  1  0.728431  0.262166  0.245338  1
  N  N34  1  0.228188  0.236089  0.744914  1
  N  N35  1  0.272806  0.738805  0.754986  1
  N  N36  1  0.003885  0.788986  0.499324  1
  N  N37  1  0.496574  0.285176  0.999130  1
  N  N38  1  0.995486  0.212989  0.498570  1
  N  N39  1  0.505238  0.714365  0.001326  1
  N  N40  1  0.522523  0.533545  0.281344  1
  N  N41  1  0.976258  0.033184  0.219528  1
  N  N42  1  0.475804  0.465233  0.723754  1
  N  N43  1  0.024086  0.966794  0.781031  1
  N  N44  1  0.163411  0.544155  0.100089  1
  N  N45  1  0.339390  0.044201  0.399109  1
  N  N46  1  0.839334  0.455976  0.899945  1
  N  N47  1  0.662142  0.957011  0.601590  1
  N  N48  1  0.022709  0.786491  0.993268  1
  N  N49  1  0.474891  0.288704  0.507442  1
  N  N50  1  0.978191  0.213500  0.006936  1
  N  N51  1  0.525231  0.716179  0.491982  1
