# generated using pymatgen
data_DyHo7Si12Pt3Rh
_symmetry_space_group_name_H-M   'P 1'
_cell_length_a   8.16971300
_cell_length_b   8.16971325
_cell_length_c   7.91314200
_cell_angle_alpha   90.00000000
_cell_angle_beta   90.00000000
_cell_angle_gamma   120.00000304
_symmetry_Int_Tables_number   1
_chemical_formula_structural   DyHo7Si12Pt3Rh
_chemical_formula_sum   'Dy1 Ho7 Si12 Pt3 Rh1'
_cell_volume   457.39687292
_cell_formula_units_Z   1
loop_
 _symmetry_equiv_pos_site_id
 _symmetry_equiv_pos_as_xyz
  1  'x, y, z'
loop_
 _atom_site_type_symbol
 _atom_site_label
 _atom_site_symmetry_multiplicity
 _atom_site_fract_x
 _atom_site_fract_y
 _atom_site_fract_z
 _atom_site_occupancy
  Dy  Dy0  1  0.000000  0.000000  0.249559  1
  Ho  Ho1  1  0.000000  0.000000  0.751173  1
  Ho  Ho2  1  0.509048  0.490952  0.247776  1
  Ho  Ho3  1  0.509048  0.018096  0.247776  1
  Ho  Ho4  1  0.981904  0.490952  0.247776  1
  Ho  Ho5  1  0.489633  0.510367  0.751954  1
  Ho  Ho6  1  0.489633  0.979265  0.751954  1
  Ho  Ho7  1  0.020735  0.510367  0.751954  1
  Si  Si8  1  0.165179  0.834821  0.499547  1
  Si  Si9  1  0.165179  0.330356  0.499547  1
  Si  Si10  1  0.669644  0.834821  0.499547  1
  Si  Si11  1  0.834669  0.165331  0.500861  1
  Si  Si12  1  0.834669  0.669337  0.500861  1
  Si  Si13  1  0.330663  0.165331  0.500861  1
  Si  Si14  1  0.835547  0.164453  0.998777  1
  Si  Si15  1  0.835547  0.671094  0.998777  1
  Si  Si16  1  0.328906  0.164453  0.998777  1
  Si  Si17  1  0.167516  0.832484  0.000826  1
  Si  Si18  1  0.167516  0.335032  0.000826  1
  Si  Si19  1  0.664968  0.832484  0.000826  1
  Pt  Pt20  1  0.333333  0.666667  0.464236  1
  Pt  Pt21  1  0.666667  0.333333  0.533173  1
  Pt  Pt22  1  0.666667  0.333333  0.966654  1
  Rh  Rh23  1  0.333333  0.666667  0.035982  1
