# generated using pymatgen
data_Na6Ga4AgPd
_symmetry_space_group_name_H-M   'P 1'
_cell_length_a   9.16298497
_cell_length_b   9.16298574
_cell_length_c   9.12368600
_cell_angle_alpha   60.14177673
_cell_angle_beta   60.14177397
_cell_angle_gamma   60.16977326
_symmetry_Int_Tables_number   1
_chemical_formula_structural   Na6Ga4AgPd
_chemical_formula_sum   'Na12 Ga8 Ag2 Pd2'
_cell_volume   543.51705627
_cell_formula_units_Z   2
loop_
 _symmetry_equiv_pos_site_id
 _symmetry_equiv_pos_as_xyz
  1  'x, y, z'
loop_
 _atom_site_type_symbol
 _atom_site_label
 _atom_site_symmetry_multiplicity
 _atom_site_fract_x
 _atom_site_fract_y
 _atom_site_fract_z
 _atom_site_occupancy
  Na  Na0  1  0.045898  0.451936  0.048918  1
  Na  Na1  1  0.798064  0.204102  0.201082  1
  Na  Na2  1  0.204102  0.798064  0.796753  1
  Na  Na3  1  0.798064  0.204102  0.796753  1
  Na  Na4  1  0.202371  0.202371  0.797629  1
  Na  Na5  1  0.797244  0.797244  0.202756  1
  Na  Na6  1  0.047629  0.047629  0.452371  1
  Na  Na7  1  0.451936  0.045898  0.048918  1
  Na  Na8  1  0.045898  0.451936  0.453247  1
  Na  Na9  1  0.452756  0.452756  0.047244  1
  Na  Na10  1  0.204102  0.798064  0.201082  1
  Na  Na11  1  0.451936  0.045898  0.453247  1
  Ga  Ga12  1  0.823662  0.823662  0.838174  1
  Ga  Ga13  1  0.731090  0.432866  0.418023  1
  Ga  Ga14  1  0.432866  0.731090  0.418023  1
  Ga  Ga15  1  0.426338  0.426338  0.735499  1
  Ga  Ga16  1  0.817134  0.518910  0.831977  1
  Ga  Ga17  1  0.823662  0.823662  0.514501  1
  Ga  Ga18  1  0.518910  0.817134  0.831977  1
  Ga  Ga19  1  0.426338  0.426338  0.411826  1
  Ag  Ag20  1  0.125000  0.625000  0.625000  1
  Ag  Ag21  1  0.625000  0.125000  0.625000  1
  Pd  Pd22  1  0.625000  0.625000  0.625000  1
  Pd  Pd23  1  0.625000  0.625000  0.125000  1
