# generated using pymatgen
data_Nd4Mn3Al4CrO20
_symmetry_space_group_name_H-M   'P 1'
_cell_length_a   5.73927800
_cell_length_b   7.48782759
_cell_length_c   8.58032218
_cell_angle_alpha   89.90943573
_cell_angle_beta   90.00000000
_cell_angle_gamma   90.00000000
_symmetry_Int_Tables_number   1
_chemical_formula_structural   Nd4Mn3Al4CrO20
_chemical_formula_sum   'Nd4 Mn3 Al4 Cr1 O20'
_cell_volume   368.73651792
_cell_formula_units_Z   1
loop_
 _symmetry_equiv_pos_site_id
 _symmetry_equiv_pos_as_xyz
  1  'x, y, z'
loop_
 _atom_site_type_symbol
 _atom_site_label
 _atom_site_symmetry_multiplicity
 _atom_site_fract_x
 _atom_site_fract_y
 _atom_site_fract_z
 _atom_site_occupancy
  Nd  Nd0  1  0.998817  0.362814  0.670627  1
  Nd  Nd1  1  0.998817  0.637186  0.329373  1
  Nd  Nd2  1  0.999697  0.863828  0.830363  1
  Nd  Nd3  1  0.999697  0.136172  0.169637  1
  Mn  Mn4  1  0.743717  0.000000  0.500000  1
  Mn  Mn5  1  0.742935  0.500000  0.000000  1
  Mn  Mn6  1  0.257035  0.000000  0.500000  1
  Al  Al7  1  0.501099  0.107243  0.860125  1
  Al  Al8  1  0.501099  0.892757  0.139875  1
  Al  Al9  1  0.500506  0.608183  0.638981  1
  Al  Al10  1  0.500506  0.391817  0.361019  1
  Cr  Cr11  1  0.257490  0.500000  0.000000  1
  O  O12  1  0.258131  0.901992  0.289581  1
  O  O13  1  0.258131  0.098008  0.710419  1
  O  O14  1  0.741942  0.401599  0.211088  1
  O  O15  1  0.741942  0.598401  0.788912  1
  O  O16  1  0.743163  0.097638  0.710168  1
  O  O17  1  0.743163  0.902362  0.289832  1
  O  O18  1  0.258544  0.598414  0.790526  1
  O  O19  1  0.258544  0.401586  0.209474  1
  O  O20  1  0.500848  0.338261  0.932408  1
  O  O21  1  0.500848  0.661739  0.067592  1
  O  O22  1  0.500200  0.839749  0.566271  1
  O  O23  1  0.500200  0.160251  0.433729  1
  O  O24  1  0.286195  0.000000  0.000000  1
  O  O25  1  0.713861  0.500000  0.500000  1
  O  O26  1  0.714861  0.000000  0.000000  1
  O  O27  1  0.285330  0.500000  0.500000  1
  O  O28  1  0.000167  0.157213  0.448090  1
  O  O29  1  0.000167  0.842787  0.551910  1
  O  O30  1  0.996176  0.658310  0.052271  1
  O  O31  1  0.996176  0.341690  0.947729  1
