# generated using pymatgen
data_Ba3NpIn2O9
_symmetry_space_group_name_H-M   'P 1'
_cell_length_a   6.07350100
_cell_length_b   6.07350061
_cell_length_c   7.46649300
_cell_angle_alpha   90.00000000
_cell_angle_beta   90.00000000
_cell_angle_gamma   119.99999665
_symmetry_Int_Tables_number   1
_chemical_formula_structural   Ba3NpIn2O9
_chemical_formula_sum   'Ba3 Np1 In2 O9'
_cell_volume   238.52038175
_cell_formula_units_Z   1
loop_
 _symmetry_equiv_pos_site_id
 _symmetry_equiv_pos_as_xyz
  1  'x, y, z'
loop_
 _atom_site_type_symbol
 _atom_site_label
 _atom_site_symmetry_multiplicity
 _atom_site_fract_x
 _atom_site_fract_y
 _atom_site_fract_z
 _atom_site_occupancy
  Ba  Ba0  1  0.000000  0.000000  0.500000  1
  Ba  Ba1  1  0.666667  0.333333  0.804883  1
  Ba  Ba2  1  0.333333  0.666667  0.195117  1
  Np  Np3  1  0.000000  0.000000  0.000000  1
  In  In4  1  0.666667  0.333333  0.338429  1
  In  In5  1  0.333333  0.666667  0.661571  1
  O  O6  1  0.677534  0.838767  0.839767  1
  O  O7  1  0.322466  0.161233  0.160233  1
  O  O8  1  0.000000  0.500000  0.500000  1
  O  O9  1  0.500000  0.000000  0.500000  1
  O  O10  1  0.161233  0.322466  0.839767  1
  O  O11  1  0.838767  0.677534  0.160233  1
  O  O12  1  0.500000  0.500000  0.500000  1
  O  O13  1  0.161233  0.838767  0.839767  1
  O  O14  1  0.838767  0.161233  0.160233  1
