# generated using pymatgen
data_Dy4Sc4PtRh3
_symmetry_space_group_name_H-M   'P 1'
_cell_length_a   4.31626900
_cell_length_b   7.11833335
_cell_length_c   8.70930450
_cell_angle_alpha   89.93166516
_cell_angle_beta   90.00000000
_cell_angle_gamma   90.00000000
_symmetry_Int_Tables_number   1
_chemical_formula_structural   Dy4Sc4PtRh3
_chemical_formula_sum   'Dy4 Sc4 Pt1 Rh3'
_cell_volume   267.59006892
_cell_formula_units_Z   1
loop_
 _symmetry_equiv_pos_site_id
 _symmetry_equiv_pos_as_xyz
  1  'x, y, z'
loop_
 _atom_site_type_symbol
 _atom_site_label
 _atom_site_symmetry_multiplicity
 _atom_site_fract_x
 _atom_site_fract_y
 _atom_site_fract_z
 _atom_site_occupancy
  Dy  Dy0  1  0.250000  0.485022  0.176539  1
  Dy  Dy1  1  0.750000  0.519345  0.823432  1
  Dy  Dy2  1  0.750000  0.012965  0.673397  1
  Dy  Dy3  1  0.250000  0.986023  0.327771  1
  Sc  Sc4  1  0.250000  0.861215  0.933169  1
  Sc  Sc5  1  0.750000  0.138331  0.070568  1
  Sc  Sc6  1  0.750000  0.638292  0.431334  1
  Sc  Sc7  1  0.250000  0.359471  0.569897  1
  Pt  Pt8  1  0.250000  0.244891  0.899409  1
  Rh  Rh9  1  0.250000  0.742156  0.596566  1
  Rh  Rh10  1  0.750000  0.256758  0.403856  1
  Rh  Rh11  1  0.750000  0.755531  0.094062  1
