# generated using pymatgen
data_HoEr2(SiIr2)3
_symmetry_space_group_name_H-M   'P 1'
_cell_length_a   5.55808300
_cell_length_b   5.55808219
_cell_length_c   15.12376800
_cell_angle_alpha   90.00000000
_cell_angle_beta   90.00000000
_cell_angle_gamma   119.99998699
_symmetry_Int_Tables_number   1
_chemical_formula_structural   HoEr2(SiIr2)3
_chemical_formula_sum   'Ho2 Er4 Si6 Ir12'
_cell_volume   404.61379666
_cell_formula_units_Z   2
loop_
 _symmetry_equiv_pos_site_id
 _symmetry_equiv_pos_as_xyz
  1  'x, y, z'
loop_
 _atom_site_type_symbol
 _atom_site_label
 _atom_site_symmetry_multiplicity
 _atom_site_fract_x
 _atom_site_fract_y
 _atom_site_fract_z
 _atom_site_occupancy
  Ho  Ho0  1  0.333333  0.666667  0.750000  1
  Ho  Ho1  1  0.666667  0.333333  0.250000  1
  Er  Er2  1  0.333333  0.666667  0.538850  1
  Er  Er3  1  0.666667  0.333333  0.461150  1
  Er  Er4  1  0.666667  0.333333  0.038850  1
  Er  Er5  1  0.333333  0.666667  0.961150  1
  Si  Si6  1  0.000000  0.000000  0.250000  1
  Si  Si7  1  0.000000  0.000000  0.750000  1
  Si  Si8  1  0.333333  0.666667  0.250000  1
  Si  Si9  1  0.666667  0.333333  0.750000  1
  Si  Si10  1  0.000000  0.000000  0.000000  1
  Si  Si11  1  0.000000  0.000000  0.500000  1
  Ir  Ir12  1  0.167505  0.335009  0.129661  1
  Ir  Ir13  1  0.832495  0.664991  0.870339  1
  Ir  Ir14  1  0.664991  0.832495  0.129661  1
  Ir  Ir15  1  0.832495  0.664991  0.629661  1
  Ir  Ir16  1  0.335009  0.167505  0.870339  1
  Ir  Ir17  1  0.167505  0.335009  0.370339  1
  Ir  Ir18  1  0.167505  0.832495  0.129661  1
  Ir  Ir19  1  0.335009  0.167505  0.629661  1
  Ir  Ir20  1  0.832495  0.167505  0.870339  1
  Ir  Ir21  1  0.664991  0.832495  0.370339  1
  Ir  Ir22  1  0.832495  0.167505  0.629661  1
  Ir  Ir23  1  0.167505  0.832495  0.370339  1
