# generated using pymatgen
data_LiTb16Tl2In(IrRh)2
_symmetry_space_group_name_H-M   'P 1'
_cell_length_a   9.71312803
_cell_length_b   9.72763004
_cell_length_c   9.71312800
_cell_angle_alpha   59.80147844
_cell_angle_beta   59.71003859
_cell_angle_gamma   59.80146841
_symmetry_Int_Tables_number   1
_chemical_formula_structural   LiTb16Tl2In(IrRh)2
_chemical_formula_sum   'Li1 Tb16 Tl2 In1 Ir2 Rh2'
_cell_volume   645.57322103
_cell_formula_units_Z   1
loop_
 _symmetry_equiv_pos_site_id
 _symmetry_equiv_pos_as_xyz
  1  'x, y, z'
loop_
 _atom_site_type_symbol
 _atom_site_label
 _atom_site_symmetry_multiplicity
 _atom_site_fract_x
 _atom_site_fract_y
 _atom_site_fract_z
 _atom_site_occupancy
  Li  Li0  1  0.428083  0.428019  0.428081  1
  Tb  Tb1  1  0.809601  0.808348  0.189876  1
  Tb  Tb2  1  0.809274  0.190149  0.808679  1
  Tb  Tb3  1  0.187195  0.187583  0.812993  1
  Tb  Tb4  1  0.651206  0.046488  0.650986  1
  Tb  Tb5  1  0.060872  0.061224  0.440094  1
  Tb  Tb6  1  0.438163  0.436278  0.063428  1
  Tb  Tb7  1  0.650957  0.650173  0.650728  1
  Tb  Tb8  1  0.813046  0.187934  0.187383  1
  Tb  Tb9  1  0.189723  0.808730  0.809450  1
  Tb  Tb10  1  0.045932  0.651153  0.651395  1
  Tb  Tb11  1  0.440485  0.060721  0.060924  1
  Tb  Tb12  1  0.436498  0.063878  0.436376  1
  Tb  Tb13  1  0.060170  0.440145  0.060497  1
  Tb  Tb14  1  0.651462  0.651045  0.046012  1
  Tb  Tb15  1  0.187213  0.813025  0.187058  1
  Tb  Tb16  1  0.063154  0.436133  0.437981  1
  Tl  Tl17  1  0.416562  0.415355  0.748919  1
  Tl  Tl18  1  0.416425  0.749001  0.415299  1
  In  In19  1  0.747401  0.416722  0.416797  1
  Ir  Ir20  1  0.857769  0.424530  0.857731  1
  Ir  Ir21  1  0.857126  0.857337  0.857062  1
  Rh  Rh22  1  0.857658  0.858013  0.424472  1
  Rh  Rh23  1  0.424027  0.858016  0.857781  1
