# generated using pymatgen
data_Ba3ScFeIrO9
_symmetry_space_group_name_H-M   'P 1'
_cell_length_a   5.88697000
_cell_length_b   5.88697037
_cell_length_c   14.50281300
_cell_angle_alpha   90.00000000
_cell_angle_beta   90.00000000
_cell_angle_gamma   119.99999791
_symmetry_Int_Tables_number   1
_chemical_formula_structural   Ba3ScFeIrO9
_chemical_formula_sum   'Ba6 Sc2 Fe2 Ir2 O18'
_cell_volume   435.27784294
_cell_formula_units_Z   2
loop_
 _symmetry_equiv_pos_site_id
 _symmetry_equiv_pos_as_xyz
  1  'x, y, z'
loop_
 _atom_site_type_symbol
 _atom_site_label
 _atom_site_symmetry_multiplicity
 _atom_site_fract_x
 _atom_site_fract_y
 _atom_site_fract_z
 _atom_site_occupancy
  Ba  Ba0  1  0.666667  0.333333  0.590414  1
  Ba  Ba1  1  0.333333  0.666667  0.406477  1
  Ba  Ba2  1  0.333333  0.666667  0.090414  1
  Ba  Ba3  1  0.666667  0.333333  0.906477  1
  Ba  Ba4  1  0.000000  0.000000  0.752284  1
  Ba  Ba5  1  0.000000  0.000000  0.252284  1
  Sc  Sc6  1  0.000000  0.000000  0.494545  1
  Sc  Sc7  1  0.000000  0.000000  0.994545  1
  Fe  Fe8  1  0.666667  0.333333  0.353804  1
  Fe  Fe9  1  0.333333  0.666667  0.853804  1
  Ir  Ir10  1  0.333333  0.666667  0.660752  1
  Ir  Ir11  1  0.666667  0.333333  0.160752  1
  O  O12  1  0.485334  0.970669  0.744425  1
  O  O13  1  0.485334  0.514666  0.744425  1
  O  O14  1  0.029331  0.514666  0.744425  1
  O  O15  1  0.514666  0.029331  0.244425  1
  O  O16  1  0.514666  0.485334  0.244425  1
  O  O17  1  0.970669  0.485334  0.244425  1
  O  O18  1  0.173699  0.347399  0.585368  1
  O  O19  1  0.173699  0.826301  0.585368  1
  O  O20  1  0.652601  0.826301  0.585368  1
  O  O21  1  0.833092  0.666185  0.417430  1
  O  O22  1  0.833092  0.166908  0.417430  1
  O  O23  1  0.333815  0.166908  0.417430  1
  O  O24  1  0.826301  0.652601  0.085368  1
  O  O25  1  0.826301  0.173699  0.085368  1
  O  O26  1  0.347399  0.173699  0.085368  1
  O  O27  1  0.166908  0.333815  0.917430  1
  O  O28  1  0.166908  0.833092  0.917430  1
  O  O29  1  0.666185  0.833092  0.917430  1
