# generated using pymatgen
data_Eu4Cu3P8Pd3
_symmetry_space_group_name_H-M   'P 1'
_cell_length_a   8.12491730
_cell_length_b   8.12491789
_cell_length_c   8.13307645
_cell_angle_alpha   137.77005262
_cell_angle_beta   107.32669612
_cell_angle_gamma   87.74679955
_symmetry_Int_Tables_number   1
_chemical_formula_structural   Eu4Cu3P8Pd3
_chemical_formula_sum   'Eu4 Cu3 P8 Pd3'
_cell_volume   330.45542210
_cell_formula_units_Z   1
loop_
 _symmetry_equiv_pos_site_id
 _symmetry_equiv_pos_as_xyz
  1  'x, y, z'
loop_
 _atom_site_type_symbol
 _atom_site_label
 _atom_site_symmetry_multiplicity
 _atom_site_fract_x
 _atom_site_fract_y
 _atom_site_fract_z
 _atom_site_occupancy
  Eu  Eu0  1  0.109040  0.884432  0.228333  1
  Eu  Eu1  1  0.888272  0.115868  0.772322  1
  Eu  Eu2  1  0.343547  0.615950  0.727678  1
  Eu  Eu3  1  0.656098  0.380707  0.271667  1
  Cu  Cu4  1  0.740934  0.490934  0.750000  1
  Cu  Cu5  1  0.260492  0.510492  0.250000  1
  Cu  Cu6  1  0.740971  0.990971  0.250000  1
  P  P7  1  0.492513  0.129866  0.363751  1
  P  P8  1  0.512621  0.869363  0.635171  1
  P  P9  1  0.234191  0.377450  0.864829  1
  P  P10  1  0.766116  0.628762  0.136249  1
  P  P11  1  0.992958  0.365079  0.634127  1
  P  P12  1  0.000682  0.627140  0.358384  1
  P  P13  1  0.730952  0.858830  0.865873  1
  P  P14  1  0.268756  0.142298  0.141616  1
  Pd  Pd15  1  0.500469  0.750469  0.250000  1
  Pd  Pd16  1  0.503933  0.253933  0.750000  1
  Pd  Pd17  1  0.257456  0.007456  0.750000  1
