# generated using pymatgen
data_La2SmGd3Nb2O14
_symmetry_space_group_name_H-M   'P 1'
_cell_length_a   6.60802766
_cell_length_b   6.61294294
_cell_length_c   7.73405100
_cell_angle_alpha   90.00000000
_cell_angle_beta   90.00000000
_cell_angle_gamma   109.27974044
_symmetry_Int_Tables_number   1
_chemical_formula_structural   La2SmGd3Nb2O14
_chemical_formula_sum   'La2 Sm1 Gd3 Nb2 O14'
_cell_volume   319.01258544
_cell_formula_units_Z   1
loop_
 _symmetry_equiv_pos_site_id
 _symmetry_equiv_pos_as_xyz
  1  'x, y, z'
loop_
 _atom_site_type_symbol
 _atom_site_label
 _atom_site_symmetry_multiplicity
 _atom_site_fract_x
 _atom_site_fract_y
 _atom_site_fract_z
 _atom_site_occupancy
  La  La0  1  0.499786  0.499296  0.499785  1
  La  La1  1  0.499786  0.499296  0.000215  1
  Sm  Sm2  1  0.536624  0.999993  0.750000  1
  Gd  Gd3  1  0.000788  0.533611  0.250000  1
  Gd  Gd4  1  0.466025  0.999281  0.250000  1
  Gd  Gd5  1  0.999238  0.466697  0.750000  1
  Nb  Nb6  1  0.000358  0.000082  0.499440  1
  Nb  Nb7  1  0.000358  0.000082  0.000560  1
  O  O8  1  0.681949  0.931824  0.467048  1
  O  O9  1  0.932606  0.682914  0.532002  1
  O  O10  1  0.681949  0.931824  0.032952  1
  O  O11  1  0.932606  0.682914  0.967998  1
  O  O12  1  0.317793  0.068672  0.530831  1
  O  O13  1  0.067263  0.317543  0.467733  1
  O  O14  1  0.317793  0.068672  0.969169  1
  O  O15  1  0.067263  0.317543  0.032267  1
  O  O16  1  0.363386  0.630957  0.750000  1
  O  O17  1  0.634746  0.364772  0.250000  1
  O  O18  1  0.641816  0.362625  0.750000  1
  O  O19  1  0.358493  0.641775  0.250000  1
  O  O20  1  0.936393  0.063076  0.750000  1
  O  O21  1  0.062981  0.936553  0.250000  1
