# generated using pymatgen
data_Ca6As13Rh20
_symmetry_space_group_name_H-M   'P 1'
_cell_length_a   13.92432900
_cell_length_b   13.92432819
_cell_length_c   3.98635300
_cell_angle_alpha   90.00000000
_cell_angle_beta   90.00000000
_cell_angle_gamma   119.99999954
_symmetry_Int_Tables_number   1
_chemical_formula_structural   Ca6As13Rh20
_chemical_formula_sum   'Ca6 As13 Rh20'
_cell_volume   669.35253804
_cell_formula_units_Z   1
loop_
 _symmetry_equiv_pos_site_id
 _symmetry_equiv_pos_as_xyz
  1  'x, y, z'
loop_
 _atom_site_type_symbol
 _atom_site_label
 _atom_site_symmetry_multiplicity
 _atom_site_fract_x
 _atom_site_fract_y
 _atom_site_fract_z
 _atom_site_occupancy
  Ca  Ca0  1  0.527904  0.718284  0.248782  1
  Ca  Ca1  1  0.281716  0.809620  0.248782  1
  Ca  Ca2  1  0.190380  0.472096  0.248782  1
  Ca  Ca3  1  0.472096  0.281716  0.751218  1
  Ca  Ca4  1  0.718284  0.190380  0.751218  1
  Ca  Ca5  1  0.809620  0.527904  0.751218  1
  As  As6  1  0.525498  0.138836  0.251345  1
  As  As7  1  0.861164  0.386662  0.251345  1
  As  As8  1  0.613338  0.474502  0.251345  1
  As  As9  1  0.947481  0.717811  0.250830  1
  As  As10  1  0.282189  0.229671  0.250830  1
  As  As11  1  0.770329  0.052519  0.250830  1
  As  As12  1  0.386662  0.525498  0.748655  1
  As  As13  1  0.474502  0.861164  0.748655  1
  As  As14  1  0.138836  0.613338  0.748655  1
  As  As15  1  0.717811  0.770329  0.749170  1
  As  As16  1  0.229671  0.947481  0.749170  1
  As  As17  1  0.052519  0.282189  0.749170  1
  As  As18  1  0.000000  0.000000  0.000000  1
  Rh  Rh19  1  0.333333  0.666667  0.751228  1
  Rh  Rh20  1  0.924501  0.250772  0.252096  1
  Rh  Rh21  1  0.749228  0.673729  0.252096  1
  Rh  Rh22  1  0.326271  0.075499  0.252096  1
  Rh  Rh23  1  0.440617  0.023938  0.750643  1
  Rh  Rh24  1  0.976062  0.416680  0.750643  1
  Rh  Rh25  1  0.583320  0.559383  0.750643  1
  Rh  Rh26  1  0.666667  0.333333  0.248772  1
  Rh  Rh27  1  0.089901  0.186331  0.250626  1
  Rh  Rh28  1  0.813669  0.903570  0.250626  1
  Rh  Rh29  1  0.096430  0.910099  0.250626  1
  Rh  Rh30  1  0.023938  0.583320  0.249357  1
  Rh  Rh31  1  0.416680  0.440617  0.249357  1
  Rh  Rh32  1  0.559383  0.976062  0.249357  1
  Rh  Rh33  1  0.673729  0.924501  0.747904  1
  Rh  Rh34  1  0.075499  0.749228  0.747904  1
  Rh  Rh35  1  0.250772  0.326271  0.747904  1
  Rh  Rh36  1  0.910099  0.813669  0.749374  1
  Rh  Rh37  1  0.186331  0.096430  0.749374  1
  Rh  Rh38  1  0.903570  0.089901  0.749374  1
