# generated using pymatgen
data_Y4Al24CoPt8
_symmetry_space_group_name_H-M   'P 1'
_cell_length_a   7.48781370
_cell_length_b   7.48926880
_cell_length_c   13.12768151
_cell_angle_alpha   84.54874023
_cell_angle_beta   100.85980783
_cell_angle_gamma   119.68879868
_symmetry_Int_Tables_number   1
_chemical_formula_structural   Y4Al24CoPt8
_chemical_formula_sum   'Y4 Al24 Co1 Pt8'
_cell_volume   628.08354812
_cell_formula_units_Z   1
loop_
 _symmetry_equiv_pos_site_id
 _symmetry_equiv_pos_as_xyz
  1  'x, y, z'
loop_
 _atom_site_type_symbol
 _atom_site_label
 _atom_site_symmetry_multiplicity
 _atom_site_fract_x
 _atom_site_fract_y
 _atom_site_fract_z
 _atom_site_occupancy
  Y  Y0  1  0.736074  0.000900  0.190364  1
  Y  Y1  1  0.268209  0.004263  0.809572  1
  Y  Y2  1  0.059133  0.668337  0.190522  1
  Y  Y3  1  0.935722  0.327412  0.809517  1
  Al  Al4  1  0.804701  0.865551  0.816935  1
  Al  Al5  1  0.195543  0.134030  0.183072  1
  Al  Al6  1  0.995345  0.666092  0.945751  1
  Al  Al7  1  0.026064  0.343349  0.053096  1
  Al  Al8  1  0.391083  0.662619  0.823479  1
  Al  Al9  1  0.599997  0.336563  0.181895  1
  Al  Al10  1  0.883023  0.665014  0.672586  1
  Al  Al11  1  0.118706  0.335630  0.327146  1
  Al  Al12  1  0.602859  0.459683  0.817816  1
  Al  Al13  1  0.396217  0.550985  0.176863  1
  Al  Al14  1  0.231449  0.341334  0.670737  1
  Al  Al15  1  0.767939  0.659305  0.329182  1
  Al  Al16  1  0.853565  0.333474  0.559045  1
  Al  Al17  1  0.186629  0.999818  0.559074  1
  Al  Al18  1  0.813896  0.000008  0.440941  1
  Al  Al19  1  0.351917  0.986203  0.054263  1
  Al  Al20  1  0.639039  0.991983  0.946933  1
  Al  Al21  1  0.555884  0.991554  0.672758  1
  Al  Al22  1  0.443599  0.006710  0.327420  1
  Al  Al23  1  0.521424  0.667917  0.561438  1
  Al  Al24  1  0.478830  0.331886  0.438294  1
  Al  Al25  1  0.674665  0.668467  0.041163  1
  Al  Al26  1  0.317540  0.339016  0.958801  1
  Al  Al27  1  0.146568  0.666026  0.441217  1
  Co  Co28  1  0.330448  0.669656  0.000047  1
  Pt  Pt29  1  0.546539  0.325233  0.637708  1
  Pt  Pt30  1  0.453462  0.674373  0.361682  1
  Pt  Pt31  1  0.887892  0.007889  0.638809  1
  Pt  Pt32  1  0.112387  0.991805  0.361213  1
  Pt  Pt33  1  0.672314  0.327754  0.999999  1
  Pt  Pt34  1  0.205403  0.667100  0.639474  1
  Pt  Pt35  1  0.795407  0.332705  0.361145  1
  Pt  Pt36  1  0.000528  0.999347  0.000042  1
