# generated using pymatgen
data_Dy3Tm5(C2Br3)2
_symmetry_space_group_name_H-M   'P 1'
_cell_length_a   3.65977200
_cell_length_b   10.61998321
_cell_length_c   20.33646940
_cell_angle_alpha   90.02276848
_cell_angle_beta   90.00000000
_cell_angle_gamma   90.00000000
_symmetry_Int_Tables_number   1
_chemical_formula_structural   Dy3Tm5(C2Br3)2
_chemical_formula_sum   'Dy6 Tm10 C8 Br12'
_cell_volume   790.41174248
_cell_formula_units_Z   2
loop_
 _symmetry_equiv_pos_site_id
 _symmetry_equiv_pos_as_xyz
  1  'x, y, z'
loop_
 _atom_site_type_symbol
 _atom_site_label
 _atom_site_symmetry_multiplicity
 _atom_site_fract_x
 _atom_site_fract_y
 _atom_site_fract_z
 _atom_site_occupancy
  Dy  Dy0  1  0.250000  0.866312  0.580238  1
  Dy  Dy1  1  0.750000  0.133688  0.419762  1
  Dy  Dy2  1  0.750000  0.633610  0.080840  1
  Dy  Dy3  1  0.250000  0.366390  0.919160  1
  Dy  Dy4  1  0.250000  0.865792  0.744925  1
  Dy  Dy5  1  0.750000  0.134208  0.255075  1
  Tm  Tm6  1  0.750000  0.634299  0.244088  1
  Tm  Tm7  1  0.250000  0.365701  0.755912  1
  Tm  Tm8  1  0.250000  0.866656  0.170151  1
  Tm  Tm9  1  0.750000  0.133344  0.829849  1
  Tm  Tm10  1  0.750000  0.632680  0.669839  1
  Tm  Tm11  1  0.250000  0.367320  0.330161  1
  Tm  Tm12  1  0.250000  0.900557  0.327144  1
  Tm  Tm13  1  0.750000  0.099443  0.672856  1
  Tm  Tm14  1  0.750000  0.598644  0.826850  1
  Tm  Tm15  1  0.250000  0.401356  0.173150  1
  C  C16  1  0.250000  0.612996  0.750224  1
  C  C17  1  0.750000  0.387004  0.249776  1
  C  C18  1  0.750000  0.882793  0.250255  1
  C  C19  1  0.250000  0.117207  0.749745  1
  C  C20  1  0.250000  0.632759  0.158004  1
  C  C21  1  0.750000  0.367241  0.841996  1
  C  C22  1  0.750000  0.867256  0.656870  1
  C  C23  1  0.250000  0.132744  0.343130  1
  Br  Br24  1  0.250000  0.610040  0.556715  1
  Br  Br25  1  0.750000  0.389960  0.443285  1
  Br  Br26  1  0.750000  0.889403  0.056766  1
  Br  Br27  1  0.250000  0.110597  0.943234  1
  Br  Br28  1  0.250000  0.629401  0.952353  1
  Br  Br29  1  0.750000  0.370599  0.047647  1
  Br  Br30  1  0.750000  0.870269  0.452229  1
  Br  Br31  1  0.250000  0.129731  0.547771  1
  Br  Br32  1  0.250000  0.636117  0.355935  1
  Br  Br33  1  0.750000  0.363883  0.644065  1
  Br  Br34  1  0.750000  0.863771  0.857701  1
  Br  Br35  1  0.250000  0.136229  0.142299  1
