# generated using pymatgen
data_La11Nd5Cd4(OsPt)2
_symmetry_space_group_name_H-M   'P 1'
_cell_length_a   10.10013144
_cell_length_b   10.09338978
_cell_length_c   10.18912165
_cell_angle_alpha   59.80539496
_cell_angle_beta   59.84493346
_cell_angle_gamma   59.73605316
_symmetry_Int_Tables_number   1
_chemical_formula_structural   La11Nd5Cd4(OsPt)2
_chemical_formula_sum   'La11 Nd5 Cd4 Os2 Pt2'
_cell_volume   731.07803027
_cell_formula_units_Z   1
loop_
 _symmetry_equiv_pos_site_id
 _symmetry_equiv_pos_as_xyz
  1  'x, y, z'
loop_
 _atom_site_type_symbol
 _atom_site_label
 _atom_site_symmetry_multiplicity
 _atom_site_fract_x
 _atom_site_fract_y
 _atom_site_fract_z
 _atom_site_occupancy
  La  La0  1  0.346224  0.345771  0.353731  1
  La  La1  1  0.347832  0.347232  0.951533  1
  La  La2  1  0.343423  0.960968  0.347257  1
  La  La3  1  0.961366  0.342886  0.346051  1
  La  La4  1  0.814557  0.190103  0.192385  1
  La  La5  1  0.189506  0.814580  0.802404  1
  La  La6  1  0.190256  0.815788  0.191309  1
  La  La7  1  0.813842  0.188583  0.803220  1
  La  La8  1  0.190109  0.188608  0.811009  1
  La  La9  1  0.802122  0.802920  0.195917  1
  La  La10  1  0.936918  0.558586  0.567582  1
  Nd  Nd11  1  0.558796  0.935680  0.936981  1
  Nd  Nd12  1  0.560014  0.937770  0.567807  1
  Nd  Nd13  1  0.936585  0.558408  0.938152  1
  Nd  Nd14  1  0.562741  0.564635  0.938820  1
  Nd  Nd15  1  0.936916  0.937077  0.562775  1
  Cd  Cd16  1  0.578639  0.580121  0.580577  1
  Cd  Cd17  1  0.580187  0.580060  0.258849  1
  Cd  Cd18  1  0.581433  0.257131  0.580472  1
  Cd  Cd19  1  0.257941  0.581489  0.580945  1
  Os  Os20  1  0.143344  0.143267  0.136094  1
  Os  Os21  1  0.142331  0.142812  0.579223  1
  Pt  Pt22  1  0.147649  0.577831  0.137900  1
  Pt  Pt23  1  0.577271  0.147698  0.139010  1
