# generated using pymatgen
data_La2YIr7Rh2
_symmetry_space_group_name_H-M   'P 1'
_cell_length_a   5.37402100
_cell_length_b   5.37402237
_cell_length_c   17.64634300
_cell_angle_alpha   90.00000000
_cell_angle_beta   90.00000000
_cell_angle_gamma   119.99999772
_symmetry_Int_Tables_number   1
_chemical_formula_structural   La2YIr7Rh2
_chemical_formula_sum   'La4 Y2 Ir14 Rh4'
_cell_volume   441.35107357
_cell_formula_units_Z   2
loop_
 _symmetry_equiv_pos_site_id
 _symmetry_equiv_pos_as_xyz
  1  'x, y, z'
loop_
 _atom_site_type_symbol
 _atom_site_label
 _atom_site_symmetry_multiplicity
 _atom_site_fract_x
 _atom_site_fract_y
 _atom_site_fract_z
 _atom_site_occupancy
  La  La0  1  0.333333  0.666667  0.958991  1
  La  La1  1  0.666667  0.333333  0.041009  1
  La  La2  1  0.333333  0.666667  0.748484  1
  La  La3  1  0.666667  0.333333  0.251516  1
  Y  Y4  1  0.666667  0.333333  0.459503  1
  Y  Y5  1  0.333333  0.666667  0.540497  1
  Ir  Ir6  1  0.167776  0.832224  0.376695  1
  Ir  Ir7  1  0.167776  0.335551  0.376695  1
  Ir  Ir8  1  0.664449  0.832224  0.376695  1
  Ir  Ir9  1  0.832224  0.167776  0.623305  1
  Ir  Ir10  1  0.832224  0.664449  0.623305  1
  Ir  Ir11  1  0.335551  0.167776  0.623305  1
  Ir  Ir12  1  0.833620  0.166380  0.870268  1
  Ir  Ir13  1  0.833620  0.667240  0.870268  1
  Ir  Ir14  1  0.332760  0.166380  0.870268  1
  Ir  Ir15  1  0.166380  0.833620  0.129732  1
  Ir  Ir16  1  0.166380  0.332760  0.129732  1
  Ir  Ir17  1  0.667240  0.833620  0.129732  1
  Ir  Ir18  1  0.000000  0.000000  0.500000  1
  Ir  Ir19  1  0.000000  0.000000  0.000000  1
  Rh  Rh20  1  0.333333  0.666667  0.252024  1
  Rh  Rh21  1  0.666667  0.333333  0.747976  1
  Rh  Rh22  1  0.000000  0.000000  0.253590  1
  Rh  Rh23  1  0.000000  0.000000  0.746410  1
