# generated using pymatgen
data_FeH4Br4N
_symmetry_space_group_name_H-M   'P 1'
_cell_length_a   9.70821339
_cell_length_b   9.70821379
_cell_length_c   9.70821346
_cell_angle_alpha   135.17073163
_cell_angle_beta   135.17073445
_cell_angle_gamma   65.26503677
_symmetry_Int_Tables_number   1
_chemical_formula_structural   FeH4Br4N
_chemical_formula_sum   'Fe2 H8 Br8 N2'
_cell_volume   448.14029718
_cell_formula_units_Z   2
loop_
 _symmetry_equiv_pos_site_id
 _symmetry_equiv_pos_as_xyz
  1  'x, y, z'
loop_
 _atom_site_type_symbol
 _atom_site_label
 _atom_site_symmetry_multiplicity
 _atom_site_fract_x
 _atom_site_fract_y
 _atom_site_fract_z
 _atom_site_occupancy
  Fe  Fe0  1  0.500000  0.500000  0.000000  1
  Fe  Fe1  1  0.250000  0.750000  0.500000  1
  H  H2  1  0.900532  0.286767  0.613498  1
  H  H3  1  0.712966  0.099468  0.386234  1
  H  H4  1  0.713233  0.326732  0.613766  1
  H  H5  1  0.076732  0.962966  0.113498  1
  H  H6  1  0.673268  0.287034  0.386502  1
  H  H7  1  0.036767  0.923268  0.886234  1
  H  H8  1  0.037034  0.150532  0.113766  1
  H  H9  1  0.849468  0.963233  0.886502  1
  Br  Br10  1  0.714787  0.352212  0.905214  1
  Br  Br11  1  0.102212  0.696999  0.137425  1
  Br  Br12  1  0.190427  0.285213  0.637425  1
  Br  Br13  1  0.446999  0.809573  0.094786  1
  Br  Br14  1  0.303001  0.440427  0.405214  1
  Br  Br15  1  0.559573  0.964787  0.862575  1
  Br  Br16  1  0.647788  0.553001  0.362575  1
  Br  Br17  1  0.035213  0.897788  0.594786  1
  N  N18  1  0.750000  0.250000  0.500000  1
  N  N19  1  0.000000  0.000000  0.000000  1
