# generated using pymatgen
data_BaLiErO3
_symmetry_space_group_name_H-M   'P 1'
_cell_length_a   6.09174080
_cell_length_b   6.09174052
_cell_length_c   8.65784600
_cell_angle_alpha   90.00000000
_cell_angle_beta   90.00000000
_cell_angle_gamma   146.59468966
_symmetry_Int_Tables_number   1
_chemical_formula_structural   BaLiErO3
_chemical_formula_sum   'Ba2 Li2 Er2 O6'
_cell_volume   176.88696743
_cell_formula_units_Z   2
loop_
 _symmetry_equiv_pos_site_id
 _symmetry_equiv_pos_as_xyz
  1  'x, y, z'
loop_
 _atom_site_type_symbol
 _atom_site_label
 _atom_site_symmetry_multiplicity
 _atom_site_fract_x
 _atom_site_fract_y
 _atom_site_fract_z
 _atom_site_occupancy
  Ba  Ba0  1  0.260368  0.739632  0.250000  1
  Ba  Ba1  1  0.739632  0.260368  0.750000  1
  Li  Li2  1  0.532456  0.467544  0.250000  1
  Li  Li3  1  0.467544  0.532456  0.750000  1
  Er  Er4  1  0.000000  0.000000  0.000000  1
  Er  Er5  1  0.000000  0.000000  0.500000  1
  O  O6  1  0.618477  0.381523  0.064096  1
  O  O7  1  0.944821  0.055179  0.250000  1
  O  O8  1  0.618477  0.381523  0.435905  1
  O  O9  1  0.381523  0.618477  0.564095  1
  O  O10  1  0.055179  0.944821  0.750000  1
  O  O11  1  0.381523  0.618477  0.935905  1
