# generated using pymatgen
data_Dy14Tm2In3HgRh4
_symmetry_space_group_name_H-M   'P 1'
_cell_length_a   9.60943579
_cell_length_b   9.62586027
_cell_length_c   9.63127213
_cell_angle_alpha   60.01857875
_cell_angle_beta   60.12609164
_cell_angle_gamma   59.94344438
_symmetry_Int_Tables_number   1
_chemical_formula_structural   Dy14Tm2In3HgRh4
_chemical_formula_sum   'Dy14 Tm2 In3 Hg1 Rh4'
_cell_volume   630.36621520
_cell_formula_units_Z   1
loop_
 _symmetry_equiv_pos_site_id
 _symmetry_equiv_pos_as_xyz
  1  'x, y, z'
loop_
 _atom_site_type_symbol
 _atom_site_label
 _atom_site_symmetry_multiplicity
 _atom_site_fract_x
 _atom_site_fract_y
 _atom_site_fract_z
 _atom_site_occupancy
  Dy  Dy0  1  0.313367  0.688316  0.310000  1
  Dy  Dy1  1  0.936635  0.938089  0.559207  1
  Dy  Dy2  1  0.148644  0.150928  0.549500  1
  Dy  Dy3  1  0.564174  0.938931  0.557965  1
  Dy  Dy4  1  0.149182  0.152309  0.150004  1
  Dy  Dy5  1  0.311999  0.308867  0.689812  1
  Dy  Dy6  1  0.936635  0.566068  0.559207  1
  Dy  Dy7  1  0.563072  0.562802  0.936672  1
  Dy  Dy8  1  0.563072  0.937455  0.936672  1
  Dy  Dy9  1  0.936125  0.563945  0.935987  1
  Dy  Dy10  1  0.149182  0.548502  0.150004  1
  Dy  Dy11  1  0.311999  0.689323  0.689812  1
  Dy  Dy12  1  0.689887  0.310671  0.688773  1
  Dy  Dy13  1  0.552119  0.149565  0.148749  1
  Tm  Tm14  1  0.689180  0.311616  0.311482  1
  Tm  Tm15  1  0.689180  0.687721  0.311482  1
  In  In16  1  0.246375  0.916849  0.919926  1
  In  In17  1  0.917221  0.246804  0.919434  1
  In  In18  1  0.917221  0.916540  0.919434  1
  Hg  Hg19  1  0.914493  0.913769  0.257969  1
  Rh  Rh20  1  0.359116  0.356810  0.357257  1
  Rh  Rh21  1  0.924378  0.359265  0.357093  1
  Rh  Rh22  1  0.357629  0.358036  0.926300  1
  Rh  Rh23  1  0.359116  0.926820  0.357257  1
