# generated using pymatgen
data_YbMn3CrC4
_symmetry_space_group_name_H-M   'P 1'
_cell_length_a   5.61234286
_cell_length_b   5.61234288
_cell_length_c   5.52036236
_cell_angle_alpha   94.33179086
_cell_angle_beta   95.85615931
_cell_angle_gamma   145.62363917
_symmetry_Int_Tables_number   1
_chemical_formula_structural   YbMn3CrC4
_chemical_formula_sum   'Yb1 Mn3 Cr1 C4'
_cell_volume   93.63317869
_cell_formula_units_Z   1
loop_
 _symmetry_equiv_pos_site_id
 _symmetry_equiv_pos_as_xyz
  1  'x, y, z'
loop_
 _atom_site_type_symbol
 _atom_site_label
 _atom_site_symmetry_multiplicity
 _atom_site_fract_x
 _atom_site_fract_y
 _atom_site_fract_z
 _atom_site_occupancy
  Yb  Yb0  1  0.000482  0.000722  0.001204  1
  Mn  Mn1  1  0.828225  0.363622  0.191847  1
  Mn  Mn2  1  0.637683  0.816279  0.453961  1
  Mn  Mn3  1  0.362631  0.180483  0.543114  1
  Cr  Cr4  1  0.169440  0.636143  0.805582  1
  C  C5  1  0.398077  0.753774  0.151850  1
  C  C6  1  0.763453  0.601013  0.364464  1
  C  C7  1  0.239820  0.397655  0.637475  1
  C  C8  1  0.600194  0.250311  0.850505  1
