# generated using pymatgen
data_Th8Sc12Si15Os
_symmetry_space_group_name_H-M   'P 1'
_cell_length_a   7.24359390
_cell_length_b   7.54030179
_cell_length_c   14.13958500
_cell_angle_alpha   90.00000000
_cell_angle_beta   90.00000000
_cell_angle_gamma   90.21931033
_symmetry_Int_Tables_number   1
_chemical_formula_structural   Th8Sc12Si15Os
_chemical_formula_sum   'Th8 Sc12 Si15 Os1'
_cell_volume   772.28269608
_cell_formula_units_Z   1
loop_
 _symmetry_equiv_pos_site_id
 _symmetry_equiv_pos_as_xyz
  1  'x, y, z'
loop_
 _atom_site_type_symbol
 _atom_site_label
 _atom_site_symmetry_multiplicity
 _atom_site_fract_x
 _atom_site_fract_y
 _atom_site_fract_z
 _atom_site_occupancy
  Th  Th0  1  0.008140  0.175178  0.095748  1
  Th  Th1  1  0.995852  0.829439  0.901418  1
  Th  Th2  1  0.493554  0.672979  0.903794  1
  Th  Th3  1  0.995852  0.829439  0.598582  1
  Th  Th4  1  0.506837  0.327331  0.095842  1
  Th  Th5  1  0.008140  0.175178  0.404252  1
  Th  Th6  1  0.506837  0.327331  0.404158  1
  Th  Th7  1  0.493554  0.672979  0.596206  1
  Sc  Sc8  1  0.154401  0.496145  0.750000  1
  Sc  Sc9  1  0.839929  0.497435  0.250000  1
  Sc  Sc10  1  0.340058  0.004526  0.250000  1
  Sc  Sc11  1  0.667234  0.003340  0.750000  1
  Sc  Sc12  1  0.321673  0.172020  0.627111  1
  Sc  Sc13  1  0.670144  0.826453  0.373731  1
  Sc  Sc14  1  0.168761  0.675662  0.374992  1
  Sc  Sc15  1  0.670144  0.826453  0.126269  1
  Sc  Sc16  1  0.836868  0.319825  0.627264  1
  Sc  Sc17  1  0.321673  0.172020  0.872889  1
  Sc  Sc18  1  0.836868  0.319825  0.872736  1
  Sc  Sc19  1  0.168761  0.675662  0.125008  1
  Si  Si20  1  0.968527  0.879363  0.250000  1
  Si  Si21  1  0.465659  0.621620  0.250000  1
  Si  Si22  1  0.531909  0.383644  0.750000  1
  Si  Si23  1  0.292433  0.873117  0.750000  1
  Si  Si24  1  0.710575  0.125497  0.250000  1
  Si  Si25  1  0.210519  0.377976  0.250000  1
  Si  Si26  1  0.782776  0.621363  0.750000  1
  Si  Si27  1  0.159933  0.467390  0.539332  1
  Si  Si28  1  0.841530  0.537521  0.460541  1
  Si  Si29  1  0.344097  0.964396  0.460586  1
  Si  Si30  1  0.841530  0.537521  0.039459  1
  Si  Si31  1  0.655120  0.035127  0.537927  1
  Si  Si32  1  0.159933  0.467390  0.960668  1
  Si  Si33  1  0.655120  0.035127  0.962073  1
  Si  Si34  1  0.344097  0.964396  0.039414  1
  Os  Os35  1  0.030961  0.109334  0.750000  1
