# generated using pymatgen
data_Ca3Si5AsPd20
_symmetry_space_group_name_H-M   'P 1'
_cell_length_a   8.73021285
_cell_length_b   8.77692595
_cell_length_c   8.77692551
_cell_angle_alpha   59.64820425
_cell_angle_beta   60.17589759
_cell_angle_gamma   60.17589816
_symmetry_Int_Tables_number   1
_chemical_formula_structural   Ca3Si5AsPd20
_chemical_formula_sum   'Ca3 Si5 As1 Pd20'
_cell_volume   475.52155555
_cell_formula_units_Z   1
loop_
 _symmetry_equiv_pos_site_id
 _symmetry_equiv_pos_as_xyz
  1  'x, y, z'
loop_
 _atom_site_type_symbol
 _atom_site_label
 _atom_site_symmetry_multiplicity
 _atom_site_fract_x
 _atom_site_fract_y
 _atom_site_fract_z
 _atom_site_occupancy
  Ca  Ca0  1  0.250218  0.249782  0.249782  1
  Ca  Ca1  1  0.750218  0.749782  0.749782  1
  Ca  Ca2  1  0.000007  0.999993  0.999993  1
  Si  Si3  1  0.267658  0.732342  0.732342  1
  Si  Si4  1  0.267653  0.732347  0.267563  1
  Si  Si5  1  0.732437  0.267563  0.732347  1
  Si  Si6  1  0.267653  0.267563  0.732347  1
  Si  Si7  1  0.732437  0.732347  0.267563  1
  As  As8  1  0.735699  0.264301  0.264301  1
  Pd  Pd9  1  0.379352  0.387358  0.387358  1
  Pd  Pd10  1  0.614206  0.615674  0.615674  1
  Pd  Pd11  1  0.384326  0.385794  0.845556  1
  Pd  Pd12  1  0.384326  0.845556  0.385794  1
  Pd  Pd13  1  0.612642  0.620648  0.154066  1
  Pd  Pd14  1  0.612642  0.154066  0.620648  1
  Pd  Pd15  1  0.845934  0.387358  0.387358  1
  Pd  Pd16  1  0.154444  0.615674  0.615674  1
  Pd  Pd17  1  0.346087  0.999138  0.999138  1
  Pd  Pd18  1  0.655639  0.999138  0.999138  1
  Pd  Pd19  1  0.000862  0.344361  0.653913  1
  Pd  Pd20  1  0.000862  0.653913  0.344361  1
  Pd  Pd21  1  0.007411  0.347691  0.992589  1
  Pd  Pd22  1  0.652309  0.992589  0.347691  1
  Pd  Pd23  1  0.999134  0.656506  0.000866  1
  Pd  Pd24  1  0.343494  0.000866  0.656506  1
  Pd  Pd25  1  0.007411  0.992589  0.347691  1
  Pd  Pd26  1  0.999134  0.000866  0.656506  1
  Pd  Pd27  1  0.652309  0.347691  0.992589  1
  Pd  Pd28  1  0.343494  0.656506  0.000866  1
