# generated using pymatgen
data_Sm4CoNi3(SnH)4
_symmetry_space_group_name_H-M   'P 1'
_cell_length_a   4.34183000
_cell_length_b   7.18185448
_cell_length_c   8.38636772
_cell_angle_alpha   90.29691406
_cell_angle_beta   90.00000000
_cell_angle_gamma   90.00000000
_symmetry_Int_Tables_number   1
_chemical_formula_structural   Sm4CoNi3(SnH)4
_chemical_formula_sum   'Sm4 Co1 Ni3 Sn4 H4'
_cell_volume   261.50348801
_cell_formula_units_Z   1
loop_
 _symmetry_equiv_pos_site_id
 _symmetry_equiv_pos_as_xyz
  1  'x, y, z'
loop_
 _atom_site_type_symbol
 _atom_site_label
 _atom_site_symmetry_multiplicity
 _atom_site_fract_x
 _atom_site_fract_y
 _atom_site_fract_z
 _atom_site_occupancy
  Sm  Sm0  1  0.750000  0.016472  0.685680  1
  Sm  Sm1  1  0.250000  0.989977  0.313469  1
  Sm  Sm2  1  0.250000  0.485522  0.190740  1
  Sm  Sm3  1  0.750000  0.512423  0.810456  1
  Co  Co4  1  0.750000  0.273272  0.396559  1
  Ni  Ni5  1  0.750000  0.778525  0.101709  1
  Ni  Ni6  1  0.250000  0.223041  0.897695  1
  Ni  Ni7  1  0.250000  0.722383  0.603789  1
  Sn  Sn8  1  0.750000  0.653961  0.429645  1
  Sn  Sn9  1  0.250000  0.341557  0.568922  1
  Sn  Sn10  1  0.250000  0.845077  0.929913  1
  Sn  Sn11  1  0.750000  0.158574  0.072716  1
  H  H12  1  0.250000  0.442914  0.920581  1
  H  H13  1  0.750000  0.558562  0.079197  1
  H  H14  1  0.750000  0.054704  0.418371  1
  H  H15  1  0.250000  0.943038  0.580557  1
