# generated using pymatgen
data_LiY9Cd3Ni
_symmetry_space_group_name_H-M   'P 1'
_cell_length_a   9.52395600
_cell_length_b   9.52395564
_cell_length_c   9.67502100
_cell_angle_alpha   90.00000000
_cell_angle_beta   90.00000000
_cell_angle_gamma   119.99999431
_symmetry_Int_Tables_number   1
_chemical_formula_structural   LiY9Cd3Ni
_chemical_formula_sum   'Li2 Y18 Cd6 Ni2'
_cell_volume   760.00651832
_cell_formula_units_Z   2
loop_
 _symmetry_equiv_pos_site_id
 _symmetry_equiv_pos_as_xyz
  1  'x, y, z'
loop_
 _atom_site_type_symbol
 _atom_site_label
 _atom_site_symmetry_multiplicity
 _atom_site_fract_x
 _atom_site_fract_y
 _atom_site_fract_z
 _atom_site_occupancy
  Li  Li0  1  0.000000  0.000000  0.500000  1
  Li  Li1  1  0.000000  0.000000  0.000000  1
  Y  Y2  1  0.543539  0.456461  0.250000  1
  Y  Y3  1  0.543539  0.087078  0.250000  1
  Y  Y4  1  0.912922  0.456461  0.250000  1
  Y  Y5  1  0.456461  0.543539  0.750000  1
  Y  Y6  1  0.456461  0.912922  0.750000  1
  Y  Y7  1  0.087078  0.543539  0.750000  1
  Y  Y8  1  0.207985  0.792015  0.438585  1
  Y  Y9  1  0.207985  0.415970  0.438585  1
  Y  Y10  1  0.584030  0.792015  0.438585  1
  Y  Y11  1  0.792015  0.207985  0.561415  1
  Y  Y12  1  0.792015  0.584030  0.561415  1
  Y  Y13  1  0.415970  0.207985  0.561415  1
  Y  Y14  1  0.792015  0.207985  0.938585  1
  Y  Y15  1  0.792015  0.584030  0.938585  1
  Y  Y16  1  0.415970  0.207985  0.938585  1
  Y  Y17  1  0.207985  0.792015  0.061415  1
  Y  Y18  1  0.207985  0.415970  0.061415  1
  Y  Y19  1  0.584030  0.792015  0.061415  1
  Cd  Cd20  1  0.892560  0.107440  0.250000  1
  Cd  Cd21  1  0.892560  0.785119  0.250000  1
  Cd  Cd22  1  0.214881  0.107440  0.250000  1
  Cd  Cd23  1  0.107440  0.892560  0.750000  1
  Cd  Cd24  1  0.107440  0.214881  0.750000  1
  Cd  Cd25  1  0.785119  0.892560  0.750000  1
  Ni  Ni26  1  0.333333  0.666667  0.250000  1
  Ni  Ni27  1  0.666667  0.333333  0.750000  1
