# generated using pymatgen
data_YPa(Ga3Ni2)2
_symmetry_space_group_name_H-M   'P 1'
_cell_length_a   4.03200100
_cell_length_b   5.16709000
_cell_length_c   9.09424700
_cell_angle_alpha   90.00000000
_cell_angle_beta   90.00000000
_cell_angle_gamma   90.00000000
_symmetry_Int_Tables_number   1
_chemical_formula_structural   YPa(Ga3Ni2)2
_chemical_formula_sum   'Y1 Pa1 Ga6 Ni4'
_cell_volume   189.46692328
_cell_formula_units_Z   1
loop_
 _symmetry_equiv_pos_site_id
 _symmetry_equiv_pos_as_xyz
  1  'x, y, z'
loop_
 _atom_site_type_symbol
 _atom_site_label
 _atom_site_symmetry_multiplicity
 _atom_site_fract_x
 _atom_site_fract_y
 _atom_site_fract_z
 _atom_site_occupancy
  Y  Y0  1  0.000000  0.000000  0.500000  1
  Pa  Pa1  1  0.000000  0.500000  0.000000  1
  Ga  Ga2  1  0.500000  0.500000  0.500000  1
  Ga  Ga3  1  0.500000  0.000000  0.000000  1
  Ga  Ga4  1  0.500000  0.747913  0.247650  1
  Ga  Ga5  1  0.500000  0.252087  0.752350  1
  Ga  Ga6  1  0.500000  0.252087  0.247650  1
  Ga  Ga7  1  0.500000  0.747913  0.752350  1
  Ni  Ni8  1  0.000000  0.500000  0.326063  1
  Ni  Ni9  1  0.000000  0.000000  0.836010  1
  Ni  Ni10  1  0.000000  0.000000  0.163990  1
  Ni  Ni11  1  0.000000  0.500000  0.673937  1
