# generated using pymatgen
data_RbPr5Nd(CI6)2
_symmetry_space_group_name_H-M   'P 1'
_cell_length_a   9.76379783
_cell_length_b   9.73694263
_cell_length_c   10.23029720
_cell_angle_alpha   72.13498919
_cell_angle_beta   70.98523929
_cell_angle_gamma   72.73956976
_symmetry_Int_Tables_number   1
_chemical_formula_structural   RbPr5Nd(CI6)2
_chemical_formula_sum   'Rb1 Pr5 Nd1 C2 I12'
_cell_volume   854.00322902
_cell_formula_units_Z   1
loop_
 _symmetry_equiv_pos_site_id
 _symmetry_equiv_pos_as_xyz
  1  'x, y, z'
loop_
 _atom_site_type_symbol
 _atom_site_label
 _atom_site_symmetry_multiplicity
 _atom_site_fract_x
 _atom_site_fract_y
 _atom_site_fract_z
 _atom_site_occupancy
  Rb  Rb0  1  0.000039  0.499993  0.999983  1
  Pr  Pr1  1  0.771821  0.031383  0.410160  1
  Pr  Pr2  1  0.590375  0.729938  0.475261  1
  Pr  Pr3  1  0.409613  0.270118  0.524587  1
  Pr  Pr4  1  0.228136  0.968702  0.589582  1
  Pr  Pr5  1  0.524228  0.891483  0.807037  1
  Nd  Nd6  1  0.475865  0.108370  0.194205  1
  C  C7  1  0.494113  0.024315  0.428889  1
  C  C8  1  0.505791  0.976056  0.570043  1
  I  I9  1  0.800880  0.160382  0.077775  1
  I  I10  1  0.587091  0.778007  0.142317  1
  I  I11  1  0.351354  0.435406  0.219804  1
  I  I12  1  0.136350  0.070638  0.290414  1
  I  I13  1  0.929703  0.716972  0.353488  1
  I  I14  1  0.719828  0.367696  0.429753  1
  I  I15  1  0.280195  0.632297  0.570208  1
  I  I16  1  0.070332  0.283036  0.646507  1
  I  I17  1  0.864722  0.929501  0.709114  1
  I  I18  1  0.649188  0.563274  0.779891  1
  I  I19  1  0.412599  0.223008  0.858461  1
  I  I20  1  0.197781  0.839424  0.922524  1
