# generated using pymatgen
data_Tb2Yb5Pr(Cu2Sn5)2
_symmetry_space_group_name_H-M   'P 1'
_cell_length_a   4.46298600
_cell_length_b   8.82778300
_cell_length_c   14.10339400
_cell_angle_alpha   90.00000000
_cell_angle_beta   90.00000000
_cell_angle_gamma   90.00000000
_symmetry_Int_Tables_number   1
_chemical_formula_structural   Tb2Yb5Pr(Cu2Sn5)2
_chemical_formula_sum   'Tb2 Yb5 Pr1 Cu4 Sn10'
_cell_volume   555.64935209
_cell_formula_units_Z   1
loop_
 _symmetry_equiv_pos_site_id
 _symmetry_equiv_pos_as_xyz
  1  'x, y, z'
loop_
 _atom_site_type_symbol
 _atom_site_label
 _atom_site_symmetry_multiplicity
 _atom_site_fract_x
 _atom_site_fract_y
 _atom_site_fract_z
 _atom_site_occupancy
  Tb  Tb0  1  0.500000  0.695144  0.000000  1
  Tb  Tb1  1  0.000000  0.297772  0.500000  1
  Yb  Yb2  1  0.500000  0.791903  0.741566  1
  Yb  Yb3  1  0.000000  0.205372  0.754246  1
  Yb  Yb4  1  0.000000  0.205372  0.245754  1
  Yb  Yb5  1  0.000000  0.865645  0.500000  1
  Yb  Yb6  1  0.500000  0.791903  0.258434  1
  Pr  Pr7  1  0.500000  0.139739  0.000000  1
  Cu  Cu8  1  0.500000  0.378159  0.644122  1
  Cu  Cu9  1  0.000000  0.623598  0.853095  1
  Cu  Cu10  1  0.000000  0.623598  0.146905  1
  Cu  Cu11  1  0.500000  0.378159  0.355878  1
  Sn  Sn12  1  0.500000  0.084167  0.395775  1
  Sn  Sn13  1  0.000000  0.553014  0.662851  1
  Sn  Sn14  1  0.000000  0.414806  0.000000  1
  Sn  Sn15  1  0.500000  0.445090  0.164842  1
  Sn  Sn16  1  0.500000  0.593932  0.500000  1
  Sn  Sn17  1  0.500000  0.445090  0.835158  1
  Sn  Sn18  1  0.000000  0.915176  0.895967  1
  Sn  Sn19  1  0.000000  0.553014  0.337149  1
  Sn  Sn20  1  0.500000  0.084167  0.604225  1
  Sn  Sn21  1  0.000000  0.915176  0.104033  1
