# generated using pymatgen
data_K3Ba4Lu(US6)2
_symmetry_space_group_name_H-M   'P 1'
_cell_length_a   8.62558107
_cell_length_b   8.62154490
_cell_length_c   8.62558400
_cell_angle_alpha   90.13218876
_cell_angle_beta   90.00714737
_cell_angle_gamma   90.13220550
_symmetry_Int_Tables_number   1
_chemical_formula_structural   K3Ba4Lu(US6)2
_chemical_formula_sum   'K3 Ba4 Lu1 U2 S12'
_cell_volume   641.44533187
_cell_formula_units_Z   1
loop_
 _symmetry_equiv_pos_site_id
 _symmetry_equiv_pos_as_xyz
  1  'x, y, z'
loop_
 _atom_site_type_symbol
 _atom_site_label
 _atom_site_symmetry_multiplicity
 _atom_site_fract_x
 _atom_site_fract_y
 _atom_site_fract_z
 _atom_site_occupancy
  K  K0  1  0.887086  0.614092  0.251854  1
  K  K1  1  0.248146  0.885908  0.612914  1
  K  K2  1  0.246009  0.250000  0.253991  1
  Ba  Ba3  1  0.615072  0.250000  0.884928  1
  Ba  Ba4  1  0.751666  0.121051  0.375386  1
  Ba  Ba5  1  0.376197  0.750000  0.123803  1
  Ba  Ba6  1  0.124614  0.378949  0.748334  1
  Lu  Lu7  1  0.749317  0.750000  0.750683  1
  U  U8  1  0.508784  0.508908  0.505048  1
  U  U9  1  0.994952  0.991092  0.991216  1
  S  S10  1  0.226833  0.566999  0.431842  1
  S  S11  1  0.434618  0.225135  0.568007  1
  S  S12  1  0.566690  0.426896  0.220581  1
  S  S13  1  0.892906  0.035232  0.701077  1
  S  S14  1  0.695905  0.904536  0.028604  1
  S  S15  1  0.028196  0.699711  0.896880  1
  S  S16  1  0.798923  0.464768  0.607094  1
  S  S17  1  0.603120  0.800289  0.471804  1
  S  S18  1  0.471396  0.595464  0.804095  1
  S  S19  1  0.068158  0.933001  0.273167  1
  S  S20  1  0.279419  0.073104  0.933310  1
  S  S21  1  0.931993  0.274865  0.065382  1
