# generated using pymatgen
data_Ca2Ho3Lu(Si3Ru)8
_symmetry_space_group_name_H-M   'P 1'
_cell_length_a   10.13524979
_cell_length_b   10.13524853
_cell_length_c   8.14545524
_cell_angle_alpha   90.00455776
_cell_angle_beta   90.00455032
_cell_angle_gamma   132.63287584
_symmetry_Int_Tables_number   1
_chemical_formula_structural   Ca2Ho3Lu(Si3Ru)8
_chemical_formula_sum   'Ca2 Ho3 Lu1 Si24 Ru8'
_cell_volume   615.58784121
_cell_formula_units_Z   1
loop_
 _symmetry_equiv_pos_site_id
 _symmetry_equiv_pos_as_xyz
  1  'x, y, z'
loop_
 _atom_site_type_symbol
 _atom_site_label
 _atom_site_symmetry_multiplicity
 _atom_site_fract_x
 _atom_site_fract_y
 _atom_site_fract_z
 _atom_site_occupancy
  Ca  Ca0  1  0.501043  0.000916  0.749903  1
  Ca  Ca1  1  0.999084  0.498957  0.250097  1
  Ho  Ho2  1  0.000019  0.999981  0.000000  1
  Ho  Ho3  1  0.496792  0.996865  0.250079  1
  Ho  Ho4  1  0.003135  0.503208  0.749921  1
  Lu  Lu5  1  0.499982  0.500018  0.500000  1
  Si  Si6  1  0.794811  0.205189  0.500000  1
  Si  Si7  1  0.294260  0.705740  0.000000  1
  Si  Si8  1  0.205654  0.794346  0.500000  1
  Si  Si9  1  0.705300  0.294700  0.000000  1
  Si  Si10  1  0.330819  0.336148  0.832470  1
  Si  Si11  1  0.663852  0.669181  0.167530  1
  Si  Si12  1  0.170047  0.164859  0.333308  1
  Si  Si13  1  0.835141  0.829953  0.666692  1
  Si  Si14  1  0.121477  0.887690  0.727761  1
  Si  Si15  1  0.112310  0.878523  0.272239  1
  Si  Si16  1  0.608602  0.375480  0.228739  1
  Si  Si17  1  0.624520  0.391398  0.771261  1
  Si  Si18  1  0.875251  0.108641  0.271646  1
  Si  Si19  1  0.891359  0.124749  0.728354  1
  Si  Si20  1  0.387917  0.621526  0.771861  1
  Si  Si21  1  0.378474  0.612083  0.228139  1
  Si  Si22  1  0.344712  0.111741  0.503541  1
  Si  Si23  1  0.888259  0.655288  0.496459  1
  Si  Si24  1  0.388446  0.155228  0.006828  1
  Si  Si25  1  0.844772  0.611554  0.993172  1
  Si  Si26  1  0.654646  0.887273  0.492602  1
  Si  Si27  1  0.112727  0.345354  0.507398  1
  Si  Si28  1  0.610638  0.844120  0.997276  1
  Si  Si29  1  0.155880  0.389362  0.002724  1
  Ru  Ru30  1  0.669420  0.330580  0.500000  1
  Ru  Ru31  1  0.168645  0.831355  0.000000  1
  Ru  Ru32  1  0.331607  0.668393  0.500000  1
  Ru  Ru33  1  0.830354  0.169646  0.000000  1
  Ru  Ru34  1  0.126700  0.127261  0.626239  1
  Ru  Ru35  1  0.872739  0.873300  0.373761  1
  Ru  Ru36  1  0.373921  0.373320  0.126878  1
  Ru  Ru37  1  0.626680  0.626079  0.873122  1
