# generated using pymatgen
data_La2PrAl2Sn3
_symmetry_space_group_name_H-M   'P 1'
_cell_length_a   6.58946675
_cell_length_b   6.58946798
_cell_length_c   10.34743700
_cell_angle_alpha   90.00000000
_cell_angle_beta   90.00000000
_cell_angle_gamma   102.68096671
_symmetry_Int_Tables_number   1
_chemical_formula_structural   La2PrAl2Sn3
_chemical_formula_sum   'La4 Pr2 Al4 Sn6'
_cell_volume   438.33742649
_cell_formula_units_Z   2
loop_
 _symmetry_equiv_pos_site_id
 _symmetry_equiv_pos_as_xyz
  1  'x, y, z'
loop_
 _atom_site_type_symbol
 _atom_site_label
 _atom_site_symmetry_multiplicity
 _atom_site_fract_x
 _atom_site_fract_y
 _atom_site_fract_z
 _atom_site_occupancy
  La  La0  1  0.201769  0.798231  0.500000  1
  La  La1  1  0.201769  0.798231  0.000000  1
  La  La2  1  0.798231  0.201769  0.500000  1
  La  La3  1  0.798231  0.201769  0.000000  1
  Pr  Pr4  1  0.644002  0.644002  0.250000  1
  Pr  Pr5  1  0.355998  0.355998  0.750000  1
  Al  Al6  1  0.320281  0.320281  0.050529  1
  Al  Al7  1  0.679719  0.679719  0.949471  1
  Al  Al8  1  0.320281  0.320281  0.449471  1
  Al  Al9  1  0.679719  0.679719  0.550529  1
  Sn  Sn10  1  0.029735  0.029735  0.250000  1
  Sn  Sn11  1  0.970265  0.970265  0.750000  1
  Sn  Sn12  1  0.492174  0.093750  0.250000  1
  Sn  Sn13  1  0.906250  0.507826  0.750000  1
  Sn  Sn14  1  0.507826  0.906250  0.750000  1
  Sn  Sn15  1  0.093750  0.492174  0.250000  1
