# generated using pymatgen
data_Ca6Sn4Ir3Pd
_symmetry_space_group_name_H-M   'P 1'
_cell_length_a   5.94467231
_cell_length_b   8.22618043
_cell_length_c   14.15710300
_cell_angle_alpha   90.00000000
_cell_angle_beta   90.00000000
_cell_angle_gamma   90.29669469
_symmetry_Int_Tables_number   1
_chemical_formula_structural   Ca6Sn4Ir3Pd
_chemical_formula_sum   'Ca12 Sn8 Ir6 Pd2'
_cell_volume   692.30061948
_cell_formula_units_Z   2
loop_
 _symmetry_equiv_pos_site_id
 _symmetry_equiv_pos_as_xyz
  1  'x, y, z'
loop_
 _atom_site_type_symbol
 _atom_site_label
 _atom_site_symmetry_multiplicity
 _atom_site_fract_x
 _atom_site_fract_y
 _atom_site_fract_z
 _atom_site_occupancy
  Ca  Ca0  1  0.151069  0.390294  0.592432  1
  Ca  Ca1  1  0.848931  0.609706  0.092432  1
  Ca  Ca2  1  0.154735  0.103451  0.406325  1
  Ca  Ca3  1  0.845265  0.896549  0.906325  1
  Ca  Ca4  1  0.843773  0.604338  0.403137  1
  Ca  Ca5  1  0.156227  0.395662  0.903137  1
  Ca  Ca6  1  0.845427  0.902476  0.594302  1
  Ca  Ca7  1  0.154573  0.097524  0.094302  1
  Ca  Ca8  1  0.627480  0.247549  0.752625  1
  Ca  Ca9  1  0.372520  0.752451  0.252625  1
  Ca  Ca10  1  0.624479  0.243372  0.251975  1
  Ca  Ca11  1  0.375521  0.756628  0.751975  1
  Sn  Sn12  1  0.637213  0.247163  0.497170  1
  Sn  Sn13  1  0.362787  0.752837  0.997170  1
  Sn  Sn14  1  0.353301  0.751419  0.499644  1
  Sn  Sn15  1  0.646699  0.248581  0.999644  1
  Sn  Sn16  1  0.134180  0.098110  0.749708  1
  Sn  Sn17  1  0.865820  0.901890  0.249708  1
  Sn  Sn18  1  0.131919  0.401237  0.251211  1
  Sn  Sn19  1  0.868081  0.598763  0.751211  1
  Ir  Ir20  1  0.368698  0.035867  0.592572  1
  Ir  Ir21  1  0.631302  0.964133  0.092572  1
  Ir  Ir22  1  0.367800  0.466236  0.408995  1
  Ir  Ir23  1  0.632200  0.533764  0.908995  1
  Ir  Ir24  1  0.633459  0.958679  0.407659  1
  Ir  Ir25  1  0.366541  0.041321  0.907659  1
  Pd  Pd26  1  0.629791  0.535107  0.592244  1
  Pd  Pd27  1  0.370209  0.464893  0.092244  1
