# generated using pymatgen
data_La10InSi4Au
_symmetry_space_group_name_H-M   'P 1'
_cell_length_a   8.00238400
_cell_length_b   9.43870421
_cell_length_c   8.00238400
_cell_angle_alpha   115.08189654
_cell_angle_beta   90.00000000
_cell_angle_gamma   115.08189654
_symmetry_Int_Tables_number   1
_chemical_formula_structural   La10InSi4Au
_chemical_formula_sum   'La10 In1 Si4 Au1'
_cell_volume   483.77447275
_cell_formula_units_Z   1
loop_
 _symmetry_equiv_pos_site_id
 _symmetry_equiv_pos_as_xyz
  1  'x, y, z'
loop_
 _atom_site_type_symbol
 _atom_site_label
 _atom_site_symmetry_multiplicity
 _atom_site_fract_x
 _atom_site_fract_y
 _atom_site_fract_z
 _atom_site_occupancy
  La  La0  1  0.976194  0.952389  0.976194  1
  La  La1  1  0.523806  0.047611  0.523806  1
  La  La2  1  0.527818  0.721860  0.673484  1
  La  La3  1  0.194043  0.721860  0.048377  1
  La  La4  1  0.673484  0.721860  0.194043  1
  La  La5  1  0.048377  0.721860  0.527818  1
  La  La6  1  0.451623  0.278140  0.305957  1
  La  La7  1  0.826516  0.278140  0.972182  1
  La  La8  1  0.305957  0.278140  0.826516  1
  La  La9  1  0.972182  0.278140  0.451623  1
  In  In10  1  0.750000  0.500000  0.750000  1
  Si  Si11  1  0.886852  0.000000  0.613148  1
  Si  Si12  1  0.113148  0.000000  0.386852  1
  Si  Si13  1  0.613148  0.000000  0.113148  1
  Si  Si14  1  0.386852  0.000000  0.886852  1
  Au  Au15  1  0.250000  0.500000  0.250000  1
