# generated using pymatgen
data_Pr8Dy12Si15Os
_symmetry_space_group_name_H-M   'P 1'
_cell_length_a   7.54807866
_cell_length_b   7.82703172
_cell_length_c   14.92024200
_cell_angle_alpha   90.00000000
_cell_angle_beta   90.00000000
_cell_angle_gamma   89.68967883
_symmetry_Int_Tables_number   1
_chemical_formula_structural   Pr8Dy12Si15Os
_chemical_formula_sum   'Pr8 Dy12 Si15 Os1'
_cell_volume   881.46081055
_cell_formula_units_Z   1
loop_
 _symmetry_equiv_pos_site_id
 _symmetry_equiv_pos_as_xyz
  1  'x, y, z'
loop_
 _atom_site_type_symbol
 _atom_site_label
 _atom_site_symmetry_multiplicity
 _atom_site_fract_x
 _atom_site_fract_y
 _atom_site_fract_z
 _atom_site_occupancy
  Pr  Pr0  1  0.968196  0.815667  0.099526  1
  Pr  Pr1  1  0.478336  0.677925  0.401211  1
  Pr  Pr2  1  0.525593  0.320808  0.901185  1
  Pr  Pr3  1  0.025380  0.177957  0.598102  1
  Pr  Pr4  1  0.025380  0.177957  0.901898  1
  Pr  Pr5  1  0.525593  0.320808  0.598815  1
  Pr  Pr6  1  0.478336  0.677925  0.098789  1
  Pr  Pr7  1  0.968196  0.815667  0.400474  1
  Dy  Dy8  1  0.656104  0.978722  0.250000  1
  Dy  Dy9  1  0.136185  0.516653  0.250000  1
  Dy  Dy10  1  0.852015  0.487947  0.750000  1
  Dy  Dy11  1  0.351115  0.009427  0.750000  1
  Dy  Dy12  1  0.681417  0.821458  0.876493  1
  Dy  Dy13  1  0.182258  0.680211  0.622208  1
  Dy  Dy14  1  0.814536  0.327626  0.124971  1
  Dy  Dy15  1  0.319995  0.177441  0.376900  1
  Dy  Dy16  1  0.319995  0.177441  0.123100  1
  Dy  Dy17  1  0.814536  0.327626  0.375029  1
  Dy  Dy18  1  0.182258  0.680211  0.877792  1
  Dy  Dy19  1  0.681417  0.821458  0.623507  1
  Si  Si20  1  0.265285  0.885635  0.250000  1
  Si  Si21  1  0.734184  0.119716  0.750000  1
  Si  Si22  1  0.232972  0.380670  0.750000  1
  Si  Si23  1  0.028433  0.113417  0.250000  1
  Si  Si24  1  0.520599  0.392739  0.250000  1
  Si  Si25  1  0.475450  0.612722  0.750000  1
  Si  Si26  1  0.975444  0.885734  0.750000  1
  Si  Si27  1  0.858864  0.529119  0.958789  1
  Si  Si28  1  0.359124  0.972184  0.541233  1
  Si  Si29  1  0.643439  0.032833  0.038618  1
  Si  Si30  1  0.145620  0.465044  0.461850  1
  Si  Si31  1  0.145620  0.465044  0.038150  1
  Si  Si32  1  0.643439  0.032833  0.461382  1
  Si  Si33  1  0.359124  0.972184  0.958767  1
  Si  Si34  1  0.858864  0.529119  0.541211  1
  Os  Os35  1  0.766697  0.620073  0.250000  1
