# generated using pymatgen
data_Ce3MnOsC6
_symmetry_space_group_name_H-M   'P 1'
_cell_length_a   8.32094000
_cell_length_b   8.32093877
_cell_length_c   5.08628300
_cell_angle_alpha   90.00000000
_cell_angle_beta   90.00000000
_cell_angle_gamma   120.00000490
_symmetry_Int_Tables_number   1
_chemical_formula_structural   Ce3MnOsC6
_chemical_formula_sum   'Ce6 Mn2 Os2 C12'
_cell_volume   304.98315119
_cell_formula_units_Z   2
loop_
 _symmetry_equiv_pos_site_id
 _symmetry_equiv_pos_as_xyz
  1  'x, y, z'
loop_
 _atom_site_type_symbol
 _atom_site_label
 _atom_site_symmetry_multiplicity
 _atom_site_fract_x
 _atom_site_fract_y
 _atom_site_fract_z
 _atom_site_occupancy
  Ce  Ce0  1  0.625251  0.695246  0.750000  1
  Ce  Ce1  1  0.930005  0.625251  0.250000  1
  Ce  Ce2  1  0.695246  0.069995  0.250000  1
  Ce  Ce3  1  0.304754  0.930005  0.750000  1
  Ce  Ce4  1  0.069995  0.374749  0.750000  1
  Ce  Ce5  1  0.374749  0.304754  0.250000  1
  Mn  Mn6  1  0.000000  0.000000  0.500000  1
  Mn  Mn7  1  0.000000  0.000000  0.000000  1
  Os  Os8  1  0.666667  0.333333  0.750000  1
  Os  Os9  1  0.333333  0.666667  0.250000  1
  C  C10  1  0.960200  0.778848  0.750000  1
  C  C11  1  0.181354  0.960200  0.250000  1
  C  C12  1  0.778848  0.818646  0.250000  1
  C  C13  1  0.221152  0.181354  0.750000  1
  C  C14  1  0.818646  0.039800  0.750000  1
  C  C15  1  0.039800  0.221152  0.250000  1
  C  C16  1  0.873070  0.588470  0.750000  1
  C  C17  1  0.284600  0.873070  0.250000  1
  C  C18  1  0.588470  0.715400  0.250000  1
  C  C19  1  0.411530  0.284600  0.750000  1
  C  C20  1  0.126930  0.411530  0.250000  1
  C  C21  1  0.715400  0.126930  0.750000  1
