# generated using pymatgen
data_Zr6Mn(Tl2Cl9)2
_symmetry_space_group_name_H-M   'P 1'
_cell_length_a   10.15467616
_cell_length_b   10.22842459
_cell_length_c   10.36693000
_cell_angle_alpha   118.31957462
_cell_angle_beta   99.89944823
_cell_angle_gamma   104.27792021
_symmetry_Int_Tables_number   1
_chemical_formula_structural   Zr6Mn(Tl2Cl9)2
_chemical_formula_sum   'Zr6 Mn1 Tl4 Cl18'
_cell_volume   864.34029361
_cell_formula_units_Z   1
loop_
 _symmetry_equiv_pos_site_id
 _symmetry_equiv_pos_as_xyz
  1  'x, y, z'
loop_
 _atom_site_type_symbol
 _atom_site_label
 _atom_site_symmetry_multiplicity
 _atom_site_fract_x
 _atom_site_fract_y
 _atom_site_fract_z
 _atom_site_occupancy
  Zr  Zr0  1  0.160282  0.059914  0.246424  1
  Zr  Zr1  1  0.839718  0.940086  0.753576  1
  Zr  Zr2  1  0.851364  0.135156  0.141841  1
  Zr  Zr3  1  0.148636  0.864844  0.858159  1
  Zr  Zr4  1  0.150179  0.247559  0.046467  1
  Zr  Zr5  1  0.849821  0.752441  0.953533  1
  Mn  Mn6  1  0.000000  0.000000  0.000000  1
  Tl  Tl7  1  0.651532  0.537615  0.225660  1
  Tl  Tl8  1  0.348468  0.462385  0.774340  1
  Tl  Tl9  1  0.685103  0.224888  0.563191  1
  Tl  Tl10  1  0.314897  0.775112  0.436809  1
  Cl  Cl11  1  0.008114  0.409371  0.196740  1
  Cl  Cl12  1  0.991886  0.590629  0.803260  1
  Cl  Cl13  1  0.327665  0.333215  0.310518  1
  Cl  Cl14  1  0.672335  0.666785  0.689482  1
  Cl  Cl15  1  0.325409  0.524614  0.101343  1
  Cl  Cl16  1  0.674591  0.475386  0.898657  1
  Cl  Cl17  1  0.004024  0.795603  0.209098  1
  Cl  Cl18  1  0.995976  0.204397  0.790902  1
  Cl  Cl19  1  0.699274  0.280226  0.293269  1
  Cl  Cl20  1  0.300726  0.719774  0.706731  1
  Cl  Cl21  1  0.316099  0.127610  0.902869  1
  Cl  Cl22  1  0.683901  0.872390  0.097131  1
  Cl  Cl23  1  0.014267  0.204496  0.408279  1
  Cl  Cl24  1  0.985733  0.795504  0.591721  1
  Cl  Cl25  1  0.320303  0.921695  0.110035  1
  Cl  Cl26  1  0.679697  0.078305  0.889965  1
  Cl  Cl27  1  0.338135  0.122587  0.507590  1
  Cl  Cl28  1  0.661865  0.877413  0.492410  1
