# generated using pymatgen
data_Nd4Ho4B24OsRu3
_symmetry_space_group_name_H-M   'P 1'
_cell_length_a   3.71309900
_cell_length_b   9.22212924
_cell_length_c   11.64930704
_cell_angle_alpha   89.96551539
_cell_angle_beta   90.00000000
_cell_angle_gamma   90.00000000
_symmetry_Int_Tables_number   1
_chemical_formula_structural   Nd4Ho4B24OsRu3
_chemical_formula_sum   'Nd4 Ho4 B24 Os1 Ru3'
_cell_volume   398.90340771
_cell_formula_units_Z   1
loop_
 _symmetry_equiv_pos_site_id
 _symmetry_equiv_pos_as_xyz
  1  'x, y, z'
loop_
 _atom_site_type_symbol
 _atom_site_label
 _atom_site_symmetry_multiplicity
 _atom_site_fract_x
 _atom_site_fract_y
 _atom_site_fract_z
 _atom_site_occupancy
  Nd  Nd0  1  0.000000  0.322969  0.414435  1
  Nd  Nd1  1  0.000000  0.677133  0.585577  1
  Nd  Nd2  1  0.000000  0.822793  0.085802  1
  Nd  Nd3  1  0.000000  0.176776  0.914513  1
  Ho  Ho4  1  0.000000  0.944557  0.372044  1
  Ho  Ho5  1  0.000000  0.056138  0.628523  1
  Ho  Ho6  1  0.000000  0.443811  0.127694  1
  Ho  Ho7  1  0.000000  0.556023  0.871525  1
  B  B8  1  0.500000  0.556189  0.430386  1
  B  B9  1  0.500000  0.443624  0.569718  1
  B  B10  1  0.500000  0.056287  0.069680  1
  B  B11  1  0.500000  0.943479  0.930341  1
  B  B12  1  0.500000  0.749738  0.417316  1
  B  B13  1  0.500000  0.250240  0.582675  1
  B  B14  1  0.500000  0.249541  0.082489  1
  B  B15  1  0.500000  0.750204  0.917402  1
  B  B16  1  0.500000  0.790714  0.266786  1
  B  B17  1  0.500000  0.209614  0.733233  1
  B  B18  1  0.500000  0.290508  0.233052  1
  B  B19  1  0.500000  0.709625  0.766829  1
  B  B20  1  0.500000  0.630786  0.185190  1
  B  B21  1  0.500000  0.369171  0.814936  1
  B  B22  1  0.500000  0.130950  0.314923  1
  B  B23  1  0.500000  0.869250  0.685125  1
  B  B24  1  0.500000  0.986043  0.214095  1
  B  B25  1  0.500000  0.013980  0.786049  1
  B  B26  1  0.500000  0.485718  0.285886  1
  B  B27  1  0.500000  0.513976  0.714046  1
  B  B28  1  0.500000  0.602226  0.027807  1
  B  B29  1  0.500000  0.397410  0.971739  1
  B  B30  1  0.500000  0.102522  0.472136  1
  B  B31  1  0.500000  0.897935  0.528133  1
  Os  Os32  1  0.000000  0.639400  0.319494  1
  Ru  Ru33  1  0.000000  0.360717  0.680293  1
  Ru  Ru34  1  0.000000  0.139391  0.180542  1
  Ru  Ru35  1  0.000000  0.860562  0.819588  1
