# generated using pymatgen
data_Ti6Ga6Ir11Pt
_symmetry_space_group_name_H-M   'P 1'
_cell_length_a   4.08449900
_cell_length_b   7.05638800
_cell_length_c   12.25387800
_cell_angle_alpha   90.00000000
_cell_angle_beta   89.99977089
_cell_angle_gamma   90.00000000
_symmetry_Int_Tables_number   1
_chemical_formula_structural   Ti6Ga6Ir11Pt
_chemical_formula_sum   'Ti6 Ga6 Ir11 Pt1'
_cell_volume   353.17894016
_cell_formula_units_Z   1
loop_
 _symmetry_equiv_pos_site_id
 _symmetry_equiv_pos_as_xyz
  1  'x, y, z'
loop_
 _atom_site_type_symbol
 _atom_site_label
 _atom_site_symmetry_multiplicity
 _atom_site_fract_x
 _atom_site_fract_y
 _atom_site_fract_z
 _atom_site_occupancy
  Ti  Ti0  1  0.000000  0.507436  0.000000  1
  Ti  Ti1  1  0.500098  0.996053  0.168342  1
  Ti  Ti2  1  0.000092  0.499504  0.333587  1
  Ti  Ti3  1  0.499999  0.000771  0.500000  1
  Ti  Ti4  1  0.999908  0.499504  0.666413  1
  Ti  Ti5  1  0.499902  0.996053  0.831657  1
  Ga  Ga6  1  0.000000  0.996391  0.000000  1
  Ga  Ga7  1  0.500108  0.501795  0.167027  1
  Ga  Ga8  1  0.000110  0.000380  0.334015  1
  Ga  Ga9  1  0.499999  0.499306  0.500000  1
  Ga  Ga10  1  0.999890  0.000380  0.665985  1
  Ga  Ga11  1  0.499892  0.501795  0.832972  1
  Ir  Ir12  1  0.499999  0.750134  0.000000  1
  Ir  Ir13  1  0.000087  0.249995  0.165522  1
  Ir  Ir14  1  0.000088  0.750532  0.167111  1
  Ir  Ir15  1  0.500086  0.250659  0.332324  1
  Ir  Ir16  1  0.500085  0.750017  0.333648  1
  Ir  Ir17  1  0.000000  0.249908  0.500000  1
  Ir  Ir18  1  0.000000  0.749555  0.500000  1
  Ir  Ir19  1  0.499914  0.250659  0.667676  1
  Ir  Ir20  1  0.499915  0.750017  0.666352  1
  Ir  Ir21  1  0.999913  0.249995  0.834479  1
  Ir  Ir22  1  0.999912  0.750532  0.832890  1
  Pt  Pt23  1  0.499999  0.248623  0.000000  1
