# generated using pymatgen
data_Pr6Si4PtRh5
_symmetry_space_group_name_H-M   'P 1'
_cell_length_a   5.79408600
_cell_length_b   7.81605400
_cell_length_c   15.13457700
_cell_angle_alpha   90.00000000
_cell_angle_beta   90.00000000
_cell_angle_gamma   90.00000000
_symmetry_Int_Tables_number   1
_chemical_formula_structural   Pr6Si4PtRh5
_chemical_formula_sum   'Pr12 Si8 Pt2 Rh10'
_cell_volume   685.39790952
_cell_formula_units_Z   2
loop_
 _symmetry_equiv_pos_site_id
 _symmetry_equiv_pos_as_xyz
  1  'x, y, z'
loop_
 _atom_site_type_symbol
 _atom_site_label
 _atom_site_symmetry_multiplicity
 _atom_site_fract_x
 _atom_site_fract_y
 _atom_site_fract_z
 _atom_site_occupancy
  Pr  Pr0  1  0.140324  0.474490  0.892425  1
  Pr  Pr1  1  0.359801  0.973145  0.891369  1
  Pr  Pr2  1  0.609163  0.336585  0.750000  1
  Pr  Pr3  1  0.381838  0.666655  0.250000  1
  Pr  Pr4  1  0.640324  0.025510  0.392425  1
  Pr  Pr5  1  0.859801  0.526855  0.108631  1
  Pr  Pr6  1  0.859801  0.526855  0.391369  1
  Pr  Pr7  1  0.359801  0.973145  0.608631  1
  Pr  Pr8  1  0.881838  0.833345  0.750000  1
  Pr  Pr9  1  0.140324  0.474490  0.607575  1
  Pr  Pr10  1  0.640324  0.025510  0.107575  1
  Pr  Pr11  1  0.109163  0.163415  0.250000  1
  Si  Si12  1  0.363367  0.372990  0.096016  1
  Si  Si13  1  0.633514  0.627345  0.903166  1
  Si  Si14  1  0.863367  0.127010  0.903984  1
  Si  Si15  1  0.363367  0.372990  0.403984  1
  Si  Si16  1  0.863367  0.127010  0.596016  1
  Si  Si17  1  0.633514  0.627345  0.596834  1
  Si  Si18  1  0.133514  0.872655  0.403166  1
  Si  Si19  1  0.133514  0.872655  0.096834  1
  Pt  Pt20  1  0.582604  0.314415  0.250000  1
  Pt  Pt21  1  0.082604  0.185585  0.750000  1
  Rh  Rh22  1  0.602870  0.338857  0.962681  1
  Rh  Rh23  1  0.398301  0.661716  0.038160  1
  Rh  Rh24  1  0.398301  0.661716  0.461840  1
  Rh  Rh25  1  0.102870  0.161143  0.462681  1
  Rh  Rh26  1  0.430043  0.681965  0.750000  1
  Rh  Rh27  1  0.930043  0.818035  0.250000  1
  Rh  Rh28  1  0.102870  0.161143  0.037319  1
  Rh  Rh29  1  0.602870  0.338857  0.537319  1
  Rh  Rh30  1  0.898301  0.838284  0.538160  1
  Rh  Rh31  1  0.898301  0.838284  0.961840  1
