# generated using pymatgen
data_Sr(GaBr4)2
_symmetry_space_group_name_H-M   'P 1'
_cell_length_a   7.55169000
_cell_length_b   8.19376107
_cell_length_c   13.69408595
_cell_angle_alpha   85.32505592
_cell_angle_beta   90.00000000
_cell_angle_gamma   90.00000000
_symmetry_Int_Tables_number   1
_chemical_formula_structural   Sr(GaBr4)2
_chemical_formula_sum   'Sr2 Ga4 Br16'
_cell_volume   844.52643107
_cell_formula_units_Z   2
loop_
 _symmetry_equiv_pos_site_id
 _symmetry_equiv_pos_as_xyz
  1  'x, y, z'
loop_
 _atom_site_type_symbol
 _atom_site_label
 _atom_site_symmetry_multiplicity
 _atom_site_fract_x
 _atom_site_fract_y
 _atom_site_fract_z
 _atom_site_occupancy
  Sr  Sr0  1  0.152087  0.500000  0.250000  1
  Sr  Sr1  1  0.847913  0.500000  0.750000  1
  Ga  Ga2  1  0.260703  0.677041  0.579879  1
  Ga  Ga3  1  0.739297  0.677041  0.079879  1
  Ga  Ga4  1  0.739297  0.322959  0.420121  1
  Ga  Ga5  1  0.260703  0.322959  0.920121  1
  Br  Br6  1  0.530488  0.745700  0.655840  1
  Br  Br7  1  0.304524  0.741604  0.409464  1
  Br  Br8  1  0.823726  0.401509  0.115604  1
  Br  Br9  1  0.176274  0.598491  0.884396  1
  Br  Br10  1  0.469512  0.254300  0.344160  1
  Br  Br11  1  0.304524  0.258396  0.090536  1
  Br  Br12  1  0.695476  0.258396  0.590536  1
  Br  Br13  1  0.469512  0.745700  0.155840  1
  Br  Br14  1  0.176274  0.401509  0.615604  1
  Br  Br15  1  0.530488  0.254300  0.844160  1
  Br  Br16  1  0.823726  0.598491  0.384396  1
  Br  Br17  1  0.976225  0.831532  0.139506  1
  Br  Br18  1  0.695476  0.741604  0.909464  1
  Br  Br19  1  0.023775  0.168468  0.860494  1
  Br  Br20  1  0.976225  0.168468  0.360494  1
  Br  Br21  1  0.023775  0.831532  0.639506  1
