# generated using pymatgen
data_Lu3In3Hg2Ir
_symmetry_space_group_name_H-M   'P 1'
_cell_length_a   7.88315900
_cell_length_b   7.88315929
_cell_length_c   3.84459400
_cell_angle_alpha   90.00000000
_cell_angle_beta   90.00000000
_cell_angle_gamma   119.99999572
_symmetry_Int_Tables_number   1
_chemical_formula_structural   Lu3In3Hg2Ir
_chemical_formula_sum   'Lu3 In3 Hg2 Ir1'
_cell_volume   206.91011520
_cell_formula_units_Z   1
loop_
 _symmetry_equiv_pos_site_id
 _symmetry_equiv_pos_as_xyz
  1  'x, y, z'
loop_
 _atom_site_type_symbol
 _atom_site_label
 _atom_site_symmetry_multiplicity
 _atom_site_fract_x
 _atom_site_fract_y
 _atom_site_fract_z
 _atom_site_occupancy
  Lu  Lu0  1  0.578874  0.615539  0.000000  1
  Lu  Lu1  1  0.384461  0.963333  0.000000  1
  Lu  Lu2  1  0.036667  0.421126  0.000000  1
  In  In3  1  0.002261  0.726410  0.500000  1
  In  In4  1  0.273590  0.275851  0.500000  1
  In  In5  1  0.724149  0.997739  0.500000  1
  Hg  Hg6  1  0.000000  0.000000  0.000000  1
  Hg  Hg7  1  0.666667  0.333333  0.500000  1
  Ir  Ir8  1  0.333333  0.666667  0.500000  1
