# generated using pymatgen
data_La2NiGe2Rh3
_symmetry_space_group_name_H-M   'P 1'
_cell_length_a   9.30715561
_cell_length_b   9.30715611
_cell_length_c   4.15084900
_cell_angle_alpha   90.00000000
_cell_angle_beta   90.00000000
_cell_angle_gamma   154.20935264
_symmetry_Int_Tables_number   1
_chemical_formula_structural   La2NiGe2Rh3
_chemical_formula_sum   'La2 Ni1 Ge2 Rh3'
_cell_volume   156.43868307
_cell_formula_units_Z   1
loop_
 _symmetry_equiv_pos_site_id
 _symmetry_equiv_pos_as_xyz
  1  'x, y, z'
loop_
 _atom_site_type_symbol
 _atom_site_label
 _atom_site_symmetry_multiplicity
 _atom_site_fract_x
 _atom_site_fract_y
 _atom_site_fract_z
 _atom_site_occupancy
  La  La0  1  0.097351  0.902649  0.750000  1
  La  La1  1  0.902538  0.097462  0.250000  1
  Ni  Ni2  1  0.542873  0.457127  0.250000  1
  Ge  Ge3  1  0.323567  0.676433  0.750000  1
  Ge  Ge4  1  0.674136  0.325864  0.250000  1
  Rh  Rh5  1  0.462092  0.537908  0.750000  1
  Rh  Rh6  1  0.248027  0.751973  0.250000  1
  Rh  Rh7  1  0.749417  0.250583  0.750000  1
