# generated using pymatgen
data_Dy8HoMg(BiAu2)2
_symmetry_space_group_name_H-M   'P 1'
_cell_length_a   8.74804940
_cell_length_b   8.74804968
_cell_length_c   8.74805000
_cell_angle_alpha   125.61307399
_cell_angle_beta   125.61307987
_cell_angle_gamma   80.52500918
_symmetry_Int_Tables_number   1
_chemical_formula_structural   Dy8HoMg(BiAu2)2
_chemical_formula_sum   'Dy8 Ho1 Mg1 Bi2 Au4'
_cell_volume   426.77198474
_cell_formula_units_Z   1
loop_
 _symmetry_equiv_pos_site_id
 _symmetry_equiv_pos_as_xyz
  1  'x, y, z'
loop_
 _atom_site_type_symbol
 _atom_site_label
 _atom_site_symmetry_multiplicity
 _atom_site_fract_x
 _atom_site_fract_y
 _atom_site_fract_z
 _atom_site_occupancy
  Dy  Dy0  1  0.008233  0.522875  0.811910  1
  Dy  Dy1  1  0.710965  0.196323  0.188090  1
  Dy  Dy2  1  0.522875  0.710965  0.514642  1
  Dy  Dy3  1  0.196323  0.008233  0.485358  1
  Dy  Dy4  1  0.991767  0.477125  0.188090  1
  Dy  Dy5  1  0.289035  0.803677  0.811910  1
  Dy  Dy6  1  0.477125  0.289035  0.485358  1
  Dy  Dy7  1  0.803677  0.991767  0.514642  1
  Ho  Ho8  1  0.500000  0.500000  0.000000  1
  Mg  Mg9  1  0.000000  0.000000  0.000000  1
  Bi  Bi10  1  0.746004  0.746004  0.000000  1
  Bi  Bi11  1  0.253996  0.253996  0.000000  1
  Au  Au12  1  0.635198  0.141548  0.776744  1
  Au  Au13  1  0.364802  0.858452  0.223256  1
  Au  Au14  1  0.141548  0.364802  0.506350  1
  Au  Au15  1  0.858452  0.635198  0.493650  1
