# generated using pymatgen
data_Tb4ErCdAu4
_symmetry_space_group_name_H-M   'P 1'
_cell_length_a   8.03062800
_cell_length_b   8.03062800
_cell_length_c   3.83873500
_cell_angle_alpha   90.00000000
_cell_angle_beta   90.00000000
_cell_angle_gamma   90.00000000
_symmetry_Int_Tables_number   1
_chemical_formula_structural   Tb4ErCdAu4
_chemical_formula_sum   'Tb4 Er1 Cd1 Au4'
_cell_volume   247.56380543
_cell_formula_units_Z   1
loop_
 _symmetry_equiv_pos_site_id
 _symmetry_equiv_pos_as_xyz
  1  'x, y, z'
loop_
 _atom_site_type_symbol
 _atom_site_label
 _atom_site_symmetry_multiplicity
 _atom_site_fract_x
 _atom_site_fract_y
 _atom_site_fract_z
 _atom_site_occupancy
  Tb  Tb0  1  0.686780  0.140166  0.500000  1
  Tb  Tb1  1  0.313220  0.859834  0.500000  1
  Tb  Tb2  1  0.140166  0.313220  0.500000  1
  Tb  Tb3  1  0.859834  0.686780  0.500000  1
  Er  Er4  1  0.500000  0.500000  0.000000  1
  Cd  Cd5  1  0.000000  0.000000  0.000000  1
  Au  Au6  1  0.146226  0.618904  0.000000  1
  Au  Au7  1  0.853774  0.381096  0.000000  1
  Au  Au8  1  0.618904  0.853774  0.000000  1
  Au  Au9  1  0.381096  0.146226  0.000000  1
