# generated using pymatgen
data_La2Ga4GeIr3
_symmetry_space_group_name_H-M   'P 1'
_cell_length_a   8.73886161
_cell_length_b   8.68425722
_cell_length_c   8.68231930
_cell_angle_alpha   140.35346950
_cell_angle_beta   107.76912228
_cell_angle_gamma   85.61607584
_symmetry_Int_Tables_number   1
_chemical_formula_structural   La2Ga4GeIr3
_chemical_formula_sum   'La4 Ga8 Ge2 Ir6'
_cell_volume   386.48786959
_cell_formula_units_Z   2
loop_
 _symmetry_equiv_pos_site_id
 _symmetry_equiv_pos_as_xyz
  1  'x, y, z'
loop_
 _atom_site_type_symbol
 _atom_site_label
 _atom_site_symmetry_multiplicity
 _atom_site_fract_x
 _atom_site_fract_y
 _atom_site_fract_z
 _atom_site_occupancy
  La  La0  1  0.095054  0.866526  0.229556  1
  La  La1  1  0.636320  0.363048  0.272428  1
  La  La2  1  0.906535  0.135246  0.771879  1
  La  La3  1  0.364404  0.633512  0.729387  1
  Ga  Ga4  1  0.291130  0.040798  0.751181  1
  Ga  Ga5  1  0.285239  0.534915  0.250214  1
  Ga  Ga6  1  0.999730  0.251056  0.249969  1
  Ga  Ga7  1  0.239008  0.405324  0.836510  1
  Ga  Ga8  1  0.755279  0.593849  0.164560  1
  Ga  Ga9  1  0.711187  0.459224  0.750175  1
  Ga  Ga10  1  0.570395  0.904801  0.662708  1
  Ga  Ga11  1  0.716827  0.966279  0.251471  1
  Ge  Ge12  1  0.432768  0.093382  0.335364  1
  Ge  Ge13  1  0.999834  0.750307  0.748692  1
  Ir  Ir14  1  0.044129  0.653520  0.408127  1
  Ir  Ir15  1  0.757635  0.847206  0.891969  1
  Ir  Ir16  1  0.956189  0.366374  0.608401  1
  Ir  Ir17  1  0.244652  0.134868  0.093846  1
  Ir  Ir18  1  0.496774  0.750262  0.247229  1
  Ir  Ir19  1  0.496913  0.249502  0.746333  1
