# generated using pymatgen
data_TbDy15In4Ir3Ru
_symmetry_space_group_name_H-M   'P 1'
_cell_length_a   9.66968450
_cell_length_b   9.66968393
_cell_length_c   9.66968373
_cell_angle_alpha   60.08350590
_cell_angle_beta   60.08350625
_cell_angle_gamma   60.08351132
_symmetry_Int_Tables_number   1
_chemical_formula_structural   TbDy15In4Ir3Ru
_chemical_formula_sum   'Tb1 Dy15 In4 Ir3 Ru1'
_cell_volume   640.53506242
_cell_formula_units_Z   1
loop_
 _symmetry_equiv_pos_site_id
 _symmetry_equiv_pos_as_xyz
  1  'x, y, z'
loop_
 _atom_site_type_symbol
 _atom_site_label
 _atom_site_symmetry_multiplicity
 _atom_site_fract_x
 _atom_site_fract_y
 _atom_site_fract_z
 _atom_site_occupancy
  Tb  Tb0  1  0.597811  0.597811  0.597811  1
  Dy  Dy1  1  0.599538  0.599538  0.203099  1
  Dy  Dy2  1  0.599538  0.203099  0.599538  1
  Dy  Dy3  1  0.203099  0.599538  0.599538  1
  Dy  Dy4  1  0.060442  0.439839  0.439839  1
  Dy  Dy5  1  0.439419  0.059018  0.059018  1
  Dy  Dy6  1  0.439839  0.060442  0.439839  1
  Dy  Dy7  1  0.059018  0.439419  0.059018  1
  Dy  Dy8  1  0.439839  0.439839  0.060442  1
  Dy  Dy9  1  0.059018  0.059018  0.439419  1
  Dy  Dy10  1  0.188395  0.811622  0.811622  1
  Dy  Dy11  1  0.809375  0.190699  0.190699  1
  Dy  Dy12  1  0.811622  0.188395  0.811622  1
  Dy  Dy13  1  0.190699  0.809375  0.190699  1
  Dy  Dy14  1  0.811622  0.811622  0.188395  1
  Dy  Dy15  1  0.190699  0.190699  0.809375  1
  In  In16  1  0.832944  0.832944  0.832944  1
  In  In17  1  0.832626  0.832626  0.501451  1
  In  In18  1  0.832626  0.501451  0.832626  1
  In  In19  1  0.501451  0.832626  0.832626  1
  Ir  Ir20  1  0.390889  0.390889  0.827199  1
  Ir  Ir21  1  0.390889  0.827199  0.390889  1
  Ir  Ir22  1  0.827199  0.390889  0.390889  1
  Ru  Ru23  1  0.391405  0.391405  0.391405  1
