# generated using pymatgen
data_Ti3Cr2TcP3
_symmetry_space_group_name_H-M   'P 1'
_cell_length_a   6.46499403
_cell_length_b   6.51777859
_cell_length_c   3.25032300
_cell_angle_alpha   90.00000000
_cell_angle_beta   90.00000000
_cell_angle_gamma   120.27045386
_symmetry_Int_Tables_number   1
_chemical_formula_structural   Ti3Cr2TcP3
_chemical_formula_sum   'Ti3 Cr2 Tc1 P3'
_cell_volume   118.28640968
_cell_formula_units_Z   1
loop_
 _symmetry_equiv_pos_site_id
 _symmetry_equiv_pos_as_xyz
  1  'x, y, z'
loop_
 _atom_site_type_symbol
 _atom_site_label
 _atom_site_symmetry_multiplicity
 _atom_site_fract_x
 _atom_site_fract_y
 _atom_site_fract_z
 _atom_site_occupancy
  Ti  Ti0  1  0.410265  0.407489  0.500000  1
  Ti  Ti1  1  0.589735  0.997224  0.500000  1
  Ti  Ti2  1  0.000000  0.600848  0.500000  1
  Cr  Cr3  1  0.255237  0.999757  0.000000  1
  Cr  Cr4  1  0.744763  0.744520  0.000000  1
  Tc  Tc5  1  0.000000  0.253883  0.000000  1
  P  P6  1  0.662714  0.335102  0.000000  1
  P  P7  1  0.337286  0.672389  0.000000  1
  P  P8  1  0.000000  0.988786  0.500000  1
