# generated using pymatgen
data_Lu6Al24Ru7Pt
_symmetry_space_group_name_H-M   'P 1'
_cell_length_a   8.76330841
_cell_length_b   8.76330760
_cell_length_c   9.55393618
_cell_angle_alpha   89.85501485
_cell_angle_beta   90.14498694
_cell_angle_gamma   119.88692359
_symmetry_Int_Tables_number   1
_chemical_formula_structural   Lu6Al24Ru7Pt
_chemical_formula_sum   'Lu6 Al24 Ru7 Pt1'
_cell_volume   636.12283632
_cell_formula_units_Z   1
loop_
 _symmetry_equiv_pos_site_id
 _symmetry_equiv_pos_as_xyz
  1  'x, y, z'
loop_
 _atom_site_type_symbol
 _atom_site_label
 _atom_site_symmetry_multiplicity
 _atom_site_fract_x
 _atom_site_fract_y
 _atom_site_fract_z
 _atom_site_occupancy
  Lu  Lu0  1  0.805110  0.194890  0.748260  1
  Lu  Lu1  1  0.194890  0.805110  0.251740  1
  Lu  Lu2  1  0.387748  0.191652  0.748829  1
  Lu  Lu3  1  0.612252  0.808348  0.251171  1
  Lu  Lu4  1  0.808348  0.612252  0.748829  1
  Lu  Lu5  1  0.191652  0.387748  0.251171  1
  Al  Al6  1  0.669289  0.330711  0.977363  1
  Al  Al7  1  0.330711  0.669289  0.022637  1
  Al  Al8  1  0.333494  0.666506  0.478443  1
  Al  Al9  1  0.666506  0.333494  0.521557  1
  Al  Al10  1  0.836830  0.163170  0.422095  1
  Al  Al11  1  0.163170  0.836830  0.577905  1
  Al  Al12  1  0.325347  0.163362  0.422123  1
  Al  Al13  1  0.162649  0.837351  0.921038  1
  Al  Al14  1  0.674653  0.836638  0.577877  1
  Al  Al15  1  0.837351  0.162649  0.078962  1
  Al  Al16  1  0.836638  0.674653  0.422123  1
  Al  Al17  1  0.675976  0.842175  0.920745  1
  Al  Al18  1  0.163362  0.325347  0.577877  1
  Al  Al19  1  0.324024  0.157825  0.079255  1
  Al  Al20  1  0.157825  0.324024  0.920745  1
  Al  Al21  1  0.842175  0.675976  0.079255  1
  Al  Al22  1  0.437753  0.562247  0.746805  1
  Al  Al23  1  0.562247  0.437753  0.253195  1
  Al  Al24  1  0.122586  0.560827  0.750254  1
  Al  Al25  1  0.877414  0.439173  0.249746  1
  Al  Al26  1  0.439173  0.877414  0.750254  1
  Al  Al27  1  0.560827  0.122586  0.249746  1
  Al  Al28  1  0.000336  0.999664  0.749830  1
  Al  Al29  1  0.999664  0.000336  0.250170  1
  Ru  Ru30  1  0.000000  0.500000  0.000000  1
  Ru  Ru31  1  0.500000  0.500000  0.500000  1
  Ru  Ru32  1  0.500000  0.000000  0.000000  1
  Ru  Ru33  1  0.000000  0.500000  0.500000  1
  Ru  Ru34  1  0.500000  0.000000  0.500000  1
  Ru  Ru35  1  0.000000  0.000000  0.000000  1
  Ru  Ru36  1  0.000000  0.000000  0.500000  1
  Pt  Pt37  1  0.500000  0.500000  0.000000  1
