# generated using pymatgen
data_Dy6NpFe22
_symmetry_space_group_name_H-M   'P 1'
_cell_length_a   8.52218700
_cell_length_b   8.52218635
_cell_length_c   8.52218700
_cell_angle_alpha   119.99999866
_cell_angle_beta   90.00000000
_cell_angle_gamma   119.99999866
_symmetry_Int_Tables_number   1
_chemical_formula_structural   Dy6NpFe22
_chemical_formula_sum   'Dy6 Np1 Fe22'
_cell_volume   437.66131929
_cell_formula_units_Z   1
loop_
 _symmetry_equiv_pos_site_id
 _symmetry_equiv_pos_as_xyz
  1  'x, y, z'
loop_
 _atom_site_type_symbol
 _atom_site_label
 _atom_site_symmetry_multiplicity
 _atom_site_fract_x
 _atom_site_fract_y
 _atom_site_fract_z
 _atom_site_occupancy
  Dy  Dy0  1  0.706403  0.000000  0.293596  1
  Dy  Dy1  1  0.293597  0.000000  0.293597  1
  Dy  Dy2  1  0.293597  0.587195  0.293597  1
  Dy  Dy3  1  0.293596  0.000000  0.706403  1
  Dy  Dy4  1  0.706403  0.000000  0.706403  1
  Dy  Dy5  1  0.706403  0.412806  0.706403  1
  Np  Np6  1  0.000000  0.000000  0.000000  1
  Fe  Fe7  1  0.500001  0.000000  0.000000  1
  Fe  Fe8  1  0.000000  0.500001  0.000000  1
  Fe  Fe9  1  0.500001  0.500001  0.000000  1
  Fe  Fe10  1  0.675285  0.350571  0.025857  1
  Fe  Fe11  1  0.877201  0.754402  0.122799  1
  Fe  Fe12  1  0.368397  0.245597  0.122799  1
  Fe  Fe13  1  0.877201  0.245597  0.122799  1
  Fe  Fe14  1  0.675285  0.350571  0.324714  1
  Fe  Fe15  1  0.675285  0.649429  0.324714  1
  Fe  Fe16  1  0.974143  0.649429  0.324714  1
  Fe  Fe17  1  0.122799  0.245597  0.368397  1
  Fe  Fe18  1  0.000000  0.000000  0.500001  1
  Fe  Fe19  1  0.000000  0.500001  0.500001  1
  Fe  Fe20  1  0.500001  0.500001  0.500001  1
  Fe  Fe21  1  0.877201  0.754402  0.631602  1
  Fe  Fe22  1  0.025857  0.350571  0.675285  1
  Fe  Fe23  1  0.324714  0.350571  0.675285  1
  Fe  Fe24  1  0.324714  0.649429  0.675285  1
  Fe  Fe25  1  0.122799  0.245597  0.877201  1
  Fe  Fe26  1  0.122799  0.754402  0.877201  1
  Fe  Fe27  1  0.631602  0.754402  0.877201  1
  Fe  Fe28  1  0.324714  0.649429  0.974143  1
