# generated using pymatgen
data_Hf4Sc2SiAs5Ru6
_symmetry_space_group_name_H-M   'P 1'
_cell_length_a   7.67696321
_cell_length_b   7.67228270
_cell_length_c   7.67696391
_cell_angle_alpha   127.77404771
_cell_angle_beta   121.24452345
_cell_angle_gamma   82.47568388
_symmetry_Int_Tables_number   1
_chemical_formula_structural   Hf4Sc2SiAs5Ru6
_chemical_formula_sum   'Hf4 Sc2 Si1 As5 Ru6'
_cell_volume   293.67009017
_cell_formula_units_Z   1
loop_
 _symmetry_equiv_pos_site_id
 _symmetry_equiv_pos_as_xyz
  1  'x, y, z'
loop_
 _atom_site_type_symbol
 _atom_site_label
 _atom_site_symmetry_multiplicity
 _atom_site_fract_x
 _atom_site_fract_y
 _atom_site_fract_z
 _atom_site_occupancy
  Hf  Hf0  1  0.750436  0.836284  0.585848  1
  Hf  Hf1  1  0.250202  0.837928  0.087725  1
  Hf  Hf2  1  0.053841  0.257516  0.703675  1
  Hf  Hf3  1  0.946396  0.651456  0.205061  1
  Sc  Sc4  1  0.468698  0.694966  0.726267  1
  Sc  Sc5  1  0.529023  0.258751  0.229728  1
  Si  Si6  1  0.277778  0.268691  0.490914  1
  As  As7  1  0.723323  0.224799  0.001476  1
  As  As8  1  0.330248  0.586326  0.251232  1
  As  As9  1  0.669550  0.921703  0.257083  1
  As  As10  1  0.164620  0.921703  0.752154  1
  As  As11  1  0.835095  0.586326  0.756078  1
  Ru  Ru12  1  0.486742  0.494639  0.980654  1
  Ru  Ru13  1  0.013985  0.494639  0.507897  1
  Ru  Ru14  1  0.094122  0.252309  0.103860  1
  Ru  Ru15  1  0.914545  0.009626  0.166678  1
  Ru  Ru16  1  0.342949  0.009626  0.595082  1
  Ru  Ru17  1  0.648449  0.252309  0.658187  1
