# generated using pymatgen
data_Nd5OsRh
_symmetry_space_group_name_H-M   'P 1'
_cell_length_a   9.00120824
_cell_length_b   9.00120755
_cell_length_c   7.36574650
_cell_angle_alpha   83.58979378
_cell_angle_beta   83.58979453
_cell_angle_gamma   43.19268087
_symmetry_Int_Tables_number   1
_chemical_formula_structural   Nd5OsRh
_chemical_formula_sum   'Nd10 Os2 Rh2'
_cell_volume   405.51691506
_cell_formula_units_Z   2
loop_
 _symmetry_equiv_pos_site_id
 _symmetry_equiv_pos_as_xyz
  1  'x, y, z'
loop_
 _atom_site_type_symbol
 _atom_site_label
 _atom_site_symmetry_multiplicity
 _atom_site_fract_x
 _atom_site_fract_y
 _atom_site_fract_z
 _atom_site_occupancy
  Nd  Nd0  1  0.013031  0.799259  0.918461  1
  Nd  Nd1  1  0.200741  0.986969  0.581539  1
  Nd  Nd2  1  0.980027  0.203023  0.085341  1
  Nd  Nd3  1  0.796977  0.019973  0.414659  1
  Nd  Nd4  1  0.358617  0.210592  0.815631  1
  Nd  Nd5  1  0.789408  0.641383  0.684369  1
  Nd  Nd6  1  0.647731  0.788838  0.186138  1
  Nd  Nd7  1  0.211162  0.352269  0.313862  1
  Nd  Nd8  1  0.569294  0.430706  0.750000  1
  Nd  Nd9  1  0.429184  0.570816  0.250000  1
  Os  Os10  1  0.820718  0.400761  0.427368  1
  Os  Os11  1  0.599239  0.179282  0.072632  1
  Rh  Rh12  1  0.179335  0.595462  0.574718  1
  Rh  Rh13  1  0.404538  0.820665  0.925282  1
