# generated using pymatgen
data_Hf6IrBr15
_symmetry_space_group_name_H-M   'P 1'
_cell_length_a   9.43987991
_cell_length_b   9.43988027
_cell_length_c   9.43988000
_cell_angle_alpha   109.47122220
_cell_angle_beta   109.47122298
_cell_angle_gamma   109.47121752
_symmetry_Int_Tables_number   1
_chemical_formula_structural   Hf6IrBr15
_chemical_formula_sum   'Hf6 Ir1 Br15'
_cell_volume   647.55630137
_cell_formula_units_Z   1
loop_
 _symmetry_equiv_pos_site_id
 _symmetry_equiv_pos_as_xyz
  1  'x, y, z'
loop_
 _atom_site_type_symbol
 _atom_site_label
 _atom_site_symmetry_multiplicity
 _atom_site_fract_x
 _atom_site_fract_y
 _atom_site_fract_z
 _atom_site_occupancy
  Hf  Hf0  1  0.000000  0.235270  0.235270  1
  Hf  Hf1  1  0.000000  0.764730  0.764730  1
  Hf  Hf2  1  0.235270  0.000000  0.235270  1
  Hf  Hf3  1  0.764730  0.000000  0.764730  1
  Hf  Hf4  1  0.235270  0.235270  0.000000  1
  Hf  Hf5  1  0.764730  0.764730  0.000000  1
  Ir  Ir6  1  0.000000  0.000000  0.000000  1
  Br  Br7  1  0.494219  0.247110  0.247110  1
  Br  Br8  1  0.505781  0.752890  0.752890  1
  Br  Br9  1  0.000000  0.247110  0.752890  1
  Br  Br10  1  0.000000  0.752890  0.247110  1
  Br  Br11  1  0.247110  0.494219  0.247110  1
  Br  Br12  1  0.752890  0.000000  0.247110  1
  Br  Br13  1  0.752890  0.505781  0.752890  1
  Br  Br14  1  0.247110  0.000000  0.752890  1
  Br  Br15  1  0.247110  0.247110  0.494219  1
  Br  Br16  1  0.752890  0.752890  0.505781  1
  Br  Br17  1  0.752890  0.247110  0.000000  1
  Br  Br18  1  0.247110  0.752890  0.000000  1
  Br  Br19  1  0.000000  0.500000  0.500000  1
  Br  Br20  1  0.500000  0.000000  0.500000  1
  Br  Br21  1  0.500000  0.500000  0.000000  1
