# generated using pymatgen
data_Na(ThTe2)6
_symmetry_space_group_name_H-M   'P 1'
_cell_length_a   12.60716102
_cell_length_b   12.73514262
_cell_length_c   4.37012600
_cell_angle_alpha   90.00000000
_cell_angle_beta   90.00000000
_cell_angle_gamma   119.69200780
_symmetry_Int_Tables_number   1
_chemical_formula_structural   Na(ThTe2)6
_chemical_formula_sum   'Na1 Th6 Te12'
_cell_volume   609.51612796
_cell_formula_units_Z   1
loop_
 _symmetry_equiv_pos_site_id
 _symmetry_equiv_pos_as_xyz
  1  'x, y, z'
loop_
 _atom_site_type_symbol
 _atom_site_label
 _atom_site_symmetry_multiplicity
 _atom_site_fract_x
 _atom_site_fract_y
 _atom_site_fract_z
 _atom_site_occupancy
  Na  Na0  1  0.720164  0.157124  0.000000  1
  Th  Th1  1  0.851999  0.569245  0.000000  1
  Th  Th2  1  0.429997  0.268852  0.000000  1
  Th  Th3  1  0.555323  0.713489  0.500000  1
  Th  Th4  1  0.292340  0.847184  0.500000  1
  Th  Th5  1  0.156322  0.444196  0.500000  1
  Th  Th6  1  0.989088  0.999020  0.000000  1
  Te  Te7  1  0.743687  0.743687  0.000000  1
  Te  Te8  1  0.237971  0.990037  0.000000  1
  Te  Te9  1  0.003648  0.257076  0.000000  1
  Te  Te10  1  0.489712  0.860459  0.000000  1
  Te  Te11  1  0.142344  0.630834  0.000000  1
  Te  Te12  1  0.376022  0.508462  0.000000  1
  Te  Te13  1  0.873555  0.405718  0.500000  1
  Te  Te14  1  0.213883  0.212648  0.500000  1
  Te  Te15  1  0.996942  0.784641  0.500000  1
  Te  Te16  1  0.802453  0.994979  0.500000  1
  Te  Te17  1  0.513039  0.138234  0.500000  1
  Te  Te18  1  0.611512  0.474112  0.500000  1
