# generated using pymatgen
data_PrTa8VSe16
_symmetry_space_group_name_H-M   'P 1'
_cell_length_a   7.00366700
_cell_length_b   7.00366728
_cell_length_c   13.71369500
_cell_angle_alpha   90.00000000
_cell_angle_beta   90.00000000
_cell_angle_gamma   120.00001284
_symmetry_Int_Tables_number   1
_chemical_formula_structural   PrTa8VSe16
_chemical_formula_sum   'Pr1 Ta8 V1 Se16'
_cell_volume   582.55382296
_cell_formula_units_Z   1
loop_
 _symmetry_equiv_pos_site_id
 _symmetry_equiv_pos_as_xyz
  1  'x, y, z'
loop_
 _atom_site_type_symbol
 _atom_site_label
 _atom_site_symmetry_multiplicity
 _atom_site_fract_x
 _atom_site_fract_y
 _atom_site_fract_z
 _atom_site_occupancy
  Pr  Pr0  1  0.000000  0.000000  0.000000  1
  Ta  Ta1  1  0.508064  0.491935  0.730676  1
  Ta  Ta2  1  0.016132  0.508066  0.269324  1
  Ta  Ta3  1  0.491935  0.983869  0.269324  1
  Ta  Ta4  1  0.508065  0.016131  0.730676  1
  Ta  Ta5  1  0.983868  0.491934  0.730676  1
  Ta  Ta6  1  0.491936  0.508065  0.269324  1
  Ta  Ta7  1  0.000000  0.000000  0.733315  1
  Ta  Ta8  1  0.000000  0.000000  0.266685  1
  V  V9  1  0.000000  0.000000  0.500000  1
  Se  Se10  1  0.832723  0.167278  0.387779  1
  Se  Se11  1  0.832722  0.665445  0.387779  1
  Se  Se12  1  0.334556  0.167278  0.387779  1
  Se  Se13  1  0.655963  0.827982  0.851447  1
  Se  Se14  1  0.167278  0.334555  0.612221  1
  Se  Se15  1  0.172018  0.827981  0.851447  1
  Se  Se16  1  0.172018  0.344037  0.851447  1
  Se  Se17  1  0.827982  0.172019  0.148553  1
  Se  Se18  1  0.344037  0.172018  0.148553  1
  Se  Se19  1  0.665444  0.832722  0.612221  1
  Se  Se20  1  0.333334  0.666667  0.141775  1
  Se  Se21  1  0.666665  0.333333  0.605063  1
  Se  Se22  1  0.666666  0.333333  0.858225  1
  Se  Se23  1  0.333335  0.666667  0.394937  1
  Se  Se24  1  0.827982  0.655963  0.148553  1
  Se  Se25  1  0.167277  0.832722  0.612221  1
