# generated using pymatgen
data_Y8Ho2Ir3Os
_symmetry_space_group_name_H-M   'P 1'
_cell_length_a   6.50106426
_cell_length_b   7.26904548
_cell_length_c   8.48455543
_cell_angle_alpha   96.52970481
_cell_angle_beta   112.28996124
_cell_angle_gamma   89.97702332
_symmetry_Int_Tables_number   1
_chemical_formula_structural   Y8Ho2Ir3Os
_chemical_formula_sum   'Y8 Ho2 Ir3 Os1'
_cell_volume   368.18507180
_cell_formula_units_Z   1
loop_
 _symmetry_equiv_pos_site_id
 _symmetry_equiv_pos_as_xyz
  1  'x, y, z'
loop_
 _atom_site_type_symbol
 _atom_site_label
 _atom_site_symmetry_multiplicity
 _atom_site_fract_x
 _atom_site_fract_y
 _atom_site_fract_z
 _atom_site_occupancy
  Y  Y0  1  0.971316  0.916180  0.183127  1
  Y  Y1  1  0.790223  0.582740  0.821590  1
  Y  Y2  1  0.028764  0.083027  0.818217  1
  Y  Y3  1  0.210474  0.417845  0.183098  1
  Y  Y4  1  0.656018  0.817093  0.439576  1
  Y  Y5  1  0.211076  0.681648  0.557695  1
  Y  Y6  1  0.346125  0.181856  0.559711  1
  Y  Y7  1  0.786183  0.318986  0.439255  1
  Ho  Ho8  1  0.427612  0.749697  0.000395  1
  Ho  Ho9  1  0.574202  0.251322  0.000516  1
  Ir  Ir10  1  0.605667  0.927444  0.780867  1
  Ir  Ir11  1  0.175084  0.425943  0.781772  1
  Ir  Ir12  1  0.393345  0.073160  0.218503  1
  Os  Os13  1  0.823911  0.573060  0.215679  1
