# generated using pymatgen
data_Y7Ho9Cd4OsPd3
_symmetry_space_group_name_H-M   'P 1'
_cell_length_a   9.69886309
_cell_length_b   9.69886175
_cell_length_c   9.69768492
_cell_angle_alpha   59.48192114
_cell_angle_beta   59.48192373
_cell_angle_gamma   59.55115787
_symmetry_Int_Tables_number   1
_chemical_formula_structural   Y7Ho9Cd4OsPd3
_chemical_formula_sum   'Y7 Ho9 Cd4 Os1 Pd3'
_cell_volume   637.78976520
_cell_formula_units_Z   1
loop_
 _symmetry_equiv_pos_site_id
 _symmetry_equiv_pos_as_xyz
  1  'x, y, z'
loop_
 _atom_site_type_symbol
 _atom_site_label
 _atom_site_symmetry_multiplicity
 _atom_site_fract_x
 _atom_site_fract_y
 _atom_site_fract_z
 _atom_site_occupancy
  Y  Y0  1  0.810436  0.810436  0.188067  1
  Y  Y1  1  0.935183  0.565359  0.565971  1
  Y  Y2  1  0.557930  0.937717  0.937410  1
  Y  Y3  1  0.565359  0.935183  0.565971  1
  Y  Y4  1  0.937717  0.557930  0.937410  1
  Y  Y5  1  0.565518  0.565518  0.935217  1
  Y  Y6  1  0.937596  0.937596  0.558190  1
  Ho  Ho7  1  0.353153  0.353153  0.353331  1
  Ho  Ho8  1  0.350149  0.350149  0.945470  1
  Ho  Ho9  1  0.349804  0.945788  0.350219  1
  Ho  Ho10  1  0.945788  0.349804  0.350219  1
  Ho  Ho11  1  0.816456  0.188375  0.188177  1
  Ho  Ho12  1  0.188213  0.810560  0.810540  1
  Ho  Ho13  1  0.188375  0.816456  0.188177  1
  Ho  Ho14  1  0.810560  0.188213  0.810540  1
  Ho  Ho15  1  0.188225  0.188225  0.816514  1
  Cd  Cd16  1  0.580389  0.580389  0.580348  1
  Cd  Cd17  1  0.581113  0.581113  0.254277  1
  Cd  Cd18  1  0.581088  0.254311  0.581080  1
  Cd  Cd19  1  0.254311  0.581088  0.581080  1
  Os  Os20  1  0.143866  0.143866  0.143986  1
  Pd  Pd21  1  0.144459  0.144459  0.569316  1
  Pd  Pd22  1  0.146212  0.568100  0.144244  1
  Pd  Pd23  1  0.568100  0.146212  0.144244  1
