# generated using pymatgen
data_CaTc4Hg9O20
_symmetry_space_group_name_H-M   'P 1'
_cell_length_a   11.56255258
_cell_length_b   6.75709373
_cell_length_c   8.16229700
_cell_angle_alpha   80.14258766
_cell_angle_beta   92.75845539
_cell_angle_gamma   88.55890077
_symmetry_Int_Tables_number   1
_chemical_formula_structural   CaTc4Hg9O20
_chemical_formula_sum   'Ca1 Tc4 Hg9 O20'
_cell_volume   627.21016889
_cell_formula_units_Z   1
loop_
 _symmetry_equiv_pos_site_id
 _symmetry_equiv_pos_as_xyz
  1  'x, y, z'
loop_
 _atom_site_type_symbol
 _atom_site_label
 _atom_site_symmetry_multiplicity
 _atom_site_fract_x
 _atom_site_fract_y
 _atom_site_fract_z
 _atom_site_occupancy
  Ca  Ca0  1  0.500000  0.500000  0.000000  1
  Tc  Tc1  1  0.346266  0.596590  0.521540  1
  Tc  Tc2  1  0.832481  0.393826  0.012107  1
  Tc  Tc3  1  0.653734  0.403410  0.478460  1
  Tc  Tc4  1  0.167519  0.606174  0.987893  1
  Hg  Hg5  1  0.090289  0.980285  0.316125  1
  Hg  Hg6  1  0.719809  0.896094  0.816070  1
  Hg  Hg7  1  0.582977  0.000558  0.188146  1
  Hg  Hg8  1  0.784065  0.876070  0.323188  1
  Hg  Hg9  1  0.280191  0.103906  0.183930  1
  Hg  Hg10  1  0.909711  0.019715  0.683875  1
  Hg  Hg11  1  0.215935  0.123930  0.676812  1
  Hg  Hg12  1  0.417023  0.999442  0.811854  1
  Hg  Hg13  1  0.000000  0.500000  0.500000  1
  O  O14  1  0.158804  0.392950  0.896481  1
  O  O15  1  0.563838  0.821993  0.930170  1
  O  O16  1  0.793327  0.318950  0.446923  1
  O  O17  1  0.336088  0.388524  0.423765  1
  O  O18  1  0.577774  0.470482  0.284710  1
  O  O19  1  0.954010  0.802564  0.446438  1
  O  O20  1  0.663912  0.611476  0.576235  1
  O  O21  1  0.586274  0.211237  0.604340  1
  O  O22  1  0.045990  0.197436  0.553562  1
  O  O23  1  0.896202  0.437692  0.822042  1
  O  O24  1  0.685551  0.340514  0.978755  1
  O  O25  1  0.436162  0.178007  0.069830  1
  O  O26  1  0.413726  0.788763  0.395660  1
  O  O27  1  0.103798  0.562308  0.177958  1
  O  O28  1  0.314449  0.659486  0.021245  1
  O  O29  1  0.422226  0.529518  0.715290  1
  O  O30  1  0.841196  0.607050  0.103519  1
  O  O31  1  0.097636  0.812015  0.860447  1
  O  O32  1  0.206673  0.681050  0.553077  1
  O  O33  1  0.902364  0.187985  0.139553  1
