# generated using pymatgen
data_Tm2TiCr2O8
_symmetry_space_group_name_H-M   'P 1'
_cell_length_a   6.24643736
_cell_length_b   6.24643672
_cell_length_c   5.10357813
_cell_angle_alpha   71.60976707
_cell_angle_beta   71.60976833
_cell_angle_gamma   57.95834208
_symmetry_Int_Tables_number   1
_chemical_formula_structural   Tm2TiCr2O8
_chemical_formula_sum   'Tm2 Ti1 Cr2 O8'
_cell_volume   157.43695573
_cell_formula_units_Z   1
loop_
 _symmetry_equiv_pos_site_id
 _symmetry_equiv_pos_as_xyz
  1  'x, y, z'
loop_
 _atom_site_type_symbol
 _atom_site_label
 _atom_site_symmetry_multiplicity
 _atom_site_fract_x
 _atom_site_fract_y
 _atom_site_fract_z
 _atom_site_occupancy
  Tm  Tm0  1  0.727870  0.725196  0.337161  1
  Tm  Tm1  1  0.274804  0.272130  0.662839  1
  Ti  Ti2  1  0.724628  0.275372  0.000000  1
  Cr  Cr3  1  0.002963  0.997037  0.500000  1
  Cr  Cr4  1  0.251011  0.748989  0.000000  1
  O  O5  1  0.402123  0.385532  0.930864  1
  O  O6  1  0.614468  0.597877  0.069136  1
  O  O7  1  0.895564  0.896745  0.918453  1
  O  O8  1  0.103255  0.104436  0.081547  1
  O  O9  1  0.341907  0.892281  0.593425  1
  O  O10  1  0.891360  0.337672  0.601443  1
  O  O11  1  0.107719  0.658093  0.406575  1
  O  O12  1  0.662328  0.108640  0.398557  1
