# generated using pymatgen
data_Tb3Co2Sn3Au
_symmetry_space_group_name_H-M   'P 1'
_cell_length_a   7.61923000
_cell_length_b   7.61922750
_cell_length_c   3.76079000
_cell_angle_alpha   90.00000000
_cell_angle_beta   90.00000000
_cell_angle_gamma   119.99999351
_symmetry_Int_Tables_number   1
_chemical_formula_structural   Tb3Co2Sn3Au
_chemical_formula_sum   'Tb3 Co2 Sn3 Au1'
_cell_volume   189.07398087
_cell_formula_units_Z   1
loop_
 _symmetry_equiv_pos_site_id
 _symmetry_equiv_pos_as_xyz
  1  'x, y, z'
loop_
 _atom_site_type_symbol
 _atom_site_label
 _atom_site_symmetry_multiplicity
 _atom_site_fract_x
 _atom_site_fract_y
 _atom_site_fract_z
 _atom_site_occupancy
  Tb  Tb0  1  0.413472  0.019809  0.500000  1
  Tb  Tb1  1  0.980191  0.393663  0.500000  1
  Tb  Tb2  1  0.606337  0.586528  0.500000  1
  Co  Co3  1  0.666667  0.333333  0.000000  1
  Co  Co4  1  0.000000  0.000000  0.500000  1
  Sn  Sn5  1  0.750686  0.005734  0.000000  1
  Sn  Sn6  1  0.994266  0.744952  0.000000  1
  Sn  Sn7  1  0.255048  0.249314  0.000000  1
  Au  Au8  1  0.333333  0.666667  0.000000  1
