# generated using pymatgen
data_Mg3Zn4MoRh8
_symmetry_space_group_name_H-M   'P 1'
_cell_length_a   6.12730800
_cell_length_b   6.10741401
_cell_length_c   6.23749900
_cell_angle_alpha   89.99916506
_cell_angle_beta   90.00059846
_cell_angle_gamma   90.00303018
_symmetry_Int_Tables_number   1
_chemical_formula_structural   Mg3Zn4MoRh8
_chemical_formula_sum   'Mg3 Zn4 Mo1 Rh8'
_cell_volume   233.41972913
_cell_formula_units_Z   1
loop_
 _symmetry_equiv_pos_site_id
 _symmetry_equiv_pos_as_xyz
  1  'x, y, z'
loop_
 _atom_site_type_symbol
 _atom_site_label
 _atom_site_symmetry_multiplicity
 _atom_site_fract_x
 _atom_site_fract_y
 _atom_site_fract_z
 _atom_site_occupancy
  Mg  Mg0  1  0.749998  0.249993  0.999898  1
  Mg  Mg1  1  0.249936  0.750069  0.999893  1
  Mg  Mg2  1  0.750026  0.249975  0.500000  1
  Zn  Zn3  1  0.250006  0.250033  0.999970  1
  Zn  Zn4  1  0.750010  0.750031  0.999943  1
  Zn  Zn5  1  0.749954  0.750008  0.500063  1
  Zn  Zn6  1  0.250026  0.250110  0.500024  1
  Mo  Mo7  1  0.250215  0.749742  0.500241  1
  Rh  Rh8  1  0.495252  0.995233  0.253731  1
  Rh  Rh9  1  0.004664  0.995283  0.253608  1
  Rh  Rh10  1  0.495231  0.504769  0.253876  1
  Rh  Rh11  1  0.004730  0.504776  0.253821  1
  Rh  Rh12  1  0.495126  0.995117  0.746267  1
  Rh  Rh13  1  0.004829  0.995107  0.746361  1
  Rh  Rh14  1  0.495161  0.504850  0.746128  1
  Rh  Rh15  1  0.004838  0.504902  0.746174  1
