# generated using pymatgen
data_Ac3Nd7C4I15
_symmetry_space_group_name_H-M   'P 1'
_cell_length_a   9.98905324
_cell_length_b   10.81118562
_cell_length_c   11.97104752
_cell_angle_alpha   93.51981435
_cell_angle_beta   114.60285269
_cell_angle_gamma   109.36375592
_symmetry_Int_Tables_number   1
_chemical_formula_structural   Ac3Nd7C4I15
_chemical_formula_sum   'Ac3 Nd7 C4 I15'
_cell_volume   1078.55019658
_cell_formula_units_Z   1
loop_
 _symmetry_equiv_pos_site_id
 _symmetry_equiv_pos_as_xyz
  1  'x, y, z'
loop_
 _atom_site_type_symbol
 _atom_site_label
 _atom_site_symmetry_multiplicity
 _atom_site_fract_x
 _atom_site_fract_y
 _atom_site_fract_z
 _atom_site_occupancy
  Ac  Ac0  1  0.712950  0.572200  0.047718  1
  Ac  Ac1  1  0.286325  0.430299  0.954137  1
  Ac  Ac2  1  0.664251  0.247660  0.830653  1
  Nd  Nd3  1  0.596298  0.545658  0.340362  1
  Nd  Nd4  1  0.351211  0.750990  0.167999  1
  Nd  Nd5  1  0.775393  0.884725  0.259633  1
  Nd  Nd6  1  0.525266  0.184149  0.098254  1
  Nd  Nd7  1  0.226347  0.114518  0.743102  1
  Nd  Nd8  1  0.399970  0.454898  0.659257  1
  Nd  Nd9  1  0.471713  0.816183  0.901570  1
  C  C10  1  0.480959  0.295766  0.934335  1
  C  C11  1  0.518936  0.704457  0.065095  1
  C  C12  1  0.451158  0.357549  0.831669  1
  C  C13  1  0.547435  0.641810  0.167182  1
  I  I14  1  0.211308  0.907077  0.938956  1
  I  I15  1  0.107424  0.188853  0.473666  1
  I  I16  1  0.158370  0.562703  0.699236  1
  I  I17  1  0.392349  0.959036  0.644902  1
  I  I18  1  0.700943  0.735694  0.813624  1
  I  I19  1  0.296422  0.264366  0.185920  1
  I  I20  1  0.839251  0.437117  0.300755  1
  I  I21  1  0.892550  0.810434  0.528445  1
  I  I22  1  0.361589  0.629870  0.409322  1
  I  I23  1  0.056608  0.842945  0.226141  1
  I  I24  1  0.790222  0.089827  0.068117  1
  I  I25  1  0.635657  0.375544  0.582157  1
  I  I26  1  0.942813  0.155351  0.772921  1
  I  I27  1  0.596980  0.031244  0.349287  1
  I  I28  1  0.009303  0.509077  0.005584  1
