# generated using pymatgen
data_La10IrRu3
_symmetry_space_group_name_H-M   'P 1'
_cell_length_a   9.18541617
_cell_length_b   9.14423184
_cell_length_c   7.40263837
_cell_angle_alpha   85.15381274
_cell_angle_beta   85.07596692
_cell_angle_gamma   42.93368768
_symmetry_Int_Tables_number   1
_chemical_formula_structural   La10IrRu3
_chemical_formula_sum   'La10 Ir1 Ru3'
_cell_volume   421.74471252
_cell_formula_units_Z   1
loop_
 _symmetry_equiv_pos_site_id
 _symmetry_equiv_pos_as_xyz
  1  'x, y, z'
loop_
 _atom_site_type_symbol
 _atom_site_label
 _atom_site_symmetry_multiplicity
 _atom_site_fract_x
 _atom_site_fract_y
 _atom_site_fract_z
 _atom_site_occupancy
  La  La0  1  0.016267  0.799898  0.906647  1
  La  La1  1  0.196958  0.989014  0.593724  1
  La  La2  1  0.987770  0.197898  0.094094  1
  La  La3  1  0.807411  0.009104  0.412354  1
  La  La4  1  0.357232  0.211523  0.818651  1
  La  La5  1  0.786047  0.642333  0.679929  1
  La  La6  1  0.640405  0.786298  0.179004  1
  La  La7  1  0.210225  0.361793  0.320739  1
  La  La8  1  0.574936  0.426829  0.748826  1
  La  La9  1  0.427036  0.573056  0.249700  1
  Ir  Ir10  1  0.594885  0.179938  0.079015  1
  Ru  Ru11  1  0.176918  0.599519  0.580703  1
  Ru  Ru12  1  0.399053  0.824878  0.919825  1
  Ru  Ru13  1  0.824858  0.397920  0.416791  1
