# generated using pymatgen
data_SmP2Ru2Rh
_symmetry_space_group_name_H-M   'P 1'
_cell_length_a   3.99638000
_cell_length_b   11.29837100
_cell_length_c   12.64213200
_cell_angle_alpha   90.00000000
_cell_angle_beta   90.00000000
_cell_angle_gamma   90.00000000
_symmetry_Int_Tables_number   1
_chemical_formula_structural   SmP2Ru2Rh
_chemical_formula_sum   'Sm6 P12 Ru12 Rh6'
_cell_volume   570.82492577
_cell_formula_units_Z   6
loop_
 _symmetry_equiv_pos_site_id
 _symmetry_equiv_pos_as_xyz
  1  'x, y, z'
loop_
 _atom_site_type_symbol
 _atom_site_label
 _atom_site_symmetry_multiplicity
 _atom_site_fract_x
 _atom_site_fract_y
 _atom_site_fract_z
 _atom_site_occupancy
  Sm  Sm0  1  0.000000  0.500000  0.522175  1
  Sm  Sm1  1  0.500000  0.000000  0.477825  1
  Sm  Sm2  1  0.500000  0.820386  0.204271  1
  Sm  Sm3  1  0.500000  0.179614  0.204271  1
  Sm  Sm4  1  0.000000  0.679614  0.795729  1
  Sm  Sm5  1  0.000000  0.320386  0.795729  1
  P  P6  1  0.500000  0.500000  0.886718  1
  P  P7  1  0.000000  0.000000  0.113282  1
  P  P8  1  0.500000  0.500000  0.343456  1
  P  P9  1  0.000000  0.000000  0.656544  1
  P  P10  1  0.500000  0.304293  0.614064  1
  P  P11  1  0.500000  0.695707  0.614064  1
  P  P12  1  0.000000  0.195707  0.385936  1
  P  P13  1  0.000000  0.804293  0.385936  1
  P  P14  1  0.500000  0.843413  0.898392  1
  P  P15  1  0.500000  0.156587  0.898392  1
  P  P16  1  0.000000  0.656587  0.101608  1
  P  P17  1  0.000000  0.343413  0.101608  1
  Ru  Ru18  1  0.500000  0.500000  0.159600  1
  Ru  Ru19  1  0.000000  0.000000  0.840400  1
  Ru  Ru20  1  0.000000  0.500000  0.989558  1
  Ru  Ru21  1  0.500000  0.000000  0.010442  1
  Ru  Ru22  1  0.500000  0.332748  0.992945  1
  Ru  Ru23  1  0.500000  0.667252  0.992945  1
  Ru  Ru24  1  0.000000  0.167252  0.007055  1
  Ru  Ru25  1  0.000000  0.832748  0.007055  1
  Ru  Ru26  1  0.500000  0.298771  0.428167  1
  Ru  Ru27  1  0.500000  0.701229  0.428167  1
  Ru  Ru28  1  0.000000  0.201229  0.571833  1
  Ru  Ru29  1  0.000000  0.798771  0.571833  1
  Rh  Rh30  1  0.500000  0.500000  0.697823  1
  Rh  Rh31  1  0.000000  0.000000  0.302177  1
  Rh  Rh32  1  0.500000  0.875768  0.715700  1
  Rh  Rh33  1  0.500000  0.124232  0.715700  1
  Rh  Rh34  1  0.000000  0.624232  0.284300  1
  Rh  Rh35  1  0.000000  0.375768  0.284300  1
