# generated using pymatgen
data_Er3Al8ZnNi6
_symmetry_space_group_name_H-M   'P 1'
_cell_length_a   8.92523000
_cell_length_b   8.96028846
_cell_length_c   4.08323500
_cell_angle_alpha   90.00000000
_cell_angle_beta   90.00000000
_cell_angle_gamma   119.87066218
_symmetry_Int_Tables_number   1
_chemical_formula_structural   Er3Al8ZnNi6
_chemical_formula_sum   'Er3 Al8 Zn1 Ni6'
_cell_volume   283.16590088
_cell_formula_units_Z   1
loop_
 _symmetry_equiv_pos_site_id
 _symmetry_equiv_pos_as_xyz
  1  'x, y, z'
loop_
 _atom_site_type_symbol
 _atom_site_label
 _atom_site_symmetry_multiplicity
 _atom_site_fract_x
 _atom_site_fract_y
 _atom_site_fract_z
 _atom_site_occupancy
  Er  Er0  1  0.664673  0.330841  0.000000  1
  Er  Er1  1  0.333831  0.669159  0.000000  1
  Er  Er2  1  0.002915  0.000000  0.500000  1
  Al  Al3  1  0.496821  0.000000  0.500000  1
  Al  Al4  1  0.998499  0.498410  0.500000  1
  Al  Al5  1  0.500089  0.501590  0.500000  1
  Al  Al6  1  0.296927  0.295320  0.000000  1
  Al  Al7  1  0.001607  0.704680  0.000000  1
  Al  Al8  1  0.999955  0.297287  0.000000  1
  Al  Al9  1  0.702668  0.702713  0.000000  1
  Al  Al10  1  0.702275  0.000000  0.000000  1
  Zn  Zn11  1  0.297658  0.000000  0.000000  1
  Ni  Ni12  1  0.819239  0.637714  0.500000  1
  Ni  Ni13  1  0.636387  0.819205  0.500000  1
  Ni  Ni14  1  0.180328  0.812905  0.500000  1
  Ni  Ni15  1  0.181525  0.362286  0.500000  1
  Ni  Ni16  1  0.817181  0.180795  0.500000  1
  Ni  Ni17  1  0.367423  0.187095  0.500000  1
