# generated using pymatgen
data_Tm3Hf3(Si2Ru5)2
_symmetry_space_group_name_H-M   'P 1'
_cell_length_a   9.92988700
_cell_length_b   9.92988615
_cell_length_c   3.23811100
_cell_angle_alpha   90.00000000
_cell_angle_beta   90.00000000
_cell_angle_gamma   89.98996591
_symmetry_Int_Tables_number   1
_chemical_formula_structural   Tm3Hf3(Si2Ru5)2
_chemical_formula_sum   'Tm3 Hf3 Si4 Ru10'
_cell_volume   319.28631233
_cell_formula_units_Z   1
loop_
 _symmetry_equiv_pos_site_id
 _symmetry_equiv_pos_as_xyz
  1  'x, y, z'
loop_
 _atom_site_type_symbol
 _atom_site_label
 _atom_site_symmetry_multiplicity
 _atom_site_fract_x
 _atom_site_fract_y
 _atom_site_fract_z
 _atom_site_occupancy
  Tm  Tm0  1  0.172822  0.827178  0.000000  1
  Tm  Tm1  1  0.326475  0.326431  0.000000  1
  Tm  Tm2  1  0.673569  0.673525  0.000000  1
  Hf  Hf3  1  0.499039  0.000097  0.000000  1
  Hf  Hf4  1  0.999903  0.500961  0.000000  1
  Hf  Hf5  1  0.826360  0.173640  0.000000  1
  Si  Si6  1  0.627769  0.372231  0.000000  1
  Si  Si7  1  0.374077  0.625923  0.000000  1
  Si  Si8  1  0.125123  0.127068  0.000000  1
  Si  Si9  1  0.872932  0.874877  0.000000  1
  Ru  Ru10  1  0.501921  0.498079  0.500000  1
  Ru  Ru11  1  0.994221  0.005779  0.500000  1
  Ru  Ru12  1  0.578248  0.208149  0.500000  1
  Ru  Ru13  1  0.432782  0.788311  0.500000  1
  Ru  Ru14  1  0.060610  0.286899  0.500000  1
  Ru  Ru15  1  0.930071  0.712568  0.500000  1
  Ru  Ru16  1  0.287432  0.069929  0.500000  1
  Ru  Ru17  1  0.713101  0.939390  0.500000  1
  Ru  Ru18  1  0.211689  0.567218  0.500000  1
  Ru  Ru19  1  0.791851  0.421752  0.500000  1
