# generated using pymatgen
data_Tm3Cd5Ir
_symmetry_space_group_name_H-M   'P 1'
_cell_length_a   3.68989600
_cell_length_b   8.11938367
_cell_length_c   8.11938400
_cell_angle_alpha   119.99999321
_cell_angle_beta   90.00000000
_cell_angle_gamma   90.00000000
_symmetry_Int_Tables_number   1
_chemical_formula_structural   Tm3Cd5Ir
_chemical_formula_sum   'Tm3 Cd5 Ir1'
_cell_volume   210.66429406
_cell_formula_units_Z   1
loop_
 _symmetry_equiv_pos_site_id
 _symmetry_equiv_pos_as_xyz
  1  'x, y, z'
loop_
 _atom_site_type_symbol
 _atom_site_label
 _atom_site_symmetry_multiplicity
 _atom_site_fract_x
 _atom_site_fract_y
 _atom_site_fract_z
 _atom_site_occupancy
  Tm  Tm0  1  0.000000  0.426327  0.379310  1
  Tm  Tm1  1  0.000000  0.952982  0.573673  1
  Tm  Tm2  1  0.000000  0.620690  0.047018  1
  Cd  Cd3  1  0.500000  0.718934  0.726300  1
  Cd  Cd4  1  0.500000  0.007366  0.281066  1
  Cd  Cd5  1  0.500000  0.273700  0.992634  1
  Cd  Cd6  1  0.500000  0.333333  0.666667  1
  Cd  Cd7  1  0.000000  0.000000  0.000000  1
  Ir  Ir8  1  0.500000  0.666667  0.333333  1
