# generated using pymatgen
data_Dy2ErBi(Rh2O7)2
_symmetry_space_group_name_H-M   'P 1'
_cell_length_a   7.21530664
_cell_length_b   7.22594405
_cell_length_c   7.26467914
_cell_angle_alpha   60.17622305
_cell_angle_beta   60.14684374
_cell_angle_gamma   59.95121509
_symmetry_Int_Tables_number   1
_chemical_formula_structural   Dy2ErBi(Rh2O7)2
_chemical_formula_sum   'Dy2 Er1 Bi1 Rh4 O14'
_cell_volume   268.37723643
_cell_formula_units_Z   1
loop_
 _symmetry_equiv_pos_site_id
 _symmetry_equiv_pos_as_xyz
  1  'x, y, z'
loop_
 _atom_site_type_symbol
 _atom_site_label
 _atom_site_symmetry_multiplicity
 _atom_site_fract_x
 _atom_site_fract_y
 _atom_site_fract_z
 _atom_site_occupancy
  Dy  Dy0  1  0.125000  0.125000  0.125000  1
  Dy  Dy1  1  0.125000  0.625000  0.125000  1
  Er  Er2  1  0.625000  0.125000  0.125000  1
  Bi  Bi3  1  0.125000  0.125000  0.625000  1
  Rh  Rh4  1  0.625000  0.625000  0.625000  1
  Rh  Rh5  1  0.625000  0.625000  0.125000  1
  Rh  Rh6  1  0.125000  0.625000  0.625000  1
  Rh  Rh7  1  0.625000  0.125000  0.625000  1
  O  O8  1  0.254887  0.250636  0.243841  1
  O  O9  1  0.287294  0.712528  0.287650  1
  O  O10  1  0.961812  0.961845  0.534895  1
  O  O11  1  0.541811  0.962277  0.533636  1
  O  O12  1  0.712011  0.713753  0.287324  1
  O  O13  1  0.961812  0.541449  0.534895  1
  O  O14  1  0.708189  0.287723  0.716364  1
  O  O15  1  0.288188  0.288155  0.715105  1
  O  O16  1  0.712011  0.286912  0.287324  1
  O  O17  1  0.288188  0.708551  0.715105  1
  O  O18  1  0.962706  0.537472  0.962350  1
  O  O19  1  0.537989  0.536247  0.962676  1
  O  O20  1  0.995113  0.999364  0.006159  1
  O  O21  1  0.537989  0.963088  0.962676  1
