# generated using pymatgen
data_BaSr7TaTi7O24
_symmetry_space_group_name_H-M   'P 1'
_cell_length_a   7.94494537
_cell_length_b   7.94494500
_cell_length_c   7.94494673
_cell_angle_alpha   89.98189866
_cell_angle_beta   89.98190083
_cell_angle_gamma   89.98189887
_symmetry_Int_Tables_number   1
_chemical_formula_structural   BaSr7TaTi7O24
_chemical_formula_sum   'Ba1 Sr7 Ta1 Ti7 O24'
_cell_volume   501.50207567
_cell_formula_units_Z   1
loop_
 _symmetry_equiv_pos_site_id
 _symmetry_equiv_pos_as_xyz
  1  'x, y, z'
loop_
 _atom_site_type_symbol
 _atom_site_label
 _atom_site_symmetry_multiplicity
 _atom_site_fract_x
 _atom_site_fract_y
 _atom_site_fract_z
 _atom_site_occupancy
  Ba  Ba0  1  0.253261  0.253261  0.253261  1
  Sr  Sr1  1  0.255128  0.255128  0.745163  1
  Sr  Sr2  1  0.745361  0.254713  0.745361  1
  Sr  Sr3  1  0.745163  0.255128  0.255128  1
  Sr  Sr4  1  0.254713  0.745361  0.745361  1
  Sr  Sr5  1  0.745451  0.745451  0.745451  1
  Sr  Sr6  1  0.255128  0.745163  0.255128  1
  Sr  Sr7  1  0.745361  0.745361  0.254713  1
  Ta  Ta8  1  0.999030  0.999030  0.999030  1
  Ti  Ti9  1  0.501222  0.998616  0.998616  1
  Ti  Ti10  1  0.998616  0.998616  0.501222  1
  Ti  Ti11  1  0.501635  0.998496  0.501635  1
  Ti  Ti12  1  0.998616  0.501222  0.998616  1
  Ti  Ti13  1  0.501635  0.501635  0.998496  1
  Ti  Ti14  1  0.998496  0.501635  0.501635  1
  Ti  Ti15  1  0.501364  0.501364  0.501364  1
  O  O16  1  0.997043  0.249887  0.997043  1
  O  O17  1  0.503159  0.249571  0.996713  1
  O  O18  1  0.996713  0.249571  0.503159  1
  O  O19  1  0.503547  0.250481  0.503547  1
  O  O20  1  0.998642  0.749458  0.998642  1
  O  O21  1  0.501099  0.750415  0.998687  1
  O  O22  1  0.998687  0.750415  0.501099  1
  O  O23  1  0.501276  0.749689  0.501276  1
  O  O24  1  0.998642  0.998642  0.749458  1
  O  O25  1  0.501099  0.998687  0.750415  1
  O  O26  1  0.997043  0.997043  0.249887  1
  O  O27  1  0.503159  0.996713  0.249571  1
  O  O28  1  0.998687  0.501099  0.750415  1
  O  O29  1  0.501276  0.501276  0.749689  1
  O  O30  1  0.996713  0.503159  0.249571  1
  O  O31  1  0.503547  0.503547  0.250481  1
  O  O32  1  0.249887  0.997043  0.997043  1
  O  O33  1  0.749458  0.998642  0.998642  1
  O  O34  1  0.249571  0.996713  0.503159  1
  O  O35  1  0.750415  0.998687  0.501099  1
  O  O36  1  0.249571  0.503159  0.996713  1
  O  O37  1  0.750415  0.501099  0.998687  1
  O  O38  1  0.250481  0.503547  0.503547  1
  O  O39  1  0.749689  0.501276  0.501276  1
