# generated using pymatgen
data_Tb2Sm2LuPb4
_symmetry_space_group_name_H-M   'P 1'
_cell_length_a   8.22038900
_cell_length_b   8.35223600
_cell_length_c   15.77423800
_cell_angle_alpha   90.00000000
_cell_angle_beta   90.00000000
_cell_angle_gamma   90.00000000
_symmetry_Int_Tables_number   1
_chemical_formula_structural   Tb2Sm2LuPb4
_chemical_formula_sum   'Tb8 Sm8 Lu4 Pb16'
_cell_volume   1083.03755365
_cell_formula_units_Z   4
loop_
 _symmetry_equiv_pos_site_id
 _symmetry_equiv_pos_as_xyz
  1  'x, y, z'
loop_
 _atom_site_type_symbol
 _atom_site_label
 _atom_site_symmetry_multiplicity
 _atom_site_fract_x
 _atom_site_fract_y
 _atom_site_fract_z
 _atom_site_occupancy
  Tb  Tb0  1  0.628885  0.157856  0.621510  1
  Tb  Tb1  1  0.128885  0.342144  0.878490  1
  Tb  Tb2  1  0.371115  0.842144  0.121510  1
  Tb  Tb3  1  0.871115  0.657856  0.378490  1
  Tb  Tb4  1  0.371115  0.842144  0.378490  1
  Tb  Tb5  1  0.871115  0.657856  0.121510  1
  Tb  Tb6  1  0.628885  0.157856  0.878490  1
  Tb  Tb7  1  0.128885  0.342144  0.621510  1
  Sm  Sm8  1  0.471681  0.677561  0.597880  1
  Sm  Sm9  1  0.971681  0.822439  0.902120  1
  Sm  Sm10  1  0.528319  0.322439  0.097880  1
  Sm  Sm11  1  0.028319  0.177561  0.402120  1
  Sm  Sm12  1  0.528319  0.322439  0.402120  1
  Sm  Sm13  1  0.028319  0.177561  0.097880  1
  Sm  Sm14  1  0.471681  0.677561  0.902120  1
  Sm  Sm15  1  0.971681  0.822439  0.597880  1
  Lu  Lu16  1  0.795346  0.494996  0.750000  1
  Lu  Lu17  1  0.295346  0.005004  0.750000  1
  Lu  Lu18  1  0.204654  0.505004  0.250000  1
  Lu  Lu19  1  0.704654  0.994996  0.250000  1
  Pb  Pb20  1  0.712219  0.963410  0.455804  1
  Pb  Pb21  1  0.212219  0.536590  0.044196  1
  Pb  Pb22  1  0.287781  0.036590  0.955804  1
  Pb  Pb23  1  0.787781  0.463410  0.544196  1
  Pb  Pb24  1  0.287781  0.036590  0.544196  1
  Pb  Pb25  1  0.787781  0.463410  0.955804  1
  Pb  Pb26  1  0.712219  0.963410  0.044196  1
  Pb  Pb27  1  0.212219  0.536590  0.455804  1
  Pb  Pb28  1  0.433574  0.374296  0.750000  1
  Pb  Pb29  1  0.933574  0.125704  0.750000  1
  Pb  Pb30  1  0.566426  0.625704  0.250000  1
  Pb  Pb31  1  0.066426  0.874296  0.250000  1
  Pb  Pb32  1  0.659412  0.845655  0.750000  1
  Pb  Pb33  1  0.159412  0.654345  0.750000  1
  Pb  Pb34  1  0.340588  0.154345  0.250000  1
  Pb  Pb35  1  0.840588  0.345655  0.250000  1
