# generated using pymatgen
data_Yb6CdSi24Ru7
_symmetry_space_group_name_H-M   'P 1'
_cell_length_a   10.21386233
_cell_length_b   10.21386161
_cell_length_c   8.22400641
_cell_angle_alpha   90.02710233
_cell_angle_beta   90.02709709
_cell_angle_gamma   132.47546305
_symmetry_Int_Tables_number   1
_chemical_formula_structural   Yb6CdSi24Ru7
_chemical_formula_sum   'Yb6 Cd1 Si24 Ru7'
_cell_volume   632.79690564
_cell_formula_units_Z   1
loop_
 _symmetry_equiv_pos_site_id
 _symmetry_equiv_pos_as_xyz
  1  'x, y, z'
loop_
 _atom_site_type_symbol
 _atom_site_label
 _atom_site_symmetry_multiplicity
 _atom_site_fract_x
 _atom_site_fract_y
 _atom_site_fract_z
 _atom_site_occupancy
  Yb  Yb0  1  0.998219  0.001781  0.000000  1
  Yb  Yb1  1  0.500691  0.499309  0.500000  1
  Yb  Yb2  1  0.003774  0.505481  0.253365  1
  Yb  Yb3  1  0.999442  0.501096  0.748754  1
  Yb  Yb4  1  0.494519  0.996226  0.746635  1
  Yb  Yb5  1  0.498904  0.000558  0.251246  1
  Cd  Cd6  1  0.828895  0.171105  0.000000  1
  Si  Si7  1  0.692619  0.307381  0.000000  1
  Si  Si8  1  0.292276  0.707724  0.000000  1
  Si  Si9  1  0.792168  0.207832  0.500000  1
  Si  Si10  1  0.204777  0.795223  0.500000  1
  Si  Si11  1  0.338725  0.328250  0.168248  1
  Si  Si12  1  0.671750  0.661275  0.831752  1
  Si  Si13  1  0.170493  0.163547  0.666601  1
  Si  Si14  1  0.836453  0.829507  0.333399  1
  Si  Si15  1  0.849385  0.621176  0.005584  1
  Si  Si16  1  0.183286  0.411007  0.000334  1
  Si  Si17  1  0.650903  0.882209  0.504422  1
  Si  Si18  1  0.117791  0.349097  0.495578  1
  Si  Si19  1  0.345929  0.111739  0.493688  1
  Si  Si20  1  0.888261  0.654071  0.506312  1
  Si  Si21  1  0.378824  0.150615  0.994416  1
  Si  Si22  1  0.588993  0.816714  0.999666  1
  Si  Si23  1  0.886692  0.113629  0.296656  1
  Si  Si24  1  0.107738  0.875349  0.730040  1
  Si  Si25  1  0.608573  0.378323  0.765430  1
  Si  Si26  1  0.621677  0.391427  0.234570  1
  Si  Si27  1  0.391102  0.622724  0.233473  1
  Si  Si28  1  0.377276  0.608898  0.766527  1
  Si  Si29  1  0.886371  0.113308  0.703344  1
  Si  Si30  1  0.124651  0.892262  0.269960  1
  Ru  Ru31  1  0.168573  0.831427  0.000000  1
  Ru  Ru32  1  0.668430  0.331570  0.500000  1
  Ru  Ru33  1  0.330747  0.669253  0.500000  1
  Ru  Ru34  1  0.126803  0.126059  0.375096  1
  Ru  Ru35  1  0.873941  0.873197  0.624904  1
  Ru  Ru36  1  0.374072  0.373724  0.873785  1
  Ru  Ru37  1  0.626276  0.625928  0.126215  1
