# generated using pymatgen
data_Lu3CdIr8
_symmetry_space_group_name_H-M   'P 1'
_cell_length_a   5.30168200
_cell_length_b   5.30168261
_cell_length_c   8.62616000
_cell_angle_alpha   90.00000000
_cell_angle_beta   90.00000000
_cell_angle_gamma   119.99999619
_symmetry_Int_Tables_number   1
_chemical_formula_structural   Lu3CdIr8
_chemical_formula_sum   'Lu3 Cd1 Ir8'
_cell_volume   209.97885211
_cell_formula_units_Z   1
loop_
 _symmetry_equiv_pos_site_id
 _symmetry_equiv_pos_as_xyz
  1  'x, y, z'
loop_
 _atom_site_type_symbol
 _atom_site_label
 _atom_site_symmetry_multiplicity
 _atom_site_fract_x
 _atom_site_fract_y
 _atom_site_fract_z
 _atom_site_occupancy
  Lu  Lu0  1  0.666667  0.333334  0.418704  1
  Lu  Lu1  1  0.333333  0.666666  0.569667  1
  Lu  Lu2  1  0.333333  0.666666  0.942574  1
  Cd  Cd3  1  0.666667  0.333334  0.058896  1
  Ir  Ir4  1  0.000000  0.000000  0.002074  1
  Ir  Ir5  1  0.169924  0.339847  0.252474  1
  Ir  Ir6  1  0.169924  0.830075  0.252474  1
  Ir  Ir7  1  0.660152  0.830075  0.252474  1
  Ir  Ir8  1  0.000000  0.000000  0.502998  1
  Ir  Ir9  1  0.342025  0.171013  0.749223  1
  Ir  Ir10  1  0.828988  0.171013  0.749223  1
  Ir  Ir11  1  0.828988  0.657976  0.749223  1
