# generated using pymatgen
data_Tm9Pa(Hg2Pt)4
_symmetry_space_group_name_H-M   'P 1'
_cell_length_a   3.58658900
_cell_length_b   7.91739545
_cell_length_c   18.10376700
_cell_angle_alpha   89.98072868
_cell_angle_beta   90.00000000
_cell_angle_gamma   90.00000000
_symmetry_Int_Tables_number   1
_chemical_formula_structural   Tm9Pa(Hg2Pt)4
_chemical_formula_sum   'Tm9 Pa1 Hg8 Pt4'
_cell_volume   514.08256626
_cell_formula_units_Z   1
loop_
 _symmetry_equiv_pos_site_id
 _symmetry_equiv_pos_as_xyz
  1  'x, y, z'
loop_
 _atom_site_type_symbol
 _atom_site_label
 _atom_site_symmetry_multiplicity
 _atom_site_fract_x
 _atom_site_fract_y
 _atom_site_fract_z
 _atom_site_occupancy
  Tm  Tm0  1  0.000000  0.113331  0.414555  1
  Tm  Tm1  1  0.000000  0.886669  0.585445  1
  Tm  Tm2  1  0.000000  0.380677  0.914344  1
  Tm  Tm3  1  0.000000  0.619323  0.085656  1
  Tm  Tm4  1  0.000000  0.241939  0.218397  1
  Tm  Tm5  1  0.000000  0.758061  0.781603  1
  Tm  Tm6  1  0.000000  0.260152  0.715944  1
  Tm  Tm7  1  0.000000  0.739848  0.284056  1
  Tm  Tm8  1  0.000000  0.500000  0.500000  1
  Pa  Pa9  1  0.000000  0.000000  0.000000  1
  Hg  Hg10  1  0.500000  0.422310  0.355390  1
  Hg  Hg11  1  0.500000  0.577690  0.644610  1
  Hg  Hg12  1  0.500000  0.077716  0.852202  1
  Hg  Hg13  1  0.500000  0.922284  0.147798  1
  Hg  Hg14  1  0.500000  0.294353  0.064472  1
  Hg  Hg15  1  0.500000  0.705647  0.935528  1
  Hg  Hg16  1  0.500000  0.212142  0.561836  1
  Hg  Hg17  1  0.500000  0.787858  0.438164  1
  Pt  Pt18  1  0.500000  0.027523  0.303287  1
  Pt  Pt19  1  0.500000  0.972477  0.696713  1
  Pt  Pt20  1  0.500000  0.471739  0.802300  1
  Pt  Pt21  1  0.500000  0.528261  0.197700  1
