# generated using pymatgen
data_LaEr(BIr)8
_symmetry_space_group_name_H-M   'P 1'
_cell_length_a   7.68629800
_cell_length_b   7.68629800
_cell_length_c   3.99457700
_cell_angle_alpha   90.00000000
_cell_angle_beta   90.00000000
_cell_angle_gamma   90.00000000
_symmetry_Int_Tables_number   1
_chemical_formula_structural   LaEr(BIr)8
_chemical_formula_sum   'La1 Er1 B8 Ir8'
_cell_volume   235.99632140
_cell_formula_units_Z   1
loop_
 _symmetry_equiv_pos_site_id
 _symmetry_equiv_pos_as_xyz
  1  'x, y, z'
loop_
 _atom_site_type_symbol
 _atom_site_label
 _atom_site_symmetry_multiplicity
 _atom_site_fract_x
 _atom_site_fract_y
 _atom_site_fract_z
 _atom_site_occupancy
  La  La0  1  0.000000  0.000000  0.500000  1
  Er  Er1  1  0.500000  0.500000  0.000000  1
  B  B2  1  0.657443  0.776024  0.612406  1
  B  B3  1  0.158396  0.281595  0.892901  1
  B  B4  1  0.281595  0.841604  0.107099  1
  B  B5  1  0.718405  0.158396  0.107099  1
  B  B6  1  0.342557  0.223976  0.612406  1
  B  B7  1  0.841604  0.718405  0.892901  1
  B  B8  1  0.223976  0.657443  0.387594  1
  B  B9  1  0.776024  0.342557  0.387594  1
  Ir  Ir10  1  0.344163  0.110590  0.110645  1
  Ir  Ir11  1  0.655837  0.889410  0.110645  1
  Ir  Ir12  1  0.608210  0.163292  0.610750  1
  Ir  Ir13  1  0.110590  0.655837  0.889355  1
  Ir  Ir14  1  0.163292  0.391790  0.389250  1
  Ir  Ir15  1  0.836708  0.608210  0.389250  1
  Ir  Ir16  1  0.889410  0.344163  0.889355  1
  Ir  Ir17  1  0.391790  0.836708  0.610750  1
