# generated using pymatgen
data_SrU(GeRh)4
_symmetry_space_group_name_H-M   'P 1'
_cell_length_a   4.26876500
_cell_length_b   4.26876500
_cell_length_c   10.21665300
_cell_angle_alpha   90.00000000
_cell_angle_beta   90.00000000
_cell_angle_gamma   90.00000000
_symmetry_Int_Tables_number   1
_chemical_formula_structural   SrU(GeRh)4
_chemical_formula_sum   'Sr1 U1 Ge4 Rh4'
_cell_volume   186.17147405
_cell_formula_units_Z   1
loop_
 _symmetry_equiv_pos_site_id
 _symmetry_equiv_pos_as_xyz
  1  'x, y, z'
loop_
 _atom_site_type_symbol
 _atom_site_label
 _atom_site_symmetry_multiplicity
 _atom_site_fract_x
 _atom_site_fract_y
 _atom_site_fract_z
 _atom_site_occupancy
  Sr  Sr0  1  0.000000  0.500000  0.251081  1
  U  U1  1  0.500000  0.000000  0.740454  1
  Ge  Ge2  1  0.000000  0.000000  0.508077  1
  Ge  Ge3  1  0.500000  0.500000  0.508077  1
  Ge  Ge4  1  0.000000  0.500000  0.870135  1
  Ge  Ge5  1  0.500000  0.000000  0.124531  1
  Rh  Rh6  1  0.000000  0.000000  0.991948  1
  Rh  Rh7  1  0.500000  0.500000  0.991948  1
  Rh  Rh8  1  0.000000  0.500000  0.635987  1
  Rh  Rh9  1  0.500000  0.000000  0.377762  1
