# generated using pymatgen
data_ErCd3P6N13
_symmetry_space_group_name_H-M   'P 1'
_cell_length_a   7.28341989
_cell_length_b   7.30860956
_cell_length_c   7.30861042
_cell_angle_alpha   109.54093515
_cell_angle_beta   109.40142087
_cell_angle_gamma   109.40142319
_symmetry_Int_Tables_number   1
_chemical_formula_structural   ErCd3P6N13
_chemical_formula_sum   'Er1 Cd3 P6 N13'
_cell_volume   299.74805864
_cell_formula_units_Z   1
loop_
 _symmetry_equiv_pos_site_id
 _symmetry_equiv_pos_as_xyz
  1  'x, y, z'
loop_
 _atom_site_type_symbol
 _atom_site_label
 _atom_site_symmetry_multiplicity
 _atom_site_fract_x
 _atom_site_fract_y
 _atom_site_fract_z
 _atom_site_occupancy
  Er  Er0  1  0.685272  0.000000  0.000000  1
  Cd  Cd1  1  0.001110  0.000000  0.707650  1
  Cd  Cd2  1  0.001110  0.707650  0.000000  1
  Cd  Cd3  1  0.293460  0.292350  0.292350  1
  P  P4  1  0.249160  0.748922  0.497401  1
  P  P5  1  0.751758  0.251521  0.502599  1
  P  P6  1  0.751758  0.502599  0.251521  1
  P  P7  1  0.249160  0.497401  0.748922  1
  P  P8  1  0.500238  0.748479  0.251078  1
  P  P9  1  0.500238  0.251078  0.748479  1
  N  N10  1  0.984791  0.000000  0.000000  1
  N  N11  1  0.718341  0.283704  0.283704  1
  N  N12  1  0.279725  0.713323  0.278694  1
  N  N13  1  0.301285  0.576920  0.576920  1
  N  N14  1  0.566402  0.565371  0.286677  1
  N  N15  1  0.434636  0.716296  0.000000  1
  N  N16  1  0.001031  0.721306  0.434629  1
  N  N17  1  0.566402  0.286677  0.565371  1
  N  N18  1  0.724366  0.000000  0.423080  1
  N  N19  1  0.434636  0.000000  0.716296  1
  N  N20  1  0.724366  0.423080  0.000000  1
  N  N21  1  0.279725  0.278694  0.713323  1
  N  N22  1  0.001031  0.434629  0.721306  1
