# generated using pymatgen
data_Ho3LuAl2(B2Rh5)2
_symmetry_space_group_name_H-M   'P 1'
_cell_length_a   9.47543735
_cell_length_b   9.47543735
_cell_length_c   3.17137700
_cell_angle_alpha   90.00000000
_cell_angle_beta   90.00000000
_cell_angle_gamma   90.16094085
_symmetry_Int_Tables_number   1
_chemical_formula_structural   Ho3LuAl2(B2Rh5)2
_chemical_formula_sum   'Ho3 Lu1 Al2 B4 Rh10'
_cell_volume   284.73751298
_cell_formula_units_Z   1
loop_
 _symmetry_equiv_pos_site_id
 _symmetry_equiv_pos_as_xyz
  1  'x, y, z'
loop_
 _atom_site_type_symbol
 _atom_site_label
 _atom_site_symmetry_multiplicity
 _atom_site_fract_x
 _atom_site_fract_y
 _atom_site_fract_z
 _atom_site_occupancy
  Ho  Ho0  1  0.825548  0.325548  0.000000  1
  Ho  Ho1  1  0.324553  0.175059  0.000000  1
  Ho  Ho2  1  0.675059  0.824553  0.000000  1
  Lu  Lu3  1  0.174808  0.674808  0.000000  1
  Al  Al4  1  0.000052  0.000093  0.000000  1
  Al  Al5  1  0.500093  0.500052  0.000000  1
  B  B6  1  0.621965  0.121965  0.000000  1
  B  B7  1  0.122353  0.379605  0.000000  1
  B  B8  1  0.879605  0.622353  0.000000  1
  B  B9  1  0.376322  0.876322  0.000000  1
  Rh  Rh10  1  0.070382  0.218795  0.500000  1
  Rh  Rh11  1  0.217472  0.927714  0.500000  1
  Rh  Rh12  1  0.781508  0.070175  0.500000  1
  Rh  Rh13  1  0.931393  0.781618  0.500000  1
  Rh  Rh14  1  0.427714  0.717472  0.500000  1
  Rh  Rh15  1  0.570175  0.281508  0.500000  1
  Rh  Rh16  1  0.718795  0.570382  0.500000  1
  Rh  Rh17  1  0.281618  0.431393  0.500000  1
  Rh  Rh18  1  0.499409  0.999409  0.500000  1
  Rh  Rh19  1  0.001178  0.501178  0.500000  1
