# generated using pymatgen
data_TbNd9B2Br15
_symmetry_space_group_name_H-M   'P 1'
_cell_length_a   9.36891752
_cell_length_b   10.17005651
_cell_length_c   11.02681873
_cell_angle_alpha   91.17641355
_cell_angle_beta   114.50891641
_cell_angle_gamma   110.82650712
_symmetry_Int_Tables_number   1
_chemical_formula_structural   TbNd9B2Br15
_chemical_formula_sum   'Tb1 Nd9 B2 Br15'
_cell_volume   875.91822750
_cell_formula_units_Z   1
loop_
 _symmetry_equiv_pos_site_id
 _symmetry_equiv_pos_as_xyz
  1  'x, y, z'
loop_
 _atom_site_type_symbol
 _atom_site_label
 _atom_site_symmetry_multiplicity
 _atom_site_fract_x
 _atom_site_fract_y
 _atom_site_fract_z
 _atom_site_occupancy
  Tb  Tb0  1  0.283000  0.926976  0.953087  1
  Nd  Nd1  1  0.800403  0.409482  0.275415  1
  Nd  Nd2  1  0.196746  0.589885  0.722936  1
  Nd  Nd3  1  0.674027  0.746014  0.820860  1
  Nd  Nd4  1  0.323890  0.252829  0.179377  1
  Nd  Nd5  1  0.525709  0.704318  0.096470  1
  Nd  Nd6  1  0.473554  0.295389  0.903227  1
  Nd  Nd7  1  0.585315  0.037573  0.324801  1
  Nd  Nd8  1  0.411298  0.960936  0.674063  1
  Nd  Nd9  1  0.727477  0.075610  0.048619  1
  B  B10  1  0.464317  0.819573  0.876185  1
  B  B11  1  0.530326  0.178094  0.122023  1
  Br  Br12  1  0.004685  0.997336  0.998124  1
  Br  Br13  1  0.636248  0.882313  0.583701  1
  Br  Br14  1  0.362344  0.117051  0.416450  1
  Br  Br15  1  0.882589  0.298463  0.527461  1
  Br  Br16  1  0.115739  0.700468  0.471016  1
  Br  Br17  1  0.283496  0.765161  0.171721  1
  Br  Br18  1  0.710902  0.237648  0.819660  1
  Br  Br19  1  0.056653  0.343922  0.227057  1
  Br  Br20  1  0.160876  0.051696  0.709953  1
  Br  Br21  1  0.837963  0.943166  0.297514  1
  Br  Br22  1  0.229944  0.409672  0.943872  1
  Br  Br23  1  0.768833  0.589641  0.055715  1
  Br  Br24  1  0.407644  0.462965  0.659223  1
  Br  Br25  1  0.591258  0.536630  0.340609  1
  Br  Br26  1  0.954765  0.667189  0.780858  1
