# generated using pymatgen
data_Lu2Ta2Sb4IrRh3
_symmetry_space_group_name_H-M   'P 1'
_cell_length_a   6.32813375
_cell_length_b   4.47093000
_cell_length_c   8.96784085
_cell_angle_alpha   90.00000000
_cell_angle_beta   89.89350960
_cell_angle_gamma   90.00000000
_symmetry_Int_Tables_number   1
_chemical_formula_structural   Lu2Ta2Sb4IrRh3
_chemical_formula_sum   'Lu2 Ta2 Sb4 Ir1 Rh3'
_cell_volume   253.72348159
_cell_formula_units_Z   1
loop_
 _symmetry_equiv_pos_site_id
 _symmetry_equiv_pos_as_xyz
  1  'x, y, z'
loop_
 _atom_site_type_symbol
 _atom_site_label
 _atom_site_symmetry_multiplicity
 _atom_site_fract_x
 _atom_site_fract_y
 _atom_site_fract_z
 _atom_site_occupancy
  Lu  Lu0  1  0.005589  0.500000  0.376681  1
  Lu  Lu1  1  0.506277  0.000000  0.623701  1
  Ta  Ta2  1  0.495837  0.000000  0.122006  1
  Ta  Ta3  1  0.993674  0.500000  0.877727  1
  Sb  Sb4  1  0.990708  0.000000  0.127469  1
  Sb  Sb5  1  0.509113  0.500000  0.375001  1
  Sb  Sb6  1  0.010415  0.000000  0.626859  1
  Sb  Sb7  1  0.484496  0.500000  0.871195  1
  Ir  Ir8  1  0.734619  0.500000  0.109932  1
  Rh  Rh9  1  0.267846  0.000000  0.356292  1
  Rh  Rh10  1  0.766733  0.500000  0.643962  1
  Rh  Rh11  1  0.234702  0.000000  0.889168  1
