# generated using pymatgen
data_ErLuTa2(Fe4P3)2
_symmetry_space_group_name_H-M   'P 1'
_cell_length_a   3.66249600
_cell_length_b   10.41122500
_cell_length_c   12.32239600
_cell_angle_alpha   90.00000000
_cell_angle_beta   90.00000000
_cell_angle_gamma   90.00000000
_symmetry_Int_Tables_number   1
_chemical_formula_structural   ErLuTa2(Fe4P3)2
_chemical_formula_sum   'Er2 Lu2 Ta4 Fe16 P12'
_cell_volume   469.86614343
_cell_formula_units_Z   2
loop_
 _symmetry_equiv_pos_site_id
 _symmetry_equiv_pos_as_xyz
  1  'x, y, z'
loop_
 _atom_site_type_symbol
 _atom_site_label
 _atom_site_symmetry_multiplicity
 _atom_site_fract_x
 _atom_site_fract_y
 _atom_site_fract_z
 _atom_site_occupancy
  Er  Er0  1  0.750000  0.416584  0.286687  1
  Er  Er1  1  0.750000  0.083416  0.786687  1
  Lu  Lu2  1  0.250000  0.583261  0.713574  1
  Lu  Lu3  1  0.250000  0.916739  0.213574  1
  Ta  Ta4  1  0.250000  0.704181  0.992389  1
  Ta  Ta5  1  0.250000  0.795819  0.492389  1
  Ta  Ta6  1  0.750000  0.295672  0.007919  1
  Ta  Ta7  1  0.750000  0.204328  0.507919  1
  Fe  Fe8  1  0.250000  0.416835  0.491592  1
  Fe  Fe9  1  0.250000  0.083166  0.991592  1
  Fe  Fe10  1  0.750000  0.583370  0.509160  1
  Fe  Fe11  1  0.750000  0.916630  0.009160  1
  Fe  Fe12  1  0.250000  0.215911  0.170848  1
  Fe  Fe13  1  0.250000  0.284089  0.670848  1
  Fe  Fe14  1  0.750000  0.783324  0.828929  1
  Fe  Fe15  1  0.750000  0.716676  0.328929  1
  Fe  Fe16  1  0.250000  0.878871  0.697646  1
  Fe  Fe17  1  0.250000  0.621129  0.197646  1
  Fe  Fe18  1  0.750000  0.119995  0.302060  1
  Fe  Fe19  1  0.750000  0.380005  0.802060  1
  Fe  Fe20  1  0.250000  0.464222  0.933543  1
  Fe  Fe21  1  0.250000  0.035778  0.433543  1
  Fe  Fe22  1  0.750000  0.536285  0.066017  1
  Fe  Fe23  1  0.750000  0.963715  0.566017  1
  P  P24  1  0.250000  0.424734  0.113767  1
  P  P25  1  0.250000  0.075266  0.613767  1
  P  P26  1  0.750000  0.575683  0.885479  1
  P  P27  1  0.750000  0.924317  0.385479  1
  P  P28  1  0.250000  0.272673  0.854770  1
  P  P29  1  0.250000  0.227327  0.354770  1
  P  P30  1  0.750000  0.728476  0.145358  1
  P  P31  1  0.750000  0.771524  0.645358  1
  P  P32  1  0.250000  0.596065  0.375914  1
  P  P33  1  0.250000  0.903935  0.875914  1
  P  P34  1  0.750000  0.404878  0.624348  1
  P  P35  1  0.750000  0.095122  0.124348  1
