# generated using pymatgen
data_Ta2VB2
_symmetry_space_group_name_H-M   'P 1'
_cell_length_a   6.02133700
_cell_length_b   6.02133700
_cell_length_c   3.25496900
_cell_angle_alpha   90.00000000
_cell_angle_beta   90.00000000
_cell_angle_gamma   90.00000000
_symmetry_Int_Tables_number   1
_chemical_formula_structural   Ta2VB2
_chemical_formula_sum   'Ta4 V2 B4'
_cell_volume   118.01378116
_cell_formula_units_Z   2
loop_
 _symmetry_equiv_pos_site_id
 _symmetry_equiv_pos_as_xyz
  1  'x, y, z'
loop_
 _atom_site_type_symbol
 _atom_site_label
 _atom_site_symmetry_multiplicity
 _atom_site_fract_x
 _atom_site_fract_y
 _atom_site_fract_z
 _atom_site_occupancy
  Ta  Ta0  1  0.680556  0.180556  0.500000  1
  Ta  Ta1  1  0.319444  0.819444  0.500000  1
  Ta  Ta2  1  0.180556  0.319444  0.500000  1
  Ta  Ta3  1  0.819444  0.680556  0.500000  1
  V  V4  1  0.500000  0.500000  0.000000  1
  V  V5  1  0.000000  0.000000  0.000000  1
  B  B6  1  0.109743  0.609743  0.000000  1
  B  B7  1  0.890257  0.390257  0.000000  1
  B  B8  1  0.609743  0.890257  0.000000  1
  B  B9  1  0.390257  0.109743  0.000000  1
