# generated using pymatgen
data_Ho5Zr(Si3Pt2)4
_symmetry_space_group_name_H-M   'P 1'
_cell_length_a   4.21602300
_cell_length_b   8.51152846
_cell_length_c   12.91291942
_cell_angle_alpha   80.41144590
_cell_angle_beta   90.00000000
_cell_angle_gamma   90.00000000
_symmetry_Int_Tables_number   1
_chemical_formula_structural   Ho5Zr(Si3Pt2)4
_chemical_formula_sum   'Ho5 Zr1 Si12 Pt8'
_cell_volume   456.90383428
_cell_formula_units_Z   1
loop_
 _symmetry_equiv_pos_site_id
 _symmetry_equiv_pos_as_xyz
  1  'x, y, z'
loop_
 _atom_site_type_symbol
 _atom_site_label
 _atom_site_symmetry_multiplicity
 _atom_site_fract_x
 _atom_site_fract_y
 _atom_site_fract_z
 _atom_site_occupancy
  Ho  Ho0  1  0.250000  0.584158  0.187961  1
  Ho  Ho1  1  0.750000  0.233518  0.561451  1
  Ho  Ho2  1  0.750000  0.414706  0.813177  1
  Ho  Ho3  1  0.750000  0.928713  0.813938  1
  Ho  Ho4  1  0.250000  0.072004  0.185959  1
  Zr  Zr5  1  0.250000  0.767235  0.434937  1
  Si  Si6  1  0.750000  0.591422  0.567959  1
  Si  Si7  1  0.750000  0.123957  0.006136  1
  Si  Si8  1  0.750000  0.872579  0.569669  1
  Si  Si9  1  0.250000  0.696047  0.715208  1
  Si  Si10  1  0.750000  0.303583  0.286016  1
  Si  Si11  1  0.750000  0.803451  0.279597  1
  Si  Si12  1  0.250000  0.875443  0.995769  1
  Si  Si13  1  0.250000  0.196227  0.722018  1
  Si  Si14  1  0.250000  0.378471  0.001000  1
  Si  Si15  1  0.250000  0.124257  0.427762  1
  Si  Si16  1  0.750000  0.621672  0.000421  1
  Si  Si17  1  0.250000  0.412661  0.430020  1
  Pt  Pt18  1  0.750000  0.351283  0.098605  1
  Pt  Pt19  1  0.250000  0.969031  0.622368  1
  Pt  Pt20  1  0.750000  0.848237  0.091316  1
  Pt  Pt21  1  0.750000  0.027718  0.377104  1
  Pt  Pt22  1  0.250000  0.649017  0.901830  1
  Pt  Pt23  1  0.250000  0.151595  0.910018  1
  Pt  Pt24  1  0.750000  0.532586  0.378019  1
  Pt  Pt25  1  0.250000  0.470431  0.621741  1
