# generated using pymatgen
data_Y2Ga5Ni3
_symmetry_space_group_name_H-M   'P 1'
_cell_length_a   8.32268962
_cell_length_b   8.32268936
_cell_length_c   8.32268889
_cell_angle_alpha   141.09921394
_cell_angle_beta   107.88185303
_cell_angle_gamma   85.10731260
_symmetry_Int_Tables_number   1
_chemical_formula_structural   Y2Ga5Ni3
_chemical_formula_sum   'Y4 Ga10 Ni6'
_cell_volume   332.94705032
_cell_formula_units_Z   2
loop_
 _symmetry_equiv_pos_site_id
 _symmetry_equiv_pos_as_xyz
  1  'x, y, z'
loop_
 _atom_site_type_symbol
 _atom_site_label
 _atom_site_symmetry_multiplicity
 _atom_site_fract_x
 _atom_site_fract_y
 _atom_site_fract_z
 _atom_site_occupancy
  Y  Y0  1  0.366277  0.641797  0.724479  1
  Y  Y1  1  0.633723  0.358203  0.275521  1
  Y  Y2  1  0.082682  0.858203  0.224479  1
  Y  Y3  1  0.917318  0.141797  0.775521  1
  Ga  Ga4  1  0.000000  0.750000  0.750000  1
  Ga  Ga5  1  0.000000  0.250000  0.250000  1
  Ga  Ga6  1  0.710987  0.460987  0.750000  1
  Ga  Ga7  1  0.289013  0.039013  0.750000  1
  Ga  Ga8  1  0.289013  0.539013  0.250000  1
  Ga  Ga9  1  0.710987  0.960987  0.250000  1
  Ga  Ga10  1  0.239244  0.410381  0.828865  1
  Ga  Ga11  1  0.760756  0.589619  0.171135  1
  Ga  Ga12  1  0.581516  0.910381  0.671135  1
  Ga  Ga13  1  0.418484  0.089619  0.328865  1
  Ni  Ni14  1  0.049597  0.644091  0.405506  1
  Ni  Ni15  1  0.238585  0.144091  0.094494  1
  Ni  Ni16  1  0.500000  0.750000  0.250000  1
  Ni  Ni17  1  0.500000  0.250000  0.750000  1
  Ni  Ni18  1  0.950403  0.355909  0.594494  1
  Ni  Ni19  1  0.761415  0.855909  0.905506  1
