# generated using pymatgen
data_Dy5Lu15(Cd3Ru)2
_symmetry_space_group_name_H-M   'P 1'
_cell_length_a   9.44227405
_cell_length_b   9.44223625
_cell_length_c   9.66785900
_cell_angle_alpha   90.00095761
_cell_angle_beta   89.99928044
_cell_angle_gamma   119.92413351
_symmetry_Int_Tables_number   1
_chemical_formula_structural   Dy5Lu15(Cd3Ru)2
_chemical_formula_sum   'Dy5 Lu15 Cd6 Ru2'
_cell_volume   747.04008389
_cell_formula_units_Z   1
loop_
 _symmetry_equiv_pos_site_id
 _symmetry_equiv_pos_as_xyz
  1  'x, y, z'
loop_
 _atom_site_type_symbol
 _atom_site_label
 _atom_site_symmetry_multiplicity
 _atom_site_fract_x
 _atom_site_fract_y
 _atom_site_fract_z
 _atom_site_occupancy
  Dy  Dy0  1  0.540004  0.080754  0.250008  1
  Dy  Dy1  1  0.919217  0.459992  0.249998  1
  Dy  Dy2  1  0.459954  0.540065  0.750001  1
  Dy  Dy3  1  0.460021  0.920367  0.749997  1
  Dy  Dy4  1  0.079629  0.539980  0.750001  1
  Lu  Lu5  1  0.000200  0.999803  0.499935  1
  Lu  Lu6  1  0.000215  0.999823  0.000072  1
  Lu  Lu7  1  0.210026  0.789935  0.440194  1
  Lu  Lu8  1  0.210879  0.419938  0.439954  1
  Lu  Lu9  1  0.580058  0.789117  0.439929  1
  Lu  Lu10  1  0.790012  0.209972  0.559589  1
  Lu  Lu11  1  0.789180  0.579711  0.559008  1
  Lu  Lu12  1  0.420290  0.210829  0.559004  1
  Lu  Lu13  1  0.790031  0.209967  0.940422  1
  Lu  Lu14  1  0.789170  0.579711  0.941012  1
  Lu  Lu15  1  0.420288  0.210824  0.940980  1
  Lu  Lu16  1  0.210038  0.789954  0.059803  1
  Lu  Lu17  1  0.210848  0.419930  0.060060  1
  Lu  Lu18  1  0.580063  0.789109  0.060071  1
  Lu  Lu19  1  0.539573  0.460431  0.249999  1
  Cd  Cd20  1  0.886221  0.113758  0.250005  1
  Cd  Cd21  1  0.884691  0.771495  0.250010  1
  Cd  Cd22  1  0.228499  0.115360  0.250016  1
  Cd  Cd23  1  0.113666  0.886432  0.749977  1
  Cd  Cd24  1  0.113891  0.227044  0.749987  1
  Cd  Cd25  1  0.772968  0.886139  0.749980  1
  Ru  Ru26  1  0.333627  0.666339  0.250011  1
  Ru  Ru27  1  0.666748  0.333222  0.749973  1
