# generated using pymatgen
data_CaPrAl19SiOs4
_symmetry_space_group_name_H-M   'P 1'
_cell_length_a   6.89474367
_cell_length_b   6.88074510
_cell_length_c   9.12739900
_cell_angle_alpha   90.00000000
_cell_angle_beta   90.00000000
_cell_angle_gamma   95.96174105
_symmetry_Int_Tables_number   1
_chemical_formula_structural   CaPrAl19SiOs4
_chemical_formula_sum   'Ca1 Pr1 Al19 Si1 Os4'
_cell_volume   430.67073521
_cell_formula_units_Z   1
loop_
 _symmetry_equiv_pos_site_id
 _symmetry_equiv_pos_as_xyz
  1  'x, y, z'
loop_
 _atom_site_type_symbol
 _atom_site_label
 _atom_site_symmetry_multiplicity
 _atom_site_fract_x
 _atom_site_fract_y
 _atom_site_fract_z
 _atom_site_occupancy
  Ca  Ca0  1  0.872290  0.130793  0.750000  1
  Pr  Pr1  1  0.126365  0.876194  0.250000  1
  Al  Al2  1  0.621903  0.377369  0.551166  1
  Al  Al3  1  0.378104  0.621831  0.451717  1
  Al  Al4  1  0.378104  0.621831  0.048283  1
  Al  Al5  1  0.621903  0.377369  0.948834  1
  Al  Al6  1  0.223969  0.225957  0.501838  1
  Al  Al7  1  0.776666  0.777120  0.502837  1
  Al  Al8  1  0.776666  0.777120  0.997163  1
  Al  Al9  1  0.223969  0.225957  0.998162  1
  Al  Al10  1  0.841613  0.160859  0.099359  1
  Al  Al11  1  0.161429  0.841228  0.896155  1
  Al  Al12  1  0.161429  0.841228  0.603845  1
  Al  Al13  1  0.841613  0.160859  0.400641  1
  Al  Al14  1  0.141294  0.412283  0.250000  1
  Al  Al15  1  0.415013  0.141636  0.750000  1
  Al  Al16  1  0.589150  0.857888  0.250000  1
  Al  Al17  1  0.216936  0.482039  0.750000  1
  Al  Al18  1  0.779931  0.517603  0.250000  1
  Al  Al19  1  0.521871  0.777511  0.750000  1
  Al  Al20  1  0.482559  0.220599  0.250000  1
  Si  Si21  1  0.846627  0.568220  0.750000  1
  Os  Os22  1  0.997778  0.502664  0.504965  1
  Os  Os23  1  0.997778  0.502664  0.995035  1
  Os  Os24  1  0.502519  0.000591  0.998216  1
  Os  Os25  1  0.502519  0.000591  0.501784  1
