# generated using pymatgen
data_La18Tb2Si15Rh
_symmetry_space_group_name_H-M   'P 1'
_cell_length_a   8.03268861
_cell_length_b   8.04762271
_cell_length_c   15.30335100
_cell_angle_alpha   90.30810889
_cell_angle_beta   89.38641535
_cell_angle_gamma   89.98637007
_symmetry_Int_Tables_number   1
_chemical_formula_structural   La18Tb2Si15Rh
_chemical_formula_sum   'La18 Tb2 Si15 Rh1'
_cell_volume   989.19947290
_cell_formula_units_Z   1
loop_
 _symmetry_equiv_pos_site_id
 _symmetry_equiv_pos_as_xyz
  1  'x, y, z'
loop_
 _atom_site_type_symbol
 _atom_site_label
 _atom_site_symmetry_multiplicity
 _atom_site_fract_x
 _atom_site_fract_y
 _atom_site_fract_z
 _atom_site_occupancy
  La  La0  1  0.979926  0.131473  0.129845  1
  La  La1  1  0.027427  0.867936  0.616291  1
  La  La2  1  0.627888  0.519322  0.874101  1
  La  La3  1  0.486396  0.378270  0.621523  1
  La  La4  1  0.510479  0.626955  0.130886  1
  La  La5  1  0.127172  0.979033  0.875910  1
  La  La6  1  0.989784  0.622090  0.057123  1
  La  La7  1  0.021701  0.363689  0.537992  1
  La  La8  1  0.622809  0.988758  0.950850  1
  La  La9  1  0.124188  0.506686  0.801020  1
  La  La10  1  0.869568  0.485568  0.301407  1
  La  La11  1  0.504602  0.123381  0.203299  1
  La  La12  1  0.496489  0.878470  0.693284  1
  La  La13  1  0.383135  0.021646  0.452353  1
  La  La14  1  0.710612  0.693568  0.496636  1
  La  La15  1  0.814280  0.188782  0.746463  1
  La  La16  1  0.180522  0.800481  0.269886  1
  La  La17  1  0.299786  0.304141  0.001966  1
  Tb  Tb18  1  0.376371  0.480209  0.375403  1
  Tb  Tb19  1  0.859586  0.020850  0.371457  1
  Si  Si20  1  0.917741  0.288527  0.941019  1
  Si  Si21  1  0.714647  0.083181  0.554477  1
  Si  Si22  1  0.214145  0.417247  0.198464  1
  Si  Si23  1  0.796889  0.576410  0.688894  1
  Si  Si24  1  0.424302  0.209377  0.807324  1
  Si  Si25  1  0.572885  0.790753  0.312877  1
  Si  Si26  1  0.285733  0.921780  0.063525  1
  Si  Si27  1  0.834130  0.802908  0.795591  1
  Si  Si28  1  0.158667  0.205656  0.312404  1
  Si  Si29  1  0.794017  0.837498  0.203025  1
  Si  Si30  1  0.309564  0.666904  0.536292  1
  Si  Si31  1  0.693937  0.332750  0.049966  1
  Si  Si32  1  0.666204  0.302593  0.444495  1
  Si  Si33  1  0.328614  0.694807  0.956715  1
  Si  Si34  1  0.204447  0.165527  0.696734  1
  Rh  Rh35  1  0.071359  0.722774  0.430502  1
