# generated using pymatgen
data_Rb4Y4BiSb7Se20
_symmetry_space_group_name_H-M   'P 1'
_cell_length_a   4.11487400
_cell_length_b   12.34032923
_cell_length_c   22.22123941
_cell_angle_alpha   90.23524018
_cell_angle_beta   90.00000000
_cell_angle_gamma   90.00000000
_symmetry_Int_Tables_number   1
_chemical_formula_structural   Rb4Y4BiSb7Se20
_chemical_formula_sum   'Rb4 Y4 Bi1 Sb7 Se20'
_cell_volume   1128.36058149
_cell_formula_units_Z   1
loop_
 _symmetry_equiv_pos_site_id
 _symmetry_equiv_pos_as_xyz
  1  'x, y, z'
loop_
 _atom_site_type_symbol
 _atom_site_label
 _atom_site_symmetry_multiplicity
 _atom_site_fract_x
 _atom_site_fract_y
 _atom_site_fract_z
 _atom_site_occupancy
  Rb  Rb0  1  0.250000  0.490671  0.211126  1
  Rb  Rb1  1  0.750000  0.510176  0.789568  1
  Rb  Rb2  1  0.750000  0.991566  0.289498  1
  Rb  Rb3  1  0.250000  0.009840  0.709830  1
  Y  Y4  1  0.250000  0.363939  0.023627  1
  Y  Y5  1  0.750000  0.635189  0.976533  1
  Y  Y6  1  0.750000  0.863834  0.476960  1
  Y  Y7  1  0.250000  0.136265  0.522805  1
  Bi  Bi8  1  0.250000  0.904595  0.925218  1
  Sb  Sb9  1  0.250000  0.808652  0.124989  1
  Sb  Sb10  1  0.750000  0.193126  0.875295  1
  Sb  Sb11  1  0.750000  0.309484  0.376073  1
  Sb  Sb12  1  0.250000  0.690538  0.623882  1
  Sb  Sb13  1  0.250000  0.596825  0.426021  1
  Sb  Sb14  1  0.750000  0.403387  0.573900  1
  Sb  Sb15  1  0.750000  0.096681  0.074697  1
  Se  Se16  1  0.250000  0.803994  0.389825  1
  Se  Se17  1  0.750000  0.196152  0.609972  1
  Se  Se18  1  0.750000  0.304223  0.110722  1
  Se  Se19  1  0.250000  0.687494  0.889342  1
  Se  Se20  1  0.250000  0.254664  0.300049  1
  Se  Se21  1  0.750000  0.745353  0.699745  1
  Se  Se22  1  0.750000  0.754899  0.200807  1
  Se  Se23  1  0.250000  0.247618  0.799726  1
  Se  Se24  1  0.250000  0.356864  0.482167  1
  Se  Se25  1  0.750000  0.643184  0.517580  1
  Se  Se26  1  0.750000  0.855884  0.019679  1
  Se  Se27  1  0.250000  0.142831  0.982420  1
  Se  Se28  1  0.250000  0.025835  0.157257  1
  Se  Se29  1  0.750000  0.978458  0.839960  1
  Se  Se30  1  0.750000  0.524718  0.342912  1
  Se  Se31  1  0.250000  0.475139  0.656956  1
  Se  Se32  1  0.250000  0.583066  0.062089  1
  Se  Se33  1  0.750000  0.414727  0.939034  1
  Se  Se34  1  0.750000  0.083175  0.438125  1
  Se  Se35  1  0.250000  0.916954  0.561611  1
