# generated using pymatgen
data_Tm6Al25Os7
_symmetry_space_group_name_H-M   'P 1'
_cell_length_a   8.83413530
_cell_length_b   8.83413689
_cell_length_c   9.51635225
_cell_angle_alpha   90.12767254
_cell_angle_beta   89.87232959
_cell_angle_gamma   119.98417225
_symmetry_Int_Tables_number   1
_chemical_formula_structural   Tm6Al25Os7
_chemical_formula_sum   'Tm6 Al25 Os7'
_cell_volume   643.27565875
_cell_formula_units_Z   1
loop_
 _symmetry_equiv_pos_site_id
 _symmetry_equiv_pos_as_xyz
  1  'x, y, z'
loop_
 _atom_site_type_symbol
 _atom_site_label
 _atom_site_symmetry_multiplicity
 _atom_site_fract_x
 _atom_site_fract_y
 _atom_site_fract_z
 _atom_site_occupancy
  Tm  Tm0  1  0.192820  0.387235  0.245775  1
  Tm  Tm1  1  0.807180  0.612765  0.754225  1
  Tm  Tm2  1  0.612765  0.807180  0.245775  1
  Tm  Tm3  1  0.387235  0.192820  0.754225  1
  Tm  Tm4  1  0.194782  0.805218  0.256477  1
  Tm  Tm5  1  0.805218  0.194782  0.743523  1
  Al  Al6  1  0.327136  0.672864  0.024871  1
  Al  Al7  1  0.672864  0.327136  0.975129  1
  Al  Al8  1  0.666067  0.333933  0.519578  1
  Al  Al9  1  0.333933  0.666067  0.480422  1
  Al  Al10  1  0.162547  0.325651  0.571741  1
  Al  Al11  1  0.837453  0.674349  0.428259  1
  Al  Al12  1  0.674349  0.837453  0.571741  1
  Al  Al13  1  0.851287  0.677837  0.082595  1
  Al  Al14  1  0.325651  0.162547  0.428259  1
  Al  Al15  1  0.148713  0.322163  0.917405  1
  Al  Al16  1  0.162817  0.837183  0.576765  1
  Al  Al17  1  0.322163  0.148713  0.082595  1
  Al  Al18  1  0.837183  0.162817  0.423235  1
  Al  Al19  1  0.677837  0.851287  0.917405  1
  Al  Al20  1  0.837030  0.162970  0.077098  1
  Al  Al21  1  0.162970  0.837030  0.922902  1
  Al  Al22  1  0.562148  0.120713  0.249680  1
  Al  Al23  1  0.437852  0.879287  0.750320  1
  Al  Al24  1  0.879287  0.437852  0.249680  1
  Al  Al25  1  0.120713  0.562148  0.750320  1
  Al  Al26  1  0.565150  0.434850  0.257939  1
  Al  Al27  1  0.434850  0.565150  0.742061  1
  Al  Al28  1  0.998697  0.001303  0.250686  1
  Al  Al29  1  0.001303  0.998697  0.749314  1
  Al  Al30  1  0.500000  0.500000  0.000000  1
  Os  Os31  1  0.500000  0.000000  0.000000  1
  Os  Os32  1  0.000000  0.500000  0.000000  1
  Os  Os33  1  0.500000  0.000000  0.500000  1
  Os  Os34  1  0.000000  0.500000  0.500000  1
  Os  Os35  1  0.500000  0.500000  0.500000  1
  Os  Os36  1  0.000000  0.000000  0.000000  1
  Os  Os37  1  0.000000  0.000000  0.500000  1
