# generated using pymatgen
data_Pa2Mn14(GeC)3
_symmetry_space_group_name_H-M   'P 1'
_cell_length_a   6.48285919
_cell_length_b   6.48285919
_cell_length_c   6.48286060
_cell_angle_alpha   82.77447491
_cell_angle_beta   82.77446632
_cell_angle_gamma   82.77446716
_symmetry_Int_Tables_number   1
_chemical_formula_structural   Pa2Mn14(GeC)3
_chemical_formula_sum   'Pa2 Mn14 Ge3 C3'
_cell_volume   266.46927478
_cell_formula_units_Z   1
loop_
 _symmetry_equiv_pos_site_id
 _symmetry_equiv_pos_as_xyz
  1  'x, y, z'
loop_
 _atom_site_type_symbol
 _atom_site_label
 _atom_site_symmetry_multiplicity
 _atom_site_fract_x
 _atom_site_fract_y
 _atom_site_fract_z
 _atom_site_occupancy
  Pa  Pa0  1  0.657656  0.657656  0.657656  1
  Pa  Pa1  1  0.342344  0.342344  0.342344  1
  Mn  Mn2  1  0.722585  0.277415  0.000000  1
  Mn  Mn3  1  0.000000  0.722585  0.277415  1
  Mn  Mn4  1  0.277415  0.000000  0.722585  1
  Mn  Mn5  1  0.000000  0.277415  0.722585  1
  Mn  Mn6  1  0.722585  0.000000  0.277415  1
  Mn  Mn7  1  0.277415  0.722585  0.000000  1
  Mn  Mn8  1  0.353315  0.353315  0.838345  1
  Mn  Mn9  1  0.838345  0.353315  0.353315  1
  Mn  Mn10  1  0.353315  0.838345  0.353315  1
  Mn  Mn11  1  0.646685  0.646685  0.161655  1
  Mn  Mn12  1  0.161655  0.646685  0.646685  1
  Mn  Mn13  1  0.646685  0.161655  0.646685  1
  Mn  Mn14  1  0.905029  0.905029  0.905029  1
  Mn  Mn15  1  0.094971  0.094971  0.094971  1
  Ge  Ge16  1  0.000000  0.000000  0.500000  1
  Ge  Ge17  1  0.500000  0.000000  0.000000  1
  Ge  Ge18  1  0.000000  0.500000  0.000000  1
  C  C19  1  0.500000  0.500000  0.000000  1
  C  C20  1  0.000000  0.500000  0.500000  1
  C  C21  1  0.500000  0.000000  0.500000  1
