# generated using pymatgen
data_Dy3MgHg2C
_symmetry_space_group_name_H-M   'P 1'
_cell_length_a   9.46296447
_cell_length_b   9.46285367
_cell_length_c   9.46275600
_cell_angle_alpha   119.92284505
_cell_angle_beta   90.13806635
_cell_angle_gamma   119.91915997
_symmetry_Int_Tables_number   1
_chemical_formula_structural   Dy3MgHg2C
_chemical_formula_sum   'Dy12 Mg4 Hg8 C4'
_cell_volume   599.88001659
_cell_formula_units_Z   4
loop_
 _symmetry_equiv_pos_site_id
 _symmetry_equiv_pos_as_xyz
  1  'x, y, z'
loop_
 _atom_site_type_symbol
 _atom_site_label
 _atom_site_symmetry_multiplicity
 _atom_site_fract_x
 _atom_site_fract_y
 _atom_site_fract_z
 _atom_site_occupancy
  Dy  Dy0  1  0.936346  0.372693  0.186343  1
  Dy  Dy1  1  0.935897  0.749995  0.185893  1
  Dy  Dy2  1  0.313676  0.749996  0.186325  1
  Dy  Dy3  1  0.685892  0.249978  0.435886  1
  Dy  Dy4  1  0.686348  0.872686  0.436338  1
  Dy  Dy5  1  0.063704  0.249987  0.436280  1
  Dy  Dy6  1  0.313650  0.127297  0.563657  1
  Dy  Dy7  1  0.314106  0.750015  0.564113  1
  Dy  Dy8  1  0.936302  0.750004  0.563707  1
  Dy  Dy9  1  0.686321  0.250010  0.813691  1
  Dy  Dy10  1  0.063661  0.627318  0.813664  1
  Dy  Dy11  1  0.064112  0.250008  0.814108  1
  Mg  Mg12  1  0.999996  0.999994  0.999992  1
  Mg  Mg13  1  0.499995  0.000004  0.000004  1
  Mg  Mg14  1  0.499990  0.500001  0.999989  1
  Mg  Mg15  1  0.500008  0.500011  0.500007  1
  Hg  Hg16  1  0.710347  0.919964  0.130336  1
  Hg  Hg17  1  0.290400  0.080019  0.210382  1
  Hg  Hg18  1  0.289657  0.420005  0.209625  1
  Hg  Hg19  1  0.630376  0.420028  0.210369  1
  Hg  Hg20  1  0.369626  0.579984  0.789624  1
  Hg  Hg21  1  0.710345  0.579993  0.790376  1
  Hg  Hg22  1  0.709604  0.919999  0.789636  1
  Hg  Hg23  1  0.289654  0.080032  0.869658  1
  C  C24  1  0.000003  0.500001  0.999995  1
  C  C25  1  0.999996  0.000000  0.499997  1
  C  C26  1  0.500008  0.000002  0.500009  1
  C  C27  1  0.999992  0.499990  0.500003  1
