# generated using pymatgen
data_Er4Bi5AsRh7
_symmetry_space_group_name_H-M   'P 1'
_cell_length_a   7.70715307
_cell_length_b   7.70715390
_cell_length_c   7.70715352
_cell_angle_alpha   106.58117151
_cell_angle_beta   110.93528243
_cell_angle_gamma   110.93528920
_symmetry_Int_Tables_number   1
_chemical_formula_structural   Er4Bi5AsRh7
_chemical_formula_sum   'Er4 Bi5 As1 Rh7'
_cell_volume   351.75148518
_cell_formula_units_Z   1
loop_
 _symmetry_equiv_pos_site_id
 _symmetry_equiv_pos_as_xyz
  1  'x, y, z'
loop_
 _atom_site_type_symbol
 _atom_site_label
 _atom_site_symmetry_multiplicity
 _atom_site_fract_x
 _atom_site_fract_y
 _atom_site_fract_z
 _atom_site_occupancy
  Er  Er0  1  0.000000  0.985265  0.532642  1
  Er  Er1  1  0.000000  0.532642  0.985265  1
  Er  Er2  1  0.452622  0.985265  0.985265  1
  Er  Er3  1  0.547378  0.532642  0.532642  1
  Bi  Bi4  1  0.690008  0.707354  0.017346  1
  Bi  Bi5  1  0.309992  0.017346  0.327338  1
  Bi  Bi6  1  0.000000  0.297263  0.297263  1
  Bi  Bi7  1  0.309992  0.327338  0.017346  1
  Bi  Bi8  1  0.690008  0.017346  0.707354  1
  As  As9  1  0.000000  0.642311  0.642311  1
  Rh  Rh10  1  0.755031  0.259794  0.504762  1
  Rh  Rh11  1  0.755031  0.504762  0.259794  1
  Rh  Rh12  1  0.500000  0.262999  0.762999  1
  Rh  Rh13  1  0.244969  0.504762  0.749731  1
  Rh  Rh14  1  0.244969  0.749731  0.504762  1
  Rh  Rh15  1  0.500000  0.762999  0.262999  1
  Rh  Rh16  1  0.000000  0.910176  0.910176  1
