# generated using pymatgen
data_Tm6Al24Fe3Ni2Ru3
_symmetry_space_group_name_H-M   'P 1'
_cell_length_a   8.65357200
_cell_length_b   8.67643449
_cell_length_c   9.32851249
_cell_angle_alpha   89.83802037
_cell_angle_beta   90.00000000
_cell_angle_gamma   119.91287278
_symmetry_Int_Tables_number   1
_chemical_formula_structural   Tm6Al24Fe3Ni2Ru3
_chemical_formula_sum   'Tm6 Al24 Fe3 Ni2 Ru3'
_cell_volume   607.09693879
_cell_formula_units_Z   1
loop_
 _symmetry_equiv_pos_site_id
 _symmetry_equiv_pos_as_xyz
  1  'x, y, z'
loop_
 _atom_site_type_symbol
 _atom_site_label
 _atom_site_symmetry_multiplicity
 _atom_site_fract_x
 _atom_site_fract_y
 _atom_site_fract_z
 _atom_site_occupancy
  Tm  Tm0  1  0.802471  0.192425  0.751257  1
  Tm  Tm1  1  0.197529  0.807575  0.248743  1
  Tm  Tm2  1  0.389953  0.192425  0.751257  1
  Tm  Tm3  1  0.610047  0.807575  0.248743  1
  Tm  Tm4  1  0.806244  0.612488  0.751271  1
  Tm  Tm5  1  0.193756  0.387512  0.248729  1
  Al  Al6  1  0.665208  0.330414  0.981359  1
  Al  Al7  1  0.334792  0.669586  0.018641  1
  Al  Al8  1  0.333240  0.666482  0.483440  1
  Al  Al9  1  0.666760  0.333518  0.516560  1
  Al  Al10  1  0.840879  0.159747  0.422578  1
  Al  Al11  1  0.159121  0.840253  0.577422  1
  Al  Al12  1  0.318869  0.159747  0.422578  1
  Al  Al13  1  0.164238  0.842372  0.924404  1
  Al  Al14  1  0.681131  0.840253  0.577422  1
  Al  Al15  1  0.835762  0.157628  0.075596  1
  Al  Al16  1  0.840865  0.681730  0.421897  1
  Al  Al17  1  0.678134  0.842372  0.924404  1
  Al  Al18  1  0.159135  0.318270  0.578103  1
  Al  Al19  1  0.321866  0.157628  0.075596  1
  Al  Al20  1  0.160066  0.320132  0.923790  1
  Al  Al21  1  0.839934  0.679868  0.076210  1
  Al  Al22  1  0.439377  0.560577  0.755026  1
  Al  Al23  1  0.560623  0.439423  0.244974  1
  Al  Al24  1  0.121199  0.560577  0.755026  1
  Al  Al25  1  0.878801  0.439423  0.244974  1
  Al  Al26  1  0.439323  0.878647  0.756592  1
  Al  Al27  1  0.560677  0.121353  0.243408  1
  Al  Al28  1  0.999695  0.999391  0.749770  1
  Al  Al29  1  0.000305  0.000609  0.250230  1
  Fe  Fe30  1  0.500000  0.000000  0.000000  1
  Fe  Fe31  1  0.000000  0.000000  0.000000  1
  Fe  Fe32  1  0.000000  0.000000  0.500000  1
  Ni  Ni33  1  0.500000  0.500000  0.000000  1
  Ni  Ni34  1  0.000000  0.500000  0.000000  1
  Ru  Ru35  1  0.500000  0.500000  0.500000  1
  Ru  Ru36  1  0.000000  0.500000  0.500000  1
  Ru  Ru37  1  0.500000  0.000000  0.500000  1
