# generated using pymatgen
data_Tm12InTc3Te
_symmetry_space_group_name_H-M   'P 1'
_cell_length_a   8.32731106
_cell_length_b   8.32731175
_cell_length_c   8.32731200
_cell_angle_alpha   110.96206685
_cell_angle_beta   108.61339906
_cell_angle_gamma   108.84863547
_symmetry_Int_Tables_number   1
_chemical_formula_structural   Tm12InTc3Te
_chemical_formula_sum   'Tm12 In1 Tc3 Te1'
_cell_volume   444.29311398
_cell_formula_units_Z   1
loop_
 _symmetry_equiv_pos_site_id
 _symmetry_equiv_pos_as_xyz
  1  'x, y, z'
loop_
 _atom_site_type_symbol
 _atom_site_label
 _atom_site_symmetry_multiplicity
 _atom_site_fract_x
 _atom_site_fract_y
 _atom_site_fract_z
 _atom_site_occupancy
  Tm  Tm0  1  0.323391  0.315520  0.638728  1
  Tm  Tm1  1  0.676609  0.684480  0.361272  1
  Tm  Tm2  1  0.676793  0.315520  0.992130  1
  Tm  Tm3  1  0.323207  0.684480  0.007870  1
  Tm  Tm4  1  0.189338  0.433750  0.244412  1
  Tm  Tm5  1  0.810662  0.566250  0.755588  1
  Tm  Tm6  1  0.189340  0.944965  0.755625  1
  Tm  Tm7  1  0.942463  0.181435  0.760892  1
  Tm  Tm8  1  0.810660  0.055035  0.244375  1
  Tm  Tm9  1  0.057537  0.818565  0.239108  1
  Tm  Tm10  1  0.420543  0.181435  0.238970  1
  Tm  Tm11  1  0.579457  0.818565  0.761030  1
  In  In12  1  0.500000  0.000000  0.500000  1
  Tc  Tc13  1  0.340877  0.340916  0.000039  1
  Tc  Tc14  1  0.659123  0.659084  0.999961  1
  Tc  Tc15  1  0.000000  0.000000  0.000000  1
  Te  Te16  1  0.000000  0.500000  0.500000  1
