# generated using pymatgen
data_Li12Pr12FeRu(WO8)6
_symmetry_space_group_name_H-M   'P 1'
_cell_length_a   10.97640093
_cell_length_b   10.97640139
_cell_length_c   10.97640300
_cell_angle_alpha   109.48952292
_cell_angle_beta   109.48953485
_cell_angle_gamma   109.48952699
_symmetry_Int_Tables_number   1
_chemical_formula_structural   Li12Pr12FeRu(WO8)6
_chemical_formula_sum   'Li12 Pr12 Fe1 Ru1 W6 O48'
_cell_volume   1017.33356030
_cell_formula_units_Z   1
loop_
 _symmetry_equiv_pos_site_id
 _symmetry_equiv_pos_as_xyz
  1  'x, y, z'
loop_
 _atom_site_type_symbol
 _atom_site_label
 _atom_site_symmetry_multiplicity
 _atom_site_fract_x
 _atom_site_fract_y
 _atom_site_fract_z
 _atom_site_occupancy
  Li  Li0  1  0.252736  0.876215  0.122771  1
  Li  Li1  1  0.374621  0.245462  0.122138  1
  Li  Li2  1  0.124821  0.375020  0.251098  1
  Li  Li3  1  0.622552  0.874820  0.243646  1
  Li  Li4  1  0.123004  0.749149  0.375080  1
  Li  Li5  1  0.750505  0.624399  0.374626  1
  Li  Li6  1  0.249496  0.375602  0.625375  1
  Li  Li7  1  0.876997  0.250851  0.624921  1
  Li  Li8  1  0.377449  0.125181  0.756355  1
  Li  Li9  1  0.875180  0.624981  0.748903  1
  Li  Li10  1  0.625378  0.754538  0.877862  1
  Li  Li11  1  0.747263  0.123785  0.877229  1
  Pr  Pr12  1  0.743608  0.367186  0.121787  1
  Pr  Pr13  1  0.874596  0.748731  0.125076  1
  Pr  Pr14  1  0.374664  0.623486  0.249651  1
  Pr  Pr15  1  0.867110  0.121595  0.243328  1
  Pr  Pr16  1  0.247639  0.125041  0.374123  1
  Pr  Pr17  1  0.622684  0.244419  0.367117  1
  Pr  Pr18  1  0.752361  0.874959  0.625877  1
  Pr  Pr19  1  0.377317  0.755581  0.632884  1
  Pr  Pr20  1  0.132890  0.878404  0.756672  1
  Pr  Pr21  1  0.625337  0.376514  0.750350  1
  Pr  Pr22  1  0.256392  0.632813  0.878212  1
  Pr  Pr23  1  0.125404  0.251270  0.874925  1
  Fe  Fe24  1  0.499999  0.000000  0.000000  1
  Ru  Ru25  1  0.499999  0.000000  0.500000  1
  W  W26  1  0.000000  0.000000  0.000000  1
  W  W27  1  0.499999  0.499999  0.000000  1
  W  W28  1  0.000000  0.500000  0.000000  1
  W  W29  1  0.000000  0.000000  0.500000  1
  W  W30  1  0.000000  0.500001  0.500001  1
  W  W31  1  0.500001  0.500001  0.500001  1
  O  O32  1  0.829293  0.906583  0.022846  1
  O  O33  1  0.692471  0.112797  0.025543  1
  O  O34  1  0.195301  0.672997  0.081016  1
  O  O35  1  0.385825  0.407345  0.080149  1
  O  O36  1  0.478143  0.671761  0.094183  1
  O  O37  1  0.115654  0.420642  0.092563  1
  O  O38  1  0.525791  0.193377  0.114492  1
  O  O39  1  0.094494  0.921130  0.114523  1
  O  O40  1  0.978620  0.592484  0.171709  1
  O  O41  1  0.694010  0.579156  0.171114  1
  O  O42  1  0.080169  0.171435  0.194979  1
  O  O43  1  0.612036  0.025124  0.193640  1
  O  O44  1  0.827635  0.920333  0.305512  1
  O  O45  1  0.976865  0.384601  0.305550  1
  O  O46  1  0.407900  0.018587  0.330060  1
  O  O47  1  0.420434  0.304436  0.327962  1
  O  O48  1  0.080353  0.908109  0.385258  1
  O  O49  1  0.804648  0.476253  0.384819  1
  O  O50  1  0.328263  0.521593  0.407004  1
  O  O51  1  0.579022  0.889134  0.408024  1
  O  O52  1  0.592395  0.615635  0.420482  1
  O  O53  1  0.330403  0.809421  0.420982  1
  O  O54  1  0.093336  0.171747  0.478215  1
  O  O55  1  0.884734  0.305528  0.477801  1
  O  O56  1  0.115266  0.694471  0.522199  1
  O  O57  1  0.906663  0.828253  0.521785  1
  O  O58  1  0.407604  0.384365  0.579518  1
  O  O59  1  0.669597  0.190580  0.579019  1
  O  O60  1  0.671735  0.478408  0.592994  1
  O  O61  1  0.420977  0.110866  0.591975  1
  O  O62  1  0.195352  0.523747  0.615181  1
  O  O63  1  0.919648  0.091893  0.614743  1
  O  O64  1  0.579566  0.695564  0.672037  1
  O  O65  1  0.592101  0.981412  0.669940  1
  O  O66  1  0.172365  0.079667  0.694487  1
  O  O67  1  0.023135  0.615398  0.694451  1
  O  O68  1  0.387963  0.974876  0.806359  1
  O  O69  1  0.919831  0.828565  0.805020  1
  O  O70  1  0.305991  0.420845  0.828887  1
  O  O71  1  0.021382  0.407517  0.828291  1
  O  O72  1  0.474208  0.806621  0.885506  1
  O  O73  1  0.905506  0.078871  0.885478  1
  O  O74  1  0.521856  0.328238  0.905816  1
  O  O75  1  0.884346  0.579359  0.907437  1
  O  O76  1  0.614176  0.592656  0.919850  1
  O  O77  1  0.804698  0.327003  0.918983  1
  O  O78  1  0.307529  0.887204  0.974456  1
  O  O79  1  0.170705  0.093416  0.977153  1
