# generated using pymatgen
data_Tb2Ho2Ga18Co5Pt
_symmetry_space_group_name_H-M   'P 1'
_cell_length_a   7.42285885
_cell_length_b   7.42285657
_cell_length_c   9.41979416
_cell_angle_alpha   89.94499608
_cell_angle_beta   89.94499760
_cell_angle_gamma   119.64156951
_symmetry_Int_Tables_number   1
_chemical_formula_structural   Tb2Ho2Ga18Co5Pt
_chemical_formula_sum   'Tb2 Ho2 Ga18 Co5 Pt1'
_cell_volume   451.09789223
_cell_formula_units_Z   1
loop_
 _symmetry_equiv_pos_site_id
 _symmetry_equiv_pos_as_xyz
  1  'x, y, z'
loop_
 _atom_site_type_symbol
 _atom_site_label
 _atom_site_symmetry_multiplicity
 _atom_site_fract_x
 _atom_site_fract_y
 _atom_site_fract_z
 _atom_site_occupancy
  Tb  Tb0  1  0.326744  0.002702  0.748911  1
  Tb  Tb1  1  0.002702  0.326744  0.748911  1
  Ho  Ho2  1  0.673779  0.997250  0.251013  1
  Ho  Ho3  1  0.997250  0.673779  0.251013  1
  Ga  Ga4  1  0.654660  0.999538  0.924174  1
  Ga  Ga5  1  0.335713  0.997702  0.427022  1
  Ga  Ga6  1  0.997702  0.335713  0.427021  1
  Ga  Ga7  1  0.345449  0.999680  0.077455  1
  Ga  Ga8  1  0.999538  0.654660  0.924174  1
  Ga  Ga9  1  0.999680  0.345449  0.077455  1
  Ga  Ga10  1  0.333448  0.333448  0.556105  1
  Ga  Ga11  1  0.344041  0.344041  0.937943  1
  Ga  Ga12  1  0.655930  0.655930  0.063823  1
  Ga  Ga13  1  0.667163  0.667163  0.441564  1
  Ga  Ga14  1  0.868025  0.868025  0.741304  1
  Ga  Ga15  1  0.131795  0.131795  0.259063  1
  Ga  Ga16  1  0.336212  0.555220  0.251593  1
  Ga  Ga17  1  0.555220  0.336212  0.251593  1
  Ga  Ga18  1  0.663997  0.446260  0.748345  1
  Ga  Ga19  1  0.446260  0.663997  0.748345  1
  Ga  Ga20  1  0.664444  0.001626  0.571105  1
  Ga  Ga21  1  0.001626  0.664444  0.571104  1
  Co  Co22  1  0.329094  0.670631  0.000462  1
  Co  Co23  1  0.670826  0.329158  0.499559  1
  Co  Co24  1  0.670631  0.329094  0.000462  1
  Co  Co25  1  0.329158  0.670826  0.499559  1
  Co  Co26  1  0.999714  0.999714  0.499476  1
  Pt  Pt27  1  0.999199  0.999199  0.001445  1
