# generated using pymatgen
data_LiTm2Ni11As7
_symmetry_space_group_name_H-M   'P 1'
_cell_length_a   3.82817500
_cell_length_b   9.38419103
_cell_length_c   9.38558650
_cell_angle_alpha   120.30653833
_cell_angle_beta   90.00000000
_cell_angle_gamma   90.00000000
_symmetry_Int_Tables_number   1
_chemical_formula_structural   LiTm2Ni11As7
_chemical_formula_sum   'Li1 Tm2 Ni11 As7'
_cell_volume   291.09240986
_cell_formula_units_Z   1
loop_
 _symmetry_equiv_pos_site_id
 _symmetry_equiv_pos_as_xyz
  1  'x, y, z'
loop_
 _atom_site_type_symbol
 _atom_site_label
 _atom_site_symmetry_multiplicity
 _atom_site_fract_x
 _atom_site_fract_y
 _atom_site_fract_z
 _atom_site_occupancy
  Li  Li0  1  0.500000  0.108742  0.895588  1
  Tm  Tm1  1  0.500000  0.331145  0.665290  1
  Tm  Tm2  1  0.000000  0.670488  0.337650  1
  Ni  Ni3  1  0.000000  0.875223  0.722985  1
  Ni  Ni4  1  0.000000  0.284423  0.155485  1
  Ni  Ni5  1  0.000000  0.840200  0.127330  1
  Ni  Ni6  1  0.500000  0.949620  0.567247  1
  Ni  Ni7  1  0.500000  0.430452  0.381983  1
  Ni  Ni8  1  0.500000  0.615844  0.044232  1
  Ni  Ni9  1  0.000000  0.379799  0.943594  1
  Ni  Ni10  1  0.000000  0.057092  0.431894  1
  Ni  Ni11  1  0.000000  0.561975  0.617642  1
  Ni  Ni12  1  0.500000  0.097107  0.211591  1
  Ni  Ni13  1  0.500000  0.793303  0.893090  1
  As  As14  1  0.500000  0.708793  0.598592  1
  As  As15  1  0.500000  0.414794  0.118241  1
  As  As16  1  0.500000  0.886498  0.292987  1
  As  As17  1  0.000000  0.997863  0.005901  1
  As  As18  1  0.000000  0.115889  0.704682  1
  As  As19  1  0.000000  0.288332  0.404693  1
  As  As20  1  0.000000  0.592419  0.879299  1
