# generated using pymatgen
data_Yb3Ho(B4Ru)4
_symmetry_space_group_name_H-M   'P 1'
_cell_length_a   3.53903500
_cell_length_b   5.94208107
_cell_length_c   11.50710714
_cell_angle_alpha   89.98239833
_cell_angle_beta   90.00000000
_cell_angle_gamma   90.00000000
_symmetry_Int_Tables_number   1
_chemical_formula_structural   Yb3Ho(B4Ru)4
_chemical_formula_sum   'Yb3 Ho1 B16 Ru4'
_cell_volume   241.98562431
_cell_formula_units_Z   1
loop_
 _symmetry_equiv_pos_site_id
 _symmetry_equiv_pos_as_xyz
  1  'x, y, z'
loop_
 _atom_site_type_symbol
 _atom_site_label
 _atom_site_symmetry_multiplicity
 _atom_site_fract_x
 _atom_site_fract_y
 _atom_site_fract_z
 _atom_site_occupancy
  Yb  Yb0  1  0.000000  0.629677  0.650560  1
  Yb  Yb1  1  0.000000  0.370777  0.350511  1
  Yb  Yb2  1  0.000000  0.130733  0.849360  1
  Ho  Ho3  1  0.000000  0.870829  0.150183  1
  B  B4  1  0.500000  0.977107  0.691995  1
  B  B5  1  0.500000  0.022642  0.308007  1
  B  B6  1  0.500000  0.476313  0.807800  1
  B  B7  1  0.500000  0.523808  0.192468  1
  B  B8  1  0.500000  0.786808  0.814272  1
  B  B9  1  0.500000  0.211924  0.185242  1
  B  B10  1  0.500000  0.287229  0.684744  1
  B  B11  1  0.500000  0.711827  0.315247  1
  B  B12  1  0.500000  0.864482  0.968933  1
  B  B13  1  0.500000  0.135747  0.030809  1
  B  B14  1  0.500000  0.364832  0.531265  1
  B  B15  1  0.500000  0.635002  0.468599  1
  B  B16  1  0.500000  0.887169  0.546856  1
  B  B17  1  0.500000  0.113114  0.452770  1
  B  B18  1  0.500000  0.386926  0.952396  1
  B  B19  1  0.500000  0.611240  0.047077  1
  Ru  Ru20  1  0.000000  0.638521  0.911105  1
  Ru  Ru21  1  0.000000  0.362604  0.090351  1
  Ru  Ru22  1  0.000000  0.135708  0.588009  1
  Ru  Ru23  1  0.000000  0.864981  0.411441  1
