# generated using pymatgen
data_Yb3YVFe3B16
_symmetry_space_group_name_H-M   'P 1'
_cell_length_a   3.36366000
_cell_length_b   5.91399057
_cell_length_c   11.43393554
_cell_angle_alpha   89.98797373
_cell_angle_beta   90.00000000
_cell_angle_gamma   90.00000000
_symmetry_Int_Tables_number   1
_chemical_formula_structural   Yb3YVFe3B16
_chemical_formula_sum   'Yb3 Y1 V1 Fe3 B16'
_cell_volume   227.45131297
_cell_formula_units_Z   1
loop_
 _symmetry_equiv_pos_site_id
 _symmetry_equiv_pos_as_xyz
  1  'x, y, z'
loop_
 _atom_site_type_symbol
 _atom_site_label
 _atom_site_symmetry_multiplicity
 _atom_site_fract_x
 _atom_site_fract_y
 _atom_site_fract_z
 _atom_site_occupancy
  Yb  Yb0  1  0.500000  0.374067  0.147592  1
  Yb  Yb1  1  0.500000  0.626690  0.849790  1
  Yb  Yb2  1  0.500000  0.123809  0.654364  1
  Y  Y3  1  0.500000  0.874641  0.347228  1
  V  V4  1  0.500000  0.374098  0.418165  1
  Fe  Fe5  1  0.500000  0.623276  0.582423  1
  Fe  Fe6  1  0.500000  0.127747  0.916908  1
  Fe  Fe7  1  0.500000  0.872906  0.081282  1
  B  B8  1  0.000000  0.112554  0.045642  1
  B  B9  1  0.000000  0.888145  0.953520  1
  B  B10  1  0.000000  0.389640  0.549926  1
  B  B11  1  0.000000  0.616632  0.455930  1
  B  B12  1  0.000000  0.134243  0.469460  1
  B  B13  1  0.000000  0.861362  0.534752  1
  B  B14  1  0.000000  0.361301  0.967417  1
  B  B15  1  0.000000  0.639010  0.031548  1
  B  B16  1  0.000000  0.024197  0.188677  1
  B  B17  1  0.000000  0.975746  0.810393  1
  B  B18  1  0.000000  0.477988  0.691939  1
  B  B19  1  0.000000  0.527338  0.307211  1
  B  B20  1  0.000000  0.215620  0.313187  1
  B  B21  1  0.000000  0.778644  0.683665  1
  B  B22  1  0.000000  0.278998  0.818157  1
  B  B23  1  0.000000  0.721349  0.180822  1
