# generated using pymatgen
data_Yb12Lu8Si15Ge
_symmetry_space_group_name_H-M   'P 1'
_cell_length_a   7.31778599
_cell_length_b   7.75037172
_cell_length_c   14.93629701
_cell_angle_alpha   89.93164861
_cell_angle_beta   90.04875044
_cell_angle_gamma   90.03425242
_symmetry_Int_Tables_number   1
_chemical_formula_structural   Yb12Lu8Si15Ge
_chemical_formula_sum   'Yb12 Lu8 Si15 Ge1'
_cell_volume   847.11941289
_cell_formula_units_Z   1
loop_
 _symmetry_equiv_pos_site_id
 _symmetry_equiv_pos_as_xyz
  1  'x, y, z'
loop_
 _atom_site_type_symbol
 _atom_site_label
 _atom_site_symmetry_multiplicity
 _atom_site_fract_x
 _atom_site_fract_y
 _atom_site_fract_z
 _atom_site_occupancy
  Yb  Yb0  1  0.974186  0.817004  0.404008  1
  Yb  Yb1  1  0.474083  0.682929  0.095973  1
  Yb  Yb2  1  0.525773  0.316964  0.595928  1
  Yb  Yb3  1  0.025926  0.182916  0.904040  1
  Yb  Yb4  1  0.026059  0.182874  0.595905  1
  Yb  Yb5  1  0.525925  0.317059  0.904033  1
  Yb  Yb6  1  0.473910  0.683094  0.403939  1
  Yb  Yb7  1  0.974079  0.817079  0.095961  1
  Yb  Yb8  1  0.351581  0.019860  0.750027  1
  Yb  Yb9  1  0.851633  0.480171  0.750129  1
  Yb  Yb10  1  0.148438  0.519824  0.250004  1
  Yb  Yb11  1  0.648373  0.980149  0.249994  1
  Lu  Lu12  1  0.314978  0.176466  0.121147  1
  Lu  Lu13  1  0.815214  0.323081  0.378536  1
  Lu  Lu14  1  0.185060  0.676501  0.878826  1
  Lu  Lu15  1  0.684522  0.824514  0.621446  1
  Lu  Lu16  1  0.315037  0.176353  0.378805  1
  Lu  Lu17  1  0.814974  0.323512  0.121158  1
  Lu  Lu18  1  0.185899  0.676695  0.621263  1
  Lu  Lu19  1  0.685010  0.823556  0.878884  1
  Si  Si20  1  0.356009  0.965884  0.961635  1
  Si  Si21  1  0.644040  0.034055  0.461664  1
  Si  Si22  1  0.143988  0.465872  0.038350  1
  Si  Si23  1  0.147314  0.465202  0.460869  1
  Si  Si24  1  0.643991  0.034115  0.038354  1
  Si  Si25  1  0.356012  0.965864  0.538355  1
  Si  Si26  1  0.856016  0.534119  0.961622  1
  Si  Si27  1  0.977117  0.877738  0.749981  1
  Si  Si28  1  0.477242  0.622258  0.750022  1
  Si  Si29  1  0.522861  0.377765  0.249969  1
  Si  Si30  1  0.022859  0.122146  0.249961  1
  Si  Si31  1  0.248374  0.397353  0.749994  1
  Si  Si32  1  0.748469  0.102738  0.749985  1
  Si  Si33  1  0.251510  0.897372  0.249996  1
  Si  Si34  1  0.751563  0.602648  0.250003  1
  Ge  Ge35  1  0.851974  0.534270  0.539233  1
