# generated using pymatgen
data_LuZrMn2Fe10P7
_symmetry_space_group_name_H-M   'P 1'
_cell_length_a   8.94674659
_cell_length_b   8.96074167
_cell_length_c   3.59984100
_cell_angle_alpha   90.00000000
_cell_angle_beta   90.00000000
_cell_angle_gamma   120.03562373
_symmetry_Int_Tables_number   1
_chemical_formula_structural   LuZrMn2Fe10P7
_chemical_formula_sum   'Lu1 Zr1 Mn2 Fe10 P7'
_cell_volume   249.84291290
_cell_formula_units_Z   1
loop_
 _symmetry_equiv_pos_site_id
 _symmetry_equiv_pos_as_xyz
  1  'x, y, z'
loop_
 _atom_site_type_symbol
 _atom_site_label
 _atom_site_symmetry_multiplicity
 _atom_site_fract_x
 _atom_site_fract_y
 _atom_site_fract_z
 _atom_site_occupancy
  Lu  Lu0  1  0.998815  0.998534  0.500000  1
  Zr  Zr1  1  0.667822  0.336023  0.000000  1
  Mn  Mn2  1  0.232978  0.785679  0.500000  1
  Mn  Mn3  1  0.218103  0.446264  0.500000  1
  Fe  Fe4  1  0.759266  0.723615  0.000000  1
  Fe  Fe5  1  0.276685  0.037086  0.000000  1
  Fe  Fe6  1  0.961483  0.238368  0.000000  1
  Fe  Fe7  1  0.489345  0.942603  0.000000  1
  Fe  Fe8  1  0.058768  0.546727  0.000000  1
  Fe  Fe9  1  0.452954  0.509848  0.000000  1
  Fe  Fe10  1  0.716286  0.103332  0.500000  1
  Fe  Fe11  1  0.895185  0.612006  0.500000  1
  Fe  Fe12  1  0.389206  0.285133  0.500000  1
  Fe  Fe13  1  0.549003  0.764247  0.500000  1
  P  P14  1  0.453808  0.078385  0.500000  1
  P  P15  1  0.924269  0.375421  0.500000  1
  P  P16  1  0.623866  0.554300  0.500000  1
  P  P17  1  0.745309  0.964343  0.000000  1
  P  P18  1  0.031711  0.779945  0.000000  1
  P  P19  1  0.218071  0.250307  0.000000  1
  P  P20  1  0.337063  0.667839  0.000000  1
