# generated using pymatgen
data_Pr16Dy4Si15P
_symmetry_space_group_name_H-M   'P 1'
_cell_length_a   7.80979768
_cell_length_b   7.81405840
_cell_length_c   15.33671983
_cell_angle_alpha   89.95411167
_cell_angle_beta   89.87172916
_cell_angle_gamma   90.11263790
_symmetry_Int_Tables_number   1
_chemical_formula_structural   Pr16Dy4Si15P
_chemical_formula_sum   'Pr16 Dy4 Si15 P1'
_cell_volume   935.93750691
_cell_formula_units_Z   1
loop_
 _symmetry_equiv_pos_site_id
 _symmetry_equiv_pos_as_xyz
  1  'x, y, z'
loop_
 _atom_site_type_symbol
 _atom_site_label
 _atom_site_symmetry_multiplicity
 _atom_site_fract_x
 _atom_site_fract_y
 _atom_site_fract_z
 _atom_site_occupancy
  Pr  Pr0  1  0.381782  0.011653  0.442680  1
  Pr  Pr1  1  0.486035  0.880413  0.694521  1
  Pr  Pr2  1  0.513136  0.120493  0.194233  1
  Pr  Pr3  1  0.879199  0.486736  0.305333  1
  Pr  Pr4  1  0.122716  0.509976  0.805228  1
  Pr  Pr5  1  0.620364  0.986594  0.943234  1
  Pr  Pr6  1  0.012765  0.377840  0.556400  1
  Pr  Pr7  1  0.986611  0.619373  0.055538  1
  Pr  Pr8  1  0.127864  0.979259  0.876333  1
  Pr  Pr9  1  0.523303  0.625174  0.127694  1
  Pr  Pr10  1  0.472103  0.371367  0.629491  1
  Pr  Pr11  1  0.624698  0.523206  0.870670  1
  Pr  Pr12  1  0.373764  0.474701  0.372937  1
  Pr  Pr13  1  0.876715  0.024082  0.379190  1
  Pr  Pr14  1  0.976195  0.124628  0.121602  1
  Pr  Pr15  1  0.027727  0.880267  0.622646  1
  Dy  Dy16  1  0.308964  0.308929  0.999803  1
  Dy  Dy17  1  0.190851  0.807740  0.250306  1
  Dy  Dy18  1  0.807644  0.191743  0.749718  1
  Dy  Dy19  1  0.691007  0.691270  0.500132  1
  Si  Si20  1  0.326251  0.687893  0.957778  1
  Si  Si21  1  0.673483  0.313296  0.459881  1
  Si  Si22  1  0.687936  0.327767  0.041185  1
  Si  Si23  1  0.312335  0.672664  0.542356  1
  Si  Si24  1  0.812714  0.827442  0.208854  1
  Si  Si25  1  0.172839  0.187272  0.291038  1
  Si  Si26  1  0.829336  0.811826  0.790984  1
  Si  Si27  1  0.285495  0.920696  0.062747  1
  Si  Si28  1  0.579473  0.785358  0.312993  1
  Si  Si29  1  0.424833  0.213280  0.814958  1
  Si  Si30  1  0.787535  0.580103  0.685807  1
  Si  Si31  1  0.213419  0.421080  0.186747  1
  Si  Si32  1  0.711368  0.078074  0.563553  1
  Si  Si33  1  0.921725  0.286650  0.936595  1
  Si  Si34  1  0.078697  0.713134  0.437972  1
  P  P35  1  0.179117  0.178022  0.708865  1
