# generated using pymatgen
data_Mn2Be8FeIr
_symmetry_space_group_name_H-M   'P 1'
_cell_length_a   4.25697700
_cell_length_b   4.25697655
_cell_length_c   6.96439700
_cell_angle_alpha   90.00000000
_cell_angle_beta   90.00000000
_cell_angle_gamma   119.99999569
_symmetry_Int_Tables_number   1
_chemical_formula_structural   Mn2Be8FeIr
_chemical_formula_sum   'Mn2 Be8 Fe1 Ir1'
_cell_volume   109.29913688
_cell_formula_units_Z   1
loop_
 _symmetry_equiv_pos_site_id
 _symmetry_equiv_pos_as_xyz
  1  'x, y, z'
loop_
 _atom_site_type_symbol
 _atom_site_label
 _atom_site_symmetry_multiplicity
 _atom_site_fract_x
 _atom_site_fract_y
 _atom_site_fract_z
 _atom_site_occupancy
  Mn  Mn0  1  0.666667  0.333333  0.944345  1
  Mn  Mn1  1  0.333333  0.666667  0.428880  1
  Be  Be2  1  0.000000  0.000000  0.000158  1
  Be  Be3  1  0.000000  0.000000  0.499560  1
  Be  Be4  1  0.830374  0.660749  0.246452  1
  Be  Be5  1  0.169847  0.830153  0.753540  1
  Be  Be6  1  0.660307  0.830153  0.753540  1
  Be  Be7  1  0.339251  0.169626  0.246452  1
  Be  Be8  1  0.830374  0.169626  0.246452  1
  Be  Be9  1  0.169847  0.339693  0.753540  1
  Fe  Fe10  1  0.333333  0.666667  0.062264  1
  Ir  Ir11  1  0.666667  0.333333  0.564815  1
