# generated using pymatgen
data_Pr3Er3(BiO7)2
_symmetry_space_group_name_H-M   'P 1'
_cell_length_a   6.65169755
_cell_length_b   6.66550992
_cell_length_c   7.81485678
_cell_angle_alpha   106.96651662
_cell_angle_beta   89.87678156
_cell_angle_gamma   99.13277290
_symmetry_Int_Tables_number   1
_chemical_formula_structural   Pr3Er3(BiO7)2
_chemical_formula_sum   'Pr3 Er3 Bi2 O14'
_cell_volume   326.84703777
_cell_formula_units_Z   1
loop_
 _symmetry_equiv_pos_site_id
 _symmetry_equiv_pos_as_xyz
  1  'x, y, z'
loop_
 _atom_site_type_symbol
 _atom_site_label
 _atom_site_symmetry_multiplicity
 _atom_site_fract_x
 _atom_site_fract_y
 _atom_site_fract_z
 _atom_site_occupancy
  Pr  Pr0  1  0.729151  0.460537  0.113739  1
  Pr  Pr1  1  0.738396  0.480710  0.620653  1
  Pr  Pr2  1  0.258658  0.520336  0.383252  1
  Er  Er3  1  0.463030  0.004682  0.251891  1
  Er  Er4  1  0.533451  0.992910  0.747355  1
  Er  Er5  1  0.272644  0.539884  0.884076  1
  Bi  Bi6  1  0.002099  0.003733  0.502806  1
  Bi  Bi7  1  0.004421  0.000302  0.997885  1
  O  O8  1  0.440274  0.656370  0.159536  1
  O  O9  1  0.537205  0.341010  0.831064  1
  O  O10  1  0.305302  0.929023  0.954329  1
  O  O11  1  0.700073  0.064205  0.047619  1
  O  O12  1  0.302124  0.933954  0.513789  1
  O  O13  1  0.701001  0.065451  0.484080  1
  O  O14  1  0.542885  0.353628  0.342700  1
  O  O15  1  0.449825  0.645908  0.666599  1
  O  O16  1  0.937230  0.665100  0.946218  1
  O  O17  1  0.081534  0.331862  0.038590  1
  O  O18  1  0.077273  0.343925  0.625661  1
  O  O19  1  0.927388  0.660935  0.386714  1
  O  O20  1  0.871974  0.916408  0.728463  1
  O  O21  1  0.124061  0.089128  0.272981  1
