# generated using pymatgen
data_Ti7MnAs5Se
_symmetry_space_group_name_H-M   'P 1'
_cell_length_a   7.31054300
_cell_length_b   7.31054328
_cell_length_c   18.66248700
_cell_angle_alpha   90.00000000
_cell_angle_beta   90.00000000
_cell_angle_gamma   152.08252077
_symmetry_Int_Tables_number   1
_chemical_formula_structural   Ti7MnAs5Se
_chemical_formula_sum   'Ti14 Mn2 As10 Se2'
_cell_volume   466.98148555
_cell_formula_units_Z   2
loop_
 _symmetry_equiv_pos_site_id
 _symmetry_equiv_pos_as_xyz
  1  'x, y, z'
loop_
 _atom_site_type_symbol
 _atom_site_label
 _atom_site_symmetry_multiplicity
 _atom_site_fract_x
 _atom_site_fract_y
 _atom_site_fract_z
 _atom_site_occupancy
  Ti  Ti0  1  0.061462  0.938538  0.750000  1
  Ti  Ti1  1  0.938538  0.061462  0.250000  1
  Ti  Ti2  1  0.732491  0.267509  0.160229  1
  Ti  Ti3  1  0.267509  0.732491  0.839771  1
  Ti  Ti4  1  0.267509  0.732491  0.660229  1
  Ti  Ti5  1  0.732491  0.267509  0.339771  1
  Ti  Ti6  1  0.533880  0.466120  0.113751  1
  Ti  Ti7  1  0.466120  0.533880  0.886249  1
  Ti  Ti8  1  0.466120  0.533880  0.613751  1
  Ti  Ti9  1  0.533880  0.466120  0.386249  1
  Ti  Ti10  1  0.664388  0.335612  0.972624  1
  Ti  Ti11  1  0.335612  0.664388  0.027376  1
  Ti  Ti12  1  0.335612  0.664388  0.472624  1
  Ti  Ti13  1  0.664388  0.335612  0.527376  1
  Mn  Mn14  1  0.000000  0.000000  0.000000  1
  Mn  Mn15  1  0.000000  0.000000  0.500000  1
  As  As16  1  0.699738  0.300262  0.750000  1
  As  As17  1  0.300262  0.699738  0.250000  1
  As  As18  1  0.902669  0.097331  0.115055  1
  As  As19  1  0.097331  0.902669  0.884945  1
  As  As20  1  0.097331  0.902669  0.615055  1
  As  As21  1  0.902669  0.097331  0.384945  1
  As  As22  1  0.841205  0.158795  0.926147  1
  As  As23  1  0.158795  0.841205  0.073853  1
  As  As24  1  0.158795  0.841205  0.426147  1
  As  As25  1  0.841205  0.158795  0.573853  1
  Se  Se26  1  0.422480  0.577520  0.750000  1
  Se  Se27  1  0.577520  0.422480  0.250000  1
