# generated using pymatgen
data_Lu4Pu4Re3B24Rh
_symmetry_space_group_name_H-M   'P 1'
_cell_length_a   3.64502400
_cell_length_b   9.11005326
_cell_length_c   11.48388946
_cell_angle_alpha   90.18801951
_cell_angle_beta   90.00000000
_cell_angle_gamma   90.00000000
_symmetry_Int_Tables_number   1
_chemical_formula_structural   Lu4Pu4Re3B24Rh
_chemical_formula_sum   'Lu4 Pu4 Re3 B24 Rh1'
_cell_volume   381.33614628
_cell_formula_units_Z   1
loop_
 _symmetry_equiv_pos_site_id
 _symmetry_equiv_pos_as_xyz
  1  'x, y, z'
loop_
 _atom_site_type_symbol
 _atom_site_label
 _atom_site_symmetry_multiplicity
 _atom_site_fract_x
 _atom_site_fract_y
 _atom_site_fract_z
 _atom_site_occupancy
  Lu  Lu0  1  0.000000  0.944093  0.372390  1
  Lu  Lu1  1  0.000000  0.054646  0.626876  1
  Lu  Lu2  1  0.000000  0.443415  0.127047  1
  Lu  Lu3  1  0.000000  0.555756  0.873922  1
  Pu  Pu4  1  0.000000  0.318767  0.415413  1
  Pu  Pu5  1  0.000000  0.676820  0.590011  1
  Pu  Pu6  1  0.000000  0.826180  0.083063  1
  Pu  Pu7  1  0.000000  0.178690  0.913070  1
  Re  Re8  1  0.000000  0.361371  0.678724  1
  Re  Re9  1  0.000000  0.138612  0.179476  1
  Re  Re10  1  0.000000  0.861159  0.820803  1
  B  B11  1  0.500000  0.554066  0.433424  1
  B  B12  1  0.500000  0.446629  0.566474  1
  B  B13  1  0.500000  0.053777  0.066647  1
  B  B14  1  0.500000  0.947127  0.932739  1
  B  B15  1  0.500000  0.750441  0.421068  1
  B  B16  1  0.500000  0.249402  0.580105  1
  B  B17  1  0.500000  0.250304  0.080249  1
  B  B18  1  0.500000  0.750461  0.919752  1
  B  B19  1  0.500000  0.793006  0.264722  1
  B  B20  1  0.500000  0.206591  0.734540  1
  B  B21  1  0.500000  0.294007  0.235269  1
  B  B22  1  0.500000  0.706438  0.765839  1
  B  B23  1  0.500000  0.632206  0.182380  1
  B  B24  1  0.500000  0.368568  0.815774  1
  B  B25  1  0.500000  0.131458  0.316181  1
  B  B26  1  0.500000  0.867979  0.684372  1
  B  B27  1  0.500000  0.981431  0.213127  1
  B  B28  1  0.500000  0.018565  0.786445  1
  B  B29  1  0.500000  0.482160  0.286958  1
  B  B30  1  0.500000  0.518278  0.713672  1
  B  B31  1  0.500000  0.604854  0.029598  1
  B  B32  1  0.500000  0.395837  0.971578  1
  B  B33  1  0.500000  0.103348  0.470890  1
  B  B34  1  0.500000  0.893985  0.528312  1
  Rh  Rh35  1  0.000000  0.639576  0.319092  1
