# generated using pymatgen
data_Li3Th5(Ni4As3)4
_symmetry_space_group_name_H-M   'P 1'
_cell_length_a   12.63989100
_cell_length_b   12.63989064
_cell_length_c   4.02347900
_cell_angle_alpha   90.00000000
_cell_angle_beta   90.00000000
_cell_angle_gamma   120.00000357
_symmetry_Int_Tables_number   1
_chemical_formula_structural   Li3Th5(Ni4As3)4
_chemical_formula_sum   'Li3 Th5 Ni16 As12'
_cell_volume   556.69715292
_cell_formula_units_Z   1
loop_
 _symmetry_equiv_pos_site_id
 _symmetry_equiv_pos_as_xyz
  1  'x, y, z'
loop_
 _atom_site_type_symbol
 _atom_site_label
 _atom_site_symmetry_multiplicity
 _atom_site_fract_x
 _atom_site_fract_y
 _atom_site_fract_z
 _atom_site_occupancy
  Li  Li0  1  0.576945  0.576945  0.000000  1
  Li  Li1  1  0.423055  0.000000  0.000000  1
  Li  Li2  1  0.000000  0.423055  0.000000  1
  Th  Th3  1  0.192268  0.192268  0.500000  1
  Th  Th4  1  0.807732  0.000000  0.500000  1
  Th  Th5  1  0.000000  0.807732  0.500000  1
  Th  Th6  1  0.333333  0.666667  0.000000  1
  Th  Th7  1  0.666667  0.333333  0.000000  1
  Ni  Ni8  1  0.724138  0.724138  0.500000  1
  Ni  Ni9  1  0.275862  0.000000  0.500000  1
  Ni  Ni10  1  0.000000  0.275862  0.500000  1
  Ni  Ni11  1  0.190778  0.382855  0.000000  1
  Ni  Ni12  1  0.617145  0.807922  0.000000  1
  Ni  Ni13  1  0.192078  0.809222  0.000000  1
  Ni  Ni14  1  0.807922  0.617145  0.000000  1
  Ni  Ni15  1  0.809222  0.192078  0.000000  1
  Ni  Ni16  1  0.382855  0.190778  0.000000  1
  Ni  Ni17  1  0.360060  0.481922  0.500000  1
  Ni  Ni18  1  0.518078  0.878139  0.500000  1
  Ni  Ni19  1  0.121861  0.639940  0.500000  1
  Ni  Ni20  1  0.878139  0.518078  0.500000  1
  Ni  Ni21  1  0.639940  0.121861  0.500000  1
  Ni  Ni22  1  0.481922  0.360060  0.500000  1
  Ni  Ni23  1  0.000000  0.000000  0.000000  1
  As  As24  1  0.818571  0.818571  0.000000  1
  As  As25  1  0.181429  0.000000  0.000000  1
  As  As26  1  0.000000  0.181429  0.000000  1
  As  As27  1  0.165908  0.473414  0.500000  1
  As  As28  1  0.526586  0.692494  0.500000  1
  As  As29  1  0.307506  0.834092  0.500000  1
  As  As30  1  0.692494  0.526586  0.500000  1
  As  As31  1  0.834092  0.307506  0.500000  1
  As  As32  1  0.473414  0.165908  0.500000  1
  As  As33  1  0.376703  0.376703  0.000000  1
  As  As34  1  0.623297  0.000000  0.000000  1
  As  As35  1  0.000000  0.623297  0.000000  1
