# generated using pymatgen
data_YEr3Al4(CoO5)4
_symmetry_space_group_name_H-M   'P 1'
_cell_length_a   5.63066000
_cell_length_b   7.18270795
_cell_length_c   8.30300009
_cell_angle_alpha   89.94111967
_cell_angle_beta   90.00000000
_cell_angle_gamma   90.00000000
_symmetry_Int_Tables_number   1
_chemical_formula_structural   YEr3Al4(CoO5)4
_chemical_formula_sum   'Y1 Er3 Al4 Co4 O20'
_cell_volume   335.80126331
_cell_formula_units_Z   1
loop_
 _symmetry_equiv_pos_site_id
 _symmetry_equiv_pos_as_xyz
  1  'x, y, z'
loop_
 _atom_site_type_symbol
 _atom_site_label
 _atom_site_symmetry_multiplicity
 _atom_site_fract_x
 _atom_site_fract_y
 _atom_site_fract_z
 _atom_site_occupancy
  Y  Y0  1  0.500000  0.865232  0.169307  1
  Er  Er1  1  0.500000  0.365021  0.330830  1
  Er  Er2  1  0.500000  0.634694  0.669129  1
  Er  Er3  1  0.500000  0.135586  0.830440  1
  Al  Al4  1  0.000000  0.109338  0.143064  1
  Al  Al5  1  0.000000  0.891907  0.856197  1
  Al  Al6  1  0.000000  0.391733  0.643466  1
  Al  Al7  1  0.000000  0.607744  0.357141  1
  Co  Co8  1  0.246166  0.000277  0.500455  1
  Co  Co9  1  0.753834  0.000277  0.500455  1
  Co  Co10  1  0.753724  0.499286  0.999629  1
  Co  Co11  1  0.246276  0.499286  0.999629  1
  O  O12  1  0.500000  0.338305  0.055892  1
  O  O13  1  0.500000  0.659366  0.943123  1
  O  O14  1  0.500000  0.161225  0.556129  1
  O  O15  1  0.500000  0.839380  0.446018  1
  O  O16  1  0.220980  0.001937  0.998754  1
  O  O17  1  0.779020  0.001937  0.998754  1
  O  O18  1  0.777851  0.500075  0.500450  1
  O  O19  1  0.222149  0.500075  0.500450  1
  O  O20  1  0.250493  0.106996  0.292009  1
  O  O21  1  0.748208  0.894596  0.708597  1
  O  O22  1  0.251792  0.894596  0.708597  1
  O  O23  1  0.748436  0.394549  0.791284  1
  O  O24  1  0.749507  0.106996  0.292009  1
  O  O25  1  0.250887  0.602367  0.208949  1
  O  O26  1  0.749113  0.602367  0.208949  1
  O  O27  1  0.251564  0.394549  0.791284  1
  O  O28  1  0.000000  0.346496  0.070098  1
  O  O29  1  0.000000  0.653946  0.928856  1
  O  O30  1  0.000000  0.153673  0.571464  1
  O  O31  1  0.000000  0.846186  0.428593  1
