# generated using pymatgen
data_Nb6Co6N
_symmetry_space_group_name_H-M   'P 1'
_cell_length_a   7.89591117
_cell_length_b   7.89591043
_cell_length_c   7.89591100
_cell_angle_alpha   60.00000179
_cell_angle_beta   60.00000491
_cell_angle_gamma   60.00000257
_symmetry_Int_Tables_number   1
_chemical_formula_structural   Nb6Co6N
_chemical_formula_sum   'Nb12 Co12 N2'
_cell_volume   348.09015794
_cell_formula_units_Z   2
loop_
 _symmetry_equiv_pos_site_id
 _symmetry_equiv_pos_as_xyz
  1  'x, y, z'
loop_
 _atom_site_type_symbol
 _atom_site_label
 _atom_site_symmetry_multiplicity
 _atom_site_fract_x
 _atom_site_fract_y
 _atom_site_fract_z
 _atom_site_occupancy
  Nb  Nb0  1  0.051874  0.051874  0.448126  1
  Nb  Nb1  1  0.448126  0.051874  0.448126  1
  Nb  Nb2  1  0.051874  0.448126  0.448126  1
  Nb  Nb3  1  0.448126  0.448126  0.051874  1
  Nb  Nb4  1  0.051874  0.448126  0.051874  1
  Nb  Nb5  1  0.448126  0.051874  0.051874  1
  Nb  Nb6  1  0.198126  0.198126  0.801874  1
  Nb  Nb7  1  0.801874  0.198126  0.801874  1
  Nb  Nb8  1  0.198126  0.801874  0.801874  1
  Nb  Nb9  1  0.801874  0.801874  0.198126  1
  Nb  Nb10  1  0.198126  0.801874  0.198126  1
  Nb  Nb11  1  0.801874  0.198126  0.198126  1
  Co  Co12  1  0.420784  0.420784  0.737649  1
  Co  Co13  1  0.420784  0.737649  0.420784  1
  Co  Co14  1  0.737649  0.420784  0.420784  1
  Co  Co15  1  0.420784  0.420784  0.420784  1
  Co  Co16  1  0.829216  0.829216  0.512351  1
  Co  Co17  1  0.829216  0.512351  0.829216  1
  Co  Co18  1  0.512351  0.829216  0.829216  1
  Co  Co19  1  0.829216  0.829216  0.829216  1
  Co  Co20  1  0.625000  0.625000  0.125000  1
  Co  Co21  1  0.625000  0.125000  0.625000  1
  Co  Co22  1  0.125000  0.625000  0.625000  1
  Co  Co23  1  0.625000  0.625000  0.625000  1
  N  N24  1  0.250000  0.250000  0.250000  1
  N  N25  1  0.000000  0.000000  0.000000  1
