# generated using pymatgen
data_Hf5Zr19As8
_symmetry_space_group_name_H-M   'P 1'
_cell_length_a   11.03336879
_cell_length_b   11.02641968
_cell_length_c   5.46408512
_cell_angle_alpha   89.98766282
_cell_angle_beta   90.02072226
_cell_angle_gamma   90.03818655
_symmetry_Int_Tables_number   1
_chemical_formula_structural   Hf5Zr19As8
_chemical_formula_sum   'Hf5 Zr19 As8'
_cell_volume   664.75249237
_cell_formula_units_Z   1
loop_
 _symmetry_equiv_pos_site_id
 _symmetry_equiv_pos_as_xyz
  1  'x, y, z'
loop_
 _atom_site_type_symbol
 _atom_site_label
 _atom_site_symmetry_multiplicity
 _atom_site_fract_x
 _atom_site_fract_y
 _atom_site_fract_z
 _atom_site_occupancy
  Hf  Hf0  1  0.895660  0.582140  0.035301  1
  Hf  Hf1  1  0.104344  0.417808  0.035154  1
  Hf  Hf2  1  0.917670  0.395613  0.535402  1
  Hf  Hf3  1  0.082287  0.604320  0.535472  1
  Hf  Hf4  1  0.605541  0.917055  0.464326  1
  Zr  Zr5  1  0.394600  0.083264  0.463038  1
  Zr  Zr6  1  0.583330  0.104206  0.962600  1
  Zr  Zr7  1  0.417208  0.894770  0.963798  1
  Zr  Zr8  1  0.860555  0.025766  0.716087  1
  Zr  Zr9  1  0.139083  0.973991  0.716458  1
  Zr  Zr10  1  0.474055  0.360915  0.216464  1
  Zr  Zr11  1  0.526123  0.639400  0.216527  1
  Zr  Zr12  1  0.640159  0.473829  0.783977  1
  Zr  Zr13  1  0.359920  0.526417  0.783923  1
  Zr  Zr14  1  0.026197  0.140169  0.284139  1
  Zr  Zr15  1  0.973764  0.859846  0.284047  1
  Zr  Zr16  1  0.284270  0.181702  0.989275  1
  Zr  Zr17  1  0.715842  0.818458  0.988849  1
  Zr  Zr18  1  0.318858  0.784595  0.489339  1
  Zr  Zr19  1  0.681291  0.215236  0.489441  1
  Zr  Zr20  1  0.214291  0.320134  0.511557  1
  Zr  Zr21  1  0.785186  0.680605  0.511123  1
  Zr  Zr22  1  0.179945  0.714315  0.011383  1
  Zr  Zr23  1  0.820032  0.285651  0.011410  1
  As  As24  1  0.793727  0.039609  0.212461  1
  As  As25  1  0.205873  0.959865  0.211955  1
  As  As26  1  0.459926  0.294104  0.712128  1
  As  As27  1  0.540357  0.706302  0.711521  1
  As  As28  1  0.707120  0.460189  0.288299  1
  As  As29  1  0.292953  0.539802  0.288233  1
  As  As30  1  0.039605  0.207068  0.788261  1
  As  As31  1  0.960227  0.792855  0.788052  1
