# generated using pymatgen
data_Al2Co3Si2
_symmetry_space_group_name_H-M   'P 1'
_cell_length_a   6.71607054
_cell_length_b   6.71607110
_cell_length_c   6.71607064
_cell_angle_alpha   33.95664219
_cell_angle_beta   33.95663206
_cell_angle_gamma   33.95663071
_symmetry_Int_Tables_number   1
_chemical_formula_structural   Al2Co3Si2
_chemical_formula_sum   'Al2 Co3 Si2'
_cell_volume   84.24096478
_cell_formula_units_Z   1
loop_
 _symmetry_equiv_pos_site_id
 _symmetry_equiv_pos_as_xyz
  1  'x, y, z'
loop_
 _atom_site_type_symbol
 _atom_site_label
 _atom_site_symmetry_multiplicity
 _atom_site_fract_x
 _atom_site_fract_y
 _atom_site_fract_z
 _atom_site_occupancy
  Al  Al0  1  0.008808  0.008808  0.008808  1
  Al  Al1  1  0.493990  0.493990  0.493990  1
  Co  Co2  1  0.370300  0.370300  0.370300  1
  Co  Co3  1  0.624033  0.624033  0.624033  1
  Co  Co4  1  0.878896  0.878896  0.878896  1
  Si  Si5  1  0.245651  0.245651  0.245651  1
  Si  Si6  1  0.753322  0.753322  0.753322  1
