# generated using pymatgen
data_DyHoAl20FeRh3
_symmetry_space_group_name_H-M   'P 1'
_cell_length_a   6.83253950
_cell_length_b   6.82822411
_cell_length_c   9.11741411
_cell_angle_alpha   90.02480107
_cell_angle_beta   90.14309051
_cell_angle_gamma   97.29526117
_symmetry_Int_Tables_number   1
_chemical_formula_structural   DyHoAl20FeRh3
_chemical_formula_sum   'Dy1 Ho1 Al20 Fe1 Rh3'
_cell_volume   421.92006314
_cell_formula_units_Z   1
loop_
 _symmetry_equiv_pos_site_id
 _symmetry_equiv_pos_as_xyz
  1  'x, y, z'
loop_
 _atom_site_type_symbol
 _atom_site_label
 _atom_site_symmetry_multiplicity
 _atom_site_fract_x
 _atom_site_fract_y
 _atom_site_fract_z
 _atom_site_occupancy
  Dy  Dy0  1  0.872331  0.130453  0.751273  1
  Ho  Ho1  1  0.127741  0.869379  0.248648  1
  Al  Al2  1  0.622408  0.378915  0.550417  1
  Al  Al3  1  0.377486  0.621188  0.449481  1
  Al  Al4  1  0.371574  0.619616  0.046933  1
  Al  Al5  1  0.628319  0.380506  0.953185  1
  Al  Al6  1  0.222124  0.222983  0.498566  1
  Al  Al7  1  0.777938  0.776936  0.501229  1
  Al  Al8  1  0.782343  0.773540  0.002767  1
  Al  Al9  1  0.217757  0.226406  0.997457  1
  Al  Al10  1  0.848185  0.159475  0.100444  1
  Al  Al11  1  0.151964  0.840388  0.899755  1
  Al  Al12  1  0.154999  0.845499  0.603877  1
  Al  Al13  1  0.845160  0.154336  0.395952  1
  Al  Al14  1  0.860285  0.587599  0.755063  1
  Al  Al15  1  0.139772  0.412696  0.244950  1
  Al  Al16  1  0.409599  0.143121  0.750933  1
  Al  Al17  1  0.590128  0.856808  0.249069  1
  Al  Al18  1  0.222494  0.481121  0.756407  1
  Al  Al19  1  0.777683  0.519057  0.243600  1
  Al  Al20  1  0.520765  0.773974  0.751160  1
  Al  Al21  1  0.479066  0.225855  0.248849  1
  Fe  Fe22  1  0.999994  0.500076  0.000115  1
  Rh  Rh23  1  0.000008  0.500068  0.499859  1
  Rh  Rh24  1  0.499933  0.000001  0.000124  1
  Rh  Rh25  1  0.499946  0.000002  0.499888  1
