# generated using pymatgen
data_PrSmGa2(Co3B)2
_symmetry_space_group_name_H-M   'P 1'
_cell_length_a   5.23286310
_cell_length_b   5.23272916
_cell_length_c   6.69897000
_cell_angle_alpha   90.00000000
_cell_angle_beta   90.00000000
_cell_angle_gamma   120.00818734
_symmetry_Int_Tables_number   1
_chemical_formula_structural   PrSmGa2(Co3B)2
_chemical_formula_sum   'Pr1 Sm1 Ga2 Co6 B2'
_cell_volume   158.84386967
_cell_formula_units_Z   1
loop_
 _symmetry_equiv_pos_site_id
 _symmetry_equiv_pos_as_xyz
  1  'x, y, z'
loop_
 _atom_site_type_symbol
 _atom_site_label
 _atom_site_symmetry_multiplicity
 _atom_site_fract_x
 _atom_site_fract_y
 _atom_site_fract_z
 _atom_site_occupancy
  Pr  Pr0  1  0.999969  0.000001  0.000000  1
  Sm  Sm1  1  0.999994  0.000000  0.500000  1
  Ga  Ga2  1  0.333322  0.666712  0.000000  1
  Ga  Ga3  1  0.666626  0.333286  0.000000  1
  Co  Co4  1  0.499989  0.000000  0.297313  1
  Co  Co5  1  0.499987  0.500002  0.297320  1
  Co  Co6  1  0.999985  0.499998  0.297306  1
  Co  Co7  1  0.499989  0.000000  0.702687  1
  Co  Co8  1  0.499987  0.500002  0.702679  1
  Co  Co9  1  0.999985  0.499998  0.702693  1
  B  B10  1  0.333273  0.666685  0.500000  1
  B  B11  1  0.666695  0.333316  0.500000  1
