# generated using pymatgen
data_Y8Hg2IrRh
_symmetry_space_group_name_H-M   'P 1'
_cell_length_a   9.64790844
_cell_length_b   9.64790818
_cell_length_c   9.68033300
_cell_angle_alpha   59.88876622
_cell_angle_beta   59.88876709
_cell_angle_gamma   59.77450940
_symmetry_Int_Tables_number   1
_chemical_formula_structural   Y8Hg2IrRh
_chemical_formula_sum   'Y16 Hg4 Ir2 Rh2'
_cell_volume   634.98918360
_cell_formula_units_Z   2
loop_
 _symmetry_equiv_pos_site_id
 _symmetry_equiv_pos_as_xyz
  1  'x, y, z'
loop_
 _atom_site_type_symbol
 _atom_site_label
 _atom_site_symmetry_multiplicity
 _atom_site_fract_x
 _atom_site_fract_y
 _atom_site_fract_z
 _atom_site_occupancy
  Y  Y0  1  0.601202  0.601202  0.600984  1
  Y  Y1  1  0.601202  0.601202  0.196612  1
  Y  Y2  1  0.601787  0.195732  0.601241  1
  Y  Y3  1  0.195732  0.601787  0.601241  1
  Y  Y4  1  0.059841  0.438991  0.441290  1
  Y  Y5  1  0.438991  0.059841  0.059878  1
  Y  Y6  1  0.438991  0.059841  0.441290  1
  Y  Y7  1  0.059841  0.438991  0.059878  1
  Y  Y8  1  0.440282  0.440282  0.059718  1
  Y  Y9  1  0.060109  0.060109  0.439891  1
  Y  Y10  1  0.188707  0.810967  0.812768  1
  Y  Y11  1  0.810967  0.188707  0.187559  1
  Y  Y12  1  0.810967  0.188707  0.812768  1
  Y  Y13  1  0.188707  0.810967  0.187559  1
  Y  Y14  1  0.812762  0.812762  0.187238  1
  Y  Y15  1  0.188779  0.188779  0.811221  1
  Hg  Hg16  1  0.834779  0.834779  0.835069  1
  Hg  Hg17  1  0.834779  0.834779  0.495373  1
  Hg  Hg18  1  0.835133  0.494428  0.835219  1
  Hg  Hg19  1  0.494428  0.835133  0.835219  1
  Ir  Ir20  1  0.392638  0.392638  0.390665  1
  Ir  Ir21  1  0.392638  0.392638  0.824059  1
  Rh  Rh22  1  0.393564  0.823173  0.391632  1
  Rh  Rh23  1  0.823173  0.393564  0.391632  1
