# generated using pymatgen
data_Fe6Mo3W3N
_symmetry_space_group_name_H-M   'P 1'
_cell_length_a   7.69549608
_cell_length_b   7.70087830
_cell_length_c   7.70928319
_cell_angle_alpha   59.95654943
_cell_angle_beta   60.05918963
_cell_angle_gamma   60.02308168
_symmetry_Int_Tables_number   1
_chemical_formula_structural   Fe6Mo3W3N
_chemical_formula_sum   'Fe12 Mo6 W6 N2'
_cell_volume   323.14880467
_cell_formula_units_Z   2
loop_
 _symmetry_equiv_pos_site_id
 _symmetry_equiv_pos_as_xyz
  1  'x, y, z'
loop_
 _atom_site_type_symbol
 _atom_site_label
 _atom_site_symmetry_multiplicity
 _atom_site_fract_x
 _atom_site_fract_y
 _atom_site_fract_z
 _atom_site_occupancy
  Fe  Fe0  1  0.919846  0.238691  0.920530  1
  Fe  Fe1  1  0.329066  0.011309  0.329470  1
  Fe  Fe2  1  0.329699  0.329872  0.329159  1
  Fe  Fe3  1  0.011560  0.329022  0.329425  1
  Fe  Fe4  1  0.920337  0.920496  0.238725  1
  Fe  Fe5  1  0.238730  0.920128  0.920841  1
  Fe  Fe6  1  0.329558  0.329504  0.011275  1
  Fe  Fe7  1  0.125111  0.125000  0.625001  1
  Fe  Fe8  1  0.920008  0.920978  0.920575  1
  Fe  Fe9  1  0.124974  0.625001  0.124999  1
  Fe  Fe10  1  0.124980  0.125106  0.124932  1
  Fe  Fe11  1  0.625020  0.124894  0.125066  1
  Mo  Mo12  1  0.301626  0.698015  0.697600  1
  Mo  Mo13  1  0.302210  0.302935  0.697164  1
  Mo  Mo14  1  0.552309  0.947064  0.552837  1
  Mo  Mo15  1  0.947240  0.551985  0.552401  1
  Mo  Mo16  1  0.551835  0.947767  0.947987  1
  Mo  Mo17  1  0.697589  0.302232  0.302012  1
  W  W18  1  0.948314  0.551142  0.948757  1
  W  W19  1  0.302626  0.697249  0.303068  1
  W  W20  1  0.552943  0.552752  0.946931  1
  W  W21  1  0.696757  0.303103  0.696796  1
  W  W22  1  0.698213  0.698859  0.301243  1
  W  W23  1  0.946655  0.946896  0.553205  1
  N  N24  1  0.751384  0.748522  0.751502  1
  N  N25  1  0.501408  0.501478  0.498498  1
