# generated using pymatgen
data_Tb3(CeOs)2
_symmetry_space_group_name_H-M   'P 1'
_cell_length_a   6.45148401
_cell_length_b   7.16836985
_cell_length_c   8.77364992
_cell_angle_alpha   95.63041113
_cell_angle_beta   111.57152752
_cell_angle_gamma   89.99999830
_symmetry_Int_Tables_number   1
_chemical_formula_structural   Tb3(CeOs)2
_chemical_formula_sum   'Tb6 Ce4 Os4'
_cell_volume   375.22675841
_cell_formula_units_Z   2
loop_
 _symmetry_equiv_pos_site_id
 _symmetry_equiv_pos_as_xyz
  1  'x, y, z'
loop_
 _atom_site_type_symbol
 _atom_site_label
 _atom_site_symmetry_multiplicity
 _atom_site_fract_x
 _atom_site_fract_y
 _atom_site_fract_z
 _atom_site_occupancy
  Tb  Tb0  1  0.642081  0.817707  0.434157  1
  Tb  Tb1  1  0.207925  0.682293  0.565843  1
  Tb  Tb2  1  0.357919  0.182293  0.565843  1
  Tb  Tb3  1  0.792075  0.317707  0.434157  1
  Tb  Tb4  1  0.422435  0.750000  0.000000  1
  Tb  Tb5  1  0.577565  0.250000  0.000000  1
  Ce  Ce6  1  0.982148  0.905866  0.185354  1
  Ce  Ce7  1  0.796794  0.594134  0.814646  1
  Ce  Ce8  1  0.017852  0.094134  0.814646  1
  Ce  Ce9  1  0.203206  0.405866  0.185354  1
  Os  Os10  1  0.842694  0.586197  0.219566  1
  Os  Os11  1  0.623128  0.913803  0.780434  1
  Os  Os12  1  0.157306  0.413803  0.780434  1
  Os  Os13  1  0.376872  0.086197  0.219566  1
