# generated using pymatgen
data_Eu6SiSb2
_symmetry_space_group_name_H-M   'P 1'
_cell_length_a   8.56675303
_cell_length_b   8.56564055
_cell_length_c   4.68017700
_cell_angle_alpha   90.00000000
_cell_angle_beta   90.00000000
_cell_angle_gamma   119.99570378
_symmetry_Int_Tables_number   1
_chemical_formula_structural   Eu6SiSb2
_chemical_formula_sum   'Eu6 Si1 Sb2'
_cell_volume   297.43207555
_cell_formula_units_Z   1
loop_
 _symmetry_equiv_pos_site_id
 _symmetry_equiv_pos_as_xyz
  1  'x, y, z'
loop_
 _atom_site_type_symbol
 _atom_site_label
 _atom_site_symmetry_multiplicity
 _atom_site_fract_x
 _atom_site_fract_y
 _atom_site_fract_z
 _atom_site_occupancy
  Eu  Eu0  1  0.401893  0.000005  0.000000  1
  Eu  Eu1  1  0.000000  0.401863  0.000000  1
  Eu  Eu2  1  0.598107  0.598112  0.000000  1
  Eu  Eu3  1  0.751912  0.000006  0.499999  1
  Eu  Eu4  1  0.248089  0.248095  0.499999  1
  Eu  Eu5  1  0.000000  0.751892  0.499999  1
  Si  Si6  1  0.000000  0.000031  0.000000  1
  Sb  Sb7  1  0.666680  0.333339  0.499999  1
  Sb  Sb8  1  0.333320  0.666658  0.499999  1
