# generated using pymatgen
data_SmY7(HgPt)2
_symmetry_space_group_name_H-M   'P 1'
_cell_length_a   9.69948884
_cell_length_b   9.69948441
_cell_length_c   9.68346505
_cell_angle_alpha   60.23259727
_cell_angle_beta   60.23261909
_cell_angle_gamma   60.32089688
_symmetry_Int_Tables_number   1
_chemical_formula_structural   SmY7(HgPt)2
_chemical_formula_sum   'Sm2 Y14 Hg4 Pt4'
_cell_volume   648.00874361
_cell_formula_units_Z   2
loop_
 _symmetry_equiv_pos_site_id
 _symmetry_equiv_pos_as_xyz
  1  'x, y, z'
loop_
 _atom_site_type_symbol
 _atom_site_label
 _atom_site_symmetry_multiplicity
 _atom_site_fract_x
 _atom_site_fract_y
 _atom_site_fract_z
 _atom_site_occupancy
  Sm  Sm0  1  0.351549  0.351549  0.352544  1
  Sm  Sm1  1  0.357211  0.357211  0.931294  1
  Y  Y2  1  0.358003  0.930661  0.357539  1
  Y  Y3  1  0.930661  0.358003  0.357539  1
  Y  Y4  1  0.811175  0.190322  0.190072  1
  Y  Y5  1  0.188599  0.811854  0.811938  1
  Y  Y6  1  0.190321  0.811175  0.190072  1
  Y  Y7  1  0.811854  0.188598  0.811938  1
  Y  Y8  1  0.188951  0.188951  0.812715  1
  Y  Y9  1  0.810873  0.810873  0.189689  1
  Y  Y10  1  0.936642  0.564997  0.565276  1
  Y  Y11  1  0.563472  0.937270  0.936586  1
  Y  Y12  1  0.564997  0.936642  0.565276  1
  Y  Y13  1  0.937270  0.563472  0.936585  1
  Y  Y14  1  0.565121  0.565121  0.935910  1
  Y  Y15  1  0.937862  0.937862  0.562469  1
  Hg  Hg16  1  0.587936  0.587936  0.583998  1
  Hg  Hg17  1  0.586775  0.586775  0.238338  1
  Hg  Hg18  1  0.587330  0.239101  0.584156  1
  Hg  Hg19  1  0.239101  0.587330  0.584156  1
  Pt  Pt20  1  0.143795  0.143795  0.147811  1
  Pt  Pt21  1  0.140403  0.140402  0.569486  1
  Pt  Pt22  1  0.139560  0.570540  0.142306  1
  Pt  Pt23  1  0.570540  0.139560  0.142305  1
