# generated using pymatgen
data_Tb2Dy3Ti3(P3Ir4)4
_symmetry_space_group_name_H-M   'P 1'
_cell_length_a   12.75972800
_cell_length_b   12.75919712
_cell_length_c   3.95618000
_cell_angle_alpha   90.00000000
_cell_angle_beta   90.00000000
_cell_angle_gamma   120.00138157
_symmetry_Int_Tables_number   1
_chemical_formula_structural   Tb2Dy3Ti3(P3Ir4)4
_chemical_formula_sum   'Tb2 Dy3 Ti3 P12 Ir16'
_cell_volume   557.78315183
_cell_formula_units_Z   1
loop_
 _symmetry_equiv_pos_site_id
 _symmetry_equiv_pos_as_xyz
  1  'x, y, z'
loop_
 _atom_site_type_symbol
 _atom_site_label
 _atom_site_symmetry_multiplicity
 _atom_site_fract_x
 _atom_site_fract_y
 _atom_site_fract_z
 _atom_site_occupancy
  Tb  Tb0  1  0.000000  0.812370  0.000000  1
  Tb  Tb1  1  0.187631  0.187630  0.000000  1
  Dy  Dy2  1  0.333326  0.666652  0.500000  1
  Dy  Dy3  1  0.666675  0.333348  0.500000  1
  Dy  Dy4  1  0.812327  0.000000  0.000000  1
  Ti  Ti5  1  0.999995  0.447801  0.500000  1
  Ti  Ti6  1  0.552194  0.552199  0.500000  1
  Ti  Ti7  1  0.447843  0.000000  0.500000  1
  P  P8  1  0.000000  0.640170  0.500000  1
  P  P9  1  0.359830  0.359830  0.500000  1
  P  P10  1  0.640382  0.000000  0.500000  1
  P  P11  1  0.517027  0.684382  0.000000  1
  P  P12  1  0.315602  0.832646  0.000000  1
  P  P13  1  0.167342  0.482933  0.000000  1
  P  P14  1  0.482957  0.167354  0.000000  1
  P  P15  1  0.684410  0.517067  0.000000  1
  P  P16  1  0.832646  0.315618  0.000000  1
  P  P17  1  0.999883  0.176691  0.500000  1
  P  P18  1  0.823192  0.823309  0.500000  1
  P  P19  1  0.176756  0.000000  0.500000  1
  Ir  Ir20  1  0.509035  0.866440  0.000000  1
  Ir  Ir21  1  0.133524  0.642537  0.000000  1
  Ir  Ir22  1  0.357444  0.490970  0.000000  1
  Ir  Ir23  1  0.490988  0.357463  0.000000  1
  Ir  Ir24  1  0.866474  0.509030  0.000000  1
  Ir  Ir25  1  0.642596  0.133560  0.000000  1
  Ir  Ir26  1  0.999907  0.283107  0.000000  1
  Ir  Ir27  1  0.716800  0.716893  0.000000  1
  Ir  Ir28  1  0.283218  0.000000  0.000000  1
  Ir  Ir29  1  0.626721  0.805127  0.500000  1
  Ir  Ir30  1  0.195141  0.821593  0.500000  1
  Ir  Ir31  1  0.178380  0.373545  0.500000  1
  Ir  Ir32  1  0.373549  0.178407  0.500000  1
  Ir  Ir33  1  0.804835  0.626455  0.500000  1
  Ir  Ir34  1  0.821594  0.194873  0.500000  1
  Ir  Ir35  1  0.999776  0.000000  0.500000  1
