# generated using pymatgen
data_CsMo3(SeO6)2
_symmetry_space_group_name_H-M   'P 1'
_cell_length_a   7.41182401
_cell_length_b   7.41182392
_cell_length_c   12.80325200
_cell_angle_alpha   90.00000000
_cell_angle_beta   90.00000000
_cell_angle_gamma   119.99984226
_symmetry_Int_Tables_number   1
_chemical_formula_structural   CsMo3(SeO6)2
_chemical_formula_sum   'Cs2 Mo6 Se4 O24'
_cell_volume   609.11852513
_cell_formula_units_Z   2
loop_
 _symmetry_equiv_pos_site_id
 _symmetry_equiv_pos_as_xyz
  1  'x, y, z'
loop_
 _atom_site_type_symbol
 _atom_site_label
 _atom_site_symmetry_multiplicity
 _atom_site_fract_x
 _atom_site_fract_y
 _atom_site_fract_z
 _atom_site_occupancy
  Cs  Cs0  1  0.666666  0.333335  0.474898  1
  Cs  Cs1  1  0.333333  0.666665  0.974898  1
  Mo  Mo2  1  0.161046  0.332078  0.294601  1
  Mo  Mo3  1  0.171031  0.838953  0.294602  1
  Mo  Mo4  1  0.667921  0.828970  0.294601  1
  Mo  Mo5  1  0.838954  0.667921  0.794602  1
  Mo  Mo6  1  0.828971  0.161047  0.794602  1
  Mo  Mo7  1  0.332078  0.171030  0.794600  1
  Se  Se8  1  0.666663  0.333327  0.009916  1
  Se  Se9  1  0.000001  0.000002  0.081063  1
  Se  Se10  1  0.333336  0.666674  0.509915  1
  Se  Se11  1  0.999999  0.999998  0.581063  1
  O  O12  1  0.122565  0.246408  0.137856  1
  O  O13  1  0.753594  0.876163  0.137854  1
  O  O14  1  0.123843  0.877439  0.137855  1
  O  O15  1  0.446566  0.910258  0.269059  1
  O  O16  1  0.463686  0.553434  0.269056  1
  O  O17  1  0.089742  0.536311  0.269059  1
  O  O18  1  0.889453  0.754139  0.324534  1
  O  O19  1  0.245861  0.135321  0.324535  1
  O  O20  1  0.864685  0.110548  0.324535  1
  O  O21  1  0.215981  0.796090  0.454519  1
  O  O22  1  0.203913  0.419898  0.454519  1
  O  O23  1  0.580108  0.784024  0.454518  1
  O  O24  1  0.246405  0.123836  0.637854  1
  O  O25  1  0.877435  0.753591  0.637857  1
  O  O26  1  0.876159  0.122562  0.637855  1
  O  O27  1  0.553435  0.089742  0.769059  1
  O  O28  1  0.536313  0.446566  0.769057  1
  O  O29  1  0.910258  0.463688  0.769058  1
  O  O30  1  0.110548  0.245861  0.824534  1
  O  O31  1  0.754138  0.864678  0.824535  1
  O  O32  1  0.135316  0.889451  0.824536  1
  O  O33  1  0.784018  0.203909  0.954519  1
  O  O34  1  0.419891  0.215975  0.954518  1
  O  O35  1  0.796086  0.580103  0.954519  1
