# generated using pymatgen
data_Dy2Er2ReOsC4
_symmetry_space_group_name_H-M   'P 1'
_cell_length_a   5.08903400
_cell_length_b   6.52638758
_cell_length_c   9.78297330
_cell_angle_alpha   89.76702781
_cell_angle_beta   90.00000000
_cell_angle_gamma   90.00000000
_symmetry_Int_Tables_number   1
_chemical_formula_structural   Dy2Er2ReOsC4
_chemical_formula_sum   'Dy4 Er4 Re2 Os2 C8'
_cell_volume   324.91928715
_cell_formula_units_Z   2
loop_
 _symmetry_equiv_pos_site_id
 _symmetry_equiv_pos_as_xyz
  1  'x, y, z'
loop_
 _atom_site_type_symbol
 _atom_site_label
 _atom_site_symmetry_multiplicity
 _atom_site_fract_x
 _atom_site_fract_y
 _atom_site_fract_z
 _atom_site_occupancy
  Dy  Dy0  1  0.250000  0.531540  0.214947  1
  Dy  Dy1  1  0.750000  0.468460  0.785053  1
  Dy  Dy2  1  0.750000  0.970253  0.713540  1
  Dy  Dy3  1  0.250000  0.029747  0.286460  1
  Er  Er4  1  0.250000  0.677284  0.555377  1
  Er  Er5  1  0.750000  0.322716  0.444623  1
  Er  Er6  1  0.750000  0.821319  0.056099  1
  Er  Er7  1  0.250000  0.178681  0.943901  1
  Re  Re8  1  0.250000  0.723063  0.865686  1
  Re  Re9  1  0.750000  0.276937  0.134314  1
  Os  Os10  1  0.750000  0.775518  0.365233  1
  Os  Os11  1  0.250000  0.224482  0.634767  1
  C  C12  1  0.250000  0.456894  0.760030  1
  C  C13  1  0.750000  0.543106  0.239970  1
  C  C14  1  0.750000  0.042721  0.258879  1
  C  C15  1  0.250000  0.957279  0.741121  1
  C  C16  1  0.250000  0.824772  0.051680  1
  C  C17  1  0.750000  0.175228  0.948320  1
  C  C18  1  0.750000  0.674276  0.550895  1
  C  C19  1  0.250000  0.325724  0.449105  1
