# generated using pymatgen
data_Tb9Nd11(Sn3Sb)4
_symmetry_space_group_name_H-M   'P 1'
_cell_length_a   8.28767452
_cell_length_b   8.32430480
_cell_length_c   15.73301462
_cell_angle_alpha   90.15858990
_cell_angle_beta   90.97393821
_cell_angle_gamma   90.05122215
_symmetry_Int_Tables_number   1
_chemical_formula_structural   Tb9Nd11(Sn3Sb)4
_chemical_formula_sum   'Tb9 Nd11 Sn12 Sb4'
_cell_volume   1085.24552546
_cell_formula_units_Z   1
loop_
 _symmetry_equiv_pos_site_id
 _symmetry_equiv_pos_as_xyz
  1  'x, y, z'
loop_
 _atom_site_type_symbol
 _atom_site_label
 _atom_site_symmetry_multiplicity
 _atom_site_fract_x
 _atom_site_fract_y
 _atom_site_fract_z
 _atom_site_occupancy
  Tb  Tb0  1  0.881006  0.838381  0.121330  1
  Tb  Tb1  1  0.381682  0.661163  0.119736  1
  Tb  Tb2  1  0.889196  0.840280  0.380759  1
  Tb  Tb3  1  0.611076  0.340149  0.618886  1
  Tb  Tb4  1  0.118418  0.161489  0.879649  1
  Tb  Tb5  1  0.283653  0.499024  0.749282  1
  Tb  Tb6  1  0.783226  0.000204  0.752911  1
  Tb  Tb7  1  0.717263  0.501182  0.247610  1
  Tb  Tb8  1  0.216528  0.999204  0.249450  1
  Nd  Nd9  1  0.467129  0.822363  0.898500  1
  Nd  Nd10  1  0.957437  0.674879  0.605693  1
  Nd  Nd11  1  0.543097  0.174649  0.393723  1
  Nd  Nd12  1  0.031403  0.323023  0.101080  1
  Nd  Nd13  1  0.540710  0.173106  0.103416  1
  Nd  Nd14  1  0.053077  0.329095  0.390727  1
  Nd  Nd15  1  0.447037  0.828371  0.608534  1
  Nd  Nd16  1  0.960427  0.674960  0.898047  1
  Nd  Nd17  1  0.618727  0.335648  0.882334  1
  Nd  Nd18  1  0.108417  0.162526  0.617249  1
  Nd  Nd19  1  0.390631  0.663181  0.381827  1
  Sn  Sn20  1  0.786398  0.028085  0.956608  1
  Sn  Sn21  1  0.276303  0.476444  0.547645  1
  Sn  Sn22  1  0.224264  0.976488  0.451921  1
  Sn  Sn23  1  0.717028  0.536671  0.046369  1
  Sn  Sn24  1  0.652232  0.639827  0.750050  1
  Sn  Sn25  1  0.150788  0.859923  0.752963  1
  Sn  Sn26  1  0.349568  0.360203  0.246779  1
  Sn  Sn27  1  0.848612  0.139508  0.249278  1
  Sn  Sn28  1  0.415812  0.127140  0.750213  1
  Sn  Sn29  1  0.916450  0.373634  0.750190  1
  Sn  Sn30  1  0.584742  0.873613  0.248858  1
  Sn  Sn31  1  0.083108  0.629556  0.248423  1
  Sb  Sb32  1  0.218433  0.967295  0.044222  1
  Sb  Sb33  1  0.735594  0.519850  0.453058  1
  Sb  Sb34  1  0.764230  0.019742  0.546697  1
  Sb  Sb35  1  0.276298  0.469146  0.955980  1
