# generated using pymatgen
data_MnGa2FeIr4
_symmetry_space_group_name_H-M   'P 1'
_cell_length_a   7.42567655
_cell_length_b   7.42567609
_cell_length_c   7.42567600
_cell_angle_alpha   33.52994682
_cell_angle_beta   33.52995209
_cell_angle_gamma   33.52994772
_symmetry_Int_Tables_number   1
_chemical_formula_structural   MnGa2FeIr4
_chemical_formula_sum   'Mn1 Ga2 Fe1 Ir4'
_cell_volume   111.27458238
_cell_formula_units_Z   1
loop_
 _symmetry_equiv_pos_site_id
 _symmetry_equiv_pos_as_xyz
  1  'x, y, z'
loop_
 _atom_site_type_symbol
 _atom_site_label
 _atom_site_symmetry_multiplicity
 _atom_site_fract_x
 _atom_site_fract_y
 _atom_site_fract_z
 _atom_site_occupancy
  Mn  Mn0  1  0.000000  0.000000  0.000000  1
  Ga  Ga1  1  0.251118  0.251118  0.251118  1
  Ga  Ga2  1  0.748882  0.748882  0.748882  1
  Fe  Fe3  1  0.500000  0.500000  0.500000  1
  Ir  Ir4  1  0.623826  0.623826  0.623826  1
  Ir  Ir5  1  0.126144  0.126144  0.126144  1
  Ir  Ir6  1  0.873856  0.873856  0.873856  1
  Ir  Ir7  1  0.376174  0.376174  0.376174  1
