# generated using pymatgen
data_CeThSi2IrRh3
_symmetry_space_group_name_H-M   'P 1'
_cell_length_a   9.36947181
_cell_length_b   9.36947248
_cell_length_c   4.07481800
_cell_angle_alpha   90.00000000
_cell_angle_beta   90.00000000
_cell_angle_gamma   155.24390791
_symmetry_Int_Tables_number   1
_chemical_formula_structural   CeThSi2IrRh3
_chemical_formula_sum   'Ce1 Th1 Si2 Ir1 Rh3'
_cell_volume   149.79586102
_cell_formula_units_Z   1
loop_
 _symmetry_equiv_pos_site_id
 _symmetry_equiv_pos_as_xyz
  1  'x, y, z'
loop_
 _atom_site_type_symbol
 _atom_site_label
 _atom_site_symmetry_multiplicity
 _atom_site_fract_x
 _atom_site_fract_y
 _atom_site_fract_z
 _atom_site_occupancy
  Ce  Ce0  1  0.899384  0.100616  0.250000  1
  Th  Th1  1  0.100379  0.899621  0.750000  1
  Si  Si2  1  0.320942  0.679058  0.750000  1
  Si  Si3  1  0.679793  0.320207  0.250000  1
  Ir  Ir4  1  0.548435  0.451565  0.250000  1
  Rh  Rh5  1  0.451136  0.548864  0.750000  1
  Rh  Rh6  1  0.249965  0.750035  0.250000  1
  Rh  Rh7  1  0.749966  0.250034  0.750000  1
