# generated using pymatgen
data_ScNb5Si6Tc5Os
_symmetry_space_group_name_H-M   'P 1'
_cell_length_a   7.59355072
_cell_length_b   7.55598422
_cell_length_c   7.59164646
_cell_angle_alpha   126.81846697
_cell_angle_beta   125.40127539
_cell_angle_gamma   79.83254654
_symmetry_Int_Tables_number   1
_chemical_formula_structural   ScNb5Si6Tc5Os
_chemical_formula_sum   'Sc1 Nb5 Si6 Tc5 Os1'
_cell_volume   274.34150892
_cell_formula_units_Z   1
loop_
 _symmetry_equiv_pos_site_id
 _symmetry_equiv_pos_as_xyz
  1  'x, y, z'
loop_
 _atom_site_type_symbol
 _atom_site_label
 _atom_site_symmetry_multiplicity
 _atom_site_fract_x
 _atom_site_fract_y
 _atom_site_fract_z
 _atom_site_occupancy
  Sc  Sc0  1  0.461541  0.427106  0.465651  1
  Nb  Nb1  1  0.542178  0.008219  0.971376  1
  Nb  Nb2  1  0.054525  0.010326  0.454008  1
  Nb  Nb3  1  0.945143  0.406298  0.960009  1
  Nb  Nb4  1  0.254483  0.595591  0.843028  1
  Nb  Nb5  1  0.744876  0.588002  0.340360  1
  Si  Si6  1  0.273645  0.010356  0.237668  1
  Si  Si7  1  0.726651  0.972955  0.744610  1
  Si  Si8  1  0.163343  0.678217  0.506266  1
  Si  Si9  1  0.839801  0.338241  0.512046  1
  Si  Si10  1  0.672445  0.675788  0.012999  1
  Si  Si11  1  0.324822  0.336066  0.997253  1
  Tc  Tc12  1  0.002317  0.253084  0.255138  1
  Tc  Tc13  1  0.496834  0.252681  0.751025  1
  Tc  Tc14  1  0.343166  0.749966  0.347131  1
  Tc  Tc15  1  0.659707  0.000933  0.409405  1
  Tc  Tc16  1  0.903708  0.751806  0.907287  1
  Os  Os17  1  0.090814  0.002367  0.842740  1
