# generated using pymatgen
data_LiPr7ThRh6
_symmetry_space_group_name_H-M   'P 1'
_cell_length_a   7.67194744
_cell_length_b   7.67194685
_cell_length_c   7.67194688
_cell_angle_alpha   69.69693768
_cell_angle_beta   69.69693306
_cell_angle_gamma   69.69692032
_symmetry_Int_Tables_number   1
_chemical_formula_structural   LiPr7ThRh6
_chemical_formula_sum   'Li1 Pr7 Th1 Rh6'
_cell_volume   383.78892546
_cell_formula_units_Z   1
loop_
 _symmetry_equiv_pos_site_id
 _symmetry_equiv_pos_as_xyz
  1  'x, y, z'
loop_
 _atom_site_type_symbol
 _atom_site_label
 _atom_site_symmetry_multiplicity
 _atom_site_fract_x
 _atom_site_fract_y
 _atom_site_fract_z
 _atom_site_occupancy
  Li  Li0  1  0.000021  0.000021  0.000021  1
  Pr  Pr1  1  0.188688  0.188688  0.188688  1
  Pr  Pr2  1  0.148627  0.380939  0.676440  1
  Pr  Pr3  1  0.676440  0.148627  0.380939  1
  Pr  Pr4  1  0.380939  0.676440  0.148627  1
  Pr  Pr5  1  0.852910  0.616141  0.325841  1
  Pr  Pr6  1  0.325841  0.852910  0.616141  1
  Pr  Pr7  1  0.616141  0.325841  0.852910  1
  Th  Th8  1  0.813980  0.813980  0.813980  1
  Rh  Rh9  1  0.947136  0.169509  0.582335  1
  Rh  Rh10  1  0.582335  0.947136  0.169509  1
  Rh  Rh11  1  0.169509  0.582335  0.947136  1
  Rh  Rh12  1  0.041199  0.816528  0.439707  1
  Rh  Rh13  1  0.439707  0.041199  0.816528  1
  Rh  Rh14  1  0.816528  0.439707  0.041199  1
