# generated using pymatgen
data_Tb5HoFeCl10
_symmetry_space_group_name_H-M   'P 1'
_cell_length_a   7.11864225
_cell_length_b   8.79323869
_cell_length_c   8.83108287
_cell_angle_alpha   108.70152714
_cell_angle_beta   96.21079571
_cell_angle_gamma   106.00617708
_symmetry_Int_Tables_number   1
_chemical_formula_structural   Tb5HoFeCl10
_chemical_formula_sum   'Tb5 Ho1 Fe1 Cl10'
_cell_volume   491.43085341
_cell_formula_units_Z   1
loop_
 _symmetry_equiv_pos_site_id
 _symmetry_equiv_pos_as_xyz
  1  'x, y, z'
loop_
 _atom_site_type_symbol
 _atom_site_label
 _atom_site_symmetry_multiplicity
 _atom_site_fract_x
 _atom_site_fract_y
 _atom_site_fract_z
 _atom_site_occupancy
  Tb  Tb0  1  0.132741  0.857565  0.809011  1
  Tb  Tb1  1  0.530842  0.703404  0.904197  1
  Tb  Tb2  1  0.470095  0.297039  0.096682  1
  Tb  Tb3  1  0.632507  0.052768  0.757688  1
  Tb  Tb4  1  0.368782  0.948299  0.242642  1
  Ho  Ho5  1  0.864830  0.140420  0.188691  1
  Fe  Fe6  1  0.499434  0.999906  0.999441  1
  Cl  Cl7  1  0.742599  0.082220  0.452065  1
  Cl  Cl8  1  0.260375  0.919788  0.546361  1
  Cl  Cl9  1  0.951463  0.826763  0.079157  1
  Cl  Cl10  1  0.047995  0.175308  0.923666  1
  Cl  Cl11  1  0.282724  0.249543  0.345468  1
  Cl  Cl12  1  0.711441  0.749125  0.652168  1
  Cl  Cl13  1  0.593421  0.371180  0.834547  1
  Cl  Cl14  1  0.408719  0.630108  0.166913  1
  Cl  Cl15  1  0.848216  0.450138  0.277602  1
  Cl  Cl16  1  0.153812  0.546424  0.723700  1
