# generated using pymatgen
data_La(HfSe2)4
_symmetry_space_group_name_H-M   'P 1'
_cell_length_a   8.31815779
_cell_length_b   8.31815642
_cell_length_c   8.31815762
_cell_angle_alpha   53.83288323
_cell_angle_beta   53.83288854
_cell_angle_gamma   53.83288045
_symmetry_Int_Tables_number   1
_chemical_formula_structural   La(HfSe2)4
_chemical_formula_sum   'La1 Hf4 Se8'
_cell_volume   348.31402753
_cell_formula_units_Z   1
loop_
 _symmetry_equiv_pos_site_id
 _symmetry_equiv_pos_as_xyz
  1  'x, y, z'
loop_
 _atom_site_type_symbol
 _atom_site_label
 _atom_site_symmetry_multiplicity
 _atom_site_fract_x
 _atom_site_fract_y
 _atom_site_fract_z
 _atom_site_occupancy
  La  La0  1  0.500000  0.500000  0.500000  1
  Hf  Hf1  1  0.000000  0.500000  0.500000  1
  Hf  Hf2  1  0.500000  0.000000  0.500000  1
  Hf  Hf3  1  0.500000  0.500000  0.000000  1
  Hf  Hf4  1  0.000000  0.000000  0.000000  1
  Se  Se5  1  0.248017  0.761886  0.761886  1
  Se  Se6  1  0.238114  0.238114  0.751983  1
  Se  Se7  1  0.751983  0.238114  0.238114  1
  Se  Se8  1  0.238114  0.751983  0.238114  1
  Se  Se9  1  0.259580  0.259580  0.259580  1
  Se  Se10  1  0.740420  0.740420  0.740420  1
  Se  Se11  1  0.761886  0.248017  0.761886  1
  Se  Se12  1  0.761886  0.761886  0.248017  1
