# generated using pymatgen
data_Dy15Ho(In3Os)2
_symmetry_space_group_name_H-M   'P 1'
_cell_length_a   10.41189900
_cell_length_b   10.41191411
_cell_length_c   7.07282000
_cell_angle_alpha   89.99997576
_cell_angle_beta   90.00007902
_cell_angle_gamma   120.00007289
_symmetry_Int_Tables_number   1
_chemical_formula_structural   Dy15Ho(In3Os)2
_chemical_formula_sum   'Dy15 Ho1 In6 Os2'
_cell_volume   664.02348844
_cell_formula_units_Z   1
loop_
 _symmetry_equiv_pos_site_id
 _symmetry_equiv_pos_as_xyz
  1  'x, y, z'
loop_
 _atom_site_type_symbol
 _atom_site_label
 _atom_site_symmetry_multiplicity
 _atom_site_fract_x
 _atom_site_fract_y
 _atom_site_fract_z
 _atom_site_occupancy
  Dy  Dy0  1  0.533269  0.066537  0.507604  1
  Dy  Dy1  1  0.933463  0.466731  0.507605  1
  Dy  Dy2  1  0.533269  0.466731  0.507605  1
  Dy  Dy3  1  0.466747  0.933494  0.007629  1
  Dy  Dy4  1  0.066506  0.533253  0.007629  1
  Dy  Dy5  1  0.466746  0.533253  0.007629  1
  Dy  Dy6  1  0.177117  0.354234  0.712909  1
  Dy  Dy7  1  0.645766  0.822883  0.712909  1
  Dy  Dy8  1  0.177117  0.822883  0.712909  1
  Dy  Dy9  1  0.822872  0.645744  0.212764  1
  Dy  Dy10  1  0.354256  0.177129  0.212764  1
  Dy  Dy11  1  0.822871  0.177129  0.212764  1
  Dy  Dy12  1  0.666667  0.333333  0.883995  1
  Dy  Dy13  1  0.333333  0.666667  0.383931  1
  Dy  Dy14  1  0.000000  0.000000  0.493420  1
  Ho  Ho15  1  0.999999  0.000000  0.993299  1
  In  In16  1  0.837328  0.674655  0.752506  1
  In  In17  1  0.325346  0.162673  0.752505  1
  In  In18  1  0.837328  0.162672  0.752505  1
  In  In19  1  0.162673  0.325346  0.252343  1
  In  In20  1  0.674654  0.837327  0.252342  1
  In  In21  1  0.162673  0.837327  0.252343  1
  Os  Os22  1  0.666668  0.333332  0.283115  1
  Os  Os23  1  0.333332  0.666667  0.783022  1
