# generated using pymatgen
data_RbPr2Ag3Te5
_symmetry_space_group_name_H-M   'P 1'
_cell_length_a   4.62386900
_cell_length_b   8.50509425
_cell_length_c   18.67332300
_cell_angle_alpha   90.00000000
_cell_angle_beta   90.00000000
_cell_angle_gamma   74.22684882
_symmetry_Int_Tables_number   1
_chemical_formula_structural   RbPr2Ag3Te5
_chemical_formula_sum   'Rb2 Pr4 Ag6 Te10'
_cell_volume   706.70354843
_cell_formula_units_Z   2
loop_
 _symmetry_equiv_pos_site_id
 _symmetry_equiv_pos_as_xyz
  1  'x, y, z'
loop_
 _atom_site_type_symbol
 _atom_site_label
 _atom_site_symmetry_multiplicity
 _atom_site_fract_x
 _atom_site_fract_y
 _atom_site_fract_z
 _atom_site_occupancy
  Rb  Rb0  1  0.559016  0.881791  0.250000  1
  Rb  Rb1  1  0.440988  0.118209  0.750000  1
  Pr  Pr2  1  0.311121  0.378115  0.093325  1
  Pr  Pr3  1  0.311121  0.378114  0.406674  1
  Pr  Pr4  1  0.688890  0.621883  0.593328  1
  Pr  Pr5  1  0.688876  0.621888  0.906674  1
  Ag  Ag6  1  0.087534  0.825045  0.028605  1
  Ag  Ag7  1  0.837593  0.324533  0.250000  1
  Ag  Ag8  1  0.087533  0.825046  0.471395  1
  Ag  Ag9  1  0.912464  0.174954  0.528604  1
  Ag  Ag10  1  0.162406  0.675467  0.750000  1
  Ag  Ag11  1  0.912465  0.174954  0.971395  1
  Te  Te12  1  0.671458  0.656454  0.076077  1
  Te  Te13  1  0.943655  0.113161  0.122510  1
  Te  Te14  1  0.240447  0.519654  0.249999  1
  Te  Te15  1  0.943654  0.113161  0.377489  1
  Te  Te16  1  0.671459  0.656453  0.423924  1
  Te  Te17  1  0.328541  0.343547  0.576077  1
  Te  Te18  1  0.056339  0.886839  0.622511  1
  Te  Te19  1  0.759551  0.480347  0.750001  1
  Te  Te20  1  0.056339  0.886838  0.877489  1
  Te  Te21  1  0.328540  0.343548  0.923924  1
