# generated using pymatgen
data_HoTh5(SnIr)6
_symmetry_space_group_name_H-M   'P 1'
_cell_length_a   7.54577699
_cell_length_b   7.55836317
_cell_length_c   8.25281200
_cell_angle_alpha   90.00000000
_cell_angle_beta   90.00000000
_cell_angle_gamma   119.99197593
_symmetry_Int_Tables_number   1
_chemical_formula_structural   HoTh5(SnIr)6
_chemical_formula_sum   'Ho1 Th5 Sn6 Ir6'
_cell_volume   407.66123395
_cell_formula_units_Z   1
loop_
 _symmetry_equiv_pos_site_id
 _symmetry_equiv_pos_as_xyz
  1  'x, y, z'
loop_
 _atom_site_type_symbol
 _atom_site_label
 _atom_site_symmetry_multiplicity
 _atom_site_fract_x
 _atom_site_fract_y
 _atom_site_fract_z
 _atom_site_occupancy
  Ho  Ho0  1  0.403860  0.000739  0.750000  1
  Th  Th1  1  0.415250  0.001112  0.250000  1
  Th  Th2  1  0.585036  0.586325  0.750000  1
  Th  Th3  1  0.590017  0.589128  0.250000  1
  Th  Th4  1  0.999306  0.410244  0.250000  1
  Th  Th5  1  0.001103  0.414859  0.750000  1
  Sn  Sn6  1  0.252007  0.247599  0.500765  1
  Sn  Sn7  1  0.252007  0.247599  0.999235  1
  Sn  Sn8  1  0.743725  0.999914  0.993833  1
  Sn  Sn9  1  0.004567  0.752292  0.501259  1
  Sn  Sn10  1  0.743725  0.999914  0.506167  1
  Sn  Sn11  1  0.004567  0.752292  0.998741  1
  Ir  Ir12  1  0.671094  0.337615  0.501585  1
  Ir  Ir13  1  0.671094  0.337615  0.998415  1
  Ir  Ir14  1  0.333108  0.661345  0.001136  1
  Ir  Ir15  1  0.333108  0.661345  0.498864  1
  Ir  Ir16  1  0.998407  0.000388  0.750000  1
  Ir  Ir17  1  0.998020  0.999672  0.250000  1
