# generated using pymatgen
data_Dy4Y2ReB14Ru
_symmetry_space_group_name_H-M   'P 1'
_cell_length_a   8.08079907
_cell_length_b   8.08079939
_cell_length_c   9.34734700
_cell_angle_alpha   90.00000000
_cell_angle_beta   90.00000000
_cell_angle_gamma   154.71565364
_symmetry_Int_Tables_number   1
_chemical_formula_structural   Dy4Y2ReB14Ru
_chemical_formula_sum   'Dy4 Y2 Re1 B14 Ru1'
_cell_volume   260.69793907
_cell_formula_units_Z   1
loop_
 _symmetry_equiv_pos_site_id
 _symmetry_equiv_pos_as_xyz
  1  'x, y, z'
loop_
 _atom_site_type_symbol
 _atom_site_label
 _atom_site_symmetry_multiplicity
 _atom_site_fract_x
 _atom_site_fract_y
 _atom_site_fract_z
 _atom_site_occupancy
  Dy  Dy0  1  0.894639  0.105361  0.439928  1
  Dy  Dy1  1  0.105507  0.894493  0.560816  1
  Dy  Dy2  1  0.894639  0.105361  0.060072  1
  Dy  Dy3  1  0.105507  0.894493  0.939184  1
  Y  Y4  1  0.243474  0.756526  0.250000  1
  Y  Y5  1  0.756568  0.243432  0.750000  1
  Re  Re6  1  0.947200  0.052800  0.750000  1
  B  B7  1  0.726783  0.273217  0.465441  1
  B  B8  1  0.272639  0.727361  0.533338  1
  B  B9  1  0.726783  0.273217  0.034559  1
  B  B10  1  0.272639  0.727361  0.966662  1
  B  B11  1  0.631332  0.368668  0.151435  1
  B  B12  1  0.367920  0.632080  0.849170  1
  B  B13  1  0.631332  0.368668  0.348565  1
  B  B14  1  0.367920  0.632080  0.650830  1
  B  B15  1  0.520730  0.479270  0.096513  1
  B  B16  1  0.479398  0.520602  0.904403  1
  B  B17  1  0.520730  0.479270  0.403487  1
  B  B18  1  0.479398  0.520602  0.595597  1
  B  B19  1  0.457545  0.542455  0.250000  1
  B  B20  1  0.543428  0.456572  0.750000  1
  Ru  Ru21  1  0.053885  0.946115  0.250000  1
