# generated using pymatgen
data_RbNaSe2O5
_symmetry_space_group_name_H-M   'P 1'
_cell_length_a   6.88918861
_cell_length_b   7.61494802
_cell_length_c   9.15620600
_cell_angle_alpha   78.32035903
_cell_angle_beta   119.34065388
_cell_angle_gamma   106.88586135
_symmetry_Int_Tables_number   1
_chemical_formula_structural   RbNaSe2O5
_chemical_formula_sum   'Rb2 Na2 Se4 O10'
_cell_volume   399.62970235
_cell_formula_units_Z   2
loop_
 _symmetry_equiv_pos_site_id
 _symmetry_equiv_pos_as_xyz
  1  'x, y, z'
loop_
 _atom_site_type_symbol
 _atom_site_label
 _atom_site_symmetry_multiplicity
 _atom_site_fract_x
 _atom_site_fract_y
 _atom_site_fract_z
 _atom_site_occupancy
  Rb  Rb0  1  0.959344  0.233384  0.767785  1
  Rb  Rb1  1  0.040656  0.766616  0.232215  1
  Na  Na2  1  0.620858  0.550906  0.779441  1
  Na  Na3  1  0.379142  0.449094  0.220559  1
  Se  Se4  1  0.163741  0.763875  0.831537  1
  Se  Se5  1  0.836259  0.236125  0.168463  1
  Se  Se6  1  0.723834  0.814739  0.482824  1
  Se  Se7  1  0.276166  0.185261  0.517176  1
  O  O8  1  0.011777  0.835608  0.897515  1
  O  O9  1  0.988223  0.164392  0.102485  1
  O  O10  1  0.230675  0.566487  0.940680  1
  O  O11  1  0.769325  0.433513  0.059320  1
  O  O12  1  0.498445  0.738803  0.522849  1
  O  O13  1  0.501555  0.261197  0.477151  1
  O  O14  1  0.650442  0.730141  0.302364  1
  O  O15  1  0.349558  0.269859  0.697636  1
  O  O16  1  0.915161  0.653880  0.636404  1
  O  O17  1  0.084839  0.346120  0.363596  1
