# generated using pymatgen
data_BaMn(As4Ir)3
_symmetry_space_group_name_H-M   'P 1'
_cell_length_a   7.47184433
_cell_length_b   7.47184377
_cell_length_c   7.49136900
_cell_angle_alpha   109.52416468
_cell_angle_beta   109.52416316
_cell_angle_gamma   109.41822778
_symmetry_Int_Tables_number   1
_chemical_formula_structural   BaMn(As4Ir)3
_chemical_formula_sum   'Ba1 Mn1 As12 Ir3'
_cell_volume   321.74418193
_cell_formula_units_Z   1
loop_
 _symmetry_equiv_pos_site_id
 _symmetry_equiv_pos_as_xyz
  1  'x, y, z'
loop_
 _atom_site_type_symbol
 _atom_site_label
 _atom_site_symmetry_multiplicity
 _atom_site_fract_x
 _atom_site_fract_y
 _atom_site_fract_z
 _atom_site_occupancy
  Ba  Ba0  1  0.000000  0.000000  0.000000  1
  Mn  Mn1  1  0.000000  0.000000  0.500000  1
  As  As2  1  0.855458  0.662832  0.500008  1
  As  As3  1  0.144542  0.337168  0.499992  1
  As  As4  1  0.148076  0.646860  0.794883  1
  As  As5  1  0.851924  0.353140  0.205117  1
  As  As6  1  0.646860  0.498783  0.851978  1
  As  As7  1  0.353140  0.501217  0.148022  1
  As  As8  1  0.662832  0.807376  0.162824  1
  As  As9  1  0.337168  0.192624  0.837176  1
  As  As10  1  0.498783  0.851924  0.646806  1
  As  As11  1  0.501217  0.148076  0.353194  1
  As  As12  1  0.192624  0.855458  0.355449  1
  As  As13  1  0.807376  0.144542  0.644551  1
  Ir  Ir14  1  0.500000  0.500000  0.500000  1
  Ir  Ir15  1  0.500000  0.000000  0.000000  1
  Ir  Ir16  1  0.000000  0.500000  0.000000  1
