# generated using pymatgen
data_Tb18HoTmPb16
_symmetry_space_group_name_H-M   'P 1'
_cell_length_a   8.23377515
_cell_length_b   8.31442261
_cell_length_c   15.72381300
_cell_angle_alpha   90.00000000
_cell_angle_beta   90.00000000
_cell_angle_gamma   90.03276190
_symmetry_Int_Tables_number   1
_chemical_formula_structural   Tb18HoTmPb16
_chemical_formula_sum   'Tb18 Ho1 Tm1 Pb16'
_cell_volume   1076.43769432
_cell_formula_units_Z   1
loop_
 _symmetry_equiv_pos_site_id
 _symmetry_equiv_pos_as_xyz
  1  'x, y, z'
loop_
 _atom_site_type_symbol
 _atom_site_label
 _atom_site_symmetry_multiplicity
 _atom_site_fract_x
 _atom_site_fract_y
 _atom_site_fract_z
 _atom_site_occupancy
  Tb  Tb0  1  0.377312  0.841133  0.879221  1
  Tb  Tb1  1  0.877095  0.659014  0.620842  1
  Tb  Tb2  1  0.622460  0.158713  0.379141  1
  Tb  Tb3  1  0.123047  0.340886  0.120859  1
  Tb  Tb4  1  0.622460  0.158713  0.120859  1
  Tb  Tb5  1  0.123047  0.340886  0.379141  1
  Tb  Tb6  1  0.377312  0.841133  0.620779  1
  Tb  Tb7  1  0.877095  0.659014  0.879158  1
  Tb  Tb8  1  0.536545  0.323329  0.900009  1
  Tb  Tb9  1  0.036377  0.176545  0.599934  1
  Tb  Tb10  1  0.463383  0.676827  0.400019  1
  Tb  Tb11  1  0.963715  0.823549  0.099980  1
  Tb  Tb12  1  0.463383  0.676827  0.099981  1
  Tb  Tb13  1  0.963715  0.823549  0.400020  1
  Tb  Tb14  1  0.536545  0.323329  0.599991  1
  Tb  Tb15  1  0.036377  0.176545  0.900066  1
  Tb  Tb16  1  0.208742  0.504004  0.750000  1
  Tb  Tb17  1  0.791285  0.496060  0.250000  1
  Ho  Ho18  1  0.708901  0.996002  0.750000  1
  Tm  Tm19  1  0.291009  0.004145  0.250000  1
  Pb  Pb20  1  0.280736  0.032492  0.042925  1
  Pb  Pb21  1  0.780706  0.467436  0.457436  1
  Pb  Pb22  1  0.719284  0.967431  0.542660  1
  Pb  Pb23  1  0.219279  0.532551  0.957487  1
  Pb  Pb24  1  0.719284  0.967431  0.957340  1
  Pb  Pb25  1  0.219279  0.532551  0.542513  1
  Pb  Pb26  1  0.280736  0.032492  0.457075  1
  Pb  Pb27  1  0.780706  0.467436  0.042564  1
  Pb  Pb28  1  0.572498  0.626220  0.750000  1
  Pb  Pb29  1  0.072002  0.874185  0.750000  1
  Pb  Pb30  1  0.427398  0.373483  0.250000  1
  Pb  Pb31  1  0.928504  0.125556  0.250000  1
  Pb  Pb32  1  0.347829  0.153126  0.750000  1
  Pb  Pb33  1  0.847631  0.346153  0.750000  1
  Pb  Pb34  1  0.651904  0.846864  0.250000  1
  Pb  Pb35  1  0.152421  0.654394  0.250000  1
