# generated using pymatgen
data_K4La5SmOsI14
_symmetry_space_group_name_H-M   'P 1'
_cell_length_a   10.04404200
_cell_length_b   10.04404200
_cell_length_c   22.64442900
_cell_angle_alpha   90.00000000
_cell_angle_beta   90.00000000
_cell_angle_gamma   90.00000000
_symmetry_Int_Tables_number   1
_chemical_formula_structural   K4La5SmOsI14
_chemical_formula_sum   'K8 La10 Sm2 Os2 I28'
_cell_volume   2284.43294219
_cell_formula_units_Z   2
loop_
 _symmetry_equiv_pos_site_id
 _symmetry_equiv_pos_as_xyz
  1  'x, y, z'
loop_
 _atom_site_type_symbol
 _atom_site_label
 _atom_site_symmetry_multiplicity
 _atom_site_fract_x
 _atom_site_fract_y
 _atom_site_fract_z
 _atom_site_occupancy
  K  K0  1  0.669843  0.169843  0.250000  1
  K  K1  1  0.169843  0.330156  0.250000  1
  K  K2  1  0.830157  0.669843  0.250000  1
  K  K3  1  0.330156  0.830157  0.250000  1
  K  K4  1  0.669012  0.169012  0.750000  1
  K  K5  1  0.169012  0.330987  0.750000  1
  K  K6  1  0.830988  0.669012  0.750000  1
  K  K7  1  0.330987  0.830988  0.750000  1
  La  La8  1  0.410740  0.235817  0.000681  1
  La  La9  1  0.764183  0.410740  0.000681  1
  La  La10  1  0.235817  0.589259  0.000681  1
  La  La11  1  0.589259  0.764183  0.000681  1
  La  La12  1  0.264184  0.089259  0.499319  1
  La  La13  1  0.910741  0.264184  0.499319  1
  La  La14  1  0.089259  0.735817  0.499319  1
  La  La15  1  0.735817  0.910741  0.499319  1
  La  La16  1  0.000000  0.000000  0.632535  1
  La  La17  1  0.500000  0.500000  0.867465  1
  Sm  Sm18  1  0.500000  0.500000  0.130304  1
  Sm  Sm19  1  0.000000  0.000000  0.369696  1
  Os  Os20  1  0.500000  0.500000  0.000599  1
  Os  Os21  1  0.000000  0.000000  0.499401  1
  I  I22  1  0.701994  0.091378  0.000073  1
  I  I23  1  0.091378  0.298006  0.000073  1
  I  I24  1  0.908622  0.701994  0.000073  1
  I  I25  1  0.298006  0.908622  0.000073  1
  I  I26  1  0.399518  0.198030  0.146042  1
  I  I27  1  0.801969  0.399518  0.146042  1
  I  I28  1  0.198030  0.600482  0.146042  1
  I  I29  1  0.600482  0.801969  0.146042  1
  I  I30  1  0.000000  0.000000  0.225760  1
  I  I31  1  0.500000  0.500000  0.274240  1
  I  I32  1  0.301969  0.100483  0.353959  1
  I  I33  1  0.899519  0.301969  0.353959  1
  I  I34  1  0.100483  0.698030  0.353959  1
  I  I35  1  0.698030  0.899519  0.353959  1
  I  I36  1  0.591377  0.201995  0.499927  1
  I  I37  1  0.201995  0.408622  0.499927  1
  I  I38  1  0.798006  0.591377  0.499927  1
  I  I39  1  0.408622  0.798006  0.499927  1
  I  I40  1  0.308697  0.103264  0.645424  1
  I  I41  1  0.896738  0.308697  0.645424  1
  I  I42  1  0.103264  0.691302  0.645424  1
  I  I43  1  0.691302  0.896738  0.645424  1
  I  I44  1  0.500000  0.500000  0.721677  1
  I  I45  1  0.000000  0.000000  0.778323  1
  I  I46  1  0.396737  0.191302  0.854575  1
  I  I47  1  0.808697  0.396737  0.854575  1
  I  I48  1  0.191302  0.603263  0.854575  1
  I  I49  1  0.603263  0.808697  0.854575  1
