# generated using pymatgen
data_Dy6WO12
_symmetry_space_group_name_H-M   'P 1'
_cell_length_a   6.49074140
_cell_length_b   6.49074131
_cell_length_c   6.49073976
_cell_angle_alpha   98.65373079
_cell_angle_beta   98.65372923
_cell_angle_gamma   98.65373603
_symmetry_Int_Tables_number   1
_chemical_formula_structural   Dy6WO12
_chemical_formula_sum   'Dy6 W1 O12'
_cell_volume   263.03718531
_cell_formula_units_Z   1
loop_
 _symmetry_equiv_pos_site_id
 _symmetry_equiv_pos_as_xyz
  1  'x, y, z'
loop_
 _atom_site_type_symbol
 _atom_site_label
 _atom_site_symmetry_multiplicity
 _atom_site_fract_x
 _atom_site_fract_y
 _atom_site_fract_z
 _atom_site_occupancy
  Dy  Dy0  1  0.855533  0.388759  0.684682  1
  Dy  Dy1  1  0.611241  0.315318  0.144467  1
  Dy  Dy2  1  0.315318  0.144467  0.611241  1
  Dy  Dy3  1  0.684682  0.855533  0.388759  1
  Dy  Dy4  1  0.388759  0.684682  0.855533  1
  Dy  Dy5  1  0.144467  0.611241  0.315318  1
  W  W6  1  0.000000  0.000000  0.000000  1
  O  O7  1  0.925342  0.033619  0.702659  1
  O  O8  1  0.966381  0.297341  0.074658  1
  O  O9  1  0.591146  0.177132  0.433319  1
  O  O10  1  0.822868  0.566681  0.408854  1
  O  O11  1  0.297341  0.074658  0.966381  1
  O  O12  1  0.566681  0.408854  0.822868  1
  O  O13  1  0.433319  0.591146  0.177132  1
  O  O14  1  0.702659  0.925342  0.033619  1
  O  O15  1  0.177132  0.433319  0.591146  1
  O  O16  1  0.408854  0.822868  0.566681  1
  O  O17  1  0.033619  0.702659  0.925342  1
  O  O18  1  0.074658  0.966381  0.297341  1
