# generated using pymatgen
data_TbGdRuC4
_symmetry_space_group_name_H-M   'P 1'
_cell_length_a   5.32305214
_cell_length_b   6.70901559
_cell_length_c   6.69296405
_cell_angle_alpha   71.18356551
_cell_angle_beta   66.56799863
_cell_angle_gamma   66.62741399
_symmetry_Int_Tables_number   1
_chemical_formula_structural   TbGdRuC4
_chemical_formula_sum   'Tb2 Gd2 Ru2 C8'
_cell_volume   197.42443094
_cell_formula_units_Z   2
loop_
 _symmetry_equiv_pos_site_id
 _symmetry_equiv_pos_as_xyz
  1  'x, y, z'
loop_
 _atom_site_type_symbol
 _atom_site_label
 _atom_site_symmetry_multiplicity
 _atom_site_fract_x
 _atom_site_fract_y
 _atom_site_fract_z
 _atom_site_occupancy
  Tb  Tb0  1  0.150363  0.496059  0.203217  1
  Tb  Tb1  1  0.849637  0.503941  0.796783  1
  Gd  Gd2  1  0.651373  0.202859  0.494396  1
  Gd  Gd3  1  0.348627  0.797141  0.505604  1
  Ru  Ru4  1  0.250208  0.000000  0.000000  1
  Ru  Ru5  1  0.749792  0.000000  0.000000  1
  C  C6  1  0.874804  0.784367  0.466027  1
  C  C7  1  0.125196  0.215633  0.533973  1
  C  C8  1  0.372647  0.466078  0.788629  1
  C  C9  1  0.627353  0.533922  0.211371  1
  C  C10  1  0.925984  0.896571  0.251461  1
  C  C11  1  0.074016  0.103429  0.748539  1
  C  C12  1  0.424279  0.251341  0.900100  1
  C  C13  1  0.575721  0.748659  0.099900  1
