# generated using pymatgen
data_PrDySn5Ir3
_symmetry_space_group_name_H-M   'P 1'
_cell_length_a   13.54928959
_cell_length_b   13.54928947
_cell_length_c   7.31152300
_cell_angle_alpha   90.00000000
_cell_angle_beta   90.00000000
_cell_angle_gamma   160.99256423
_symmetry_Int_Tables_number   1
_chemical_formula_structural   PrDySn5Ir3
_chemical_formula_sum   'Pr2 Dy2 Sn10 Ir6'
_cell_volume   437.16609049
_cell_formula_units_Z   2
loop_
 _symmetry_equiv_pos_site_id
 _symmetry_equiv_pos_as_xyz
  1  'x, y, z'
loop_
 _atom_site_type_symbol
 _atom_site_label
 _atom_site_symmetry_multiplicity
 _atom_site_fract_x
 _atom_site_fract_y
 _atom_site_fract_z
 _atom_site_occupancy
  Pr  Pr0  1  0.172078  0.827922  0.754077  1
  Pr  Pr1  1  0.827922  0.172078  0.254077  1
  Dy  Dy2  1  0.476880  0.523120  0.738647  1
  Dy  Dy3  1  0.523120  0.476880  0.238647  1
  Sn  Sn4  1  0.881091  0.118909  0.731667  1
  Sn  Sn5  1  0.118909  0.881091  0.231667  1
  Sn  Sn6  1  0.704309  0.295691  0.049139  1
  Sn  Sn7  1  0.295691  0.704309  0.549139  1
  Sn  Sn8  1  0.595429  0.404571  0.612305  1
  Sn  Sn9  1  0.404571  0.595429  0.112305  1
  Sn  Sn10  1  0.952961  0.047039  0.399319  1
  Sn  Sn11  1  0.047039  0.952961  0.899319  1
  Sn  Sn12  1  0.290558  0.709442  0.975055  1
  Sn  Sn13  1  0.709442  0.290558  0.475055  1
  Ir  Ir14  1  0.049576  0.950424  0.519249  1
  Ir  Ir15  1  0.950424  0.049576  0.019249  1
  Ir  Ir16  1  0.777284  0.222716  0.762906  1
  Ir  Ir17  1  0.222716  0.777284  0.262906  1
  Ir  Ir18  1  0.395569  0.604431  0.485634  1
  Ir  Ir19  1  0.604431  0.395569  0.985634  1
