# generated using pymatgen
data_YbHf7Fe9Si16Ru3
_symmetry_space_group_name_H-M   'P 1'
_cell_length_a   9.73773630
_cell_length_b   9.70870539
_cell_length_c   13.02386475
_cell_angle_alpha   53.24893846
_cell_angle_beta   53.18669471
_cell_angle_gamma   31.14890066
_symmetry_Int_Tables_number   1
_chemical_formula_structural   YbHf7Fe9Si16Ru3
_chemical_formula_sum   'Yb1 Hf7 Fe9 Si16 Ru3'
_cell_volume   498.90604197
_cell_formula_units_Z   1
loop_
 _symmetry_equiv_pos_site_id
 _symmetry_equiv_pos_as_xyz
  1  'x, y, z'
loop_
 _atom_site_type_symbol
 _atom_site_label
 _atom_site_symmetry_multiplicity
 _atom_site_fract_x
 _atom_site_fract_y
 _atom_site_fract_z
 _atom_site_occupancy
  Yb  Yb0  1  0.303150  0.566076  0.636773  1
  Hf  Hf1  1  0.430037  0.710094  0.858311  1
  Hf  Hf2  1  0.713066  0.435151  0.349482  1
  Hf  Hf3  1  0.563258  0.294641  0.143556  1
  Hf  Hf4  1  0.033829  0.295064  0.639857  1
  Hf  Hf5  1  0.704190  0.958832  0.861677  1
  Hf  Hf6  1  0.961583  0.707797  0.357248  1
  Hf  Hf7  1  0.297095  0.036956  0.141344  1
  Fe  Fe8  1  0.649645  0.827757  0.276113  1
  Fe  Fe9  1  0.174201  0.349337  0.220219  1
  Fe  Fe10  1  0.779085  0.469462  0.069306  1
  Fe  Fe11  1  0.825046  0.647033  0.784693  1
  Fe  Fe12  1  0.901275  0.143846  0.585718  1
  Fe  Fe13  1  0.858473  0.100596  0.919278  1
  Fe  Fe14  1  0.099795  0.862993  0.408242  1
  Fe  Fe15  1  0.130614  0.904011  0.084385  1
  Fe  Fe16  1  0.236547  0.520036  0.936021  1
  Si  Si17  1  0.885056  0.119332  0.245335  1
  Si  Si18  1  0.110372  0.882485  0.756478  1
  Si  Si19  1  0.382867  0.626163  0.241650  1
  Si  Si20  1  0.620708  0.371805  0.758039  1
  Si  Si21  1  0.960315  0.261652  0.899953  1
  Si  Si22  1  0.753574  0.027275  0.602603  1
  Si  Si23  1  0.030543  0.741137  0.104577  1
  Si  Si24  1  0.254069  0.972641  0.392513  1
  Si  Si25  1  0.569356  0.093185  0.063984  1
  Si  Si26  1  0.911944  0.428396  0.431783  1
  Si  Si27  1  0.432079  0.896420  0.945302  1
  Si  Si28  1  0.077057  0.582437  0.566530  1
  Si  Si29  1  0.386844  0.142072  0.390073  1
  Si  Si30  1  0.868614  0.606859  0.103780  1
  Si  Si31  1  0.614776  0.853306  0.605506  1
  Si  Si32  1  0.136558  0.392326  0.897265  1
  Ru  Ru33  1  0.482022  0.761684  0.566225  1
  Ru  Ru34  1  0.513522  0.245249  0.431348  1
  Ru  Ru35  1  0.348835  0.165896  0.724832  1
