# generated using pymatgen
data_CaCeTh(SnRh)3
_symmetry_space_group_name_H-M   'P 1'
_cell_length_a   7.51360192
_cell_length_b   7.58134155
_cell_length_c   4.10341700
_cell_angle_alpha   90.00000000
_cell_angle_beta   90.00000000
_cell_angle_gamma   121.17754401
_symmetry_Int_Tables_number   1
_chemical_formula_structural   CaCeTh(SnRh)3
_chemical_formula_sum   'Ca1 Ce1 Th1 Sn3 Rh3'
_cell_volume   199.98344126
_cell_formula_units_Z   1
loop_
 _symmetry_equiv_pos_site_id
 _symmetry_equiv_pos_as_xyz
  1  'x, y, z'
loop_
 _atom_site_type_symbol
 _atom_site_label
 _atom_site_symmetry_multiplicity
 _atom_site_fract_x
 _atom_site_fract_y
 _atom_site_fract_z
 _atom_site_occupancy
  Ca  Ca0  1  0.408688  0.408073  0.500000  1
  Ce  Ce1  1  0.586767  0.999926  0.500000  1
  Th  Th2  1  0.000323  0.585433  0.500000  1
  Sn  Sn3  1  0.733621  0.738239  0.000000  1
  Sn  Sn4  1  0.257027  0.015051  0.000000  1
  Sn  Sn5  1  0.009405  0.246736  0.000000  1
  Rh  Rh6  1  0.691081  0.335088  0.000000  1
  Rh  Rh7  1  0.324882  0.686690  0.000000  1
  Rh  Rh8  1  0.988208  0.984766  0.500000  1
