# generated using pymatgen
data_Pr3Nd5CdInIr2
_symmetry_space_group_name_H-M   'P 1'
_cell_length_a   10.00146369
_cell_length_b   10.00151529
_cell_length_c   10.00233306
_cell_angle_alpha   60.00704480
_cell_angle_beta   60.00726863
_cell_angle_gamma   60.03538439
_symmetry_Int_Tables_number   1
_chemical_formula_structural   Pr3Nd5CdInIr2
_chemical_formula_sum   'Pr6 Nd10 Cd2 In2 Ir4'
_cell_volume   707.74804607
_cell_formula_units_Z   2
loop_
 _symmetry_equiv_pos_site_id
 _symmetry_equiv_pos_as_xyz
  1  'x, y, z'
loop_
 _atom_site_type_symbol
 _atom_site_label
 _atom_site_symmetry_multiplicity
 _atom_site_fract_x
 _atom_site_fract_y
 _atom_site_fract_z
 _atom_site_occupancy
  Pr  Pr0  1  0.943157  0.560198  0.560237  1
  Pr  Pr1  1  0.559623  0.941291  0.938770  1
  Pr  Pr2  1  0.560199  0.943157  0.560238  1
  Pr  Pr3  1  0.941291  0.559625  0.938767  1
  Pr  Pr4  1  0.560399  0.560402  0.941014  1
  Pr  Pr5  1  0.940591  0.940590  0.558829  1
  Nd  Nd6  1  0.347561  0.347561  0.346845  1
  Nd  Nd7  1  0.348846  0.348845  0.955716  1
  Nd  Nd8  1  0.349670  0.955126  0.348595  1
  Nd  Nd9  1  0.955127  0.349670  0.348593  1
  Nd  Nd10  1  0.808974  0.190618  0.190246  1
  Nd  Nd11  1  0.189127  0.808784  0.809042  1
  Nd  Nd12  1  0.190618  0.808975  0.190246  1
  Nd  Nd13  1  0.808786  0.189125  0.809041  1
  Nd  Nd14  1  0.188146  0.188145  0.811531  1
  Nd  Nd15  1  0.807129  0.807131  0.190694  1
  Cd  Cd16  1  0.578461  0.260701  0.580126  1
  Cd  Cd17  1  0.260701  0.578460  0.580126  1
  In  In18  1  0.579974  0.579974  0.581206  1
  In  In19  1  0.580068  0.580069  0.258325  1
  Ir  Ir20  1  0.141513  0.141513  0.141797  1
  Ir  Ir21  1  0.141870  0.141869  0.576069  1
  Ir  Ir22  1  0.142116  0.576051  0.141974  1
  Ir  Ir23  1  0.576052  0.142116  0.141973  1
