# generated using pymatgen
data_Lu3GaRu2
_symmetry_space_group_name_H-M   'P 1'
_cell_length_a   3.38245600
_cell_length_b   3.38245600
_cell_length_c   10.31163500
_cell_angle_alpha   90.00000000
_cell_angle_beta   90.00000000
_cell_angle_gamma   90.00000000
_symmetry_Int_Tables_number   1
_chemical_formula_structural   Lu3GaRu2
_chemical_formula_sum   'Lu3 Ga1 Ru2'
_cell_volume   117.97550463
_cell_formula_units_Z   1
loop_
 _symmetry_equiv_pos_site_id
 _symmetry_equiv_pos_as_xyz
  1  'x, y, z'
loop_
 _atom_site_type_symbol
 _atom_site_label
 _atom_site_symmetry_multiplicity
 _atom_site_fract_x
 _atom_site_fract_y
 _atom_site_fract_z
 _atom_site_occupancy
  Lu  Lu0  1  0.000000  0.000000  0.000000  1
  Lu  Lu1  1  0.000000  0.000000  0.684785  1
  Lu  Lu2  1  0.000000  0.000000  0.315215  1
  Ga  Ga3  1  0.500000  0.500000  0.500000  1
  Ru  Ru4  1  0.500000  0.500000  0.834507  1
  Ru  Ru5  1  0.500000  0.500000  0.165493  1
