# generated using pymatgen
data_Dy8Ti11Si16Pt
_symmetry_space_group_name_H-M   'P 1'
_cell_length_a   7.05020030
_cell_length_b   7.05020030
_cell_length_c   12.86107849
_cell_angle_alpha   89.84907469
_cell_angle_beta   90.15092531
_cell_angle_gamma   89.65376597
_symmetry_Int_Tables_number   1
_chemical_formula_structural   Dy8Ti11Si16Pt
_chemical_formula_sum   'Dy8 Ti11 Si16 Pt1'
_cell_volume   639.24794281
_cell_formula_units_Z   1
loop_
 _symmetry_equiv_pos_site_id
 _symmetry_equiv_pos_as_xyz
  1  'x, y, z'
loop_
 _atom_site_type_symbol
 _atom_site_label
 _atom_site_symmetry_multiplicity
 _atom_site_fract_x
 _atom_site_fract_y
 _atom_site_fract_z
 _atom_site_occupancy
  Dy  Dy0  1  0.996251  0.659903  0.033008  1
  Dy  Dy1  1  0.001224  0.342963  0.531560  1
  Dy  Dy2  1  0.659903  0.996251  0.966992  1
  Dy  Dy3  1  0.159066  0.503015  0.782025  1
  Dy  Dy4  1  0.841508  0.499046  0.285485  1
  Dy  Dy5  1  0.503015  0.159066  0.217975  1
  Dy  Dy6  1  0.499046  0.841508  0.714515  1
  Dy  Dy7  1  0.342963  0.001224  0.468440  1
  Ti  Ti8  1  0.345057  0.506062  0.375481  1
  Ti  Ti9  1  0.850539  0.995214  0.377121  1
  Ti  Ti10  1  0.006936  0.150942  0.124987  1
  Ti  Ti11  1  0.995214  0.850539  0.622879  1
  Ti  Ti12  1  0.506062  0.345057  0.624519  1
  Ti  Ti13  1  0.150942  0.006936  0.875013  1
  Ti  Ti14  1  0.824385  0.173122  0.748709  1
  Ti  Ti15  1  0.173122  0.824385  0.251291  1
  Ti  Ti16  1  0.326831  0.326831  0.000000  1
  Ti  Ti17  1  0.492540  0.650162  0.127384  1
  Ti  Ti18  1  0.650162  0.492540  0.872616  1
  Si  Si19  1  0.055271  0.714186  0.435300  1
  Si  Si20  1  0.952361  0.291470  0.934383  1
  Si  Si21  1  0.714186  0.055271  0.564700  1
  Si  Si22  1  0.208084  0.452881  0.184785  1
  Si  Si23  1  0.790518  0.549334  0.684717  1
  Si  Si24  1  0.452881  0.208084  0.815215  1
  Si  Si25  1  0.549334  0.790518  0.315283  1
  Si  Si26  1  0.291470  0.952361  0.065617  1
  Si  Si27  1  0.798218  0.867909  0.185699  1
  Si  Si28  1  0.291554  0.626372  0.567194  1
  Si  Si29  1  0.704862  0.369261  0.066120  1
  Si  Si30  1  0.626372  0.291554  0.432806  1
  Si  Si31  1  0.369261  0.704862  0.933880  1
  Si  Si32  1  0.131139  0.203032  0.316182  1
  Si  Si33  1  0.203032  0.131139  0.683818  1
  Si  Si34  1  0.867909  0.798218  0.814301  1
  Pt  Pt35  1  0.668778  0.668778  0.500000  1
