# generated using pymatgen
data_Li3Sc2Mn2P12Ir17
_symmetry_space_group_name_H-M   'P 1'
_cell_length_a   12.56052150
_cell_length_b   12.56052066
_cell_length_c   3.90822500
_cell_angle_alpha   90.00000000
_cell_angle_beta   90.00000000
_cell_angle_gamma   120.09374040
_symmetry_Int_Tables_number   1
_chemical_formula_structural   Li3Sc2Mn2P12Ir17
_chemical_formula_sum   'Li3 Sc2 Mn2 P12 Ir17'
_cell_volume   533.47552260
_cell_formula_units_Z   1
loop_
 _symmetry_equiv_pos_site_id
 _symmetry_equiv_pos_as_xyz
  1  'x, y, z'
loop_
 _atom_site_type_symbol
 _atom_site_label
 _atom_site_symmetry_multiplicity
 _atom_site_fract_x
 _atom_site_fract_y
 _atom_site_fract_z
 _atom_site_occupancy
  Li  Li0  1  0.827187  0.999754  0.500000  1
  Li  Li1  1  0.999754  0.827187  0.500000  1
  Li  Li2  1  0.170330  0.170330  0.500000  1
  Sc  Sc3  1  0.330326  0.667645  0.000000  1
  Sc  Sc4  1  0.667645  0.330326  0.000000  1
  Mn  Mn5  1  0.460613  0.002003  0.000000  1
  Mn  Mn6  1  0.002003  0.460613  0.000000  1
  P  P7  1  0.176966  0.003064  0.000000  1
  P  P8  1  0.003064  0.176966  0.000000  1
  P  P9  1  0.821159  0.821159  0.000000  1
  P  P10  1  0.169512  0.482577  0.500000  1
  P  P11  1  0.516410  0.692793  0.500000  1
  P  P12  1  0.309323  0.831838  0.500000  1
  P  P13  1  0.692793  0.516410  0.500000  1
  P  P14  1  0.831838  0.309323  0.500000  1
  P  P15  1  0.482577  0.169512  0.500000  1
  P  P16  1  0.638539  0.001185  0.000000  1
  P  P17  1  0.001185  0.638539  0.000000  1
  P  P18  1  0.355620  0.355620  0.000000  1
  Ir  Ir19  1  0.539314  0.539314  0.000000  1
  Ir  Ir20  1  0.362620  0.497676  0.500000  1
  Ir  Ir21  1  0.502443  0.869384  0.500000  1
  Ir  Ir22  1  0.131958  0.637960  0.500000  1
  Ir  Ir23  1  0.869384  0.502443  0.500000  1
  Ir  Ir24  1  0.637960  0.131958  0.500000  1
  Ir  Ir25  1  0.497676  0.362620  0.500000  1
  Ir  Ir26  1  0.183355  0.380890  0.000000  1
  Ir  Ir27  1  0.621843  0.805544  0.000000  1
  Ir  Ir28  1  0.195741  0.820822  0.000000  1
  Ir  Ir29  1  0.805544  0.621843  0.000000  1
  Ir  Ir30  1  0.820822  0.195741  0.000000  1
  Ir  Ir31  1  0.380890  0.183355  0.000000  1
  Ir  Ir32  1  0.280253  0.002600  0.500000  1
  Ir  Ir33  1  0.002600  0.280253  0.500000  1
  Ir  Ir34  1  0.712315  0.712315  0.500000  1
  Ir  Ir35  1  0.998436  0.998436  0.000000  1
