# generated using pymatgen
data_Dy7FeBr12
_symmetry_space_group_name_H-M   'P 1'
_cell_length_a   9.22854280
_cell_length_b   9.22854194
_cell_length_c   9.22854331
_cell_angle_alpha   106.97284537
_cell_angle_beta   106.97284118
_cell_angle_gamma   106.97284031
_symmetry_Int_Tables_number   1
_chemical_formula_structural   Dy7FeBr12
_chemical_formula_sum   'Dy7 Fe1 Br12'
_cell_volume   655.03770973
_cell_formula_units_Z   1
loop_
 _symmetry_equiv_pos_site_id
 _symmetry_equiv_pos_as_xyz
  1  'x, y, z'
loop_
 _atom_site_type_symbol
 _atom_site_label
 _atom_site_symmetry_multiplicity
 _atom_site_fract_x
 _atom_site_fract_y
 _atom_site_fract_z
 _atom_site_occupancy
  Dy  Dy0  1  0.800185  0.519531  0.595279  1
  Dy  Dy1  1  0.519531  0.595279  0.800185  1
  Dy  Dy2  1  0.199815  0.480469  0.404721  1
  Dy  Dy3  1  0.480469  0.404721  0.199815  1
  Dy  Dy4  1  0.000000  0.000000  0.000000  1
  Dy  Dy5  1  0.595279  0.800185  0.519531  1
  Dy  Dy6  1  0.404721  0.199815  0.480469  1
  Fe  Fe7  1  0.500000  0.500000  0.500000  1
  Br  Br8  1  0.722701  0.180266  0.571977  1
  Br  Br9  1  0.960078  0.884584  0.666201  1
  Br  Br10  1  0.571977  0.722701  0.180266  1
  Br  Br11  1  0.115416  0.333799  0.039922  1
  Br  Br12  1  0.666201  0.960078  0.884584  1
  Br  Br13  1  0.884584  0.666201  0.960078  1
  Br  Br14  1  0.039922  0.115416  0.333799  1
  Br  Br15  1  0.819734  0.428023  0.277299  1
  Br  Br16  1  0.333799  0.039922  0.115416  1
  Br  Br17  1  0.277299  0.819734  0.428023  1
  Br  Br18  1  0.180266  0.571977  0.722701  1
  Br  Br19  1  0.428023  0.277299  0.819734  1
