# generated using pymatgen
data_Lu20(SiSb3)3
_symmetry_space_group_name_H-M   'P 1'
_cell_length_a   7.82257128
_cell_length_b   9.02005700
_cell_length_c   11.52202205
_cell_angle_alpha   90.00000000
_cell_angle_beta   89.85558197
_cell_angle_gamma   90.00000000
_symmetry_Int_Tables_number   1
_chemical_formula_structural   Lu20(SiSb3)3
_chemical_formula_sum   'Lu20 Si3 Sb9'
_cell_volume   812.99174078
_cell_formula_units_Z   1
loop_
 _symmetry_equiv_pos_site_id
 _symmetry_equiv_pos_as_xyz
  1  'x, y, z'
loop_
 _atom_site_type_symbol
 _atom_site_label
 _atom_site_symmetry_multiplicity
 _atom_site_fract_x
 _atom_site_fract_y
 _atom_site_fract_z
 _atom_site_occupancy
  Lu  Lu0  1  0.184847  0.556086  0.443489  1
  Lu  Lu1  1  0.687261  0.931617  0.056988  1
  Lu  Lu2  1  0.814796  0.055237  0.556161  1
  Lu  Lu3  1  0.307858  0.451691  0.938533  1
  Lu  Lu4  1  0.814796  0.444763  0.556161  1
  Lu  Lu5  1  0.307858  0.048309  0.938533  1
  Lu  Lu6  1  0.184847  0.943914  0.443489  1
  Lu  Lu7  1  0.687261  0.568383  0.056988  1
  Lu  Lu8  1  0.040207  0.750000  0.989813  1
  Lu  Lu9  1  0.538048  0.750000  0.509681  1
  Lu  Lu10  1  0.973957  0.250000  0.009378  1
  Lu  Lu11  1  0.462392  0.250000  0.491538  1
  Lu  Lu12  1  0.175699  0.750000  0.714146  1
  Lu  Lu13  1  0.677079  0.750000  0.785440  1
  Lu  Lu14  1  0.826916  0.250000  0.288224  1
  Lu  Lu15  1  0.308964  0.250000  0.224020  1
  Lu  Lu16  1  0.853207  0.750000  0.293982  1
  Lu  Lu17  1  0.354503  0.750000  0.206813  1
  Lu  Lu18  1  0.147263  0.250000  0.706335  1
  Lu  Lu19  1  0.648628  0.250000  0.784522  1
  Si  Si20  1  0.913246  0.750000  0.537854  1
  Si  Si21  1  0.415700  0.750000  0.962779  1
  Si  Si22  1  0.088777  0.250000  0.462750  1
  Sb  Sb23  1  0.935912  0.497984  0.824698  1
  Sb  Sb24  1  0.436920  0.001067  0.674820  1
  Sb  Sb25  1  0.062810  0.996417  0.175035  1
  Sb  Sb26  1  0.563230  0.501699  0.325192  1
  Sb  Sb27  1  0.062810  0.503583  0.175035  1
  Sb  Sb28  1  0.563230  0.998301  0.325192  1
  Sb  Sb29  1  0.935912  0.002016  0.824698  1
  Sb  Sb30  1  0.436920  0.498933  0.674820  1
  Sb  Sb31  1  0.588146  0.250000  0.042895  1
