# generated using pymatgen
data_Lu8Be3Si12Pd
_symmetry_space_group_name_H-M   'P 1'
_cell_length_a   7.92217500
_cell_length_b   7.92217492
_cell_length_c   7.95955900
_cell_angle_alpha   90.00000000
_cell_angle_beta   90.00000000
_cell_angle_gamma   119.99999616
_symmetry_Int_Tables_number   1
_chemical_formula_structural   Lu8Be3Si12Pd
_chemical_formula_sum   'Lu8 Be3 Si12 Pd1'
_cell_volume   432.62191344
_cell_formula_units_Z   1
loop_
 _symmetry_equiv_pos_site_id
 _symmetry_equiv_pos_as_xyz
  1  'x, y, z'
loop_
 _atom_site_type_symbol
 _atom_site_label
 _atom_site_symmetry_multiplicity
 _atom_site_fract_x
 _atom_site_fract_y
 _atom_site_fract_z
 _atom_site_occupancy
  Lu  Lu0  1  0.502138  0.004276  0.247915  1
  Lu  Lu1  1  0.500445  0.000889  0.751871  1
  Lu  Lu2  1  0.995724  0.497862  0.247915  1
  Lu  Lu3  1  0.999111  0.499555  0.751871  1
  Lu  Lu4  1  0.502138  0.497862  0.247915  1
  Lu  Lu5  1  0.500445  0.499555  0.751871  1
  Lu  Lu6  1  0.000000  0.000000  0.248241  1
  Lu  Lu7  1  0.000000  0.000000  0.751283  1
  Be  Be8  1  0.333333  0.666667  0.003837  1
  Be  Be9  1  0.666667  0.333333  0.997330  1
  Be  Be10  1  0.666667  0.333333  0.502173  1
  Si  Si11  1  0.172422  0.344842  0.000427  1
  Si  Si12  1  0.826984  0.653967  0.999146  1
  Si  Si13  1  0.655158  0.827578  0.000427  1
  Si  Si14  1  0.827717  0.655435  0.500700  1
  Si  Si15  1  0.346033  0.173016  0.999146  1
  Si  Si16  1  0.165906  0.331813  0.499376  1
  Si  Si17  1  0.172422  0.827578  0.000427  1
  Si  Si18  1  0.344565  0.172283  0.500700  1
  Si  Si19  1  0.826984  0.173016  0.999146  1
  Si  Si20  1  0.668187  0.834094  0.499376  1
  Si  Si21  1  0.827717  0.172283  0.500700  1
  Si  Si22  1  0.165906  0.834094  0.499376  1
  Pd  Pd23  1  0.333333  0.666667  0.498835  1
