# generated using pymatgen
data_Ce4DyAl2Os3
_symmetry_space_group_name_H-M   'P 1'
_cell_length_a   8.46454731
_cell_length_b   8.46697560
_cell_length_c   8.37238951
_cell_angle_alpha   109.47097061
_cell_angle_beta   109.52551269
_cell_angle_gamma   110.41910064
_symmetry_Int_Tables_number   1
_chemical_formula_structural   Ce4DyAl2Os3
_chemical_formula_sum   'Ce8 Dy2 Al4 Os6'
_cell_volume   456.08192804
_cell_formula_units_Z   2
loop_
 _symmetry_equiv_pos_site_id
 _symmetry_equiv_pos_as_xyz
  1  'x, y, z'
loop_
 _atom_site_type_symbol
 _atom_site_label
 _atom_site_symmetry_multiplicity
 _atom_site_fract_x
 _atom_site_fract_y
 _atom_site_fract_z
 _atom_site_occupancy
  Ce  Ce0  1  0.754158  0.314321  0.560414  1
  Ce  Ce1  1  0.560790  0.751190  0.308925  1
  Ce  Ce2  1  0.711189  0.500719  0.998935  1
  Ce  Ce3  1  0.009844  0.718990  0.511267  1
  Ce  Ce4  1  0.508018  0.003123  0.715114  1
  Ce  Ce5  1  0.245056  0.185993  0.937190  1
  Ce  Ce6  1  0.937940  0.248397  0.186115  1
  Ce  Ce7  1  0.186690  0.937629  0.245761  1
  Dy  Dy8  1  0.769211  0.774516  0.773289  1
  Dy  Dy9  1  0.317275  0.565919  0.751470  1
  Al  Al10  1  0.399111  0.397533  0.401614  1
  Al  Al11  1  0.099891  0.502536  0.999281  1
  Al  Al12  1  0.004538  0.101470  0.502135  1
  Al  Al13  1  0.496096  0.997905  0.094592  1
  Os  Os14  1  0.878263  0.128671  0.749933  1
  Os  Os15  1  0.745301  0.879163  0.128471  1
  Os  Os16  1  0.118404  0.753960  0.883872  1
  Os  Os17  1  0.257074  0.623148  0.378315  1
  Os  Os18  1  0.375781  0.238397  0.620444  1
  Os  Os19  1  0.625371  0.376419  0.252864  1
