# generated using pymatgen
data_La9Lu(IrPt2)2
_symmetry_space_group_name_H-M   'P 1'
_cell_length_a   11.56747200
_cell_length_b   11.56747200
_cell_length_c   6.57415600
_cell_angle_alpha   90.00000000
_cell_angle_beta   90.00000000
_cell_angle_gamma   90.00000000
_symmetry_Int_Tables_number   1
_chemical_formula_structural   La9Lu(IrPt2)2
_chemical_formula_sum   'La18 Lu2 Ir4 Pt8'
_cell_volume   879.66420309
_cell_formula_units_Z   2
loop_
 _symmetry_equiv_pos_site_id
 _symmetry_equiv_pos_as_xyz
  1  'x, y, z'
loop_
 _atom_site_type_symbol
 _atom_site_label
 _atom_site_symmetry_multiplicity
 _atom_site_fract_x
 _atom_site_fract_y
 _atom_site_fract_z
 _atom_site_occupancy
  La  La0  1  0.295044  0.089165  0.375401  1
  La  La1  1  0.295044  0.910835  0.875401  1
  La  La2  1  0.704956  0.089165  0.875401  1
  La  La3  1  0.704956  0.910835  0.375401  1
  La  La4  1  0.588308  0.790608  0.879083  1
  La  La5  1  0.588308  0.209392  0.379083  1
  La  La6  1  0.411692  0.790608  0.379083  1
  La  La7  1  0.411692  0.209392  0.879083  1
  La  La8  1  0.209392  0.411692  0.620917  1
  La  La9  1  0.209392  0.588308  0.120917  1
  La  La10  1  0.790608  0.411692  0.120917  1
  La  La11  1  0.790608  0.588308  0.620917  1
  La  La12  1  0.910835  0.704956  0.124599  1
  La  La13  1  0.910835  0.295044  0.624599  1
  La  La14  1  0.089165  0.704956  0.624599  1
  La  La15  1  0.089165  0.295044  0.124599  1
  La  La16  1  0.000000  0.000000  0.500000  1
  La  La17  1  0.000000  0.000000  0.000000  1
  Lu  Lu18  1  0.500000  0.500000  0.000000  1
  Lu  Lu19  1  0.500000  0.500000  0.500000  1
  Ir  Ir20  1  0.500000  0.000000  0.115323  1
  Ir  Ir21  1  0.500000  0.000000  0.615323  1
  Ir  Ir22  1  0.000000  0.500000  0.884677  1
  Ir  Ir23  1  0.000000  0.500000  0.384677  1
  Pt  Pt24  1  0.844461  0.155539  0.250000  1
  Pt  Pt25  1  0.844461  0.844461  0.750000  1
  Pt  Pt26  1  0.155539  0.155539  0.750000  1
  Pt  Pt27  1  0.155539  0.844461  0.250000  1
  Pt  Pt28  1  0.643358  0.356642  0.750000  1
  Pt  Pt29  1  0.643358  0.643358  0.250000  1
  Pt  Pt30  1  0.356642  0.356642  0.250000  1
  Pt  Pt31  1  0.356642  0.643358  0.750000  1
