# generated using pymatgen
data_Sr4Os3RuO16
_symmetry_space_group_name_H-M   'P 1'
_cell_length_a   5.16682150
_cell_length_b   5.53327760
_cell_length_c   12.98847400
_cell_angle_alpha   90.00000000
_cell_angle_beta   90.00000000
_cell_angle_gamma   89.64696173
_symmetry_Int_Tables_number   1
_chemical_formula_structural   Sr4Os3RuO16
_chemical_formula_sum   'Sr4 Os3 Ru1 O16'
_cell_volume   371.32637850
_cell_formula_units_Z   1
loop_
 _symmetry_equiv_pos_site_id
 _symmetry_equiv_pos_as_xyz
  1  'x, y, z'
loop_
 _atom_site_type_symbol
 _atom_site_label
 _atom_site_symmetry_multiplicity
 _atom_site_fract_x
 _atom_site_fract_y
 _atom_site_fract_z
 _atom_site_occupancy
  Sr  Sr0  1  0.750000  0.000000  0.668645  1
  Sr  Sr1  1  0.250000  0.500000  0.841166  1
  Sr  Sr2  1  0.250000  0.000000  0.336541  1
  Sr  Sr3  1  0.750000  0.500000  0.159072  1
  Os  Os4  1  0.750000  0.500000  0.427748  1
  Os  Os5  1  0.250000  0.000000  0.070345  1
  Os  Os6  1  0.250000  0.500000  0.570393  1
  Ru  Ru7  1  0.750000  0.000000  0.928516  1
  O  O8  1  0.140743  0.280573  0.667446  1
  O  O9  1  0.631819  0.218493  0.829243  1
  O  O10  1  0.868181  0.781507  0.829243  1
  O  O11  1  0.359257  0.719427  0.667446  1
  O  O12  1  0.861290  0.718189  0.329553  1
  O  O13  1  0.364931  0.785144  0.170074  1
  O  O14  1  0.135069  0.214856  0.170074  1
  O  O15  1  0.638710  0.281811  0.329553  1
  O  O16  1  0.563121  0.320343  0.541719  1
  O  O17  1  0.066072  0.184796  0.959302  1
  O  O18  1  0.433928  0.815204  0.959302  1
  O  O19  1  0.936879  0.679657  0.541719  1
  O  O20  1  0.436897  0.679468  0.455940  1
  O  O21  1  0.946981  0.814984  0.045509  1
  O  O22  1  0.553019  0.185016  0.045509  1
  O  O23  1  0.063103  0.320532  0.455940  1
