# generated using pymatgen
data_Li2Er2LuSi3Ag
_symmetry_space_group_name_H-M   'P 1'
_cell_length_a   6.91925102
_cell_length_b   6.91714371
_cell_length_c   4.18517900
_cell_angle_alpha   90.00000000
_cell_angle_beta   90.00000000
_cell_angle_gamma   119.98992655
_symmetry_Int_Tables_number   1
_chemical_formula_structural   Li2Er2LuSi3Ag
_chemical_formula_sum   'Li2 Er2 Lu1 Si3 Ag1'
_cell_volume   173.49007289
_cell_formula_units_Z   1
loop_
 _symmetry_equiv_pos_site_id
 _symmetry_equiv_pos_as_xyz
  1  'x, y, z'
loop_
 _atom_site_type_symbol
 _atom_site_label
 _atom_site_symmetry_multiplicity
 _atom_site_fract_x
 _atom_site_fract_y
 _atom_site_fract_z
 _atom_site_occupancy
  Li  Li0  1  0.763200  0.766040  0.000000  1
  Li  Li1  1  0.236800  0.002841  0.000000  1
  Er  Er2  1  0.423822  0.424043  0.500000  1
  Er  Er3  1  0.576178  0.000221  0.500000  1
  Lu  Lu4  1  0.000000  0.572996  0.500000  1
  Si  Si5  1  0.666376  0.333105  0.000000  1
  Si  Si6  1  0.333624  0.666730  0.000000  1
  Si  Si7  1  0.000000  0.994818  0.500000  1
  Ag  Ag8  1  0.000000  0.239205  0.000000  1
