# generated using pymatgen
data_Yb3Dy5(B6Os)4
_symmetry_space_group_name_H-M   'P 1'
_cell_length_a   3.65400600
_cell_length_b   9.16464658
_cell_length_c   11.55099826
_cell_angle_alpha   89.91395968
_cell_angle_beta   90.00000000
_cell_angle_gamma   90.00000000
_symmetry_Int_Tables_number   1
_chemical_formula_structural   Yb3Dy5(B6Os)4
_chemical_formula_sum   'Yb3 Dy5 B24 Os4'
_cell_volume   386.81562324
_cell_formula_units_Z   1
loop_
 _symmetry_equiv_pos_site_id
 _symmetry_equiv_pos_as_xyz
  1  'x, y, z'
loop_
 _atom_site_type_symbol
 _atom_site_label
 _atom_site_symmetry_multiplicity
 _atom_site_fract_x
 _atom_site_fract_y
 _atom_site_fract_z
 _atom_site_occupancy
  Yb  Yb0  1  0.000000  0.325177  0.414355  1
  Yb  Yb1  1  0.000000  0.674861  0.585034  1
  Yb  Yb2  1  0.000000  0.823669  0.086464  1
  Dy  Dy3  1  0.000000  0.175622  0.914782  1
  Dy  Dy4  1  0.000000  0.941194  0.367413  1
  Dy  Dy5  1  0.000000  0.057871  0.630674  1
  Dy  Dy6  1  0.000000  0.443160  0.132425  1
  Dy  Dy7  1  0.000000  0.558585  0.868359  1
  B  B8  1  0.500000  0.553218  0.433197  1
  B  B9  1  0.500000  0.446233  0.567537  1
  B  B10  1  0.500000  0.053641  0.066876  1
  B  B11  1  0.500000  0.945910  0.933429  1
  B  B12  1  0.500000  0.747838  0.417681  1
  B  B13  1  0.500000  0.251950  0.582312  1
  B  B14  1  0.500000  0.248455  0.081983  1
  B  B15  1  0.500000  0.752288  0.918074  1
  B  B16  1  0.500000  0.790353  0.264533  1
  B  B17  1  0.500000  0.209144  0.735496  1
  B  B18  1  0.500000  0.290603  0.234669  1
  B  B19  1  0.500000  0.710456  0.765171  1
  B  B20  1  0.500000  0.631222  0.186568  1
  B  B21  1  0.500000  0.368824  0.814419  1
  B  B22  1  0.500000  0.131249  0.313076  1
  B  B23  1  0.500000  0.869134  0.685787  1
  B  B24  1  0.500000  0.983272  0.210433  1
  B  B25  1  0.500000  0.016547  0.788768  1
  B  B26  1  0.500000  0.484139  0.289392  1
  B  B27  1  0.500000  0.515796  0.711360  1
  B  B28  1  0.500000  0.599917  0.027811  1
  B  B29  1  0.500000  0.399608  0.972327  1
  B  B30  1  0.500000  0.097645  0.472222  1
  B  B31  1  0.500000  0.902081  0.526665  1
  Os  Os32  1  0.000000  0.638563  0.321246  1
  Os  Os33  1  0.000000  0.360293  0.680153  1
  Os  Os34  1  0.000000  0.138089  0.178443  1
  Os  Os35  1  0.000000  0.863392  0.820868  1
