# generated using pymatgen
data_CsPPtS4
_symmetry_space_group_name_H-M   'P 1'
_cell_length_a   8.86285200
_cell_length_b   8.86285200
_cell_length_c   12.40921100
_cell_angle_alpha   90.00000000
_cell_angle_beta   90.00000000
_cell_angle_gamma   90.00000000
_symmetry_Int_Tables_number   1
_chemical_formula_structural   CsPPtS4
_chemical_formula_sum   'Cs4 P4 Pt4 S16'
_cell_volume   974.74533051
_cell_formula_units_Z   4
loop_
 _symmetry_equiv_pos_site_id
 _symmetry_equiv_pos_as_xyz
  1  'x, y, z'
loop_
 _atom_site_type_symbol
 _atom_site_label
 _atom_site_symmetry_multiplicity
 _atom_site_fract_x
 _atom_site_fract_y
 _atom_site_fract_z
 _atom_site_occupancy
  Cs  Cs0  1  0.000000  0.500000  0.750000  1
  Cs  Cs1  1  0.500000  0.000000  0.750000  1
  Cs  Cs2  1  0.500000  0.000000  0.250000  1
  Cs  Cs3  1  0.000000  0.500000  0.250000  1
  P  P4  1  0.749443  0.749443  0.000000  1
  P  P5  1  0.250557  0.250557  0.000000  1
  P  P6  1  0.249443  0.750557  0.500000  1
  P  P7  1  0.750557  0.249443  0.500000  1
  Pt  Pt8  1  0.500000  0.500000  0.500000  1
  Pt  Pt9  1  0.000000  0.000000  0.000000  1
  Pt  Pt10  1  0.500000  0.500000  0.000000  1
  Pt  Pt11  1  0.000000  0.000000  0.500000  1
  S  S12  1  0.359838  0.359838  0.124833  1
  S  S13  1  0.640162  0.640162  0.124833  1
  S  S14  1  0.140162  0.859838  0.375167  1
  S  S15  1  0.859838  0.140162  0.375167  1
  S  S16  1  0.640162  0.640162  0.875167  1
  S  S17  1  0.359838  0.359838  0.875167  1
  S  S18  1  0.140162  0.859838  0.624833  1
  S  S19  1  0.859838  0.140162  0.624833  1
  S  S20  1  0.517662  0.235732  0.500000  1
  S  S21  1  0.482338  0.764268  0.500000  1
  S  S22  1  0.982338  0.735732  0.000000  1
  S  S23  1  0.017662  0.264268  0.000000  1
  S  S24  1  0.764268  0.482338  0.500000  1
  S  S25  1  0.235732  0.517662  0.500000  1
  S  S26  1  0.264268  0.017662  0.000000  1
  S  S27  1  0.735732  0.982338  0.000000  1
