# generated using pymatgen
data_Ca8NbInN8
_symmetry_space_group_name_H-M   'P 1'
_cell_length_a   6.10760713
_cell_length_b   6.12331362
_cell_length_c   9.30612126
_cell_angle_alpha   70.43790036
_cell_angle_beta   81.30228097
_cell_angle_gamma   68.83749205
_symmetry_Int_Tables_number   1
_chemical_formula_structural   Ca8NbInN8
_chemical_formula_sum   'Ca8 Nb1 In1 N8'
_cell_volume   305.64950294
_cell_formula_units_Z   1
loop_
 _symmetry_equiv_pos_site_id
 _symmetry_equiv_pos_as_xyz
  1  'x, y, z'
loop_
 _atom_site_type_symbol
 _atom_site_label
 _atom_site_symmetry_multiplicity
 _atom_site_fract_x
 _atom_site_fract_y
 _atom_site_fract_z
 _atom_site_occupancy
  Ca  Ca0  1  0.249480  0.943102  0.601757  1
  Ca  Ca1  1  0.735970  0.615477  0.192944  1
  Ca  Ca2  1  0.753412  0.245595  0.991716  1
  Ca  Ca3  1  0.258770  0.527151  0.424598  1
  Ca  Ca4  1  0.751642  0.051791  0.414888  1
  Ca  Ca5  1  0.261056  0.384581  0.801027  1
  Ca  Ca6  1  0.730049  0.481383  0.582126  1
  Ca  Ca7  1  0.253921  0.755066  0.004693  1
  Nb  Nb8  1  0.283606  0.157170  0.238534  1
  In  In9  1  0.721310  0.845440  0.768591  1
  N  N10  1  0.992530  0.691644  0.602248  1
  N  N11  1  0.497445  0.197869  0.610220  1
  N  N12  1  0.023149  0.293117  0.376258  1
  N  N13  1  0.499311  0.607464  0.800903  1
  N  N14  1  0.162854  0.145899  0.058022  1
  N  N15  1  0.483282  0.830271  0.370162  1
  N  N16  1  0.482797  0.371995  0.196984  1
  N  N17  1  0.859413  0.854985  0.964328  1
