# generated using pymatgen
data_Sr2SiPd6
_symmetry_space_group_name_H-M   'P 1'
_cell_length_a   6.24628259
_cell_length_b   6.24628250
_cell_length_c   6.24628100
_cell_angle_alpha   59.99999205
_cell_angle_beta   59.99999256
_cell_angle_gamma   59.99999759
_symmetry_Int_Tables_number   1
_chemical_formula_structural   Sr2SiPd6
_chemical_formula_sum   'Sr2 Si1 Pd6'
_cell_volume   172.32556548
_cell_formula_units_Z   1
loop_
 _symmetry_equiv_pos_site_id
 _symmetry_equiv_pos_as_xyz
  1  'x, y, z'
loop_
 _atom_site_type_symbol
 _atom_site_label
 _atom_site_symmetry_multiplicity
 _atom_site_fract_x
 _atom_site_fract_y
 _atom_site_fract_z
 _atom_site_occupancy
  Sr  Sr0  1  0.250000  0.250000  0.250000  1
  Sr  Sr1  1  0.750000  0.750000  0.750000  1
  Si  Si2  1  0.500000  0.500000  0.500000  1
  Pd  Pd3  1  0.769514  0.230486  0.230486  1
  Pd  Pd4  1  0.230486  0.769514  0.230486  1
  Pd  Pd5  1  0.769514  0.769514  0.230486  1
  Pd  Pd6  1  0.230486  0.230486  0.769514  1
  Pd  Pd7  1  0.769514  0.230486  0.769514  1
  Pd  Pd8  1  0.230486  0.769514  0.769514  1
