# generated using pymatgen
data_Ce2DyTh(Re2Si)8
_symmetry_space_group_name_H-M   'P 1'
_cell_length_a   4.15407300
_cell_length_b   7.26156284
_cell_length_c   15.57903926
_cell_angle_alpha   90.28777703
_cell_angle_beta   90.00000000
_cell_angle_gamma   90.00000000
_symmetry_Int_Tables_number   1
_chemical_formula_structural   Ce2DyTh(Re2Si)8
_chemical_formula_sum   'Ce2 Dy1 Th1 Re16 Si8'
_cell_volume   469.93675923
_cell_formula_units_Z   1
loop_
 _symmetry_equiv_pos_site_id
 _symmetry_equiv_pos_as_xyz
  1  'x, y, z'
loop_
 _atom_site_type_symbol
 _atom_site_label
 _atom_site_symmetry_multiplicity
 _atom_site_fract_x
 _atom_site_fract_y
 _atom_site_fract_z
 _atom_site_occupancy
  Ce  Ce0  1  0.000000  0.416552  0.884170  1
  Ce  Ce1  1  0.500000  0.083683  0.379434  1
  Dy  Dy2  1  0.000000  0.585094  0.118088  1
  Th  Th3  1  0.500000  0.914109  0.617831  1
  Re  Re4  1  0.000000  0.149840  0.051877  1
  Re  Re5  1  0.000000  0.861866  0.950692  1
  Re  Re6  1  0.500000  0.640884  0.448462  1
  Re  Re7  1  0.500000  0.356170  0.550237  1
  Re  Re8  1  0.000000  0.736488  0.319638  1
  Re  Re9  1  0.000000  0.261430  0.679099  1
  Re  Re10  1  0.500000  0.239744  0.177702  1
  Re  Re11  1  0.500000  0.761835  0.822814  1
  Re  Re12  1  0.000000  0.427503  0.418374  1
  Re  Re13  1  0.000000  0.570320  0.580158  1
  Re  Re14  1  0.500000  0.934523  0.082716  1
  Re  Re15  1  0.500000  0.072764  0.921385  1
  Re  Re16  1  0.000000  0.991690  0.204304  1
  Re  Re17  1  0.000000  0.002596  0.795174  1
  Re  Re18  1  0.500000  0.495209  0.293305  1
  Re  Re19  1  0.500000  0.500691  0.706787  1
  Si  Si20  1  0.000000  0.830079  0.473429  1
  Si  Si21  1  0.000000  0.168247  0.523053  1
  Si  Si22  1  0.500000  0.338937  0.024950  1
  Si  Si23  1  0.500000  0.671192  0.977517  1
  Si  Si24  1  0.000000  0.299574  0.270512  1
  Si  Si25  1  0.000000  0.695632  0.728096  1
  Si  Si26  1  0.500000  0.793229  0.224590  1
  Si  Si27  1  0.500000  0.200126  0.775607  1
