# generated using pymatgen
data_Dy3Mn7(P3Ir)2
_symmetry_space_group_name_H-M   'P 1'
_cell_length_a   3.72624000
_cell_length_b   10.89048500
_cell_length_c   12.67912800
_cell_angle_alpha   90.00000000
_cell_angle_beta   90.00000000
_cell_angle_gamma   90.00000000
_symmetry_Int_Tables_number   1
_chemical_formula_structural   Dy3Mn7(P3Ir)2
_chemical_formula_sum   'Dy6 Mn14 P12 Ir4'
_cell_volume   514.52612503
_cell_formula_units_Z   2
loop_
 _symmetry_equiv_pos_site_id
 _symmetry_equiv_pos_as_xyz
  1  'x, y, z'
loop_
 _atom_site_type_symbol
 _atom_site_label
 _atom_site_symmetry_multiplicity
 _atom_site_fract_x
 _atom_site_fract_y
 _atom_site_fract_z
 _atom_site_occupancy
  Dy  Dy0  1  0.750000  0.250000  0.473493  1
  Dy  Dy1  1  0.250000  0.750000  0.526507  1
  Dy  Dy2  1  0.250000  0.929697  0.795836  1
  Dy  Dy3  1  0.250000  0.570303  0.795836  1
  Dy  Dy4  1  0.750000  0.070303  0.204164  1
  Dy  Dy5  1  0.750000  0.429697  0.204164  1
  Mn  Mn6  1  0.750000  0.250000  0.003478  1
  Mn  Mn7  1  0.250000  0.750000  0.996522  1
  Mn  Mn8  1  0.250000  0.420156  0.001981  1
  Mn  Mn9  1  0.250000  0.079844  0.001981  1
  Mn  Mn10  1  0.750000  0.579844  0.998019  1
  Mn  Mn11  1  0.750000  0.920156  0.998019  1
  Mn  Mn12  1  0.250000  0.450066  0.569810  1
  Mn  Mn13  1  0.250000  0.049934  0.569810  1
  Mn  Mn14  1  0.750000  0.549934  0.430190  1
  Mn  Mn15  1  0.750000  0.950066  0.430190  1
  Mn  Mn16  1  0.250000  0.866900  0.297065  1
  Mn  Mn17  1  0.250000  0.633100  0.297065  1
  Mn  Mn18  1  0.750000  0.133100  0.702935  1
  Mn  Mn19  1  0.750000  0.366900  0.702935  1
  P  P20  1  0.250000  0.250000  0.108696  1
  P  P21  1  0.750000  0.750000  0.891304  1
  P  P22  1  0.250000  0.250000  0.642226  1
  P  P23  1  0.750000  0.750000  0.357774  1
  P  P24  1  0.250000  0.439704  0.385705  1
  P  P25  1  0.250000  0.060296  0.385705  1
  P  P26  1  0.750000  0.560296  0.614295  1
  P  P27  1  0.750000  0.939704  0.614295  1
  P  P28  1  0.250000  0.906329  0.111781  1
  P  P29  1  0.250000  0.593671  0.111781  1
  P  P30  1  0.750000  0.093671  0.888219  1
  P  P31  1  0.750000  0.406329  0.888219  1
  Ir  Ir32  1  0.250000  0.250000  0.835502  1
  Ir  Ir33  1  0.750000  0.750000  0.164498  1
  Ir  Ir34  1  0.250000  0.250000  0.293597  1
  Ir  Ir35  1  0.750000  0.750000  0.706403  1
