# generated using pymatgen
data_YbY(AgO2)4
_symmetry_space_group_name_H-M   'P 1'
_cell_length_a   6.61184047
_cell_length_b   6.61184140
_cell_length_c   6.61184200
_cell_angle_alpha   126.24541536
_cell_angle_beta   126.24541565
_cell_angle_gamma   79.48515614
_symmetry_Int_Tables_number   1
_chemical_formula_structural   YbY(AgO2)4
_chemical_formula_sum   'Yb1 Y1 Ag4 O8'
_cell_volume   181.69542644
_cell_formula_units_Z   1
loop_
 _symmetry_equiv_pos_site_id
 _symmetry_equiv_pos_as_xyz
  1  'x, y, z'
loop_
 _atom_site_type_symbol
 _atom_site_label
 _atom_site_symmetry_multiplicity
 _atom_site_fract_x
 _atom_site_fract_y
 _atom_site_fract_z
 _atom_site_occupancy
  Yb  Yb0  1  0.000000  0.000000  0.000000  1
  Y  Y1  1  0.750000  0.250000  0.500000  1
  Ag  Ag2  1  0.371361  0.125197  0.745447  1
  Ag  Ag3  1  0.379750  0.625914  0.254553  1
  Ag  Ag4  1  0.874803  0.620250  0.246164  1
  Ag  Ag5  1  0.374086  0.628639  0.753836  1
  O  O6  1  0.035336  0.003309  0.646029  1
  O  O7  1  0.610693  0.964664  0.967973  1
  O  O8  1  0.996691  0.642720  0.032027  1
  O  O9  1  0.405613  0.867416  0.162198  1
  O  O10  1  0.756586  0.594387  0.461802  1
  O  O11  1  0.132584  0.294784  0.538198  1
  O  O12  1  0.357280  0.389307  0.353971  1
  O  O13  1  0.705216  0.243414  0.837802  1
