# generated using pymatgen
data_SmBi(SeO4)3
_symmetry_space_group_name_H-M   'P 1'
_cell_length_a   10.20879553
_cell_length_b   10.20879695
_cell_length_c   10.20879644
_cell_angle_alpha   55.87118198
_cell_angle_beta   55.87117488
_cell_angle_gamma   55.87117820
_symmetry_Int_Tables_number   1
_chemical_formula_structural   SmBi(SeO4)3
_chemical_formula_sum   'Sm2 Bi2 Se6 O24'
_cell_volume   680.32636690
_cell_formula_units_Z   2
loop_
 _symmetry_equiv_pos_site_id
 _symmetry_equiv_pos_as_xyz
  1  'x, y, z'
loop_
 _atom_site_type_symbol
 _atom_site_label
 _atom_site_symmetry_multiplicity
 _atom_site_fract_x
 _atom_site_fract_y
 _atom_site_fract_z
 _atom_site_occupancy
  Sm  Sm0  1  0.858188  0.858188  0.858188  1
  Sm  Sm1  1  0.141812  0.141812  0.141812  1
  Bi  Bi2  1  0.649993  0.649993  0.649993  1
  Bi  Bi3  1  0.350007  0.350007  0.350007  1
  Se  Se4  1  0.532591  0.247507  0.972642  1
  Se  Se5  1  0.972642  0.532591  0.247507  1
  Se  Se6  1  0.247507  0.972642  0.532591  1
  Se  Se7  1  0.467409  0.752493  0.027358  1
  Se  Se8  1  0.027358  0.467409  0.752493  1
  Se  Se9  1  0.752493  0.027358  0.467409  1
  O  O10  1  0.383367  0.207342  0.993400  1
  O  O11  1  0.993400  0.383367  0.207342  1
  O  O12  1  0.207342  0.993400  0.383367  1
  O  O13  1  0.616633  0.792658  0.006600  1
  O  O14  1  0.006600  0.616633  0.792658  1
  O  O15  1  0.792658  0.006600  0.616633  1
  O  O16  1  0.517239  0.204237  0.165375  1
  O  O17  1  0.165375  0.517239  0.204237  1
  O  O18  1  0.204237  0.165375  0.517239  1
  O  O19  1  0.482761  0.795763  0.834625  1
  O  O20  1  0.834625  0.482761  0.795763  1
  O  O21  1  0.795763  0.834625  0.482761  1
  O  O22  1  0.722614  0.118855  0.888074  1
  O  O23  1  0.888074  0.722614  0.118855  1
  O  O24  1  0.118855  0.888074  0.722614  1
  O  O25  1  0.277386  0.881145  0.111926  1
  O  O26  1  0.111926  0.277386  0.881145  1
  O  O27  1  0.881145  0.111926  0.277386  1
  O  O28  1  0.509785  0.449829  0.848902  1
  O  O29  1  0.848902  0.509785  0.449829  1
  O  O30  1  0.449829  0.848902  0.509785  1
  O  O31  1  0.490215  0.550171  0.151098  1
  O  O32  1  0.151098  0.490215  0.550171  1
  O  O33  1  0.550171  0.151098  0.490215  1
