# generated using pymatgen
data_AcDy6Sn23Ru6
_symmetry_space_group_name_H-M   'P 1'
_cell_length_a   9.87541800
_cell_length_b   9.87541899
_cell_length_c   10.10094600
_cell_angle_alpha   90.00000000
_cell_angle_beta   90.00000000
_cell_angle_gamma   119.99999670
_symmetry_Int_Tables_number   1
_chemical_formula_structural   AcDy6Sn23Ru6
_chemical_formula_sum   'Ac1 Dy6 Sn23 Ru6'
_cell_volume   853.10740825
_cell_formula_units_Z   1
loop_
 _symmetry_equiv_pos_site_id
 _symmetry_equiv_pos_as_xyz
  1  'x, y, z'
loop_
 _atom_site_type_symbol
 _atom_site_label
 _atom_site_symmetry_multiplicity
 _atom_site_fract_x
 _atom_site_fract_y
 _atom_site_fract_z
 _atom_site_occupancy
  Ac  Ac0  1  0.000000  0.000000  0.000000  1
  Dy  Dy1  1  0.484920  0.515080  0.302966  1
  Dy  Dy2  1  0.515080  0.484920  0.697034  1
  Dy  Dy3  1  0.484920  0.969841  0.302966  1
  Dy  Dy4  1  0.515080  0.030159  0.697034  1
  Dy  Dy5  1  0.030159  0.515080  0.302966  1
  Dy  Dy6  1  0.969841  0.484920  0.697034  1
  Sn  Sn7  1  0.351825  0.000000  0.000000  1
  Sn  Sn8  1  0.648175  0.000000  0.000000  1
  Sn  Sn9  1  0.000000  0.351825  0.000000  1
  Sn  Sn10  1  0.000000  0.648175  0.000000  1
  Sn  Sn11  1  0.648175  0.648175  0.000000  1
  Sn  Sn12  1  0.351825  0.351825  0.000000  1
  Sn  Sn13  1  0.333333  0.666667  0.822144  1
  Sn  Sn14  1  0.666667  0.333333  0.177856  1
  Sn  Sn15  1  0.000000  0.000000  0.500000  1
  Sn  Sn16  1  0.779843  0.220157  0.462739  1
  Sn  Sn17  1  0.220157  0.779843  0.537261  1
  Sn  Sn18  1  0.779843  0.559687  0.462739  1
  Sn  Sn19  1  0.220157  0.440313  0.537261  1
  Sn  Sn20  1  0.440313  0.220157  0.462739  1
  Sn  Sn21  1  0.559687  0.779843  0.537261  1
  Sn  Sn22  1  0.333333  0.666667  0.127918  1
  Sn  Sn23  1  0.666667  0.333333  0.872082  1
  Sn  Sn24  1  0.120111  0.879889  0.277136  1
  Sn  Sn25  1  0.879889  0.120111  0.722864  1
  Sn  Sn26  1  0.120111  0.240220  0.277136  1
  Sn  Sn27  1  0.879889  0.759780  0.722864  1
  Sn  Sn28  1  0.759780  0.879889  0.277136  1
  Sn  Sn29  1  0.240220  0.120111  0.722864  1
  Ru  Ru30  1  0.829208  0.170792  0.203342  1
  Ru  Ru31  1  0.170792  0.829208  0.796658  1
  Ru  Ru32  1  0.829208  0.658417  0.203342  1
  Ru  Ru33  1  0.170792  0.341583  0.796658  1
  Ru  Ru34  1  0.341583  0.170792  0.203342  1
  Ru  Ru35  1  0.658417  0.829208  0.796658  1
