# generated using pymatgen
data_Dy2Si4Ge(PRh6)2
_symmetry_space_group_name_H-M   'P 1'
_cell_length_a   9.75798127
_cell_length_b   9.72836552
_cell_length_c   3.84878918
_cell_angle_alpha   89.97354603
_cell_angle_beta   90.02667000
_cell_angle_gamma   119.74713028
_symmetry_Int_Tables_number   1
_chemical_formula_structural   Dy2Si4Ge(PRh6)2
_chemical_formula_sum   'Dy2 Si4 Ge1 P2 Rh12'
_cell_volume   317.21633345
_cell_formula_units_Z   1
loop_
 _symmetry_equiv_pos_site_id
 _symmetry_equiv_pos_as_xyz
  1  'x, y, z'
loop_
 _atom_site_type_symbol
 _atom_site_label
 _atom_site_symmetry_multiplicity
 _atom_site_fract_x
 _atom_site_fract_y
 _atom_site_fract_z
 _atom_site_occupancy
  Dy  Dy0  1  0.333217  0.665688  0.740742  1
  Dy  Dy1  1  0.665841  0.334829  0.241541  1
  Si  Si2  1  0.400403  0.289114  0.740585  1
  Si  Si3  1  0.711261  0.113752  0.741613  1
  Si  Si4  1  0.886733  0.599890  0.740653  1
  Si  Si5  1  0.598380  0.708171  0.241159  1
  Ge  Ge6  1  0.000150  0.997962  0.682103  1
  P  P7  1  0.291443  0.887884  0.239854  1
  P  P8  1  0.111078  0.400939  0.240563  1
  Rh  Rh9  1  0.447121  0.069040  0.741261  1
  Rh  Rh10  1  0.932790  0.380545  0.741595  1
  Rh  Rh11  1  0.619931  0.554939  0.741275  1
  Rh  Rh12  1  0.551697  0.939254  0.240980  1
  Rh  Rh13  1  0.063594  0.614080  0.240057  1
  Rh  Rh14  1  0.380330  0.442732  0.240208  1
  Rh  Rh15  1  0.150762  0.279992  0.740602  1
  Rh  Rh16  1  0.720511  0.874009  0.740768  1
  Rh  Rh17  1  0.130957  0.844899  0.739857  1
  Rh  Rh18  1  0.863649  0.746516  0.241296  1
  Rh  Rh19  1  0.254452  0.110886  0.241038  1
  Rh  Rh20  1  0.885699  0.144881  0.242252  1
