# generated using pymatgen
data_Ce4Hg2PdRh3
_symmetry_space_group_name_H-M   'P 1'
_cell_length_a   7.73699015
_cell_length_b   7.73698980
_cell_length_c   3.71555300
_cell_angle_alpha   90.00000000
_cell_angle_beta   90.00000000
_cell_angle_gamma   89.62145384
_symmetry_Int_Tables_number   1
_chemical_formula_structural   Ce4Hg2PdRh3
_chemical_formula_sum   'Ce4 Hg2 Pd1 Rh3'
_cell_volume   222.41191539
_cell_formula_units_Z   1
loop_
 _symmetry_equiv_pos_site_id
 _symmetry_equiv_pos_as_xyz
  1  'x, y, z'
loop_
 _atom_site_type_symbol
 _atom_site_label
 _atom_site_symmetry_multiplicity
 _atom_site_fract_x
 _atom_site_fract_y
 _atom_site_fract_z
 _atom_site_occupancy
  Ce  Ce0  1  0.663235  0.163235  0.500000  1
  Ce  Ce1  1  0.180863  0.328311  0.500000  1
  Ce  Ce2  1  0.828311  0.680863  0.500000  1
  Ce  Ce3  1  0.323966  0.823966  0.500000  1
  Hg  Hg4  1  0.999808  0.002223  0.000000  1
  Hg  Hg5  1  0.502223  0.499808  0.000000  1
  Pd  Pd6  1  0.870127  0.370127  0.000000  1
  Rh  Rh7  1  0.365833  0.133246  0.000000  1
  Rh  Rh8  1  0.132387  0.632387  0.000000  1
  Rh  Rh9  1  0.633246  0.865833  0.000000  1
