# generated using pymatgen
data_ErZn2Cu2Au
_symmetry_space_group_name_H-M   'P 1'
_cell_length_a   5.10445054
_cell_length_b   5.08743500
_cell_length_c   5.08743468
_cell_angle_alpha   60.40041149
_cell_angle_beta   59.88930032
_cell_angle_gamma   59.88930396
_symmetry_Int_Tables_number   1
_chemical_formula_structural   ErZn2Cu2Au
_chemical_formula_sum   'Er1 Zn2 Cu2 Au1'
_cell_volume   93.53961712
_cell_formula_units_Z   1
loop_
 _symmetry_equiv_pos_site_id
 _symmetry_equiv_pos_as_xyz
  1  'x, y, z'
loop_
 _atom_site_type_symbol
 _atom_site_label
 _atom_site_symmetry_multiplicity
 _atom_site_fract_x
 _atom_site_fract_y
 _atom_site_fract_z
 _atom_site_occupancy
  Er  Er0  1  0.002721  0.997279  0.997279  1
  Zn  Zn1  1  0.623241  0.623776  0.129743  1
  Zn  Zn2  1  0.623241  0.129743  0.623776  1
  Cu  Cu3  1  0.125019  0.625085  0.625085  1
  Cu  Cu4  1  0.624811  0.625085  0.625085  1
  Au  Au5  1  0.250969  0.249031  0.249031  1
