# generated using pymatgen
data_Y15Th(MgSn4)4
_symmetry_space_group_name_H-M   'P 1'
_cell_length_a   7.70210282
_cell_length_b   8.24996585
_cell_length_c   15.40717825
_cell_angle_alpha   89.93327067
_cell_angle_beta   90.27559087
_cell_angle_gamma   89.98515725
_symmetry_Int_Tables_number   1
_chemical_formula_structural   Y15Th(MgSn4)4
_chemical_formula_sum   'Y15 Th1 Mg4 Sn16'
_cell_volume   978.99221088
_cell_formula_units_Z   1
loop_
 _symmetry_equiv_pos_site_id
 _symmetry_equiv_pos_as_xyz
  1  'x, y, z'
loop_
 _atom_site_type_symbol
 _atom_site_label
 _atom_site_symmetry_multiplicity
 _atom_site_fract_x
 _atom_site_fract_y
 _atom_site_fract_z
 _atom_site_occupancy
  Y  Y0  1  0.837303  0.668846  0.628482  1
  Y  Y1  1  0.662827  0.169419  0.370789  1
  Y  Y2  1  0.157896  0.330541  0.132048  1
  Y  Y3  1  0.660393  0.169854  0.129986  1
  Y  Y4  1  0.163384  0.330696  0.371296  1
  Y  Y5  1  0.337318  0.831754  0.629199  1
  Y  Y6  1  0.838238  0.670334  0.869909  1
  Y  Y7  1  0.503634  0.314857  0.908152  1
  Y  Y8  1  0.003811  0.185846  0.591600  1
  Y  Y9  1  0.496598  0.685260  0.407332  1
  Y  Y10  1  0.995052  0.814799  0.093144  1
  Y  Y11  1  0.497026  0.685341  0.092845  1
  Y  Y12  1  0.996720  0.814369  0.406770  1
  Y  Y13  1  0.504919  0.315328  0.590252  1
  Y  Y14  1  0.005664  0.182314  0.908460  1
  Th  Th15  1  0.341734  0.827612  0.870895  1
  Mg  Mg16  1  0.161471  0.494522  0.748422  1
  Mg  Mg17  1  0.663720  0.009860  0.747793  1
  Mg  Mg18  1  0.835884  0.505837  0.250191  1
  Mg  Mg19  1  0.336188  0.993942  0.251020  1
  Sn  Sn20  1  0.313490  0.040615  0.040754  1
  Sn  Sn21  1  0.818648  0.463248  0.461391  1
  Sn  Sn22  1  0.681616  0.963546  0.537984  1
  Sn  Sn23  1  0.179954  0.532923  0.965320  1
  Sn  Sn24  1  0.691240  0.963327  0.964369  1
  Sn  Sn25  1  0.182449  0.537562  0.537962  1
  Sn  Sn26  1  0.319254  0.036122  0.461550  1
  Sn  Sn27  1  0.813892  0.462235  0.037687  1
  Sn  Sn28  1  0.524537  0.583356  0.746902  1
  Sn  Sn29  1  0.020909  0.913242  0.746993  1
  Sn  Sn30  1  0.475202  0.410081  0.250682  1
  Sn  Sn31  1  0.975240  0.089414  0.250669  1
  Sn  Sn32  1  0.306297  0.156442  0.748514  1
  Sn  Sn33  1  0.808554  0.345861  0.749783  1
  Sn  Sn34  1  0.694235  0.847356  0.250465  1
  Sn  Sn35  1  0.194703  0.653338  0.250389  1
