# generated using pymatgen
data_TbPr15Cd4Co3Pd
_symmetry_space_group_name_H-M   'P 1'
_cell_length_a   9.87811743
_cell_length_b   9.89465575
_cell_length_c   9.87809162
_cell_angle_alpha   59.85108743
_cell_angle_beta   59.85597706
_cell_angle_gamma   59.91077323
_symmetry_Int_Tables_number   1
_chemical_formula_structural   TbPr15Cd4Co3Pd
_chemical_formula_sum   'Tb1 Pr15 Cd4 Co3 Pd1'
_cell_volume   680.73093847
_cell_formula_units_Z   1
loop_
 _symmetry_equiv_pos_site_id
 _symmetry_equiv_pos_as_xyz
  1  'x, y, z'
loop_
 _atom_site_type_symbol
 _atom_site_label
 _atom_site_symmetry_multiplicity
 _atom_site_fract_x
 _atom_site_fract_y
 _atom_site_fract_z
 _atom_site_occupancy
  Tb  Tb0  1  0.059029  0.438181  0.059133  1
  Pr  Pr1  1  0.436113  0.439864  0.049364  1
  Pr  Pr2  1  0.595636  0.595571  0.595608  1
  Pr  Pr3  1  0.188636  0.813449  0.814891  1
  Pr  Pr4  1  0.058976  0.061606  0.434527  1
  Pr  Pr5  1  0.434620  0.061508  0.059034  1
  Pr  Pr6  1  0.814046  0.189888  0.814103  1
  Pr  Pr7  1  0.439164  0.049395  0.439135  1
  Pr  Pr8  1  0.604205  0.204310  0.603980  1
  Pr  Pr9  1  0.814878  0.813456  0.188553  1
  Pr  Pr10  1  0.203659  0.602182  0.607945  1
  Pr  Pr11  1  0.810440  0.190719  0.189055  1
  Pr  Pr12  1  0.049233  0.439874  0.436090  1
  Pr  Pr13  1  0.191057  0.807927  0.190999  1
  Pr  Pr14  1  0.607991  0.601974  0.203868  1
  Pr  Pr15  1  0.189062  0.190641  0.810493  1
  Cd  Cd16  1  0.829135  0.828463  0.511481  1
  Cd  Cd17  1  0.830996  0.828783  0.831010  1
  Cd  Cd18  1  0.511463  0.828481  0.829129  1
  Cd  Cd19  1  0.829695  0.511362  0.829682  1
  Co  Co20  1  0.828738  0.391927  0.389116  1
  Co  Co21  1  0.392181  0.826290  0.392191  1
  Co  Co22  1  0.389089  0.391930  0.828721  1
  Pd  Pd23  1  0.391957  0.392219  0.391889  1
