# generated using pymatgen
data_Ho3MnAl12Pd2Ru
_symmetry_space_group_name_H-M   'P 1'
_cell_length_a   8.82595827
_cell_length_b   8.82595830
_cell_length_c   9.48428529
_cell_angle_alpha   90.12676295
_cell_angle_beta   89.87323953
_cell_angle_gamma   119.76551798
_symmetry_Int_Tables_number   1
_chemical_formula_structural   Ho3MnAl12Pd2Ru
_chemical_formula_sum   'Ho6 Mn2 Al24 Pd4 Ru2'
_cell_volume   641.32603250
_cell_formula_units_Z   2
loop_
 _symmetry_equiv_pos_site_id
 _symmetry_equiv_pos_as_xyz
  1  'x, y, z'
loop_
 _atom_site_type_symbol
 _atom_site_label
 _atom_site_symmetry_multiplicity
 _atom_site_fract_x
 _atom_site_fract_y
 _atom_site_fract_z
 _atom_site_occupancy
  Ho  Ho0  1  0.189371  0.383091  0.252775  1
  Ho  Ho1  1  0.810629  0.616909  0.747225  1
  Ho  Ho2  1  0.616909  0.810629  0.252775  1
  Ho  Ho3  1  0.383091  0.189371  0.747225  1
  Ho  Ho4  1  0.192123  0.807877  0.251291  1
  Ho  Ho5  1  0.807877  0.192123  0.748709  1
  Mn  Mn6  1  0.000000  0.000000  0.000000  1
  Mn  Mn7  1  0.000000  0.000000  0.500000  1
  Al  Al8  1  0.333622  0.666378  0.030503  1
  Al  Al9  1  0.666378  0.333622  0.969497  1
  Al  Al10  1  0.669220  0.330780  0.526245  1
  Al  Al11  1  0.330780  0.669220  0.473755  1
  Al  Al12  1  0.155034  0.320725  0.575075  1
  Al  Al13  1  0.844966  0.679275  0.424925  1
  Al  Al14  1  0.679275  0.844966  0.575075  1
  Al  Al15  1  0.840408  0.682435  0.078768  1
  Al  Al16  1  0.320725  0.155034  0.424925  1
  Al  Al17  1  0.159592  0.317565  0.921232  1
  Al  Al18  1  0.161583  0.838417  0.574261  1
  Al  Al19  1  0.317565  0.159592  0.078768  1
  Al  Al20  1  0.838417  0.161583  0.425739  1
  Al  Al21  1  0.682435  0.840408  0.921232  1
  Al  Al22  1  0.840586  0.159414  0.079243  1
  Al  Al23  1  0.159414  0.840586  0.920757  1
  Al  Al24  1  0.562905  0.126882  0.253168  1
  Al  Al25  1  0.437095  0.873118  0.746832  1
  Al  Al26  1  0.873118  0.437095  0.253168  1
  Al  Al27  1  0.126882  0.562905  0.746832  1
  Al  Al28  1  0.563727  0.436273  0.249794  1
  Al  Al29  1  0.436273  0.563727  0.750206  1
  Al  Al30  1  0.999465  0.000535  0.250683  1
  Al  Al31  1  0.000535  0.999465  0.749317  1
  Pd  Pd32  1  0.500000  0.000000  0.000000  1
  Pd  Pd33  1  0.000000  0.500000  0.000000  1
  Pd  Pd34  1  0.500000  0.500000  0.000000  1
  Pd  Pd35  1  0.500000  0.500000  0.500000  1
  Ru  Ru36  1  0.500000  0.000000  0.500000  1
  Ru  Ru37  1  0.000000  0.500000  0.500000  1
