# generated using pymatgen
data_Rb2CdSiSe4
_symmetry_space_group_name_H-M   'P 1'
_cell_length_a   14.22647830
_cell_length_b   12.78819169
_cell_length_c   7.76414400
_cell_angle_alpha   83.80559941
_cell_angle_beta   63.33587872
_cell_angle_gamma   32.85852922
_symmetry_Int_Tables_number   1
_chemical_formula_structural   Rb2CdSiSe4
_chemical_formula_sum   'Rb4 Cd2 Si2 Se8'
_cell_volume   569.76425727
_cell_formula_units_Z   2
loop_
 _symmetry_equiv_pos_site_id
 _symmetry_equiv_pos_as_xyz
  1  'x, y, z'
loop_
 _atom_site_type_symbol
 _atom_site_label
 _atom_site_symmetry_multiplicity
 _atom_site_fract_x
 _atom_site_fract_y
 _atom_site_fract_z
 _atom_site_occupancy
  Rb  Rb0  1  0.680783  0.680783  0.319217  1
  Rb  Rb1  1  0.319217  0.319217  0.680783  1
  Rb  Rb2  1  0.930783  0.930783  0.569217  1
  Rb  Rb3  1  0.569217  0.569217  0.930783  1
  Cd  Cd4  1  0.000000  0.000000  0.000000  1
  Cd  Cd5  1  0.250000  0.250000  0.250000  1
  Si  Si6  1  0.750000  0.750000  0.750000  1
  Si  Si7  1  0.500000  0.500000  0.500000  1
  Se  Se8  1  0.395424  0.997262  0.916172  1
  Se  Se9  1  0.691142  0.916172  0.997262  1
  Se  Se10  1  0.916172  0.691142  0.395424  1
  Se  Se11  1  0.997262  0.395424  0.691142  1
  Se  Se12  1  0.252738  0.854576  0.558858  1
  Se  Se13  1  0.558858  0.333828  0.252738  1
  Se  Se14  1  0.333828  0.558858  0.854576  1
  Se  Se15  1  0.854576  0.252738  0.333828  1
