# generated using pymatgen
data_Tb2Dy2TmRu2
_symmetry_space_group_name_H-M   'P 1'
_cell_length_a   6.35323363
_cell_length_b   7.26308223
_cell_length_c   8.48312332
_cell_angle_alpha   96.64237004
_cell_angle_beta   111.99113634
_cell_angle_gamma   90.00000876
_symmetry_Int_Tables_number   1
_chemical_formula_structural   Tb2Dy2TmRu2
_chemical_formula_sum   'Tb4 Dy4 Tm2 Ru4'
_cell_volume   360.12952165
_cell_formula_units_Z   2
loop_
 _symmetry_equiv_pos_site_id
 _symmetry_equiv_pos_as_xyz
  1  'x, y, z'
loop_
 _atom_site_type_symbol
 _atom_site_label
 _atom_site_symmetry_multiplicity
 _atom_site_fract_x
 _atom_site_fract_y
 _atom_site_fract_z
 _atom_site_occupancy
  Tb  Tb0  1  0.791735  0.084245  0.814541  1
  Tb  Tb1  1  0.977194  0.415755  0.185459  1
  Tb  Tb2  1  0.208265  0.915755  0.185459  1
  Tb  Tb3  1  0.022806  0.584245  0.814541  1
  Dy  Dy4  1  0.206848  0.184865  0.567047  1
  Dy  Dy5  1  0.639801  0.315135  0.432953  1
  Dy  Dy6  1  0.793152  0.815135  0.432953  1
  Dy  Dy7  1  0.360199  0.684865  0.567047  1
  Tm  Tm8  1  0.421859  0.250000  0.000000  1
  Tm  Tm9  1  0.578141  0.750000  0.000000  1
  Ru  Ru10  1  0.602740  0.424519  0.781523  1
  Ru  Ru11  1  0.821216  0.075481  0.218477  1
  Ru  Ru12  1  0.397260  0.575481  0.218477  1
  Ru  Ru13  1  0.178784  0.924519  0.781523  1
