# generated using pymatgen
data_YTm3Tc4F28
_symmetry_space_group_name_H-M   'P 1'
_cell_length_a   5.53503596
_cell_length_b   8.83019460
_cell_length_c   11.93936455
_cell_angle_alpha   62.63933688
_cell_angle_beta   90.02929203
_cell_angle_gamma   89.99627160
_symmetry_Int_Tables_number   1
_chemical_formula_structural   YTm3Tc4F28
_chemical_formula_sum   'Y1 Tm3 Tc4 F28'
_cell_volume   518.26149738
_cell_formula_units_Z   1
loop_
 _symmetry_equiv_pos_site_id
 _symmetry_equiv_pos_as_xyz
  1  'x, y, z'
loop_
 _atom_site_type_symbol
 _atom_site_label
 _atom_site_symmetry_multiplicity
 _atom_site_fract_x
 _atom_site_fract_y
 _atom_site_fract_z
 _atom_site_occupancy
  Y  Y0  1  0.241297  0.815260  0.764212  1
  Tm  Tm1  1  0.258548  0.815185  0.264087  1
  Tm  Tm2  1  0.740478  0.187534  0.735793  1
  Tm  Tm3  1  0.758756  0.185244  0.236022  1
  Tc  Tc4  1  0.758221  0.726278  0.044910  1
  Tc  Tc5  1  0.241541  0.271511  0.957895  1
  Tc  Tc6  1  0.258897  0.274828  0.455990  1
  Tc  Tc7  1  0.742444  0.726290  0.541226  1
  F  F8  1  0.941587  0.706514  0.413510  1
  F  F9  1  0.057977  0.293741  0.583643  1
  F  F10  1  0.442730  0.292417  0.084727  1
  F  F11  1  0.560954  0.705839  0.916700  1
  F  F12  1  0.469214  0.728941  0.139537  1
  F  F13  1  0.529847  0.271232  0.861993  1
  F  F14  1  0.971377  0.271519  0.360438  1
  F  F15  1  0.032242  0.726838  0.635477  1
  F  F16  1  0.953545  0.745901  0.175921  1
  F  F17  1  0.044782  0.252851  0.826541  1
  F  F18  1  0.455763  0.254720  0.325293  1
  F  F19  1  0.551209  0.744365  0.673774  1
  F  F20  1  0.772461  0.476327  0.142851  1
  F  F21  1  0.225105  0.520417  0.859064  1
  F  F22  1  0.274071  0.524236  0.357670  1
  F  F23  1  0.726581  0.476692  0.640715  1
  F  F24  1  0.942324  0.275866  0.047188  1
  F  F25  1  0.057952  0.721236  0.957229  1
  F  F26  1  0.440965  0.723369  0.452971  1
  F  F27  1  0.557942  0.277704  0.545995  1
  F  F28  1  0.743222  0.974949  0.445817  1
  F  F29  1  0.258280  0.026402  0.551187  1
  F  F30  1  0.242368  0.023157  0.054073  1
  F  F31  1  0.758072  0.974598  0.947568  1
  F  F32  1  0.579437  0.971868  0.232651  1
  F  F33  1  0.418072  0.034455  0.768283  1
  F  F34  1  0.079678  0.028586  0.267462  1
  F  F35  1  0.912061  0.973130  0.731589  1
