# generated using pymatgen
data_Mg4MnGa(B2Rh5)2
_symmetry_space_group_name_H-M   'P 1'
_cell_length_a   9.44770300
_cell_length_b   9.44770300
_cell_length_c   2.93617400
_cell_angle_alpha   90.00000000
_cell_angle_beta   90.00000000
_cell_angle_gamma   90.00000000
_symmetry_Int_Tables_number   1
_chemical_formula_structural   Mg4MnGa(B2Rh5)2
_chemical_formula_sum   'Mg4 Mn1 Ga1 B4 Rh10'
_cell_volume   262.08022512
_cell_formula_units_Z   1
loop_
 _symmetry_equiv_pos_site_id
 _symmetry_equiv_pos_as_xyz
  1  'x, y, z'
loop_
 _atom_site_type_symbol
 _atom_site_label
 _atom_site_symmetry_multiplicity
 _atom_site_fract_x
 _atom_site_fract_y
 _atom_site_fract_z
 _atom_site_occupancy
  Mg  Mg0  1  0.322795  0.174764  0.000000  1
  Mg  Mg1  1  0.825236  0.322795  0.000000  1
  Mg  Mg2  1  0.174764  0.677206  0.000000  1
  Mg  Mg3  1  0.677206  0.825236  0.000000  1
  Mn  Mn4  1  0.000000  0.000000  0.000000  1
  Ga  Ga5  1  0.500000  0.500000  0.000000  1
  B  B6  1  0.625648  0.125421  0.000000  1
  B  B7  1  0.125421  0.374352  0.000000  1
  B  B8  1  0.874579  0.625648  0.000000  1
  B  B9  1  0.374352  0.874579  0.000000  1
  Rh  Rh10  1  0.500000  0.000000  0.499998  1
  Rh  Rh11  1  0.782445  0.072268  0.499998  1
  Rh  Rh12  1  0.072268  0.217556  0.499998  1
  Rh  Rh13  1  0.570755  0.284872  0.499998  1
  Rh  Rh14  1  0.284872  0.429246  0.499998  1
  Rh  Rh15  1  0.000000  0.500000  0.499998  1
  Rh  Rh16  1  0.715128  0.570755  0.499998  1
  Rh  Rh17  1  0.429246  0.715128  0.499998  1
  Rh  Rh18  1  0.927733  0.782445  0.499998  1
  Rh  Rh19  1  0.217556  0.927733  0.499998  1
