# generated using pymatgen
data_SrFe2(Sb6Rh)2
_symmetry_space_group_name_H-M   'P 1'
_cell_length_a   8.05884885
_cell_length_b   8.08559501
_cell_length_c   8.05884861
_cell_angle_alpha   109.43562803
_cell_angle_beta   109.39900152
_cell_angle_gamma   109.44479446
_symmetry_Int_Tables_number   1
_chemical_formula_structural   SrFe2(Sb6Rh)2
_chemical_formula_sum   'Sr1 Fe2 Sb12 Rh2'
_cell_volume   404.90528745
_cell_formula_units_Z   1
loop_
 _symmetry_equiv_pos_site_id
 _symmetry_equiv_pos_as_xyz
  1  'x, y, z'
loop_
 _atom_site_type_symbol
 _atom_site_label
 _atom_site_symmetry_multiplicity
 _atom_site_fract_x
 _atom_site_fract_y
 _atom_site_fract_z
 _atom_site_occupancy
  Sr  Sr0  1  0.000000  0.000000  0.000000  1
  Fe  Fe1  1  0.000000  0.500000  0.000000  1
  Fe  Fe2  1  0.500000  0.500000  0.500000  1
  Sb  Sb3  1  0.344013  0.188111  0.844097  1
  Sb  Sb4  1  0.655987  0.811889  0.155903  1
  Sb  Sb5  1  0.666114  0.503002  0.836887  1
  Sb  Sb6  1  0.333886  0.496998  0.163113  1
  Sb  Sb7  1  0.178900  0.833441  0.331690  1
  Sb  Sb8  1  0.821100  0.166559  0.668310  1
  Sb  Sb9  1  0.501752  0.833441  0.654541  1
  Sb  Sb10  1  0.498248  0.166559  0.345459  1
  Sb  Sb11  1  0.847184  0.345800  0.178901  1
  Sb  Sb12  1  0.152816  0.654200  0.821099  1
  Sb  Sb13  1  0.833100  0.654200  0.501384  1
  Sb  Sb14  1  0.166900  0.345800  0.498616  1
  Rh  Rh15  1  0.000000  0.000000  0.500000  1
  Rh  Rh16  1  0.500000  0.000000  0.000000  1
