# generated using pymatgen
data_DyEr2Th3(Al3Ru)8
_symmetry_space_group_name_H-M   'P 1'
_cell_length_a   8.87937424
_cell_length_b   8.88751099
_cell_length_c   9.58079500
_cell_angle_alpha   90.00000000
_cell_angle_beta   90.00000000
_cell_angle_gamma   120.03032492
_symmetry_Int_Tables_number   1
_chemical_formula_structural   DyEr2Th3(Al3Ru)8
_chemical_formula_sum   'Dy1 Er2 Th3 Al24 Ru8'
_cell_volume   654.57874728
_cell_formula_units_Z   1
loop_
 _symmetry_equiv_pos_site_id
 _symmetry_equiv_pos_as_xyz
  1  'x, y, z'
loop_
 _atom_site_type_symbol
 _atom_site_label
 _atom_site_symmetry_multiplicity
 _atom_site_fract_x
 _atom_site_fract_y
 _atom_site_fract_z
 _atom_site_occupancy
  Dy  Dy0  1  0.386740  0.193370  0.750000  1
  Er  Er1  1  0.805852  0.193712  0.750000  1
  Er  Er2  1  0.805852  0.612140  0.750000  1
  Th  Th3  1  0.195420  0.804342  0.250000  1
  Th  Th4  1  0.195420  0.391078  0.250000  1
  Th  Th5  1  0.609098  0.804549  0.250000  1
  Al  Al6  1  0.565107  0.435093  0.250000  1
  Al  Al7  1  0.565107  0.130013  0.250000  1
  Al  Al8  1  0.869885  0.434942  0.250000  1
  Al  Al9  1  0.441665  0.558987  0.750000  1
  Al  Al10  1  0.441665  0.882677  0.750000  1
  Al  Al11  1  0.116703  0.558351  0.750000  1
  Al  Al12  1  0.326809  0.163404  0.426328  1
  Al  Al13  1  0.836739  0.163281  0.426799  1
  Al  Al14  1  0.836739  0.673457  0.426799  1
  Al  Al15  1  0.677571  0.838785  0.583050  1
  Al  Al16  1  0.160969  0.838308  0.583000  1
  Al  Al17  1  0.160969  0.322660  0.583000  1
  Al  Al18  1  0.677571  0.838785  0.916950  1
  Al  Al19  1  0.160969  0.838308  0.917000  1
  Al  Al20  1  0.160969  0.322660  0.917000  1
  Al  Al21  1  0.326809  0.163404  0.073672  1
  Al  Al22  1  0.836739  0.163281  0.073201  1
  Al  Al23  1  0.836739  0.673457  0.073201  1
  Al  Al24  1  0.667021  0.333510  0.519833  1
  Al  Al25  1  0.333517  0.666759  0.496109  1
  Al  Al26  1  0.333517  0.666759  0.003891  1
  Al  Al27  1  0.667021  0.333510  0.980167  1
  Al  Al28  1  0.999958  0.999979  0.250000  1
  Al  Al29  1  0.998928  0.999464  0.750000  1
  Ru  Ru30  1  0.000142  0.000071  0.501596  1
  Ru  Ru31  1  0.000142  0.000071  0.998404  1
  Ru  Ru32  1  0.500252  0.500401  0.498817  1
  Ru  Ru33  1  0.500252  0.999851  0.498817  1
  Ru  Ru34  1  0.000325  0.500163  0.498802  1
  Ru  Ru35  1  0.500252  0.500401  0.001183  1
  Ru  Ru36  1  0.500252  0.999851  0.001183  1
  Ru  Ru37  1  0.000325  0.500163  0.001198  1
