# generated using pymatgen
data_Dy2YHo(OsC2)2
_symmetry_space_group_name_H-M   'P 1'
_cell_length_a   5.13247900
_cell_length_b   6.43523948
_cell_length_c   9.79915332
_cell_angle_alpha   90.11928850
_cell_angle_beta   90.00000000
_cell_angle_gamma   90.00000000
_symmetry_Int_Tables_number   1
_chemical_formula_structural   Dy2YHo(OsC2)2
_chemical_formula_sum   'Dy4 Y2 Ho2 Os4 C8'
_cell_volume   323.65290238
_cell_formula_units_Z   2
loop_
 _symmetry_equiv_pos_site_id
 _symmetry_equiv_pos_as_xyz
  1  'x, y, z'
loop_
 _atom_site_type_symbol
 _atom_site_label
 _atom_site_symmetry_multiplicity
 _atom_site_fract_x
 _atom_site_fract_y
 _atom_site_fract_z
 _atom_site_occupancy
  Dy  Dy0  1  0.250000  0.524493  0.220549  1
  Dy  Dy1  1  0.750000  0.475507  0.779451  1
  Dy  Dy2  1  0.750000  0.975557  0.719161  1
  Dy  Dy3  1  0.250000  0.024443  0.280839  1
  Y  Y4  1  0.750000  0.813851  0.051990  1
  Y  Y5  1  0.250000  0.186149  0.948010  1
  Ho  Ho6  1  0.250000  0.683847  0.552121  1
  Ho  Ho7  1  0.750000  0.316153  0.447879  1
  Os  Os8  1  0.250000  0.726734  0.864261  1
  Os  Os9  1  0.750000  0.273266  0.135739  1
  Os  Os10  1  0.750000  0.773688  0.365651  1
  Os  Os11  1  0.250000  0.226312  0.634349  1
  C  C12  1  0.250000  0.463306  0.756944  1
  C  C13  1  0.750000  0.536694  0.243056  1
  C  C14  1  0.750000  0.037746  0.259161  1
  C  C15  1  0.250000  0.962254  0.740839  1
  C  C16  1  0.250000  0.822699  0.052363  1
  C  C17  1  0.750000  0.177301  0.947637  1
  C  C18  1  0.750000  0.674707  0.552928  1
  C  C19  1  0.250000  0.325293  0.447072  1
