# generated using pymatgen
data_La4AlSi(OsI)2
_symmetry_space_group_name_H-M   'P 1'
_cell_length_a   4.34424000
_cell_length_b   4.34423896
_cell_length_c   17.77524100
_cell_angle_alpha   90.00000000
_cell_angle_beta   90.00000000
_cell_angle_gamma   120.00000791
_symmetry_Int_Tables_number   1
_chemical_formula_structural   La4AlSi(OsI)2
_chemical_formula_sum   'La4 Al1 Si1 Os2 I2'
_cell_volume   290.51837816
_cell_formula_units_Z   1
loop_
 _symmetry_equiv_pos_site_id
 _symmetry_equiv_pos_as_xyz
  1  'x, y, z'
loop_
 _atom_site_type_symbol
 _atom_site_label
 _atom_site_symmetry_multiplicity
 _atom_site_fract_x
 _atom_site_fract_y
 _atom_site_fract_z
 _atom_site_occupancy
  La  La0  1  0.000000  0.000000  0.397713  1
  La  La1  1  0.000000  0.000000  0.893810  1
  La  La2  1  0.000000  0.000000  0.603221  1
  La  La3  1  0.000000  0.000000  0.106470  1
  Al  Al4  1  0.666667  0.333333  0.000335  1
  Si  Si5  1  0.333333  0.666667  0.500903  1
  Os  Os6  1  0.666667  0.333333  0.499156  1
  Os  Os7  1  0.333333  0.666667  0.999556  1
  I  I8  1  0.333333  0.666667  0.251153  1
  I  I9  1  0.666667  0.333333  0.747683  1
