# generated using pymatgen
data_Ca3CeTm4(B6Ru)4
_symmetry_space_group_name_H-M   'P 1'
_cell_length_a   3.64523400
_cell_length_b   9.12565179
_cell_length_c   11.53582705
_cell_angle_alpha   89.84117287
_cell_angle_beta   90.00000000
_cell_angle_gamma   90.00000000
_symmetry_Int_Tables_number   1
_chemical_formula_structural   Ca3CeTm4(B6Ru)4
_chemical_formula_sum   'Ca3 Ce1 Tm4 B24 Ru4'
_cell_volume   383.73938333
_cell_formula_units_Z   1
loop_
 _symmetry_equiv_pos_site_id
 _symmetry_equiv_pos_as_xyz
  1  'x, y, z'
loop_
 _atom_site_type_symbol
 _atom_site_label
 _atom_site_symmetry_multiplicity
 _atom_site_fract_x
 _atom_site_fract_y
 _atom_site_fract_z
 _atom_site_occupancy
  Ca  Ca0  1  0.000000  0.324777  0.414437  1
  Ca  Ca1  1  0.000000  0.675971  0.583731  1
  Ca  Ca2  1  0.000000  0.821325  0.086961  1
  Ce  Ce3  1  0.000000  0.175222  0.915207  1
  Tm  Tm4  1  0.000000  0.941328  0.368572  1
  Tm  Tm5  1  0.000000  0.056936  0.628881  1
  Tm  Tm6  1  0.000000  0.444956  0.131820  1
  Tm  Tm7  1  0.000000  0.558211  0.869572  1
  B  B8  1  0.500000  0.554458  0.432625  1
  B  B9  1  0.500000  0.444935  0.568264  1
  B  B10  1  0.500000  0.055021  0.068464  1
  B  B11  1  0.500000  0.944724  0.931684  1
  B  B12  1  0.500000  0.749042  0.417343  1
  B  B13  1  0.500000  0.250949  0.582439  1
  B  B14  1  0.500000  0.249903  0.082408  1
  B  B15  1  0.500000  0.750487  0.917451  1
  B  B16  1  0.500000  0.791550  0.265135  1
  B  B17  1  0.500000  0.208424  0.734695  1
  B  B18  1  0.500000  0.291582  0.235299  1
  B  B19  1  0.500000  0.709116  0.765218  1
  B  B20  1  0.500000  0.631228  0.185879  1
  B  B21  1  0.500000  0.368728  0.815359  1
  B  B22  1  0.500000  0.130779  0.314032  1
  B  B23  1  0.500000  0.869168  0.684646  1
  B  B24  1  0.500000  0.984066  0.212524  1
  B  B25  1  0.500000  0.015433  0.787339  1
  B  B26  1  0.500000  0.484314  0.288177  1
  B  B27  1  0.500000  0.515756  0.712234  1
  B  B28  1  0.500000  0.600870  0.027540  1
  B  B29  1  0.500000  0.400782  0.972985  1
  B  B30  1  0.500000  0.097854  0.472442  1
  B  B31  1  0.500000  0.901940  0.526285  1
  Ru  Ru32  1  0.000000  0.639708  0.319225  1
  Ru  Ru33  1  0.000000  0.358075  0.683375  1
  Ru  Ru34  1  0.000000  0.139983  0.178169  1
  Ru  Ru35  1  0.000000  0.862400  0.819581  1
