# generated using pymatgen
data_Dy6Ti2Co16Si11P
_symmetry_space_group_name_H-M   'P 1'
_cell_length_a   3.78297500
_cell_length_b   10.93541342
_cell_length_c   12.48195349
_cell_angle_alpha   89.96808130
_cell_angle_beta   90.00000000
_cell_angle_gamma   90.00000000
_symmetry_Int_Tables_number   1
_chemical_formula_structural   Dy6Ti2Co16Si11P
_chemical_formula_sum   'Dy6 Ti2 Co16 Si11 P1'
_cell_volume   516.35830945
_cell_formula_units_Z   1
loop_
 _symmetry_equiv_pos_site_id
 _symmetry_equiv_pos_as_xyz
  1  'x, y, z'
loop_
 _atom_site_type_symbol
 _atom_site_label
 _atom_site_symmetry_multiplicity
 _atom_site_fract_x
 _atom_site_fract_y
 _atom_site_fract_z
 _atom_site_occupancy
  Dy  Dy0  1  0.000000  0.499565  0.529689  1
  Dy  Dy1  1  0.500000  0.000276  0.469307  1
  Dy  Dy2  1  0.500000  0.823029  0.205524  1
  Dy  Dy3  1  0.500000  0.179919  0.203864  1
  Dy  Dy4  1  0.000000  0.676537  0.795013  1
  Dy  Dy5  1  0.000000  0.323059  0.793545  1
  Ti  Ti6  1  0.500000  0.497355  0.146873  1
  Ti  Ti7  1  0.000000  0.000493  0.853723  1
  Co  Co8  1  0.500000  0.499703  0.699697  1
  Co  Co9  1  0.000000  0.000530  0.300193  1
  Co  Co10  1  0.000000  0.496439  0.990327  1
  Co  Co11  1  0.500000  0.001279  0.012235  1
  Co  Co12  1  0.500000  0.331853  0.000836  1
  Co  Co13  1  0.500000  0.666589  0.998927  1
  Co  Co14  1  0.000000  0.171266  0.003958  1
  Co  Co15  1  0.000000  0.832145  0.002108  1
  Co  Co16  1  0.500000  0.301712  0.430346  1
  Co  Co17  1  0.500000  0.698219  0.431636  1
  Co  Co18  1  0.000000  0.198590  0.567709  1
  Co  Co19  1  0.000000  0.801491  0.568396  1
  Co  Co20  1  0.500000  0.883223  0.707954  1
  Co  Co21  1  0.500000  0.117512  0.707870  1
  Co  Co22  1  0.000000  0.616689  0.292513  1
  Co  Co23  1  0.000000  0.381975  0.288228  1
  Si  Si24  1  0.500000  0.499615  0.887626  1
  Si  Si25  1  0.000000  0.000351  0.112612  1
  Si  Si26  1  0.500000  0.500156  0.348757  1
  Si  Si27  1  0.000000  0.999932  0.650762  1
  Si  Si28  1  0.500000  0.301994  0.614499  1
  Si  Si29  1  0.500000  0.698278  0.615405  1
  Si  Si30  1  0.000000  0.198100  0.383922  1
  Si  Si31  1  0.000000  0.801739  0.384637  1
  Si  Si32  1  0.500000  0.841317  0.895600  1
  Si  Si33  1  0.500000  0.159356  0.895208  1
  Si  Si34  1  0.000000  0.658146  0.105493  1
  P  P35  1  0.000000  0.341570  0.105007  1
