# generated using pymatgen
data_Tm8MgInIr2
_symmetry_space_group_name_H-M   'P 1'
_cell_length_a   9.55597048
_cell_length_b   9.55597100
_cell_length_c   9.56228600
_cell_angle_alpha   59.97813708
_cell_angle_beta   59.97813525
_cell_angle_gamma   60.18062034
_symmetry_Int_Tables_number   1
_chemical_formula_structural   Tm8MgInIr2
_chemical_formula_sum   'Tm16 Mg2 In2 Ir4'
_cell_volume   618.07571873
_cell_formula_units_Z   2
loop_
 _symmetry_equiv_pos_site_id
 _symmetry_equiv_pos_as_xyz
  1  'x, y, z'
loop_
 _atom_site_type_symbol
 _atom_site_label
 _atom_site_symmetry_multiplicity
 _atom_site_fract_x
 _atom_site_fract_y
 _atom_site_fract_z
 _atom_site_occupancy
  Tm  Tm0  1  0.347711  0.347711  0.344294  1
  Tm  Tm1  1  0.347711  0.347711  0.960285  1
  Tm  Tm2  1  0.350593  0.955144  0.347132  1
  Tm  Tm3  1  0.955144  0.350593  0.347132  1
  Tm  Tm4  1  0.809305  0.188689  0.191005  1
  Tm  Tm5  1  0.188689  0.809305  0.811001  1
  Tm  Tm6  1  0.188689  0.809305  0.191005  1
  Tm  Tm7  1  0.809305  0.188689  0.811001  1
  Tm  Tm8  1  0.186873  0.186873  0.813127  1
  Tm  Tm9  1  0.806153  0.806153  0.193847  1
  Tm  Tm10  1  0.938057  0.562119  0.562617  1
  Tm  Tm11  1  0.562119  0.938057  0.937207  1
  Tm  Tm12  1  0.562119  0.938057  0.562617  1
  Tm  Tm13  1  0.938057  0.562119  0.937207  1
  Tm  Tm14  1  0.562446  0.562446  0.937554  1
  Tm  Tm15  1  0.939492  0.939492  0.560508  1
  Mg  Mg16  1  0.578937  0.266357  0.577353  1
  Mg  Mg17  1  0.266357  0.578937  0.577353  1
  In  In18  1  0.582012  0.582012  0.584563  1
  In  In19  1  0.582012  0.582012  0.251413  1
  Ir  Ir20  1  0.140246  0.140246  0.143103  1
  Ir  Ir21  1  0.140246  0.140246  0.576405  1
  Ir  Ir22  1  0.139841  0.577886  0.141137  1
  Ir  Ir23  1  0.577886  0.139841  0.141137  1
