# generated using pymatgen
data_La4NdSn3Se
_symmetry_space_group_name_H-M   'P 1'
_cell_length_a   9.62877500
_cell_length_b   9.62877496
_cell_length_c   7.10442000
_cell_angle_alpha   90.00000000
_cell_angle_beta   90.00000000
_cell_angle_gamma   119.99999670
_symmetry_Int_Tables_number   1
_chemical_formula_structural   La4NdSn3Se
_chemical_formula_sum   'La8 Nd2 Sn6 Se2'
_cell_volume   570.42867558
_cell_formula_units_Z   2
loop_
 _symmetry_equiv_pos_site_id
 _symmetry_equiv_pos_as_xyz
  1  'x, y, z'
loop_
 _atom_site_type_symbol
 _atom_site_label
 _atom_site_symmetry_multiplicity
 _atom_site_fract_x
 _atom_site_fract_y
 _atom_site_fract_z
 _atom_site_occupancy
  La  La0  1  0.747587  0.747587  0.749079  1
  La  La1  1  0.252413  0.000000  0.749079  1
  La  La2  1  0.000000  0.252413  0.749079  1
  La  La3  1  0.252413  0.252413  0.250921  1
  La  La4  1  0.747587  0.000000  0.250921  1
  La  La5  1  0.000000  0.747587  0.250921  1
  La  La6  1  0.666667  0.333333  0.000000  1
  La  La7  1  0.333333  0.666667  0.000000  1
  Nd  Nd8  1  0.333333  0.666667  0.500000  1
  Nd  Nd9  1  0.666667  0.333333  0.500000  1
  Sn  Sn10  1  0.395785  0.395785  0.746779  1
  Sn  Sn11  1  0.604215  0.000000  0.746779  1
  Sn  Sn12  1  0.000000  0.604215  0.746779  1
  Sn  Sn13  1  0.604215  0.604215  0.253221  1
  Sn  Sn14  1  0.395785  0.000000  0.253221  1
  Sn  Sn15  1  0.000000  0.395785  0.253221  1
  Se  Se16  1  0.000000  0.000000  0.000000  1
  Se  Se17  1  0.000000  0.000000  0.500000  1
