# generated using pymatgen
data_La21Fe8Pb7C12
_symmetry_space_group_name_H-M   'P 1'
_cell_length_a   11.66350607
_cell_length_b   11.66348676
_cell_length_c   11.66424800
_cell_angle_alpha   60.00289501
_cell_angle_beta   60.00274559
_cell_angle_gamma   60.00071501
_symmetry_Int_Tables_number   1
_chemical_formula_structural   La21Fe8Pb7C12
_chemical_formula_sum   'La21 Fe8 Pb7 C12'
_cell_volume   1122.07045320
_cell_formula_units_Z   1
loop_
 _symmetry_equiv_pos_site_id
 _symmetry_equiv_pos_as_xyz
  1  'x, y, z'
loop_
 _atom_site_type_symbol
 _atom_site_label
 _atom_site_symmetry_multiplicity
 _atom_site_fract_x
 _atom_site_fract_y
 _atom_site_fract_z
 _atom_site_occupancy
  La  La0  1  0.999979  0.000017  0.659503  1
  La  La1  1  0.999983  0.659548  0.340490  1
  La  La2  1  0.635796  0.635803  0.635837  1
  La  La3  1  0.000040  0.340403  0.659517  1
  La  La4  1  0.659499  0.000011  0.999990  1
  La  La5  1  0.364147  0.364155  0.907511  1
  La  La6  1  0.635821  0.092520  0.635816  1
  La  La7  1  0.659488  0.000012  0.340475  1
  La  La8  1  0.999993  0.000002  0.340434  1
  La  La9  1  0.907409  0.364194  0.364192  1
  La  La10  1  0.000006  0.659550  0.000014  1
  La  La11  1  0.364118  0.907473  0.364208  1
  La  La12  1  0.659503  0.340460  0.000028  1
  La  La13  1  0.000020  0.340418  0.000028  1
  La  La14  1  0.635820  0.635847  0.092485  1
  La  La15  1  0.364174  0.364160  0.364211  1
  La  La16  1  0.340509  0.659520  0.000006  1
  La  La17  1  0.340439  0.000010  0.999994  1
  La  La18  1  0.092536  0.635848  0.635823  1
  La  La19  1  0.340490  0.999985  0.659569  1
  La  La20  1  0.500066  0.499988  0.499965  1
  Fe  Fe21  1  0.196770  0.410099  0.196549  1
  Fe  Fe22  1  0.803324  0.589971  0.803256  1
  Fe  Fe23  1  0.196584  0.196516  0.196662  1
  Fe  Fe24  1  0.803326  0.803314  0.589791  1
  Fe  Fe25  1  0.196572  0.196653  0.410232  1
  Fe  Fe26  1  0.589899  0.803334  0.803382  1
  Fe  Fe27  1  0.803248  0.803547  0.803498  1
  Fe  Fe28  1  0.409929  0.196733  0.196549  1
  Pb  Pb29  1  0.290160  0.290310  0.709750  1
  Pb  Pb30  1  0.290274  0.709822  0.290208  1
  Pb  Pb31  1  0.290223  0.709786  0.709778  1
  Pb  Pb32  1  0.709863  0.290242  0.290083  1
  Pb  Pb33  1  0.000473  0.999773  0.000401  1
  Pb  Pb34  1  0.709809  0.290266  0.709786  1
  Pb  Pb35  1  0.709747  0.709888  0.290139  1
  C  C36  1  0.390259  0.390182  0.109777  1
  C  C37  1  0.390167  0.109756  0.390273  1
  C  C38  1  0.609757  0.890275  0.890185  1
  C  C39  1  0.390156  0.109773  0.109784  1
  C  C40  1  0.890195  0.890195  0.609758  1
  C  C41  1  0.890284  0.609691  0.609740  1
  C  C42  1  0.609834  0.609732  0.890188  1
  C  C43  1  0.890237  0.609826  0.890164  1
  C  C44  1  0.109784  0.390199  0.390218  1
  C  C45  1  0.609799  0.890190  0.609751  1
  C  C46  1  0.109696  0.109772  0.390213  1
  C  C47  1  0.109794  0.390226  0.109792  1
