# generated using pymatgen
data_PI15
_symmetry_space_group_name_H-M   'P 1'
_cell_length_a   8.95591300
_cell_length_b   10.50941400
_cell_length_c   20.91038500
_cell_angle_alpha   90.00000000
_cell_angle_beta   90.00000000
_cell_angle_gamma   90.00000000
_symmetry_Int_Tables_number   1
_chemical_formula_structural   PI15
_chemical_formula_sum   'P2 I30'
_cell_volume   1968.11465773
_cell_formula_units_Z   2
loop_
 _symmetry_equiv_pos_site_id
 _symmetry_equiv_pos_as_xyz
  1  'x, y, z'
loop_
 _atom_site_type_symbol
 _atom_site_label
 _atom_site_symmetry_multiplicity
 _atom_site_fract_x
 _atom_site_fract_y
 _atom_site_fract_z
 _atom_site_occupancy
  P  P0  1  0.250000  0.637724  0.637786  1
  P  P1  1  0.250000  0.137724  0.862214  1
  I  I2  1  0.750000  0.855910  0.172685  1
  I  I3  1  0.750000  0.355910  0.327315  1
  I  I4  1  0.250000  0.301283  0.186274  1
  I  I5  1  0.750000  0.927839  0.775779  1
  I  I6  1  0.750000  0.743161  0.314784  1
  I  I7  1  0.500080  0.746615  0.101130  1
  I  I8  1  0.250000  0.548112  0.254050  1
  I  I9  1  0.478920  0.765874  0.611506  1
  I  I10  1  0.250000  0.580442  0.750677  1
  I  I11  1  0.250000  0.140456  0.470889  1
  I  I12  1  0.750000  0.662969  0.440159  1
  I  I13  1  0.478920  0.265874  0.888494  1
  I  I14  1  0.250000  0.937695  0.922420  1
  I  I15  1  0.750000  0.243161  0.185216  1
  I  I16  1  0.500080  0.246615  0.398870  1
  I  I17  1  0.750000  0.195832  0.658876  1
  I  I18  1  0.250000  0.801283  0.313726  1
  I  I19  1  0.999920  0.246615  0.398870  1
  I  I20  1  0.750000  0.943601  0.571842  1
  I  I21  1  0.999920  0.746615  0.101130  1
  I  I22  1  0.250000  0.048112  0.245950  1
  I  I23  1  0.750000  0.162969  0.059841  1
  I  I24  1  0.750000  0.695832  0.841124  1
  I  I25  1  0.750000  0.427839  0.724221  1
  I  I26  1  0.250000  0.640456  0.029111  1
  I  I27  1  0.021080  0.765874  0.611506  1
  I  I28  1  0.750000  0.443601  0.928158  1
  I  I29  1  0.250000  0.437695  0.577580  1
  I  I30  1  0.250000  0.080442  0.749323  1
  I  I31  1  0.021080  0.265874  0.888494  1
