# generated using pymatgen
data_Ho11ErTc3Ir
_symmetry_space_group_name_H-M   'P 1'
_cell_length_a   6.26370813
_cell_length_b   7.36640811
_cell_length_c   9.08550718
_cell_angle_alpha   90.00804297
_cell_angle_beta   89.97877892
_cell_angle_gamma   89.98574655
_symmetry_Int_Tables_number   1
_chemical_formula_structural   Ho11ErTc3Ir
_chemical_formula_sum   'Ho11 Er1 Tc3 Ir1'
_cell_volume   419.21461691
_cell_formula_units_Z   1
loop_
 _symmetry_equiv_pos_site_id
 _symmetry_equiv_pos_as_xyz
  1  'x, y, z'
loop_
 _atom_site_type_symbol
 _atom_site_label
 _atom_site_symmetry_multiplicity
 _atom_site_fract_x
 _atom_site_fract_y
 _atom_site_fract_z
 _atom_site_occupancy
  Ho  Ho0  1  0.163003  0.175631  0.436964  1
  Ho  Ho1  1  0.664948  0.322601  0.561598  1
  Ho  Ho2  1  0.835286  0.825064  0.938074  1
  Ho  Ho3  1  0.664724  0.322781  0.938449  1
  Ho  Ho4  1  0.835269  0.825105  0.561987  1
  Ho  Ho5  1  0.333348  0.676209  0.435880  1
  Ho  Ho6  1  0.163111  0.175630  0.062986  1
  Ho  Ho7  1  0.873919  0.540839  0.249844  1
  Ho  Ho8  1  0.625507  0.038421  0.249885  1
  Ho  Ho9  1  0.131328  0.458422  0.750126  1
  Ho  Ho10  1  0.371382  0.959806  0.750102  1
  Er  Er11  1  0.333232  0.676066  0.064204  1
  Tc  Tc12  1  0.040112  0.883633  0.249817  1
  Tc  Tc13  1  0.462195  0.386589  0.249886  1
  Tc  Tc14  1  0.960295  0.116663  0.749919  1
  Ir  Ir15  1  0.542341  0.616540  0.750281  1
