# generated using pymatgen
data_LaZn10Cu
_symmetry_space_group_name_H-M   'P 1'
_cell_length_a   8.25967839
_cell_length_b   8.25407013
_cell_length_c   8.26484967
_cell_angle_alpha   99.92092446
_cell_angle_beta   99.95357176
_cell_angle_gamma   130.88383808
_symmetry_Int_Tables_number   1
_chemical_formula_structural   LaZn10Cu
_chemical_formula_sum   'La2 Zn20 Cu2'
_cell_volume   387.54255802
_cell_formula_units_Z   2
loop_
 _symmetry_equiv_pos_site_id
 _symmetry_equiv_pos_as_xyz
  1  'x, y, z'
loop_
 _atom_site_type_symbol
 _atom_site_label
 _atom_site_symmetry_multiplicity
 _atom_site_fract_x
 _atom_site_fract_y
 _atom_site_fract_z
 _atom_site_occupancy
  La  La0  1  0.251078  0.751078  0.502155  1
  La  La1  1  0.998922  0.998922  0.997845  1
  Zn  Zn2  1  0.901584  0.572555  0.088245  1
  Zn  Zn3  1  0.430067  0.512368  0.326029  1
  Zn  Zn4  1  0.489323  0.574645  0.670673  1
  Zn  Zn5  1  0.428494  0.102571  0.920854  1
  Zn  Zn6  1  0.760677  0.175355  0.829327  1
  Zn  Zn7  1  0.492360  0.818283  0.920854  1
  Zn  Zn8  1  0.503988  0.503988  0.007975  1
  Zn  Zn9  1  0.757640  0.931717  0.579146  1
  Zn  Zn10  1  0.746012  0.246012  0.492025  1
  Zn  Zn11  1  0.068650  0.653972  0.829327  1
  Zn  Zn12  1  0.125000  0.375000  0.750000  1
  Zn  Zn13  1  0.348416  0.177445  0.411755  1
  Zn  Zn14  1  0.821506  0.647429  0.579146  1
  Zn  Zn15  1  0.895962  0.813661  0.326029  1
  Zn  Zn16  1  0.181350  0.096028  0.670673  1
  Zn  Zn17  1  0.063339  0.234310  0.411755  1
  Zn  Zn18  1  0.354038  0.936339  0.173971  1
  Zn  Zn19  1  0.819933  0.237632  0.173971  1
  Zn  Zn20  1  0.186661  0.515690  0.088245  1
  Zn  Zn21  1  0.625000  0.375000  0.750000  1
  Cu  Cu22  1  0.625000  0.875000  0.250000  1
  Cu  Cu23  1  0.625000  0.375000  0.250000  1
