# generated using pymatgen
data_Sr3(CaAu2)2
_symmetry_space_group_name_H-M   'P 1'
_cell_length_a   8.35599788
_cell_length_b   8.12286307
_cell_length_c   8.33556286
_cell_angle_alpha   70.47121037
_cell_angle_beta   89.83784516
_cell_angle_gamma   90.02964023
_symmetry_Int_Tables_number   1
_chemical_formula_structural   Sr3(CaAu2)2
_chemical_formula_sum   'Sr6 Ca4 Au8'
_cell_volume   533.22356673
_cell_formula_units_Z   2
loop_
 _symmetry_equiv_pos_site_id
 _symmetry_equiv_pos_as_xyz
  1  'x, y, z'
loop_
 _atom_site_type_symbol
 _atom_site_label
 _atom_site_symmetry_multiplicity
 _atom_site_fract_x
 _atom_site_fract_y
 _atom_site_fract_z
 _atom_site_occupancy
  Sr  Sr0  1  0.325468  0.067628  0.307365  1
  Sr  Sr1  1  0.177151  0.566692  0.306400  1
  Sr  Sr2  1  0.820946  0.436208  0.689898  1
  Sr  Sr3  1  0.333001  0.254557  0.743468  1
  Sr  Sr4  1  0.997991  0.998604  0.001849  1
  Sr  Sr5  1  0.677545  0.929799  0.691884  1
  Ca  Ca6  1  0.829710  0.249167  0.253214  1
  Ca  Ca7  1  0.169845  0.750291  0.746348  1
  Ca  Ca8  1  0.667925  0.745027  0.254882  1
  Ca  Ca9  1  0.501634  0.501427  0.002005  1
  Au  Au10  1  0.866114  0.623908  0.994579  1
  Au  Au11  1  0.960348  0.857362  0.421780  1
  Au  Au12  1  0.129817  0.378281  0.010398  1
  Au  Au13  1  0.541546  0.363993  0.408725  1
  Au  Au14  1  0.376842  0.863840  0.007638  1
  Au  Au15  1  0.464475  0.648226  0.580139  1
  Au  Au16  1  0.032427  0.136871  0.576645  1
  Au  Au17  1  0.627215  0.128121  0.002783  1
