# generated using pymatgen
data_Na8Ag3Sn12Au
_symmetry_space_group_name_H-M   'P 1'
_cell_length_a   9.92647000
_cell_length_b   9.92646984
_cell_length_c   7.50073300
_cell_angle_alpha   90.00000000
_cell_angle_beta   90.00000000
_cell_angle_gamma   120.00000055
_symmetry_Int_Tables_number   1
_chemical_formula_structural   Na8Ag3Sn12Au
_chemical_formula_sum   'Na8 Ag3 Sn12 Au1'
_cell_volume   640.06487836
_cell_formula_units_Z   1
loop_
 _symmetry_equiv_pos_site_id
 _symmetry_equiv_pos_as_xyz
  1  'x, y, z'
loop_
 _atom_site_type_symbol
 _atom_site_label
 _atom_site_symmetry_multiplicity
 _atom_site_fract_x
 _atom_site_fract_y
 _atom_site_fract_z
 _atom_site_occupancy
  Na  Na0  1  0.530454  0.060908  0.250571  1
  Na  Na1  1  0.064082  0.532041  0.750562  1
  Na  Na2  1  0.467959  0.532041  0.750562  1
  Na  Na3  1  0.530454  0.469546  0.250571  1
  Na  Na4  1  0.467959  0.935918  0.750562  1
  Na  Na5  1  0.939092  0.469546  0.250571  1
  Na  Na6  1  0.000000  0.000000  0.749500  1
  Na  Na7  1  0.000000  0.000000  0.250838  1
  Ag  Ag8  1  0.333333  0.666667  0.441587  1
  Ag  Ag9  1  0.666667  0.333333  0.552178  1
  Ag  Ag10  1  0.666667  0.333333  0.947538  1
  Sn  Sn11  1  0.171731  0.828269  0.053165  1
  Sn  Sn12  1  0.829606  0.659212  0.550715  1
  Sn  Sn13  1  0.340788  0.170394  0.550715  1
  Sn  Sn14  1  0.829508  0.170492  0.947977  1
  Sn  Sn15  1  0.829508  0.659016  0.947977  1
  Sn  Sn16  1  0.829606  0.170394  0.550715  1
  Sn  Sn17  1  0.340984  0.170492  0.947977  1
  Sn  Sn18  1  0.656539  0.828269  0.053165  1
  Sn  Sn19  1  0.659169  0.829585  0.450840  1
  Sn  Sn20  1  0.170415  0.340831  0.450840  1
  Sn  Sn21  1  0.170415  0.829585  0.450840  1
  Sn  Sn22  1  0.171731  0.343461  0.053165  1
  Au  Au23  1  0.333333  0.666667  0.046868  1
