# generated using pymatgen
data_Tm15Lu(ScIr3)4
_symmetry_space_group_name_H-M   'P 1'
_cell_length_a   10.65530003
_cell_length_b   10.65762600
_cell_length_c   6.22210602
_cell_angle_alpha   90.00307534
_cell_angle_beta   89.99176490
_cell_angle_gamma   89.99974203
_symmetry_Int_Tables_number   1
_chemical_formula_structural   Tm15Lu(ScIr3)4
_chemical_formula_sum   'Tm15 Lu1 Sc4 Ir12'
_cell_volume   706.58361204
_cell_formula_units_Z   1
loop_
 _symmetry_equiv_pos_site_id
 _symmetry_equiv_pos_as_xyz
  1  'x, y, z'
loop_
 _atom_site_type_symbol
 _atom_site_label
 _atom_site_symmetry_multiplicity
 _atom_site_fract_x
 _atom_site_fract_y
 _atom_site_fract_z
 _atom_site_occupancy
  Tm  Tm0  1  0.288522  0.914017  0.876549  1
  Tm  Tm1  1  0.711432  0.086083  0.876498  1
  Tm  Tm2  1  0.711416  0.913910  0.376514  1
  Tm  Tm3  1  0.586093  0.788604  0.876505  1
  Tm  Tm4  1  0.585931  0.211384  0.376507  1
  Tm  Tm5  1  0.413807  0.788715  0.376480  1
  Tm  Tm6  1  0.413783  0.211363  0.876519  1
  Tm  Tm7  1  0.211447  0.413860  0.623457  1
  Tm  Tm8  1  0.211448  0.586111  0.123495  1
  Tm  Tm9  1  0.788561  0.413890  0.123481  1
  Tm  Tm10  1  0.788557  0.586111  0.623514  1
  Tm  Tm11  1  0.913908  0.711445  0.123488  1
  Tm  Tm12  1  0.913897  0.288551  0.623552  1
  Tm  Tm13  1  0.086113  0.711462  0.623453  1
  Tm  Tm14  1  0.086257  0.288427  0.123633  1
  Lu  Lu15  1  0.288872  0.085926  0.376886  1
  Sc  Sc16  1  0.000220  0.000106  0.499902  1
  Sc  Sc17  1  0.000027  0.000022  0.000024  1
  Sc  Sc18  1  0.499980  0.499989  0.000004  1
  Sc  Sc19  1  0.499973  0.499991  0.499912  1
  Ir  Ir20  1  0.851048  0.148944  0.250014  1
  Ir  Ir21  1  0.851085  0.851056  0.749994  1
  Ir  Ir22  1  0.149166  0.148808  0.749321  1
  Ir  Ir23  1  0.149095  0.851339  0.250149  1
  Ir  Ir24  1  0.648947  0.351031  0.749998  1
  Ir  Ir25  1  0.648949  0.648927  0.250017  1
  Ir  Ir26  1  0.350986  0.350744  0.250153  1
  Ir  Ir27  1  0.351063  0.648944  0.749990  1
  Ir  Ir28  1  0.499706  0.000149  0.123259  1
  Ir  Ir29  1  0.499697  0.000125  0.622639  1
  Ir  Ir30  1  0.000019  0.500000  0.877055  1
  Ir  Ir31  1  0.999996  0.499966  0.377038  1
