# generated using pymatgen
data_Cs4Ti3VH20
_symmetry_space_group_name_H-M   'P 1'
_cell_length_a   11.61273157
_cell_length_b   7.46863343
_cell_length_c   5.10885009
_cell_angle_alpha   89.46595674
_cell_angle_beta   90.03191287
_cell_angle_gamma   89.67635690
_symmetry_Int_Tables_number   1
_chemical_formula_structural   Cs4Ti3VH20
_chemical_formula_sum   'Cs4 Ti3 V1 H20'
_cell_volume   443.07048039
_cell_formula_units_Z   1
loop_
 _symmetry_equiv_pos_site_id
 _symmetry_equiv_pos_as_xyz
  1  'x, y, z'
loop_
 _atom_site_type_symbol
 _atom_site_label
 _atom_site_symmetry_multiplicity
 _atom_site_fract_x
 _atom_site_fract_y
 _atom_site_fract_z
 _atom_site_occupancy
  Cs  Cs0  1  0.669805  0.063319  0.330275  1
  Cs  Cs1  1  0.172101  0.433353  0.321758  1
  Cs  Cs2  1  0.825704  0.565569  0.829539  1
  Cs  Cs3  1  0.332691  0.928680  0.831342  1
  Ti  Ti4  1  0.019867  0.924573  0.313797  1
  Ti  Ti5  1  0.980531  0.074791  0.811749  1
  Ti  Ti6  1  0.482575  0.432085  0.805564  1
  V  V7  1  0.515708  0.560979  0.299923  1
  H  H8  1  0.340941  0.341795  0.784104  1
  H  H9  1  0.835568  0.154228  0.780087  1
  H  H10  1  0.955485  0.705983  0.295308  1
  H  H11  1  0.474113  0.780271  0.301409  1
  H  H12  1  0.581789  0.400787  0.093564  1
  H  H13  1  0.074700  0.104860  0.099302  1
  H  H14  1  0.397224  0.510759  0.094179  1
  H  H15  1  0.899749  0.006304  0.106652  1
  H  H16  1  0.967152  0.136730  0.459949  1
  H  H17  1  0.469342  0.359296  0.453443  1
  H  H18  1  0.165011  0.845444  0.284809  1
  H  H19  1  0.646711  0.658448  0.280275  1
  H  H20  1  0.536062  0.206567  0.801370  1
  H  H21  1  0.041234  0.295856  0.790817  1
  H  H22  1  0.925476  0.894463  0.602056  1
  H  H23  1  0.422569  0.602091  0.566410  1
  H  H24  1  0.100889  0.993129  0.607325  1
  H  H25  1  0.599284  0.514381  0.581639  1
  H  H26  1  0.534242  0.642722  0.977262  1
  H  H27  1  0.033481  0.862535  0.964090  1
