# generated using pymatgen
data_SrYb(PrIn)2
_symmetry_space_group_name_H-M   'P 1'
_cell_length_a   5.62786000
_cell_length_b   5.62786023
_cell_length_c   7.15066200
_cell_angle_alpha   90.00000000
_cell_angle_beta   90.00000000
_cell_angle_gamma   119.99999862
_symmetry_Int_Tables_number   1
_chemical_formula_structural   SrYb(PrIn)2
_chemical_formula_sum   'Sr1 Yb1 Pr2 In2'
_cell_volume   196.13878313
_cell_formula_units_Z   1
loop_
 _symmetry_equiv_pos_site_id
 _symmetry_equiv_pos_as_xyz
  1  'x, y, z'
loop_
 _atom_site_type_symbol
 _atom_site_label
 _atom_site_symmetry_multiplicity
 _atom_site_fract_x
 _atom_site_fract_y
 _atom_site_fract_z
 _atom_site_occupancy
  Sr  Sr0  1  0.000000  0.000000  0.000000  1
  Yb  Yb1  1  0.000000  0.000000  0.500000  1
  Pr  Pr2  1  0.333333  0.666667  0.736538  1
  Pr  Pr3  1  0.666667  0.333333  0.263462  1
  In  In4  1  0.666667  0.333333  0.751593  1
  In  In5  1  0.333333  0.666667  0.248407  1
