# generated using pymatgen
data_Ho5Er7(TcOs)2
_symmetry_space_group_name_H-M   'P 1'
_cell_length_a   6.25188203
_cell_length_b   7.39395002
_cell_length_c   9.00416803
_cell_angle_alpha   89.99764465
_cell_angle_beta   90.00874313
_cell_angle_gamma   90.00773429
_symmetry_Int_Tables_number   1
_chemical_formula_structural   Ho5Er7(TcOs)2
_chemical_formula_sum   'Ho5 Er7 Tc2 Os2'
_cell_volume   416.22759213
_cell_formula_units_Z   1
loop_
 _symmetry_equiv_pos_site_id
 _symmetry_equiv_pos_as_xyz
  1  'x, y, z'
loop_
 _atom_site_type_symbol
 _atom_site_label
 _atom_site_symmetry_multiplicity
 _atom_site_fract_x
 _atom_site_fract_y
 _atom_site_fract_z
 _atom_site_occupancy
  Ho  Ho0  1  0.336860  0.674711  0.062221  1
  Ho  Ho1  1  0.875833  0.539176  0.250036  1
  Ho  Ho2  1  0.624177  0.039238  0.250023  1
  Ho  Ho3  1  0.129416  0.459728  0.749972  1
  Ho  Ho4  1  0.370568  0.959800  0.749970  1
  Er  Er5  1  0.163126  0.174707  0.437788  1
  Er  Er6  1  0.664599  0.324892  0.562846  1
  Er  Er7  1  0.835358  0.824931  0.937138  1
  Er  Er8  1  0.664660  0.324827  0.937128  1
  Er  Er9  1  0.835328  0.824949  0.562846  1
  Er  Er10  1  0.336936  0.674687  0.437831  1
  Er  Er11  1  0.163086  0.174717  0.062206  1
  Tc  Tc12  1  0.039360  0.884104  0.250043  1
  Tc  Tc13  1  0.460629  0.383987  0.250020  1
  Os  Os14  1  0.959253  0.117791  0.750012  1
  Os  Os15  1  0.540811  0.617756  0.749920  1
