# generated using pymatgen
data_CeDy7V4O20
_symmetry_space_group_name_H-M   'P 1'
_cell_length_a   3.73238500
_cell_length_b   10.39155852
_cell_length_c   11.26254200
_cell_angle_alpha   90.03988600
_cell_angle_beta   90.00000000
_cell_angle_gamma   90.00000000
_symmetry_Int_Tables_number   1
_chemical_formula_structural   CeDy7V4O20
_chemical_formula_sum   'Ce1 Dy7 V4 O20'
_cell_volume   436.82093217
_cell_formula_units_Z   1
loop_
 _symmetry_equiv_pos_site_id
 _symmetry_equiv_pos_as_xyz
  1  'x, y, z'
loop_
 _atom_site_type_symbol
 _atom_site_label
 _atom_site_symmetry_multiplicity
 _atom_site_fract_x
 _atom_site_fract_y
 _atom_site_fract_z
 _atom_site_occupancy
  Ce  Ce0  1  0.750000  0.887635  0.721704  1
  Dy  Dy1  1  0.250000  0.120612  0.273983  1
  Dy  Dy2  1  0.250000  0.139890  0.946439  1
  Dy  Dy3  1  0.750000  0.360842  0.444124  1
  Dy  Dy4  1  0.750000  0.379306  0.772894  1
  Dy  Dy5  1  0.250000  0.618878  0.226718  1
  Dy  Dy6  1  0.250000  0.633035  0.553745  1
  Dy  Dy7  1  0.750000  0.862695  0.056811  1
  V  V8  1  0.250000  0.173111  0.617511  1
  V  V9  1  0.750000  0.330724  0.118119  1
  V  V10  1  0.250000  0.668675  0.883738  1
  V  V11  1  0.750000  0.829687  0.380925  1
  O  O12  1  0.750000  0.005693  0.896000  1
  O  O13  1  0.250000  0.001564  0.653889  1
  O  O14  1  0.250000  0.225915  0.452937  1
  O  O15  1  0.750000  0.241055  0.614408  1
  O  O16  1  0.750000  0.242103  0.267118  1
  O  O17  1  0.250000  0.256752  0.771824  1
  O  O18  1  0.250000  0.267919  0.115756  1
  O  O19  1  0.750000  0.273093  0.957725  1
  O  O20  1  0.750000  0.493808  0.153753  1
  O  O21  1  0.250000  0.494580  0.394068  1
  O  O22  1  0.750000  0.507288  0.604997  1
  O  O23  1  0.250000  0.506184  0.848294  1
  O  O24  1  0.250000  0.725876  0.044408  1
  O  O25  1  0.750000  0.733473  0.886580  1
  O  O26  1  0.750000  0.742385  0.231328  1
  O  O27  1  0.250000  0.751941  0.731202  1
  O  O28  1  0.250000  0.765957  0.384494  1
  O  O29  1  0.750000  0.772760  0.542565  1
  O  O30  1  0.750000  0.992384  0.346600  1
  O  O31  1  0.250000  0.994180  0.105343  1
