# generated using pymatgen
data_Hf8Nb2Si7P
_symmetry_space_group_name_H-M   'P 1'
_cell_length_a   6.98390230
_cell_length_b   6.98226430
_cell_length_c   12.79457500
_cell_angle_alpha   90.00000000
_cell_angle_beta   90.00000000
_cell_angle_gamma   89.83430938
_symmetry_Int_Tables_number   1
_chemical_formula_structural   Hf8Nb2Si7P
_chemical_formula_sum   'Hf16 Nb4 Si14 P2'
_cell_volume   623.90503124
_cell_formula_units_Z   2
loop_
 _symmetry_equiv_pos_site_id
 _symmetry_equiv_pos_as_xyz
  1  'x, y, z'
loop_
 _atom_site_type_symbol
 _atom_site_label
 _atom_site_symmetry_multiplicity
 _atom_site_fract_x
 _atom_site_fract_y
 _atom_site_fract_z
 _atom_site_occupancy
  Hf  Hf0  1  0.496786  0.151953  0.531559  1
  Hf  Hf1  1  0.503214  0.848047  0.031559  1
  Hf  Hf2  1  0.656067  0.002638  0.280264  1
  Hf  Hf3  1  0.343933  0.997362  0.780264  1
  Hf  Hf4  1  0.846286  0.501091  0.968860  1
  Hf  Hf5  1  0.153714  0.498909  0.468860  1
  Hf  Hf6  1  0.001597  0.655900  0.718304  1
  Hf  Hf7  1  0.998403  0.344100  0.218304  1
  Hf  Hf8  1  0.501319  0.350671  0.125471  1
  Hf  Hf9  1  0.498681  0.649329  0.625471  1
  Hf  Hf10  1  0.853666  0.004465  0.877829  1
  Hf  Hf11  1  0.146334  0.995535  0.377829  1
  Hf  Hf12  1  0.645610  0.501279  0.373929  1
  Hf  Hf13  1  0.354390  0.498721  0.873929  1
  Hf  Hf14  1  0.000066  0.858810  0.123604  1
  Hf  Hf15  1  0.999934  0.141190  0.623604  1
  Nb  Nb16  1  0.674595  0.326623  0.750367  1
  Nb  Nb17  1  0.325405  0.673377  0.250367  1
  Nb  Nb18  1  0.825241  0.824401  0.500264  1
  Nb  Nb19  1  0.174759  0.175599  0.000264  1
  Si  Si20  1  0.646735  0.704611  0.821818  1
  Si  Si21  1  0.353265  0.295389  0.321818  1
  Si  Si22  1  0.854191  0.203890  0.427968  1
  Si  Si23  1  0.145809  0.796110  0.927968  1
  Si  Si24  1  0.703669  0.645879  0.177932  1
  Si  Si25  1  0.296331  0.354121  0.677932  1
  Si  Si26  1  0.542519  0.196269  0.932000  1
  Si  Si27  1  0.457481  0.803731  0.432000  1
  Si  Si28  1  0.697238  0.953462  0.685973  1
  Si  Si29  1  0.302762  0.046538  0.185973  1
  Si  Si30  1  0.802177  0.451993  0.565888  1
  Si  Si31  1  0.197823  0.548007  0.065888  1
  Si  Si32  1  0.952393  0.697196  0.314090  1
  Si  Si33  1  0.047607  0.302804  0.814090  1
  P  P34  1  0.798251  0.147063  0.073879  1
  P  P35  1  0.201749  0.852937  0.573879  1
