# generated using pymatgen
data_DyMnB6Mo
_symmetry_space_group_name_H-M   'P 1'
_cell_length_a   3.31956500
_cell_length_b   8.87203700
_cell_length_c   11.20178700
_cell_angle_alpha   90.00000000
_cell_angle_beta   90.00000000
_cell_angle_gamma   90.00000000
_symmetry_Int_Tables_number   1
_chemical_formula_structural   DyMnB6Mo
_chemical_formula_sum   'Dy4 Mn4 B24 Mo4'
_cell_volume   329.90722872
_cell_formula_units_Z   4
loop_
 _symmetry_equiv_pos_site_id
 _symmetry_equiv_pos_as_xyz
  1  'x, y, z'
loop_
 _atom_site_type_symbol
 _atom_site_label
 _atom_site_symmetry_multiplicity
 _atom_site_fract_x
 _atom_site_fract_y
 _atom_site_fract_z
 _atom_site_occupancy
  Dy  Dy0  1  0.000000  0.822633  0.086173  1
  Dy  Dy1  1  0.000000  0.177367  0.913827  1
  Dy  Dy2  1  0.000000  0.322633  0.413827  1
  Dy  Dy3  1  0.000000  0.677367  0.586173  1
  Mn  Mn4  1  0.000000  0.145068  0.184318  1
  Mn  Mn5  1  0.000000  0.854932  0.815682  1
  Mn  Mn6  1  0.000000  0.645068  0.315682  1
  Mn  Mn7  1  0.000000  0.354932  0.684318  1
  B  B8  1  0.500000  0.055357  0.067976  1
  B  B9  1  0.500000  0.944643  0.932024  1
  B  B10  1  0.500000  0.555357  0.432024  1
  B  B11  1  0.500000  0.444643  0.567976  1
  B  B12  1  0.500000  0.253772  0.083257  1
  B  B13  1  0.500000  0.746228  0.916743  1
  B  B14  1  0.500000  0.753772  0.416743  1
  B  B15  1  0.500000  0.246228  0.583257  1
  B  B16  1  0.500000  0.297559  0.236103  1
  B  B17  1  0.500000  0.702441  0.763897  1
  B  B18  1  0.500000  0.797559  0.263897  1
  B  B19  1  0.500000  0.202441  0.736103  1
  B  B20  1  0.500000  0.129450  0.317888  1
  B  B21  1  0.500000  0.870550  0.682112  1
  B  B22  1  0.500000  0.629450  0.182112  1
  B  B23  1  0.500000  0.370550  0.817888  1
  B  B24  1  0.500000  0.482974  0.286405  1
  B  B25  1  0.500000  0.517026  0.713595  1
  B  B26  1  0.500000  0.982974  0.213595  1
  B  B27  1  0.500000  0.017026  0.786405  1
  B  B28  1  0.500000  0.098928  0.474351  1
  B  B29  1  0.500000  0.901072  0.525649  1
  B  B30  1  0.500000  0.598928  0.025649  1
  B  B31  1  0.500000  0.401072  0.974351  1
  Mo  Mo32  1  0.000000  0.444695  0.128631  1
  Mo  Mo33  1  0.000000  0.555305  0.871369  1
  Mo  Mo34  1  0.000000  0.944695  0.371369  1
  Mo  Mo35  1  0.000000  0.055305  0.628631  1
