# generated using pymatgen
data_Eu8Cu(Si4Ir)3
_symmetry_space_group_name_H-M   'P 1'
_cell_length_a   8.24165500
_cell_length_b   8.24165696
_cell_length_c   8.60684900
_cell_angle_alpha   90.00000000
_cell_angle_beta   90.00000000
_cell_angle_gamma   120.00000416
_symmetry_Int_Tables_number   1
_chemical_formula_structural   Eu8Cu(Si4Ir)3
_chemical_formula_sum   'Eu8 Cu1 Si12 Ir3'
_cell_volume   506.29514422
_cell_formula_units_Z   1
loop_
 _symmetry_equiv_pos_site_id
 _symmetry_equiv_pos_as_xyz
  1  'x, y, z'
loop_
 _atom_site_type_symbol
 _atom_site_label
 _atom_site_symmetry_multiplicity
 _atom_site_fract_x
 _atom_site_fract_y
 _atom_site_fract_z
 _atom_site_occupancy
  Eu  Eu0  1  0.497483  0.502517  0.746813  1
  Eu  Eu1  1  0.498220  0.501780  0.253198  1
  Eu  Eu2  1  0.005034  0.502517  0.746813  1
  Eu  Eu3  1  0.003560  0.501780  0.253198  1
  Eu  Eu4  1  0.497483  0.994966  0.746813  1
  Eu  Eu5  1  0.498220  0.996440  0.253198  1
  Eu  Eu6  1  0.000000  0.000000  0.751742  1
  Eu  Eu7  1  0.000000  0.000000  0.248600  1
  Cu  Cu8  1  0.666667  0.333333  0.997629  1
  Si  Si9  1  0.834068  0.165932  0.000350  1
  Si  Si10  1  0.167603  0.832397  0.999752  1
  Si  Si11  1  0.331863  0.165932  0.000350  1
  Si  Si12  1  0.166540  0.833460  0.500328  1
  Si  Si13  1  0.664794  0.832397  0.999752  1
  Si  Si14  1  0.832822  0.167178  0.499774  1
  Si  Si15  1  0.834068  0.668137  0.000350  1
  Si  Si16  1  0.666921  0.833460  0.500328  1
  Si  Si17  1  0.167603  0.335206  0.999752  1
  Si  Si18  1  0.334355  0.167178  0.499774  1
  Si  Si19  1  0.166540  0.333079  0.500328  1
  Si  Si20  1  0.832822  0.665645  0.499774  1
  Ir  Ir21  1  0.333333  0.666667  0.001159  1
  Ir  Ir22  1  0.333333  0.666667  0.498489  1
  Ir  Ir23  1  0.666667  0.333333  0.501732  1
