# generated using pymatgen
data_SrNdEr2(ReN3)4
_symmetry_space_group_name_H-M   'P 1'
_cell_length_a   7.40091006
_cell_length_b   7.40091117
_cell_length_c   6.26391428
_cell_angle_alpha   74.89995807
_cell_angle_beta   74.89995217
_cell_angle_gamma   84.65055882
_symmetry_Int_Tables_number   1
_chemical_formula_structural   SrNdEr2(ReN3)4
_chemical_formula_sum   'Sr1 Nd1 Er2 Re4 N12'
_cell_volume   319.69437852
_cell_formula_units_Z   1
loop_
 _symmetry_equiv_pos_site_id
 _symmetry_equiv_pos_as_xyz
  1  'x, y, z'
loop_
 _atom_site_type_symbol
 _atom_site_label
 _atom_site_symmetry_multiplicity
 _atom_site_fract_x
 _atom_site_fract_y
 _atom_site_fract_z
 _atom_site_occupancy
  Sr  Sr0  1  0.701311  0.298689  0.250000  1
  Nd  Nd1  1  0.296219  0.703781  0.750000  1
  Er  Er2  1  0.909494  0.090506  0.750000  1
  Er  Er3  1  0.092561  0.907439  0.250000  1
  Re  Re4  1  0.623903  0.795756  0.260392  1
  Re  Re5  1  0.204244  0.376097  0.239608  1
  Re  Re6  1  0.375877  0.201199  0.740985  1
  Re  Re7  1  0.798801  0.624123  0.759015  1
  N  N8  1  0.341556  0.357804  0.946303  1
  N  N9  1  0.018429  0.207640  0.353118  1
  N  N10  1  0.792360  0.981571  0.146882  1
  N  N11  1  0.210468  0.007677  0.850491  1
  N  N12  1  0.653699  0.653344  0.043978  1
  N  N13  1  0.880391  0.385594  0.810086  1
  N  N14  1  0.125390  0.620280  0.173653  1
  N  N15  1  0.992323  0.789532  0.649509  1
  N  N16  1  0.379720  0.874610  0.326347  1
  N  N17  1  0.642196  0.658444  0.553697  1
  N  N18  1  0.614406  0.119609  0.689914  1
  N  N19  1  0.346656  0.346301  0.456022  1
