# generated using pymatgen
data_Ho4Hf3Sc(P3Ir4)4
_symmetry_space_group_name_H-M   'P 1'
_cell_length_a   12.84839670
_cell_length_b   12.84839623
_cell_length_c   3.95402100
_cell_angle_alpha   90.00000000
_cell_angle_beta   90.00000000
_cell_angle_gamma   119.94098070
_symmetry_Int_Tables_number   1
_chemical_formula_structural   Ho4Hf3Sc(P3Ir4)4
_chemical_formula_sum   'Ho4 Hf3 Sc1 P12 Ir16'
_cell_volume   565.62088534
_cell_formula_units_Z   1
loop_
 _symmetry_equiv_pos_site_id
 _symmetry_equiv_pos_as_xyz
  1  'x, y, z'
loop_
 _atom_site_type_symbol
 _atom_site_label
 _atom_site_symmetry_multiplicity
 _atom_site_fract_x
 _atom_site_fract_y
 _atom_site_fract_z
 _atom_site_occupancy
  Ho  Ho0  1  0.333412  0.666776  0.000000  1
  Ho  Ho1  1  0.666776  0.333412  0.000000  1
  Ho  Ho2  1  0.816687  0.000024  0.500000  1
  Ho  Ho3  1  0.000024  0.816687  0.500000  1
  Hf  Hf4  1  0.449500  0.000032  0.000000  1
  Hf  Hf5  1  0.000032  0.449500  0.000000  1
  Hf  Hf6  1  0.549520  0.549520  0.000000  1
  Sc  Sc7  1  0.184298  0.184298  0.500000  1
  P  P8  1  0.175275  0.001572  0.000000  1
  P  P9  1  0.001572  0.175275  0.000000  1
  P  P10  1  0.825895  0.825895  0.000000  1
  P  P11  1  0.170053  0.482644  0.500000  1
  P  P12  1  0.517193  0.686962  0.500000  1
  P  P13  1  0.312664  0.830506  0.500000  1
  P  P14  1  0.686962  0.517193  0.500000  1
  P  P15  1  0.830506  0.312664  0.500000  1
  P  P16  1  0.482644  0.170053  0.500000  1
  P  P17  1  0.650771  0.000112  0.000000  1
  P  P18  1  0.000112  0.650771  0.000000  1
  P  P19  1  0.346770  0.346770  0.000000  1
  Ir  Ir20  1  0.358211  0.493291  0.500000  1
  Ir  Ir21  1  0.506443  0.865005  0.500000  1
  Ir  Ir22  1  0.135030  0.641623  0.500000  1
  Ir  Ir23  1  0.865005  0.506443  0.500000  1
  Ir  Ir24  1  0.641623  0.135030  0.500000  1
  Ir  Ir25  1  0.493291  0.358211  0.500000  1
  Ir  Ir26  1  0.177763  0.368112  0.000000  1
  Ir  Ir27  1  0.629253  0.807026  0.000000  1
  Ir  Ir28  1  0.193259  0.822543  0.000000  1
  Ir  Ir29  1  0.807026  0.629253  0.000000  1
  Ir  Ir30  1  0.822543  0.193259  0.000000  1
  Ir  Ir31  1  0.368112  0.177763  0.000000  1
  Ir  Ir32  1  0.280658  0.000976  0.500000  1
  Ir  Ir33  1  0.000976  0.280658  0.500000  1
  Ir  Ir34  1  0.718726  0.718726  0.500000  1
  Ir  Ir35  1  0.001413  0.001413  0.000000  1
