# generated using pymatgen
data_HfSc(NbSe2)8
_symmetry_space_group_name_H-M   'P 1'
_cell_length_a   7.00729500
_cell_length_b   7.00729570
_cell_length_c   13.53277300
_cell_angle_alpha   90.00000000
_cell_angle_beta   90.00000000
_cell_angle_gamma   120.00000142
_symmetry_Int_Tables_number   1
_chemical_formula_structural   HfSc(NbSe2)8
_chemical_formula_sum   'Hf1 Sc1 Nb8 Se16'
_cell_volume   575.46414324
_cell_formula_units_Z   1
loop_
 _symmetry_equiv_pos_site_id
 _symmetry_equiv_pos_as_xyz
  1  'x, y, z'
loop_
 _atom_site_type_symbol
 _atom_site_label
 _atom_site_symmetry_multiplicity
 _atom_site_fract_x
 _atom_site_fract_y
 _atom_site_fract_z
 _atom_site_occupancy
  Hf  Hf0  1  0.000000  0.000000  0.000000  1
  Sc  Sc1  1  0.000000  0.000000  0.500000  1
  Nb  Nb2  1  0.000000  0.000000  0.245952  1
  Nb  Nb3  1  0.000000  0.000000  0.754048  1
  Nb  Nb4  1  0.506882  0.013765  0.246689  1
  Nb  Nb5  1  0.986235  0.493118  0.246689  1
  Nb  Nb6  1  0.506882  0.493118  0.246689  1
  Nb  Nb7  1  0.493118  0.986235  0.753311  1
  Nb  Nb8  1  0.013765  0.506882  0.753311  1
  Nb  Nb9  1  0.493118  0.506882  0.753311  1
  Se  Se10  1  0.333333  0.666667  0.880702  1
  Se  Se11  1  0.666667  0.333333  0.119298  1
  Se  Se12  1  0.666667  0.333333  0.374318  1
  Se  Se13  1  0.333333  0.666667  0.625682  1
  Se  Se14  1  0.168535  0.831465  0.369946  1
  Se  Se15  1  0.168535  0.337068  0.369946  1
  Se  Se16  1  0.662932  0.831465  0.369946  1
  Se  Se17  1  0.831465  0.168535  0.630054  1
  Se  Se18  1  0.831465  0.662932  0.630054  1
  Se  Se19  1  0.337068  0.168535  0.630054  1
  Se  Se20  1  0.829947  0.170053  0.877429  1
  Se  Se21  1  0.829947  0.659894  0.877429  1
  Se  Se22  1  0.340106  0.170053  0.877429  1
  Se  Se23  1  0.170053  0.829947  0.122571  1
  Se  Se24  1  0.170053  0.340106  0.122571  1
  Se  Se25  1  0.659894  0.829947  0.122571  1
