# generated using pymatgen
data_Dy2Fe4SiPC2
_symmetry_space_group_name_H-M   'P 1'
_cell_length_a   3.70781200
_cell_length_b   5.51358088
_cell_length_c   6.70652000
_cell_angle_alpha   90.00000000
_cell_angle_beta   90.00000000
_cell_angle_gamma   70.35182476
_symmetry_Int_Tables_number   1
_chemical_formula_structural   Dy2Fe4SiPC2
_chemical_formula_sum   'Dy2 Fe4 Si1 P1 C2'
_cell_volume   129.12069880
_cell_formula_units_Z   1
loop_
 _symmetry_equiv_pos_site_id
 _symmetry_equiv_pos_as_xyz
  1  'x, y, z'
loop_
 _atom_site_type_symbol
 _atom_site_label
 _atom_site_symmetry_multiplicity
 _atom_site_fract_x
 _atom_site_fract_y
 _atom_site_fract_z
 _atom_site_occupancy
  Dy  Dy0  1  0.950059  0.099885  0.249999  1
  Dy  Dy1  1  0.049816  0.900369  0.749999  1
  Fe  Fe2  1  0.665947  0.668105  0.064876  1
  Fe  Fe3  1  0.665947  0.668105  0.435124  1
  Fe  Fe4  1  0.333243  0.333517  0.554351  1
  Fe  Fe5  1  0.333243  0.333517  0.945649  1
  Si  Si6  1  0.770424  0.459155  0.749999  1
  P  P7  1  0.230276  0.539450  0.249999  1
  C  C8  1  0.500527  0.998949  0.998864  1
  C  C9  1  0.500527  0.998949  0.501136  1
