# generated using pymatgen
data_La8Sm12Si15Br
_symmetry_space_group_name_H-M   'P 1'
_cell_length_a   7.81810906
_cell_length_b   7.96594661
_cell_length_c   15.19419700
_cell_angle_alpha   89.68762431
_cell_angle_beta   86.74716217
_cell_angle_gamma   89.99577547
_symmetry_Int_Tables_number   1
_chemical_formula_structural   La8Sm12Si15Br
_chemical_formula_sum   'La8 Sm12 Si15 Br1'
_cell_volume   944.73526965
_cell_formula_units_Z   1
loop_
 _symmetry_equiv_pos_site_id
 _symmetry_equiv_pos_as_xyz
  1  'x, y, z'
loop_
 _atom_site_type_symbol
 _atom_site_label
 _atom_site_symmetry_multiplicity
 _atom_site_fract_x
 _atom_site_fract_y
 _atom_site_fract_z
 _atom_site_occupancy
  La  La0  1  0.004065  0.829833  0.103137  1
  La  La1  1  0.474822  0.682603  0.398580  1
  La  La2  1  0.491635  0.310306  0.898347  1
  La  La3  1  0.024701  0.180203  0.601247  1
  La  La4  1  0.003885  0.172707  0.899963  1
  La  La5  1  0.524575  0.316337  0.600348  1
  La  La6  1  0.489879  0.690404  0.103147  1
  La  La7  1  0.975070  0.816250  0.399283  1
  Sm  Sm8  1  0.666642  0.992366  0.247165  1
  Sm  Sm9  1  0.164846  0.509710  0.245040  1
  Sm  Sm10  1  0.836402  0.490393  0.742844  1
  Sm  Sm11  1  0.331080  0.008349  0.751501  1
  Sm  Sm12  1  0.642312  0.843411  0.878118  1
  Sm  Sm13  1  0.178290  0.676791  0.622872  1
  Sm  Sm14  1  0.855038  0.328335  0.122874  1
  Sm  Sm15  1  0.322936  0.178943  0.378635  1
  Sm  Sm16  1  0.354929  0.169118  0.119469  1
  Sm  Sm17  1  0.823840  0.321496  0.377896  1
  Sm  Sm18  1  0.158968  0.667262  0.881044  1
  Sm  Sm19  1  0.677830  0.819813  0.622609  1
  Si  Si20  1  0.777487  0.619942  0.251019  1
  Si  Si21  1  0.278269  0.881603  0.252293  1
  Si  Si22  1  0.719522  0.121546  0.749281  1
  Si  Si23  1  0.219124  0.377319  0.749898  1
  Si  Si24  1  0.044463  0.111797  0.252159  1
  Si  Si25  1  0.544703  0.392103  0.251177  1
  Si  Si26  1  0.458510  0.606949  0.752036  1
  Si  Si27  1  0.955188  0.886122  0.751089  1
  Si  Si28  1  0.362904  0.970010  0.540976  1
  Si  Si29  1  0.700703  0.037288  0.042533  1
  Si  Si30  1  0.139925  0.470660  0.459990  1
  Si  Si31  1  0.199912  0.465924  0.044897  1
  Si  Si32  1  0.639603  0.027634  0.459281  1
  Si  Si33  1  0.304330  0.964608  0.954768  1
  Si  Si34  1  0.862467  0.526414  0.541292  1
  Br  Br35  1  0.791148  0.535451  0.953189  1
