# generated using pymatgen
data_CsUMnS3
_symmetry_space_group_name_H-M   'P 1'
_cell_length_a   8.01630367
_cell_length_b   8.01630383
_cell_length_c   10.43449400
_cell_angle_alpha   90.00000000
_cell_angle_beta   90.00000000
_cell_angle_gamma   150.70064967
_symmetry_Int_Tables_number   1
_chemical_formula_structural   CsUMnS3
_chemical_formula_sum   'Cs2 U2 Mn2 S6'
_cell_volume   328.14012582
_cell_formula_units_Z   2
loop_
 _symmetry_equiv_pos_site_id
 _symmetry_equiv_pos_as_xyz
  1  'x, y, z'
loop_
 _atom_site_type_symbol
 _atom_site_label
 _atom_site_symmetry_multiplicity
 _atom_site_fract_x
 _atom_site_fract_y
 _atom_site_fract_z
 _atom_site_occupancy
  Cs  Cs0  1  0.261619  0.738381  0.250000  1
  Cs  Cs1  1  0.738381  0.261619  0.750000  1
  U  U2  1  0.000000  0.000000  0.000000  1
  U  U3  1  0.000000  0.000000  0.500000  1
  Mn  Mn4  1  0.532539  0.467461  0.250000  1
  Mn  Mn5  1  0.467461  0.532539  0.750000  1
  S  S6  1  0.612432  0.387568  0.059399  1
  S  S7  1  0.387568  0.612432  0.940601  1
  S  S8  1  0.387568  0.612432  0.559399  1
  S  S9  1  0.612432  0.387568  0.440601  1
  S  S10  1  0.951865  0.048135  0.250000  1
  S  S11  1  0.048135  0.951865  0.750000  1
