# generated using pymatgen
data_Nb4Si4Ir3Rh
_symmetry_space_group_name_H-M   'P 1'
_cell_length_a   3.81374000
_cell_length_b   6.46391799
_cell_length_c   7.34178542
_cell_angle_alpha   90.11044788
_cell_angle_beta   90.00000000
_cell_angle_gamma   90.00000000
_symmetry_Int_Tables_number   1
_chemical_formula_structural   Nb4Si4Ir3Rh
_chemical_formula_sum   'Nb4 Si4 Ir3 Rh1'
_cell_volume   180.98717453
_cell_formula_units_Z   1
loop_
 _symmetry_equiv_pos_site_id
 _symmetry_equiv_pos_as_xyz
  1  'x, y, z'
loop_
 _atom_site_type_symbol
 _atom_site_label
 _atom_site_symmetry_multiplicity
 _atom_site_fract_x
 _atom_site_fract_y
 _atom_site_fract_z
 _atom_site_occupancy
  Nb  Nb0  1  0.750000  0.474727  0.328685  1
  Nb  Nb1  1  0.250000  0.024270  0.826890  1
  Nb  Nb2  1  0.750000  0.975867  0.172791  1
  Nb  Nb3  1  0.250000  0.525103  0.671494  1
  Si  Si4  1  0.250000  0.269664  0.123704  1
  Si  Si5  1  0.250000  0.768830  0.375256  1
  Si  Si6  1  0.750000  0.730514  0.875627  1
  Si  Si7  1  0.750000  0.231624  0.625638  1
  Ir  Ir8  1  0.250000  0.645501  0.063007  1
  Ir  Ir9  1  0.250000  0.145477  0.437126  1
  Ir  Ir10  1  0.750000  0.853974  0.563098  1
  Rh  Rh11  1  0.750000  0.354450  0.936685  1
