# generated using pymatgen
data_Li6UTi5Rh12
_symmetry_space_group_name_H-M   'P 1'
_cell_length_a   4.32502401
_cell_length_b   6.08142300
_cell_length_c   12.93449502
_cell_angle_alpha   90.00000000
_cell_angle_beta   90.00612552
_cell_angle_gamma   90.00000000
_symmetry_Int_Tables_number   1
_chemical_formula_structural   Li6UTi5Rh12
_chemical_formula_sum   'Li6 U1 Ti5 Rh12'
_cell_volume   340.20697242
_cell_formula_units_Z   1
loop_
 _symmetry_equiv_pos_site_id
 _symmetry_equiv_pos_as_xyz
  1  'x, y, z'
loop_
 _atom_site_type_symbol
 _atom_site_label
 _atom_site_symmetry_multiplicity
 _atom_site_fract_x
 _atom_site_fract_y
 _atom_site_fract_z
 _atom_site_occupancy
  Li  Li0  1  0.000000  0.000000  0.000000  1
  Li  Li1  1  0.499702  0.500000  0.172426  1
  Li  Li2  1  0.999657  0.000000  0.335655  1
  Li  Li3  1  0.500000  0.500000  0.499999  1
  Li  Li4  1  0.000344  0.000000  0.664344  1
  Li  Li5  1  0.500299  0.500000  0.827574  1
  U  U6  1  0.000000  0.500000  0.000000  1
  Ti  Ti7  1  0.499674  0.000000  0.176676  1
  Ti  Ti8  1  0.999735  0.500000  0.338951  1
  Ti  Ti9  1  0.500000  0.000000  0.499999  1
  Ti  Ti10  1  0.000263  0.500000  0.661049  1
  Ti  Ti11  1  0.500327  0.000000  0.823324  1
  Rh  Rh12  1  0.500000  0.239334  0.000000  1
  Rh  Rh13  1  0.500000  0.760666  0.000000  1
  Rh  Rh14  1  0.999692  0.249054  0.167885  1
  Rh  Rh15  1  0.999692  0.750946  0.167885  1
  Rh  Rh16  1  0.499734  0.251169  0.334541  1
  Rh  Rh17  1  0.499734  0.748831  0.334541  1
  Rh  Rh18  1  0.000000  0.248901  0.499999  1
  Rh  Rh19  1  0.000000  0.751099  0.499999  1
  Rh  Rh20  1  0.500266  0.251169  0.665459  1
  Rh  Rh21  1  0.500266  0.748831  0.665459  1
  Rh  Rh22  1  0.000308  0.249054  0.832115  1
  Rh  Rh23  1  0.000308  0.750946  0.832115  1
