# generated using pymatgen
data_Ho7ThAlPd24
_symmetry_space_group_name_H-M   'P 1'
_cell_length_a   8.35030004
_cell_length_b   8.35030004
_cell_length_c   8.35030004
_cell_angle_alpha   89.99238346
_cell_angle_beta   89.99238346
_cell_angle_gamma   89.99238346
_symmetry_Int_Tables_number   1
_chemical_formula_structural   Ho7ThAlPd24
_chemical_formula_sum   'Ho7 Th1 Al1 Pd24'
_cell_volume   582.24561979
_cell_formula_units_Z   1
loop_
 _symmetry_equiv_pos_site_id
 _symmetry_equiv_pos_as_xyz
  1  'x, y, z'
loop_
 _atom_site_type_symbol
 _atom_site_label
 _atom_site_symmetry_multiplicity
 _atom_site_fract_x
 _atom_site_fract_y
 _atom_site_fract_z
 _atom_site_occupancy
  Ho  Ho0  1  0.747880  0.747880  0.747880  1
  Ho  Ho1  1  0.747864  0.747864  0.252080  1
  Ho  Ho2  1  0.747864  0.252080  0.747864  1
  Ho  Ho3  1  0.252065  0.252065  0.748079  1
  Ho  Ho4  1  0.252065  0.748079  0.252065  1
  Ho  Ho5  1  0.252080  0.747864  0.747864  1
  Ho  Ho6  1  0.748079  0.252065  0.252065  1
  Th  Th7  1  0.253421  0.253421  0.253421  1
  Al  Al8  1  0.999306  0.999306  0.999306  1
  Pd  Pd9  1  0.259495  0.500767  0.999123  1
  Pd  Pd10  1  0.740463  0.500246  0.999801  1
  Pd  Pd11  1  0.999123  0.259495  0.500767  1
  Pd  Pd12  1  0.500767  0.259495  0.999123  1
  Pd  Pd13  1  0.999801  0.740463  0.500246  1
  Pd  Pd14  1  0.500246  0.740463  0.999801  1
  Pd  Pd15  1  0.500767  0.999123  0.259495  1
  Pd  Pd16  1  0.259495  0.999123  0.500767  1
  Pd  Pd17  1  0.500246  0.999801  0.740463  1
  Pd  Pd18  1  0.740463  0.999801  0.500246  1
  Pd  Pd19  1  0.999123  0.500767  0.259495  1
  Pd  Pd20  1  0.999801  0.500246  0.740463  1
  Pd  Pd21  1  0.253192  0.501138  0.501138  1
  Pd  Pd22  1  0.746974  0.500176  0.500176  1
  Pd  Pd23  1  0.501138  0.253192  0.501138  1
  Pd  Pd24  1  0.500176  0.746974  0.500176  1
  Pd  Pd25  1  0.501138  0.501138  0.253192  1
  Pd  Pd26  1  0.500176  0.500176  0.746974  1
  Pd  Pd27  1  0.288859  0.998253  0.998253  1
  Pd  Pd28  1  0.711819  0.999804  0.999804  1
  Pd  Pd29  1  0.998253  0.288859  0.998253  1
  Pd  Pd30  1  0.999804  0.711819  0.999804  1
  Pd  Pd31  1  0.998253  0.998253  0.288859  1
  Pd  Pd32  1  0.999804  0.999804  0.711819  1
