# generated using pymatgen
data_Tb5ZnTe4
_symmetry_space_group_name_H-M   'P 1'
_cell_length_a   7.62948403
_cell_length_b   7.62948358
_cell_length_c   10.82041861
_cell_angle_alpha   61.07951579
_cell_angle_beta   61.07951804
_cell_angle_gamma   32.22193871
_symmetry_Int_Tables_number   1
_chemical_formula_structural   Tb5ZnTe4
_chemical_formula_sum   'Tb5 Zn1 Te4'
_cell_volume   290.18553343
_cell_formula_units_Z   1
loop_
 _symmetry_equiv_pos_site_id
 _symmetry_equiv_pos_as_xyz
  1  'x, y, z'
loop_
 _atom_site_type_symbol
 _atom_site_label
 _atom_site_symmetry_multiplicity
 _atom_site_fract_x
 _atom_site_fract_y
 _atom_site_fract_z
 _atom_site_occupancy
  Tb  Tb0  1  0.000000  0.000000  0.500000  1
  Tb  Tb1  1  0.588549  0.588549  0.093357  1
  Tb  Tb2  1  0.187234  0.187234  0.725751  1
  Tb  Tb3  1  0.812766  0.812766  0.274249  1
  Tb  Tb4  1  0.411451  0.411451  0.906643  1
  Zn  Zn5  1  0.000000  0.000000  0.000000  1
  Te  Te6  1  0.609815  0.609815  0.587424  1
  Te  Te7  1  0.193736  0.193736  0.195549  1
  Te  Te8  1  0.806264  0.806264  0.804451  1
  Te  Te9  1  0.390185  0.390185  0.412576  1
