# generated using pymatgen
data_Pr8SnPtI12
_symmetry_space_group_name_H-M   'P 1'
_cell_length_a   4.44068300
_cell_length_b   14.64248238
_cell_length_c   15.53730700
_cell_angle_alpha   90.46459743
_cell_angle_beta   90.00000000
_cell_angle_gamma   90.00000000
_symmetry_Int_Tables_number   1
_chemical_formula_structural   Pr8SnPtI12
_chemical_formula_sum   'Pr8 Sn1 Pt1 I12'
_cell_volume   1010.24323559
_cell_formula_units_Z   1
loop_
 _symmetry_equiv_pos_site_id
 _symmetry_equiv_pos_as_xyz
  1  'x, y, z'
loop_
 _atom_site_type_symbol
 _atom_site_label
 _atom_site_symmetry_multiplicity
 _atom_site_fract_x
 _atom_site_fract_y
 _atom_site_fract_z
 _atom_site_occupancy
  Pr  Pr0  1  0.500000  0.114949  0.345783  1
  Pr  Pr1  1  0.500000  0.885051  0.654217  1
  Pr  Pr2  1  0.500000  0.621055  0.162650  1
  Pr  Pr3  1  0.500000  0.378945  0.837350  1
  Pr  Pr4  1  0.000000  0.107632  0.571901  1
  Pr  Pr5  1  0.000000  0.892368  0.428099  1
  Pr  Pr6  1  0.000000  0.621226  0.919816  1
  Pr  Pr7  1  0.000000  0.378774  0.080184  1
  Sn  Sn8  1  0.500000  0.500000  0.000000  1
  Pt  Pt9  1  0.500000  0.000000  0.500000  1
  I  I10  1  0.500000  0.241348  0.164123  1
  I  I11  1  0.500000  0.758652  0.835877  1
  I  I12  1  0.500000  0.745726  0.339224  1
  I  I13  1  0.500000  0.254274  0.660776  1
  I  I14  1  0.000000  0.259770  0.413818  1
  I  I15  1  0.000000  0.740230  0.586182  1
  I  I16  1  0.000000  0.759183  0.087258  1
  I  I17  1  0.000000  0.240817  0.912742  1
  I  I18  1  0.000000  0.998302  0.239797  1
  I  I19  1  0.000000  0.001698  0.760203  1
  I  I20  1  0.000000  0.498702  0.259203  1
  I  I21  1  0.000000  0.501298  0.740797  1
