# generated using pymatgen
data_LiY3(CdHg3)2
_symmetry_space_group_name_H-M   'P 1'
_cell_length_a   5.13994167
_cell_length_b   7.02256100
_cell_length_c   15.46179000
_cell_angle_alpha   90.00000000
_cell_angle_beta   89.90773398
_cell_angle_gamma   90.00000000
_symmetry_Int_Tables_number   1
_chemical_formula_structural   LiY3(CdHg3)2
_chemical_formula_sum   'Li2 Y6 Cd4 Hg12'
_cell_volume   558.10115092
_cell_formula_units_Z   2
loop_
 _symmetry_equiv_pos_site_id
 _symmetry_equiv_pos_as_xyz
  1  'x, y, z'
loop_
 _atom_site_type_symbol
 _atom_site_label
 _atom_site_symmetry_multiplicity
 _atom_site_fract_x
 _atom_site_fract_y
 _atom_site_fract_z
 _atom_site_occupancy
  Li  Li0  1  0.999922  0.500000  0.000236  1
  Li  Li1  1  0.500061  0.000000  0.166204  1
  Y  Y2  1  0.000241  0.000000  0.996931  1
  Y  Y3  1  0.499646  0.500000  0.169668  1
  Y  Y4  1  0.000006  0.000000  0.335179  1
  Y  Y5  1  0.499843  0.500000  0.498989  1
  Y  Y6  1  0.000228  0.000000  0.667654  1
  Y  Y7  1  0.500009  0.500000  0.831628  1
  Cd  Cd8  1  0.999873  0.500000  0.332155  1
  Cd  Cd9  1  0.499997  0.000000  0.498825  1
  Cd  Cd10  1  0.000088  0.500000  0.667932  1
  Cd  Cd11  1  0.500139  0.000000  0.834635  1
  Hg  Hg12  1  0.500147  0.257191  0.005944  1
  Hg  Hg13  1  0.500147  0.742808  0.005944  1
  Hg  Hg14  1  0.999753  0.242725  0.160663  1
  Hg  Hg15  1  0.999753  0.757276  0.160663  1
  Hg  Hg16  1  0.500047  0.242114  0.327542  1
  Hg  Hg17  1  0.500047  0.757887  0.327542  1
  Hg  Hg18  1  0.999824  0.251244  0.500634  1
  Hg  Hg19  1  0.999824  0.748757  0.500634  1
  Hg  Hg20  1  0.500239  0.248864  0.666176  1
  Hg  Hg21  1  0.500239  0.751137  0.666176  1
  Hg  Hg22  1  0.999964  0.257858  0.839022  1
  Hg  Hg23  1  0.999964  0.742143  0.839022  1
