# generated using pymatgen
data_PrNd4P12Ru19
_symmetry_space_group_name_H-M   'P 1'
_cell_length_a   4.02128900
_cell_length_b   12.65925946
_cell_length_c   12.65228800
_cell_angle_alpha   119.98233746
_cell_angle_beta   90.00000000
_cell_angle_gamma   90.00000000
_symmetry_Int_Tables_number   1
_chemical_formula_structural   PrNd4P12Ru19
_chemical_formula_sum   'Pr1 Nd4 P12 Ru19'
_cell_volume   557.89254220
_cell_formula_units_Z   1
loop_
 _symmetry_equiv_pos_site_id
 _symmetry_equiv_pos_as_xyz
  1  'x, y, z'
loop_
 _atom_site_type_symbol
 _atom_site_label
 _atom_site_symmetry_multiplicity
 _atom_site_fract_x
 _atom_site_fract_y
 _atom_site_fract_z
 _atom_site_occupancy
  Pr  Pr0  1  0.500000  0.999999  0.183631  1
  Nd  Nd1  1  0.500000  0.183689  0.999964  1
  Nd  Nd2  1  0.500000  0.816312  0.816277  1
  Nd  Nd3  1  0.000000  0.333066  0.666866  1
  Nd  Nd4  1  0.000000  0.666923  0.333795  1
  P  P5  1  0.000000  0.999993  0.812993  1
  P  P6  1  0.000000  0.812075  0.998918  1
  P  P7  1  0.000000  0.187923  0.186843  1
  P  P8  1  0.500000  0.305510  0.476397  1
  P  P9  1  0.500000  0.170805  0.694847  1
  P  P10  1  0.500000  0.522983  0.828695  1
  P  P11  1  0.500000  0.829185  0.524035  1
  P  P12  1  0.500000  0.477015  0.305707  1
  P  P13  1  0.500000  0.694478  0.170877  1
  P  P14  1  0.000000  0.999998  0.375031  1
  P  P15  1  0.000000  0.374142  0.999889  1
  P  P16  1  0.000000  0.625848  0.625741  1
  Ru  Ru17  1  0.000000  0.000000  0.555042  1
  Ru  Ru18  1  0.000000  0.553860  0.999220  1
  Ru  Ru19  1  0.000000  0.446138  0.445358  1
  Ru  Ru20  1  0.500000  0.999997  0.715131  1
  Ru  Ru21  1  0.500000  0.713996  0.999282  1
  Ru  Ru22  1  0.500000  0.286002  0.285287  1
  Ru  Ru23  1  0.000000  0.194890  0.378735  1
  Ru  Ru24  1  0.000000  0.184147  0.806288  1
  Ru  Ru25  1  0.000000  0.621195  0.815033  1
  Ru  Ru26  1  0.000000  0.815841  0.622131  1
  Ru  Ru27  1  0.000000  0.378797  0.193833  1
  Ru  Ru28  1  0.000000  0.805106  0.183844  1
  Ru  Ru29  1  0.500000  0.124544  0.491505  1
  Ru  Ru30  1  0.500000  0.366277  0.875517  1
  Ru  Ru31  1  0.500000  0.508591  0.633110  1
  Ru  Ru32  1  0.500000  0.633716  0.509234  1
  Ru  Ru33  1  0.500000  0.491403  0.124513  1
  Ru  Ru34  1  0.500000  0.875451  0.366958  1
  Ru  Ru35  1  0.000000  0.000003  0.999473  1
