# generated using pymatgen
data_Yb7Dy(Si3Au)4
_symmetry_space_group_name_H-M   'P 1'
_cell_length_a   8.20490900
_cell_length_b   8.21618542
_cell_length_c   8.30201100
_cell_angle_alpha   90.00000000
_cell_angle_beta   90.00000000
_cell_angle_gamma   120.04546818
_symmetry_Int_Tables_number   1
_chemical_formula_structural   Yb7Dy(Si3Au)4
_chemical_formula_sum   'Yb7 Dy1 Si12 Au4'
_cell_volume   484.46094793
_cell_formula_units_Z   1
loop_
 _symmetry_equiv_pos_site_id
 _symmetry_equiv_pos_as_xyz
  1  'x, y, z'
loop_
 _atom_site_type_symbol
 _atom_site_label
 _atom_site_symmetry_multiplicity
 _atom_site_fract_x
 _atom_site_fract_y
 _atom_site_fract_z
 _atom_site_occupancy
  Yb  Yb0  1  0.999896  0.999948  0.250000  1
  Yb  Yb1  1  0.000035  0.000015  0.750000  1
  Yb  Yb2  1  0.001897  0.500949  0.250000  1
  Yb  Yb3  1  0.499034  0.500984  0.250000  1
  Yb  Yb4  1  0.500771  0.001710  0.750000  1
  Yb  Yb5  1  0.499034  0.998050  0.250000  1
  Yb  Yb6  1  0.500772  0.499062  0.750000  1
  Dy  Dy7  1  0.999176  0.499587  0.750000  1
  Si  Si8  1  0.162004  0.325214  0.997165  1
  Si  Si9  1  0.675757  0.837879  0.998761  1
  Si  Si10  1  0.162004  0.325214  0.502835  1
  Si  Si11  1  0.324142  0.162070  0.999900  1
  Si  Si12  1  0.162002  0.836792  0.997172  1
  Si  Si13  1  0.675757  0.837879  0.501239  1
  Si  Si14  1  0.837936  0.674750  0.998363  1
  Si  Si15  1  0.324142  0.162070  0.500100  1
  Si  Si16  1  0.162002  0.836792  0.502828  1
  Si  Si17  1  0.837936  0.674750  0.501637  1
  Si  Si18  1  0.837937  0.163182  0.998375  1
  Si  Si19  1  0.837937  0.163182  0.501625  1
  Au  Au20  1  0.334507  0.667259  0.996093  1
  Au  Au21  1  0.334507  0.667259  0.503907  1
  Au  Au22  1  0.665407  0.332701  0.001458  1
  Au  Au23  1  0.665407  0.332701  0.498542  1
