# generated using pymatgen
data_Y3Th(GaRu)4
_symmetry_space_group_name_H-M   'P 1'
_cell_length_a   7.18005402
_cell_length_b   4.59081000
_cell_length_c   7.16222708
_cell_angle_alpha   90.00000000
_cell_angle_beta   88.57817278
_cell_angle_gamma   90.00000000
_symmetry_Int_Tables_number   1
_chemical_formula_structural   Y3Th(GaRu)4
_chemical_formula_sum   'Y3 Th1 Ga4 Ru4'
_cell_volume   236.01053063
_cell_formula_units_Z   1
loop_
 _symmetry_equiv_pos_site_id
 _symmetry_equiv_pos_as_xyz
  1  'x, y, z'
loop_
 _atom_site_type_symbol
 _atom_site_label
 _atom_site_symmetry_multiplicity
 _atom_site_fract_x
 _atom_site_fract_y
 _atom_site_fract_z
 _atom_site_occupancy
  Y  Y0  1  0.524807  0.749999  0.303496  1
  Y  Y1  1  0.479111  0.249999  0.695737  1
  Y  Y2  1  0.978854  0.249999  0.804387  1
  Th  Th3  1  0.026680  0.749999  0.201469  1
  Ga  Ga4  1  0.314682  0.249999  0.108865  1
  Ga  Ga5  1  0.792239  0.249999  0.399479  1
  Ga  Ga6  1  0.202600  0.749999  0.607091  1
  Ga  Ga7  1  0.689709  0.749999  0.889422  1
  Ru  Ru8  1  0.663609  0.249999  0.059032  1
  Ru  Ru9  1  0.153670  0.249999  0.437799  1
  Ru  Ru10  1  0.848874  0.749999  0.551440  1
  Ru  Ru11  1  0.325161  0.749999  0.941783  1
