# generated using pymatgen
data_MnCr(FeMo)2
_symmetry_space_group_name_H-M   'P 1'
_cell_length_a   4.67201333
_cell_length_b   4.67201383
_cell_length_c   7.82387500
_cell_angle_alpha   90.00000000
_cell_angle_beta   90.00000000
_cell_angle_gamma   119.30051676
_symmetry_Int_Tables_number   1
_chemical_formula_structural   MnCr(FeMo)2
_chemical_formula_sum   'Mn2 Cr2 Fe4 Mo4'
_cell_volume   148.92886606
_cell_formula_units_Z   2
loop_
 _symmetry_equiv_pos_site_id
 _symmetry_equiv_pos_as_xyz
  1  'x, y, z'
loop_
 _atom_site_type_symbol
 _atom_site_label
 _atom_site_symmetry_multiplicity
 _atom_site_fract_x
 _atom_site_fract_y
 _atom_site_fract_z
 _atom_site_occupancy
  Mn  Mn0  1  0.172152  0.347712  0.500000  1
  Mn  Mn1  1  0.652288  0.827848  0.500000  1
  Cr  Cr2  1  0.831580  0.168420  0.000000  1
  Cr  Cr3  1  0.169157  0.830843  0.500000  1
  Fe  Fe4  1  0.000559  0.999441  0.247228  1
  Fe  Fe5  1  0.000559  0.999441  0.752772  1
  Fe  Fe6  1  0.831112  0.654081  0.000000  1
  Fe  Fe7  1  0.345919  0.168888  0.000000  1
  Mo  Mo8  1  0.332938  0.667062  0.181536  1
  Mo  Mo9  1  0.665460  0.334540  0.314180  1
  Mo  Mo10  1  0.665460  0.334540  0.685820  1
  Mo  Mo11  1  0.332938  0.667062  0.818464  1
