# generated using pymatgen
data_NdTm9Sn8
_symmetry_space_group_name_H-M   'P 1'
_cell_length_a   7.98080703
_cell_length_b   8.11440900
_cell_length_c   15.35365238
_cell_angle_alpha   90.00000000
_cell_angle_beta   89.47519615
_cell_angle_gamma   90.00000000
_symmetry_Int_Tables_number   1
_chemical_formula_structural   NdTm9Sn8
_chemical_formula_sum   'Nd2 Tm18 Sn16'
_cell_volume   994.25363918
_cell_formula_units_Z   2
loop_
 _symmetry_equiv_pos_site_id
 _symmetry_equiv_pos_as_xyz
  1  'x, y, z'
loop_
 _atom_site_type_symbol
 _atom_site_label
 _atom_site_symmetry_multiplicity
 _atom_site_fract_x
 _atom_site_fract_y
 _atom_site_fract_z
 _atom_site_occupancy
  Nd  Nd0  1  0.982193  0.820123  0.596498  1
  Nd  Nd1  1  0.517807  0.320123  0.403502  1
  Tm  Tm2  1  0.020387  0.179427  0.402286  1
  Tm  Tm3  1  0.368923  0.837143  0.121494  1
  Tm  Tm4  1  0.133578  0.337409  0.623362  1
  Tm  Tm5  1  0.477962  0.678725  0.903674  1
  Tm  Tm6  1  0.869242  0.662789  0.121926  1
  Tm  Tm7  1  0.131077  0.337143  0.878506  1
  Tm  Tm8  1  0.198213  0.504131  0.248532  1
  Tm  Tm9  1  0.698628  0.996336  0.248710  1
  Tm  Tm10  1  0.479613  0.679427  0.597714  1
  Tm  Tm11  1  0.301787  0.004131  0.751468  1
  Tm  Tm12  1  0.634007  0.162185  0.623805  1
  Tm  Tm13  1  0.801372  0.496336  0.751290  1
  Tm  Tm14  1  0.865993  0.662185  0.376195  1
  Tm  Tm15  1  0.022038  0.178725  0.096326  1
  Tm  Tm16  1  0.977328  0.820531  0.902005  1
  Tm  Tm17  1  0.630758  0.162789  0.878074  1
  Tm  Tm18  1  0.522672  0.320531  0.097995  1
  Tm  Tm19  1  0.366422  0.837409  0.376638  1
  Sn  Sn20  1  0.794924  0.461955  0.542742  1
  Sn  Sn21  1  0.705076  0.961955  0.457258  1
  Sn  Sn22  1  0.666734  0.850816  0.751299  1
  Sn  Sn23  1  0.201566  0.541270  0.459591  1
  Sn  Sn24  1  0.290419  0.035744  0.958590  1
  Sn  Sn25  1  0.833266  0.350816  0.248701  1
  Sn  Sn26  1  0.791073  0.463537  0.958858  1
  Sn  Sn27  1  0.564632  0.622037  0.249027  1
  Sn  Sn28  1  0.209581  0.535744  0.041410  1
  Sn  Sn29  1  0.435776  0.379283  0.750582  1
  Sn  Sn30  1  0.173071  0.646557  0.752681  1
  Sn  Sn31  1  0.935368  0.122037  0.750973  1
  Sn  Sn32  1  0.298434  0.041270  0.540409  1
  Sn  Sn33  1  0.708927  0.963537  0.041142  1
  Sn  Sn34  1  0.326929  0.146557  0.247319  1
  Sn  Sn35  1  0.064224  0.879283  0.249418  1
