# generated using pymatgen
data_Lu5Si2Se3
_symmetry_space_group_name_H-M   'P 1'
_cell_length_a   6.95625297
_cell_length_b   6.95625332
_cell_length_c   6.95354300
_cell_angle_alpha   99.13885233
_cell_angle_beta   99.78521126
_cell_angle_gamma   132.17099200
_symmetry_Int_Tables_number   1
_chemical_formula_structural   Lu5Si2Se3
_chemical_formula_sum   'Lu5 Si2 Se3'
_cell_volume   227.94759099
_cell_formula_units_Z   1
loop_
 _symmetry_equiv_pos_site_id
 _symmetry_equiv_pos_as_xyz
  1  'x, y, z'
loop_
 _atom_site_type_symbol
 _atom_site_label
 _atom_site_symmetry_multiplicity
 _atom_site_fract_x
 _atom_site_fract_y
 _atom_site_fract_z
 _atom_site_occupancy
  Lu  Lu0  1  0.392638  0.785545  0.178182  1
  Lu  Lu1  1  0.002696  0.993084  0.995780  1
  Lu  Lu2  1  0.597162  0.207295  0.804457  1
  Lu  Lu3  1  0.207399  0.414345  0.621744  1
  Lu  Lu4  1  0.799878  0.599922  0.399800  1
  Si  Si5  1  0.503583  0.501699  0.005283  1
  Si  Si6  1  0.096249  0.698329  0.794577  1
  Se  Se7  1  0.694648  0.898898  0.593547  1
  Se  Se8  1  0.300088  0.099506  0.399593  1
  Se  Se9  1  0.905659  0.301376  0.207035  1
