# generated using pymatgen
data_Er8Ga12NiAg3
_symmetry_space_group_name_H-M   'P 1'
_cell_length_a   7.01083400
_cell_length_b   8.92236683
_cell_length_c   8.92236600
_cell_angle_alpha   120.00000433
_cell_angle_beta   90.00000000
_cell_angle_gamma   90.00000000
_symmetry_Int_Tables_number   1
_chemical_formula_structural   Er8Ga12NiAg3
_chemical_formula_sum   'Er8 Ga12 Ni1 Ag3'
_cell_volume   483.34853415
_cell_formula_units_Z   1
loop_
 _symmetry_equiv_pos_site_id
 _symmetry_equiv_pos_as_xyz
  1  'x, y, z'
loop_
 _atom_site_type_symbol
 _atom_site_label
 _atom_site_symmetry_multiplicity
 _atom_site_fract_x
 _atom_site_fract_y
 _atom_site_fract_z
 _atom_site_occupancy
  Er  Er0  1  0.739977  0.000000  0.000000  1
  Er  Er1  1  0.251440  0.000000  0.000000  1
  Er  Er2  1  0.749983  0.487701  0.512299  1
  Er  Er3  1  0.255379  0.520047  0.479953  1
  Er  Er4  1  0.749983  0.024598  0.512299  1
  Er  Er5  1  0.255379  0.959906  0.479953  1
  Er  Er6  1  0.749983  0.487701  0.975402  1
  Er  Er7  1  0.255379  0.520047  0.040094  1
  Ga  Ga8  1  0.963404  0.836485  0.163515  1
  Ga  Ga9  1  0.040661  0.165493  0.834507  1
  Ga  Ga10  1  0.963404  0.327030  0.163515  1
  Ga  Ga11  1  0.464321  0.164408  0.835592  1
  Ga  Ga12  1  0.040661  0.669012  0.834507  1
  Ga  Ga13  1  0.539921  0.826511  0.173489  1
  Ga  Ga14  1  0.963404  0.836485  0.672970  1
  Ga  Ga15  1  0.464321  0.671184  0.835592  1
  Ga  Ga16  1  0.040661  0.165493  0.330988  1
  Ga  Ga17  1  0.539921  0.346981  0.173489  1
  Ga  Ga18  1  0.464321  0.164408  0.328816  1
  Ga  Ga19  1  0.539921  0.826511  0.653019  1
  Ni  Ni20  1  0.516905  0.666667  0.333333  1
  Ag  Ag21  1  0.944350  0.666667  0.333333  1
  Ag  Ag22  1  0.038834  0.333333  0.666667  1
  Ag  Ag23  1  0.467491  0.333333  0.666667  1
