# generated using pymatgen
data_Dy8Ho12Co3Bi8Os
_symmetry_space_group_name_H-M   'P 1'
_cell_length_a   7.96570569
_cell_length_b   8.90499500
_cell_length_c   12.37786800
_cell_angle_alpha   90.00000000
_cell_angle_beta   89.74701471
_cell_angle_gamma   90.00000000
_symmetry_Int_Tables_number   1
_chemical_formula_structural   Dy8Ho12Co3Bi8Os
_chemical_formula_sum   'Dy8 Ho12 Co3 Bi8 Os1'
_cell_volume   878.01017790
_cell_formula_units_Z   1
loop_
 _symmetry_equiv_pos_site_id
 _symmetry_equiv_pos_as_xyz
  1  'x, y, z'
loop_
 _atom_site_type_symbol
 _atom_site_label
 _atom_site_symmetry_multiplicity
 _atom_site_fract_x
 _atom_site_fract_y
 _atom_site_fract_z
 _atom_site_occupancy
  Dy  Dy0  1  0.346078  0.750000  0.700956  1
  Dy  Dy1  1  0.653073  0.250000  0.300676  1
  Dy  Dy2  1  0.847438  0.250000  0.799881  1
  Dy  Dy3  1  0.155023  0.750000  0.206347  1
  Dy  Dy4  1  0.880481  0.750000  0.805335  1
  Dy  Dy5  1  0.115126  0.250000  0.189488  1
  Dy  Dy6  1  0.384545  0.250000  0.688472  1
  Dy  Dy7  1  0.615306  0.750000  0.312621  1
  Ho  Ho8  1  0.675297  0.536927  0.563024  1
  Ho  Ho9  1  0.323972  0.461532  0.436963  1
  Ho  Ho10  1  0.176818  0.457379  0.935354  1
  Ho  Ho11  1  0.323972  0.038468  0.436963  1
  Ho  Ho12  1  0.824182  0.537479  0.063667  1
  Ho  Ho13  1  0.675297  0.963073  0.563024  1
  Ho  Ho14  1  0.824182  0.962521  0.063667  1
  Ho  Ho15  1  0.176818  0.042621  0.935354  1
  Ho  Ho16  1  0.052444  0.750000  0.497756  1
  Ho  Ho17  1  0.947249  0.250000  0.502662  1
  Ho  Ho18  1  0.554623  0.250000  0.003082  1
  Ho  Ho19  1  0.444209  0.750000  0.996598  1
  Co  Co20  1  0.930603  0.250000  0.008859  1
  Co  Co21  1  0.564992  0.250000  0.507871  1
  Co  Co22  1  0.433719  0.750000  0.492505  1
  Bi  Bi23  1  0.571555  0.508612  0.826765  1
  Bi  Bi24  1  0.429743  0.490709  0.172980  1
  Bi  Bi25  1  0.071905  0.490298  0.671710  1
  Bi  Bi26  1  0.429743  0.009291  0.172980  1
  Bi  Bi27  1  0.927856  0.508859  0.327953  1
  Bi  Bi28  1  0.571555  0.991388  0.826765  1
  Bi  Bi29  1  0.927856  0.991141  0.327953  1
  Bi  Bi30  1  0.071905  0.009702  0.671710  1
  Os  Os31  1  0.072437  0.750000  0.990062  1
