# generated using pymatgen
data_Dy4C7
_symmetry_space_group_name_H-M   'P 1'
_cell_length_a   3.72007002
_cell_length_b   6.46980644
_cell_length_c   13.75347600
_cell_angle_alpha   90.00000000
_cell_angle_beta   90.00000000
_cell_angle_gamma   104.71488535
_symmetry_Int_Tables_number   1
_chemical_formula_structural   Dy4C7
_chemical_formula_sum   'Dy8 C14'
_cell_volume   320.16361136
_cell_formula_units_Z   2
loop_
 _symmetry_equiv_pos_site_id
 _symmetry_equiv_pos_as_xyz
  1  'x, y, z'
loop_
 _atom_site_type_symbol
 _atom_site_label
 _atom_site_symmetry_multiplicity
 _atom_site_fract_x
 _atom_site_fract_y
 _atom_site_fract_z
 _atom_site_occupancy
  Dy  Dy0  1  0.946534  0.839136  0.837150  1
  Dy  Dy1  1  0.053466  0.160864  0.162850  1
  Dy  Dy2  1  0.053466  0.660864  0.337150  1
  Dy  Dy3  1  0.946534  0.339136  0.662850  1
  Dy  Dy4  1  0.632779  0.760756  0.555029  1
  Dy  Dy5  1  0.367221  0.239244  0.444971  1
  Dy  Dy6  1  0.367221  0.739244  0.055029  1
  Dy  Dy7  1  0.632779  0.260756  0.944971  1
  C  C8  1  0.736167  0.951273  0.395152  1
  C  C9  1  0.263833  0.048727  0.604848  1
  C  C10  1  0.263833  0.548727  0.895152  1
  C  C11  1  0.736167  0.451273  0.104848  1
  C  C12  1  0.534693  0.574771  0.716088  1
  C  C13  1  0.465307  0.425229  0.283912  1
  C  C14  1  0.465307  0.925229  0.216088  1
  C  C15  1  0.534693  0.074771  0.783912  1
  C  C16  1  0.621140  0.954620  0.303435  1
  C  C17  1  0.378860  0.045380  0.696565  1
  C  C18  1  0.378860  0.545380  0.803435  1
  C  C19  1  0.621140  0.454620  0.196565  1
  C  C20  1  0.000000  0.000000  0.000000  1
  C  C21  1  0.000000  0.500000  0.500000  1
