# generated using pymatgen
data_Rb4CdSb2Pt
_symmetry_space_group_name_H-M   'P 1'
_cell_length_a   7.06531274
_cell_length_b   7.06531077
_cell_length_c   6.55117800
_cell_angle_alpha   89.75661037
_cell_angle_beta   89.75661854
_cell_angle_gamma   105.30345198
_symmetry_Int_Tables_number   1
_chemical_formula_structural   Rb4CdSb2Pt
_chemical_formula_sum   'Rb4 Cd1 Sb2 Pt1'
_cell_volume   315.42226006
_cell_formula_units_Z   1
loop_
 _symmetry_equiv_pos_site_id
 _symmetry_equiv_pos_as_xyz
  1  'x, y, z'
loop_
 _atom_site_type_symbol
 _atom_site_label
 _atom_site_symmetry_multiplicity
 _atom_site_fract_x
 _atom_site_fract_y
 _atom_site_fract_z
 _atom_site_occupancy
  Rb  Rb0  1  0.975181  0.321219  0.739661  1
  Rb  Rb1  1  0.024819  0.678781  0.260339  1
  Rb  Rb2  1  0.678781  0.024819  0.260339  1
  Rb  Rb3  1  0.321219  0.975181  0.739661  1
  Cd  Cd4  1  0.500000  0.500000  0.000000  1
  Sb  Sb5  1  0.751451  0.751451  0.738612  1
  Sb  Sb6  1  0.248549  0.248549  0.261388  1
  Pt  Pt7  1  0.500000  0.500000  0.500000  1
