# generated using pymatgen
data_Tb3ZnIn3Au2
_symmetry_space_group_name_H-M   'P 1'
_cell_length_a   7.85752500
_cell_length_b   7.85752589
_cell_length_c   3.91276900
_cell_angle_alpha   90.00000000
_cell_angle_beta   90.00000000
_cell_angle_gamma   120.00000046
_symmetry_Int_Tables_number   1
_chemical_formula_structural   Tb3ZnIn3Au2
_chemical_formula_sum   'Tb3 Zn1 In3 Au2'
_cell_volume   209.21192273
_cell_formula_units_Z   1
loop_
 _symmetry_equiv_pos_site_id
 _symmetry_equiv_pos_as_xyz
  1  'x, y, z'
loop_
 _atom_site_type_symbol
 _atom_site_label
 _atom_site_symmetry_multiplicity
 _atom_site_fract_x
 _atom_site_fract_y
 _atom_site_fract_z
 _atom_site_occupancy
  Tb  Tb0  1  0.600604  0.000000  0.500000  1
  Tb  Tb1  1  0.399396  0.399396  0.500000  1
  Tb  Tb2  1  0.000000  0.600604  0.500000  1
  Zn  Zn3  1  0.000000  0.000000  0.500000  1
  In  In4  1  0.742025  0.742025  0.000000  1
  In  In5  1  0.000000  0.257975  0.000000  1
  In  In6  1  0.257975  0.000000  0.000000  1
  Au  Au7  1  0.333333  0.666667  0.000000  1
  Au  Au8  1  0.666667  0.333333  0.000000  1
