# generated using pymatgen
data_Tm12Co2Tc2NiSn
_symmetry_space_group_name_H-M   'P 1'
_cell_length_a   8.22293456
_cell_length_b   8.21990443
_cell_length_c   8.22293379
_cell_angle_alpha   110.91488066
_cell_angle_beta   111.97765214
_cell_angle_gamma   105.60508491
_symmetry_Int_Tables_number   1
_chemical_formula_structural   Tm12Co2Tc2NiSn
_chemical_formula_sum   'Tm12 Co2 Tc2 Ni1 Sn1'
_cell_volume   426.29153844
_cell_formula_units_Z   1
loop_
 _symmetry_equiv_pos_site_id
 _symmetry_equiv_pos_as_xyz
  1  'x, y, z'
loop_
 _atom_site_type_symbol
 _atom_site_label
 _atom_site_symmetry_multiplicity
 _atom_site_fract_x
 _atom_site_fract_y
 _atom_site_fract_z
 _atom_site_occupancy
  Tm  Tm0  1  0.274414  0.181954  0.456456  1
  Tm  Tm1  1  0.721744  0.817519  0.539465  1
  Tm  Tm2  1  0.278054  0.817519  0.095774  1
  Tm  Tm3  1  0.725499  0.181954  0.907542  1
  Tm  Tm4  1  0.613579  0.305128  0.298877  1
  Tm  Tm5  1  0.385688  0.685296  0.690518  1
  Tm  Tm6  1  0.006250  0.305128  0.691549  1
  Tm  Tm7  1  0.994778  0.685296  0.299607  1
  Tm  Tm8  1  0.227147  0.420227  0.193081  1
  Tm  Tm9  1  0.773454  0.576809  0.803354  1
  Tm  Tm10  1  0.225289  0.028310  0.803021  1
  Tm  Tm11  1  0.772794  0.966023  0.193229  1
  Co  Co12  1  0.390949  0.888751  0.497802  1
  Co  Co13  1  0.611867  0.109619  0.497752  1
  Tc  Tc14  1  0.999836  0.384207  0.384371  1
  Tc  Tc15  1  0.999980  0.999977  0.999997  1
  Ni  Ni16  1  0.998695  0.647981  0.649286  1
  Sn  Sn17  1  0.499983  0.498302  0.998319  1
