# generated using pymatgen
data_Dy4Y5Tm11Pt16
_symmetry_space_group_name_H-M   'P 1'
_cell_length_a   7.44492205
_cell_length_b   7.51874479
_cell_length_c   14.63396604
_cell_angle_alpha   89.96509466
_cell_angle_beta   90.00236357
_cell_angle_gamma   90.02061838
_symmetry_Int_Tables_number   1
_chemical_formula_structural   Dy4Y5Tm11Pt16
_chemical_formula_sum   'Dy4 Y5 Tm11 Pt16'
_cell_volume   819.15753841
_cell_formula_units_Z   1
loop_
 _symmetry_equiv_pos_site_id
 _symmetry_equiv_pos_as_xyz
  1  'x, y, z'
loop_
 _atom_site_type_symbol
 _atom_site_label
 _atom_site_symmetry_multiplicity
 _atom_site_fract_x
 _atom_site_fract_y
 _atom_site_fract_z
 _atom_site_occupancy
  Dy  Dy0  1  0.656283  0.832227  0.877998  1
  Dy  Dy1  1  0.998591  0.820492  0.406844  1
  Dy  Dy2  1  0.498193  0.679133  0.093810  1
  Dy  Dy3  1  0.501444  0.320585  0.592810  1
  Y  Y4  1  0.001645  0.180178  0.907070  1
  Y  Y5  1  0.001090  0.179119  0.592924  1
  Y  Y6  1  0.500922  0.320836  0.907027  1
  Y  Y7  1  0.498687  0.679187  0.406910  1
  Y  Y8  1  0.998850  0.820564  0.093110  1
  Tm  Tm9  1  0.681041  0.989840  0.250073  1
  Tm  Tm10  1  0.181046  0.510163  0.250100  1
  Tm  Tm11  1  0.819274  0.489434  0.749504  1
  Tm  Tm12  1  0.318609  0.010711  0.749598  1
  Tm  Tm13  1  0.656049  0.832480  0.622370  1
  Tm  Tm14  1  0.156189  0.667522  0.877384  1
  Tm  Tm15  1  0.843961  0.332540  0.377484  1
  Tm  Tm16  1  0.343706  0.167730  0.122674  1
  Tm  Tm17  1  0.343819  0.167520  0.377498  1
  Tm  Tm18  1  0.844173  0.332626  0.122938  1
  Tm  Tm19  1  0.156147  0.667490  0.622210  1
  Pt  Pt20  1  0.816601  0.641584  0.250244  1
  Pt  Pt21  1  0.316393  0.858514  0.249995  1
  Pt  Pt22  1  0.683610  0.142496  0.748908  1
  Pt  Pt23  1  0.183155  0.358277  0.749782  1
  Pt  Pt24  1  0.546262  0.384001  0.250078  1
  Pt  Pt25  1  0.046402  0.116064  0.250249  1
  Pt  Pt26  1  0.954984  0.884558  0.748994  1
  Pt  Pt27  1  0.452943  0.614376  0.748957  1
  Pt  Pt28  1  0.817778  0.534052  0.542032  1
  Pt  Pt29  1  0.315955  0.966501  0.958512  1
  Pt  Pt30  1  0.682215  0.033998  0.457848  1
  Pt  Pt31  1  0.182752  0.466264  0.042285  1
  Pt  Pt32  1  0.181937  0.466108  0.457823  1
  Pt  Pt33  1  0.681558  0.035127  0.043554  1
  Pt  Pt34  1  0.318137  0.966148  0.542050  1
  Pt  Pt35  1  0.819599  0.531556  0.958352  1
