# generated using pymatgen
data_Nd2Fe2Ge2N
_symmetry_space_group_name_H-M   'P 1'
_cell_length_a   5.80774322
_cell_length_b   5.80774297
_cell_length_c   7.01864121
_cell_angle_alpha   124.85200482
_cell_angle_beta   124.85200159
_cell_angle_gamma   39.97550448
_symmetry_Int_Tables_number   1
_chemical_formula_structural   Nd2Fe2Ge2N
_chemical_formula_sum   'Nd2 Fe2 Ge2 N1'
_cell_volume   120.74353038
_cell_formula_units_Z   1
loop_
 _symmetry_equiv_pos_site_id
 _symmetry_equiv_pos_as_xyz
  1  'x, y, z'
loop_
 _atom_site_type_symbol
 _atom_site_label
 _atom_site_symmetry_multiplicity
 _atom_site_fract_x
 _atom_site_fract_y
 _atom_site_fract_z
 _atom_site_occupancy
  Nd  Nd0  1  0.556535  0.556535  0.290477  1
  Nd  Nd1  1  0.443466  0.443466  0.709524  1
  Fe  Fe2  1  0.186848  0.186848  0.073693  1
  Fe  Fe3  1  0.813151  0.813151  0.926306  1
  Ge  Ge4  1  0.828610  0.828610  0.281401  1
  Ge  Ge5  1  0.171391  0.171391  0.718600  1
  N  N6  1  0.000000  0.000000  0.000000  1
