# generated using pymatgen
data_CsRbHfSe3
_symmetry_space_group_name_H-M   'P 1'
_cell_length_a   7.98342715
_cell_length_b   8.18624476
_cell_length_c   7.18751200
_cell_angle_alpha   90.00000000
_cell_angle_beta   90.00000000
_cell_angle_gamma   109.15661928
_symmetry_Int_Tables_number   1
_chemical_formula_structural   CsRbHfSe3
_chemical_formula_sum   'Cs2 Rb2 Hf2 Se6'
_cell_volume   443.72321869
_cell_formula_units_Z   2
loop_
 _symmetry_equiv_pos_site_id
 _symmetry_equiv_pos_as_xyz
  1  'x, y, z'
loop_
 _atom_site_type_symbol
 _atom_site_label
 _atom_site_symmetry_multiplicity
 _atom_site_fract_x
 _atom_site_fract_y
 _atom_site_fract_z
 _atom_site_occupancy
  Cs  Cs0  1  0.175377  0.490860  0.750000  1
  Cs  Cs1  1  0.824623  0.509140  0.250000  1
  Rb  Rb2  1  0.502282  0.819237  0.250000  1
  Rb  Rb3  1  0.497718  0.180763  0.750000  1
  Hf  Hf4  1  0.079236  0.086134  0.250000  1
  Hf  Hf5  1  0.920764  0.913866  0.750000  1
  Se  Se6  1  0.672236  0.636161  0.750000  1
  Se  Se7  1  0.327764  0.363839  0.250000  1
  Se  Se8  1  0.848221  0.119825  0.499862  1
  Se  Se9  1  0.848221  0.119825  0.000138  1
  Se  Se10  1  0.151779  0.880175  0.500138  1
  Se  Se11  1  0.151779  0.880175  0.999862  1
