# generated using pymatgen
data_Tb5Dy5(GePb3)2
_symmetry_space_group_name_H-M   'P 1'
_cell_length_a   9.37382600
_cell_length_b   9.37382624
_cell_length_c   6.56254000
_cell_angle_alpha   90.00000000
_cell_angle_beta   90.00000000
_cell_angle_gamma   120.00341251
_symmetry_Int_Tables_number   1
_chemical_formula_structural   Tb5Dy5(GePb3)2
_chemical_formula_sum   'Tb5 Dy5 Ge2 Pb6'
_cell_volume   499.36884873
_cell_formula_units_Z   1
loop_
 _symmetry_equiv_pos_site_id
 _symmetry_equiv_pos_as_xyz
  1  'x, y, z'
loop_
 _atom_site_type_symbol
 _atom_site_label
 _atom_site_symmetry_multiplicity
 _atom_site_fract_x
 _atom_site_fract_y
 _atom_site_fract_z
 _atom_site_occupancy
  Tb  Tb0  1  0.251677  0.000021  0.250000  1
  Tb  Tb1  1  0.748338  0.000018  0.750000  1
  Tb  Tb2  1  0.000021  0.251677  0.250000  1
  Tb  Tb3  1  0.000018  0.748338  0.750000  1
  Tb  Tb4  1  0.748333  0.748333  0.250000  1
  Dy  Dy5  1  0.251485  0.251485  0.750000  1
  Dy  Dy6  1  0.333323  0.666634  0.999987  1
  Dy  Dy7  1  0.666634  0.333323  0.999987  1
  Dy  Dy8  1  0.666634  0.333323  0.500013  1
  Dy  Dy9  1  0.333323  0.666634  0.500013  1
  Ge  Ge10  1  0.000137  0.000137  0.999839  1
  Ge  Ge11  1  0.000137  0.000137  0.500161  1
  Pb  Pb12  1  0.607913  0.999998  0.250000  1
  Pb  Pb13  1  0.392041  0.000072  0.750000  1
  Pb  Pb14  1  0.999998  0.607913  0.250000  1
  Pb  Pb15  1  0.000072  0.392041  0.750000  1
  Pb  Pb16  1  0.392102  0.392102  0.250000  1
  Pb  Pb17  1  0.607814  0.607814  0.750000  1
