# generated using pymatgen
data_Dy5Ho7Ga2(NiRu)2
_symmetry_space_group_name_H-M   'P 1'
_cell_length_a   8.32211376
_cell_length_b   8.32208222
_cell_length_c   8.32293444
_cell_angle_alpha   112.94894152
_cell_angle_beta   110.18800828
_cell_angle_gamma   105.36182211
_symmetry_Int_Tables_number   1
_chemical_formula_structural   Dy5Ho7Ga2(NiRu)2
_chemical_formula_sum   'Dy5 Ho7 Ga2 Ni2 Ru2'
_cell_volume   441.78393520
_cell_formula_units_Z   1
loop_
 _symmetry_equiv_pos_site_id
 _symmetry_equiv_pos_as_xyz
  1  'x, y, z'
loop_
 _atom_site_type_symbol
 _atom_site_label
 _atom_site_symmetry_multiplicity
 _atom_site_fract_x
 _atom_site_fract_y
 _atom_site_fract_z
 _atom_site_occupancy
  Dy  Dy0  1  0.435289  0.241609  0.193586  1
  Dy  Dy1  1  0.564823  0.758480  0.806428  1
  Dy  Dy2  1  0.047948  0.241603  0.806428  1
  Dy  Dy3  1  0.951975  0.758294  0.193584  1
  Dy  Dy4  1  0.180044  0.279421  0.459465  1
  Ho  Ho5  1  0.819978  0.720650  0.540629  1
  Ho  Ho6  1  0.179993  0.720647  0.900637  1
  Ho  Ho7  1  0.819920  0.279353  0.099269  1
  Ho  Ho8  1  0.329085  0.640488  0.311405  1
  Ho  Ho9  1  0.671069  0.359578  0.688666  1
  Ho  Ho10  1  0.329086  0.017592  0.688663  1
  Ho  Ho11  1  0.670912  0.982313  0.311402  1
  Ga  Ga12  1  0.500010  0.499996  0.000006  1
  Ga  Ga13  1  0.999936  0.999897  0.999835  1
  Ni  Ni14  1  0.118128  0.618254  0.500035  1
  Ni  Ni15  1  0.881789  0.381915  0.500036  1
  Ru  Ru16  1  0.329706  0.999919  0.329624  1
  Ru  Ru17  1  0.670311  0.999990  0.670303  1
