# generated using pymatgen
data_Tm2ZrSc(Al3Rh)6
_symmetry_space_group_name_H-M   'P 1'
_cell_length_a   7.50149012
_cell_length_b   7.49662192
_cell_length_c   9.34746000
_cell_angle_alpha   90.00000000
_cell_angle_beta   90.00000000
_cell_angle_gamma   119.55364406
_symmetry_Int_Tables_number   1
_chemical_formula_structural   Tm2ZrSc(Al3Rh)6
_chemical_formula_sum   'Tm2 Zr1 Sc1 Al18 Rh6'
_cell_volume   457.27055654
_cell_formula_units_Z   1
loop_
 _symmetry_equiv_pos_site_id
 _symmetry_equiv_pos_as_xyz
  1  'x, y, z'
loop_
 _atom_site_type_symbol
 _atom_site_label
 _atom_site_symmetry_multiplicity
 _atom_site_fract_x
 _atom_site_fract_y
 _atom_site_fract_z
 _atom_site_occupancy
  Tm  Tm0  1  0.006199  0.326612  0.750000  1
  Tm  Tm1  1  0.328378  0.007078  0.750000  1
  Zr  Zr2  1  0.996200  0.671995  0.250000  1
  Sc  Sc3  1  0.672860  0.996532  0.250000  1
  Al  Al4  1  0.120382  0.119560  0.250000  1
  Al  Al5  1  0.870561  0.870395  0.750000  1
  Al  Al6  1  0.996355  0.334713  0.082270  1
  Al  Al7  1  0.999745  0.664563  0.927098  1
  Al  Al8  1  0.999745  0.664563  0.572902  1
  Al  Al9  1  0.335994  0.997531  0.417575  1
  Al  Al10  1  0.996355  0.334713  0.417730  1
  Al  Al11  1  0.664391  0.999119  0.572834  1
  Al  Al12  1  0.664391  0.999119  0.927166  1
  Al  Al13  1  0.335994  0.997531  0.082425  1
  Al  Al14  1  0.333514  0.333624  0.548883  1
  Al  Al15  1  0.669827  0.670465  0.440631  1
  Al  Al16  1  0.669827  0.670465  0.059369  1
  Al  Al17  1  0.333514  0.333624  0.951117  1
  Al  Al18  1  0.339147  0.556683  0.250000  1
  Al  Al19  1  0.660239  0.449922  0.750000  1
  Al  Al20  1  0.558251  0.342201  0.250000  1
  Al  Al21  1  0.448988  0.659326  0.750000  1
  Rh  Rh22  1  0.672919  0.327998  0.001098  1
  Rh  Rh23  1  0.326967  0.672578  0.001726  1
  Rh  Rh24  1  0.326967  0.672578  0.498274  1
  Rh  Rh25  1  0.672919  0.327998  0.498902  1
  Rh  Rh26  1  0.999688  0.999256  0.000901  1
  Rh  Rh27  1  0.999688  0.999256  0.499099  1
