# generated using pymatgen
data_Li2PrEuSb2
_symmetry_space_group_name_H-M   'P 1'
_cell_length_a   4.75258500
_cell_length_b   7.64132300
_cell_length_c   8.39908300
_cell_angle_alpha   90.00000000
_cell_angle_beta   90.00000000
_cell_angle_gamma   90.00000000
_symmetry_Int_Tables_number   1
_chemical_formula_structural   Li2PrEuSb2
_chemical_formula_sum   'Li4 Pr2 Eu2 Sb4'
_cell_volume   305.02140958
_cell_formula_units_Z   2
loop_
 _symmetry_equiv_pos_site_id
 _symmetry_equiv_pos_as_xyz
  1  'x, y, z'
loop_
 _atom_site_type_symbol
 _atom_site_label
 _atom_site_symmetry_multiplicity
 _atom_site_fract_x
 _atom_site_fract_y
 _atom_site_fract_z
 _atom_site_occupancy
  Li  Li0  1  0.250000  0.172621  0.919411  1
  Li  Li1  1  0.250000  0.672621  0.580589  1
  Li  Li2  1  0.750000  0.826304  0.075330  1
  Li  Li3  1  0.750000  0.326304  0.424670  1
  Pr  Pr4  1  0.250000  0.005488  0.280365  1
  Pr  Pr5  1  0.250000  0.505488  0.219635  1
  Eu  Eu6  1  0.750000  0.994699  0.712586  1
  Eu  Eu7  1  0.750000  0.494699  0.787414  1
  Sb  Sb8  1  0.250000  0.270262  0.587852  1
  Sb  Sb9  1  0.250000  0.770262  0.912148  1
  Sb  Sb10  1  0.750000  0.730626  0.406252  1
  Sb  Sb11  1  0.750000  0.230626  0.093748  1
