# generated using pymatgen
data_Pr7Ho(Si3Pt)4
_symmetry_space_group_name_H-M   'P 1'
_cell_length_a   8.23694048
_cell_length_b   8.24461120
_cell_length_c   8.63107100
_cell_angle_alpha   90.00000000
_cell_angle_beta   90.00000000
_cell_angle_gamma   120.03081282
_symmetry_Int_Tables_number   1
_chemical_formula_structural   Pr7Ho(Si3Pt)4
_chemical_formula_sum   'Pr7 Ho1 Si12 Pt4'
_cell_volume   507.45379029
_cell_formula_units_Z   1
loop_
 _symmetry_equiv_pos_site_id
 _symmetry_equiv_pos_as_xyz
  1  'x, y, z'
loop_
 _atom_site_type_symbol
 _atom_site_label
 _atom_site_symmetry_multiplicity
 _atom_site_fract_x
 _atom_site_fract_y
 _atom_site_fract_z
 _atom_site_occupancy
  Pr  Pr0  1  0.000267  0.000133  0.250000  1
  Pr  Pr1  1  0.999982  0.999992  0.750000  1
  Pr  Pr2  1  0.500542  0.499154  0.250000  1
  Pr  Pr3  1  0.500542  0.001389  0.250000  1
  Pr  Pr4  1  0.998185  0.499092  0.250000  1
  Pr  Pr5  1  0.498924  0.501039  0.750000  1
  Pr  Pr6  1  0.498924  0.997886  0.750000  1
  Ho  Ho7  1  0.000925  0.500462  0.750000  1
  Si  Si8  1  0.165180  0.833409  0.501710  1
  Si  Si9  1  0.165180  0.331770  0.501710  1
  Si  Si10  1  0.666861  0.833431  0.498534  1
  Si  Si11  1  0.834848  0.166501  0.501970  1
  Si  Si12  1  0.834848  0.668348  0.501970  1
  Si  Si13  1  0.333532  0.166767  0.500347  1
  Si  Si14  1  0.834848  0.166501  0.998030  1
  Si  Si15  1  0.834848  0.668348  0.998030  1
  Si  Si16  1  0.333532  0.166767  0.999653  1
  Si  Si17  1  0.165180  0.833409  0.998290  1
  Si  Si18  1  0.165180  0.331770  0.998290  1
  Si  Si19  1  0.666861  0.833431  0.001466  1
  Pt  Pt20  1  0.330314  0.665157  0.504468  1
  Pt  Pt21  1  0.670092  0.335046  0.507934  1
  Pt  Pt22  1  0.670092  0.335046  0.992066  1
  Pt  Pt23  1  0.330314  0.665157  0.995532  1
