# generated using pymatgen
data_Ca2AlGePd13
_symmetry_space_group_name_H-M   'P 1'
_cell_length_a   8.95214219
_cell_length_b   8.92014800
_cell_length_c   7.11745618
_cell_angle_alpha   90.00000000
_cell_angle_beta   90.16345114
_cell_angle_gamma   90.00000000
_symmetry_Int_Tables_number   1
_chemical_formula_structural   Ca2AlGePd13
_chemical_formula_sum   'Ca4 Al2 Ge2 Pd26'
_cell_volume   568.35811629
_cell_formula_units_Z   2
loop_
 _symmetry_equiv_pos_site_id
 _symmetry_equiv_pos_as_xyz
  1  'x, y, z'
loop_
 _atom_site_type_symbol
 _atom_site_label
 _atom_site_symmetry_multiplicity
 _atom_site_fract_x
 _atom_site_fract_y
 _atom_site_fract_z
 _atom_site_occupancy
  Ca  Ca0  1  0.517661  0.000000  0.934184  1
  Ca  Ca1  1  0.982339  0.500000  0.065816  1
  Ca  Ca2  1  0.003577  0.000000  0.497957  1
  Ca  Ca3  1  0.496423  0.500000  0.502043  1
  Al  Al4  1  0.250000  0.750000  0.000000  1
  Al  Al5  1  0.250000  0.250000  0.000000  1
  Ge  Ge6  1  0.503791  0.000000  0.447498  1
  Ge  Ge7  1  0.996209  0.500000  0.552502  1
  Pd  Pd8  1  0.329949  0.829610  0.622823  1
  Pd  Pd9  1  0.329949  0.170390  0.622823  1
  Pd  Pd10  1  0.670990  0.828526  0.624965  1
  Pd  Pd11  1  0.670990  0.171474  0.624965  1
  Pd  Pd12  1  0.170051  0.670390  0.377177  1
  Pd  Pd13  1  0.170051  0.329610  0.377177  1
  Pd  Pd14  1  0.829010  0.671474  0.375035  1
  Pd  Pd15  1  0.829010  0.328526  0.375035  1
  Pd  Pd16  1  0.493351  0.765366  0.248887  1
  Pd  Pd17  1  0.493351  0.234634  0.248887  1
  Pd  Pd18  1  0.270336  0.000000  0.248177  1
  Pd  Pd19  1  0.738468  0.000000  0.252163  1
  Pd  Pd20  1  0.006649  0.734634  0.751113  1
  Pd  Pd21  1  0.006649  0.265366  0.751113  1
  Pd  Pd22  1  0.229664  0.500000  0.751823  1
  Pd  Pd23  1  0.761532  0.500000  0.747837  1
  Pd  Pd24  1  0.489358  0.342328  0.866714  1
  Pd  Pd25  1  0.489358  0.657672  0.866714  1
  Pd  Pd26  1  0.857405  0.000000  0.854925  1
  Pd  Pd27  1  0.170715  0.000000  0.869238  1
  Pd  Pd28  1  0.010642  0.157672  0.133286  1
  Pd  Pd29  1  0.010642  0.842328  0.133286  1
  Pd  Pd30  1  0.642595  0.500000  0.145075  1
  Pd  Pd31  1  0.329285  0.500000  0.130762  1
  Pd  Pd32  1  0.750000  0.750000  0.000000  1
  Pd  Pd33  1  0.750000  0.250000  0.000000  1
