# generated using pymatgen
data_Pr3Ho5(CuP)12
_symmetry_space_group_name_H-M   'P 1'
_cell_length_a   3.92180100
_cell_length_b   10.73343710
_cell_length_c   12.96053032
_cell_angle_alpha   90.05177976
_cell_angle_beta   90.00000000
_cell_angle_gamma   90.00000000
_symmetry_Int_Tables_number   1
_chemical_formula_structural   Pr3Ho5(CuP)12
_chemical_formula_sum   'Pr3 Ho5 Cu12 P12'
_cell_volume   545.56558104
_cell_formula_units_Z   1
loop_
 _symmetry_equiv_pos_site_id
 _symmetry_equiv_pos_as_xyz
  1  'x, y, z'
loop_
 _atom_site_type_symbol
 _atom_site_label
 _atom_site_symmetry_multiplicity
 _atom_site_fract_x
 _atom_site_fract_y
 _atom_site_fract_z
 _atom_site_occupancy
  Pr  Pr0  1  0.250000  0.931816  0.793245  1
  Pr  Pr1  1  0.750000  0.431132  0.706754  1
  Pr  Pr2  1  0.250000  0.568828  0.293463  1
  Ho  Ho3  1  0.750000  0.069368  0.207497  1
  Ho  Ho4  1  0.250000  0.842689  0.501319  1
  Ho  Ho5  1  0.750000  0.341579  0.998934  1
  Ho  Ho6  1  0.250000  0.658091  0.002658  1
  Ho  Ho7  1  0.750000  0.155812  0.495841  1
  Cu  Cu8  1  0.250000  0.398331  0.511843  1
  Cu  Cu9  1  0.750000  0.901630  0.989737  1
  Cu  Cu10  1  0.250000  0.098667  0.014693  1
  Cu  Cu11  1  0.750000  0.600478  0.488719  1
  Cu  Cu12  1  0.250000  0.271230  0.332697  1
  Cu  Cu13  1  0.750000  0.772487  0.167557  1
  Cu  Cu14  1  0.250000  0.229179  0.832940  1
  Cu  Cu15  1  0.750000  0.730053  0.667354  1
  Cu  Cu16  1  0.250000  0.862896  0.278446  1
  Cu  Cu17  1  0.750000  0.355824  0.219851  1
  Cu  Cu18  1  0.250000  0.640321  0.780749  1
  Cu  Cu19  1  0.750000  0.140898  0.718715  1
  P  P20  1  0.250000  0.234697  0.641815  1
  P  P21  1  0.750000  0.735739  0.857506  1
  P  P22  1  0.250000  0.258675  0.144523  1
  P  P23  1  0.750000  0.765423  0.357083  1
  P  P24  1  0.250000  0.607525  0.598371  1
  P  P25  1  0.750000  0.107636  0.901370  1
  P  P26  1  0.250000  0.895843  0.099703  1
  P  P27  1  0.750000  0.393011  0.401875  1
  P  P28  1  0.250000  0.057747  0.367970  1
  P  P29  1  0.750000  0.557463  0.126658  1
  P  P30  1  0.250000  0.442203  0.874611  1
  P  P31  1  0.750000  0.942731  0.625501  1
