# generated using pymatgen
data_Lu12TlZnNi4
_symmetry_space_group_name_H-M   'P 1'
_cell_length_a   8.17990825
_cell_length_b   8.17990912
_cell_length_c   8.17990900
_cell_angle_alpha   112.25157960
_cell_angle_beta   109.80678879
_cell_angle_gamma   106.40806307
_symmetry_Int_Tables_number   1
_chemical_formula_structural   Lu12TlZnNi4
_chemical_formula_sum   'Lu12 Tl1 Zn1 Ni4'
_cell_volume   420.23127862
_cell_formula_units_Z   1
loop_
 _symmetry_equiv_pos_site_id
 _symmetry_equiv_pos_as_xyz
  1  'x, y, z'
loop_
 _atom_site_type_symbol
 _atom_site_label
 _atom_site_symmetry_multiplicity
 _atom_site_fract_x
 _atom_site_fract_y
 _atom_site_fract_z
 _atom_site_occupancy
  Lu  Lu0  1  0.675126  0.869998  0.194872  1
  Lu  Lu1  1  0.324874  0.519745  0.194872  1
  Lu  Lu2  1  0.819791  0.788033  0.607825  1
  Lu  Lu3  1  0.180209  0.788033  0.968242  1
  Lu  Lu4  1  0.819791  0.211967  0.031758  1
  Lu  Lu5  1  0.180209  0.211967  0.392175  1
  Lu  Lu6  1  0.675126  0.480255  0.805128  1
  Lu  Lu7  1  0.324874  0.130002  0.805128  1
  Lu  Lu8  1  0.570737  0.270766  0.299970  1
  Lu  Lu9  1  0.429263  0.729234  0.700030  1
  Lu  Lu10  1  0.029205  0.729234  0.299970  1
  Lu  Lu11  1  0.970795  0.270766  0.700030  1
  Tl  Tl12  1  0.500000  0.000000  0.500000  1
  Zn  Zn13  1  0.000000  0.500000  0.500000  1
  Ni  Ni14  1  0.352821  0.500000  0.852821  1
  Ni  Ni15  1  0.647179  0.500000  0.147179  1
  Ni  Ni16  1  0.874473  0.874473  0.000000  1
  Ni  Ni17  1  0.125527  0.125527  0.000000  1
