# generated using pymatgen
data_LiAg(BrO3)4
_symmetry_space_group_name_H-M   'P 1'
_cell_length_a   5.08582111
_cell_length_b   6.77778193
_cell_length_c   8.63896971
_cell_angle_alpha   80.69894385
_cell_angle_beta   90.31743006
_cell_angle_gamma   93.82177925
_symmetry_Int_Tables_number   1
_chemical_formula_structural   LiAg(BrO3)4
_chemical_formula_sum   'Li1 Ag1 Br4 O12'
_cell_volume   293.21756583
_cell_formula_units_Z   1
loop_
 _symmetry_equiv_pos_site_id
 _symmetry_equiv_pos_as_xyz
  1  'x, y, z'
loop_
 _atom_site_type_symbol
 _atom_site_label
 _atom_site_symmetry_multiplicity
 _atom_site_fract_x
 _atom_site_fract_y
 _atom_site_fract_z
 _atom_site_occupancy
  Li  Li0  1  0.500000  0.000000  0.500000  1
  Ag  Ag1  1  0.500000  0.500000  0.500000  1
  Br  Br2  1  0.572607  0.797165  0.159621  1
  Br  Br3  1  0.050268  0.272336  0.275203  1
  Br  Br4  1  0.949732  0.727664  0.724797  1
  Br  Br5  1  0.427393  0.202835  0.840379  1
  O  O6  1  0.745253  0.627708  0.097321  1
  O  O7  1  0.733708  0.019356  0.110324  1
  O  O8  1  0.231646  0.489671  0.320644  1
  O  O9  1  0.251476  0.089080  0.315120  1
  O  O10  1  0.637322  0.768908  0.370606  1
  O  O11  1  0.806367  0.234345  0.405433  1
  O  O12  1  0.193633  0.765655  0.594567  1
  O  O13  1  0.362678  0.231092  0.629394  1
  O  O14  1  0.748524  0.910920  0.684880  1
  O  O15  1  0.768354  0.510329  0.679356  1
  O  O16  1  0.266292  0.980644  0.889676  1
  O  O17  1  0.254747  0.372292  0.902679  1
