# generated using pymatgen
data_Hf2Mn4Nb2Si3As
_symmetry_space_group_name_H-M   'P 1'
_cell_length_a   3.61638600
_cell_length_b   6.46553663
_cell_length_c   7.59742531
_cell_angle_alpha   89.78409902
_cell_angle_beta   90.00000000
_cell_angle_gamma   90.00000000
_symmetry_Int_Tables_number   1
_chemical_formula_structural   Hf2Mn4Nb2Si3As
_chemical_formula_sum   'Hf2 Mn4 Nb2 Si3 As1'
_cell_volume   177.64079635
_cell_formula_units_Z   1
loop_
 _symmetry_equiv_pos_site_id
 _symmetry_equiv_pos_as_xyz
  1  'x, y, z'
loop_
 _atom_site_type_symbol
 _atom_site_label
 _atom_site_symmetry_multiplicity
 _atom_site_fract_x
 _atom_site_fract_y
 _atom_site_fract_z
 _atom_site_occupancy
  Hf  Hf0  1  0.750000  0.041783  0.673027  1
  Hf  Hf1  1  0.750000  0.531081  0.831648  1
  Mn  Mn2  1  0.250000  0.357799  0.560486  1
  Mn  Mn3  1  0.250000  0.863584  0.941758  1
  Mn  Mn4  1  0.750000  0.634204  0.432478  1
  Mn  Mn5  1  0.750000  0.135217  0.062873  1
  Nb  Nb6  1  0.250000  0.968997  0.320022  1
  Nb  Nb7  1  0.250000  0.467677  0.175352  1
  Si  Si8  1  0.250000  0.232164  0.878667  1
  Si  Si9  1  0.750000  0.265841  0.366512  1
  Si  Si10  1  0.750000  0.766310  0.130759  1
  As  As11  1  0.250000  0.735346  0.626418  1
