# generated using pymatgen
data_Y5HoEr2(Si3Rh)4
_symmetry_space_group_name_H-M   'P 1'
_cell_length_a   8.16860304
_cell_length_b   8.16710003
_cell_length_c   7.90072200
_cell_angle_alpha   90.00000000
_cell_angle_beta   90.00000000
_cell_angle_gamma   119.99476891
_symmetry_Int_Tables_number   1
_chemical_formula_structural   Y5HoEr2(Si3Rh)4
_chemical_formula_sum   'Y5 Ho1 Er2 Si12 Rh4'
_cell_volume   456.49494089
_cell_formula_units_Z   1
loop_
 _symmetry_equiv_pos_site_id
 _symmetry_equiv_pos_as_xyz
  1  'x, y, z'
loop_
 _atom_site_type_symbol
 _atom_site_label
 _atom_site_symmetry_multiplicity
 _atom_site_fract_x
 _atom_site_fract_y
 _atom_site_fract_z
 _atom_site_occupancy
  Y  Y0  1  0.000059  0.000028  0.250000  1
  Y  Y1  1  0.999958  0.999977  0.750000  1
  Y  Y2  1  0.508907  0.491066  0.250000  1
  Y  Y3  1  0.508908  0.017843  0.250000  1
  Y  Y4  1  0.982153  0.491079  0.250000  1
  Ho  Ho5  1  0.017988  0.508990  0.750000  1
  Er  Er6  1  0.491139  0.508931  0.750000  1
  Er  Er7  1  0.491142  0.982216  0.750000  1
  Si  Si8  1  0.167193  0.833005  0.500857  1
  Si  Si9  1  0.167192  0.334186  0.500856  1
  Si  Si10  1  0.665721  0.832860  0.501013  1
  Si  Si11  1  0.832724  0.167146  0.501239  1
  Si  Si12  1  0.832725  0.665580  0.501239  1
  Si  Si13  1  0.334463  0.167233  0.501281  1
  Si  Si14  1  0.832724  0.167146  0.998761  1
  Si  Si15  1  0.832725  0.665580  0.998761  1
  Si  Si16  1  0.334463  0.167233  0.998719  1
  Si  Si17  1  0.167193  0.833005  0.999143  1
  Si  Si18  1  0.167192  0.334186  0.999144  1
  Si  Si19  1  0.665721  0.832860  0.998987  1
  Rh  Rh20  1  0.333493  0.666743  0.469327  1
  Rh  Rh21  1  0.666362  0.333181  0.536887  1
  Rh  Rh22  1  0.666362  0.333181  0.963113  1
  Rh  Rh23  1  0.333493  0.666743  0.030673  1
