# generated using pymatgen
data_Mg(Zn4Pt)5
_symmetry_space_group_name_H-M   'P 1'
_cell_length_a   7.95792497
_cell_length_b   7.99227122
_cell_length_c   7.94887882
_cell_angle_alpha   70.84004657
_cell_angle_beta   70.76229257
_cell_angle_gamma   109.53894423
_symmetry_Int_Tables_number   1
_chemical_formula_structural   Mg(Zn4Pt)5
_chemical_formula_sum   'Mg1 Zn20 Pt5'
_cell_volume   391.45412287
_cell_formula_units_Z   1
loop_
 _symmetry_equiv_pos_site_id
 _symmetry_equiv_pos_as_xyz
  1  'x, y, z'
loop_
 _atom_site_type_symbol
 _atom_site_label
 _atom_site_symmetry_multiplicity
 _atom_site_fract_x
 _atom_site_fract_y
 _atom_site_fract_z
 _atom_site_occupancy
  Mg  Mg0  1  0.996048  0.353893  0.646085  1
  Zn  Zn1  1  0.004961  0.994629  0.790026  1
  Zn  Zn2  1  0.775649  0.775868  0.223942  1
  Zn  Zn3  1  0.210802  0.000294  0.995352  1
  Zn  Zn4  1  0.000261  0.221517  0.005919  1
  Zn  Zn5  1  0.274502  0.259662  0.387252  1
  Zn  Zn6  1  0.013850  0.739977  0.645037  1
  Zn  Zn7  1  0.724231  0.998360  0.648688  1
  Zn  Zn8  1  0.658781  0.643571  0.627111  1
  Zn  Zn9  1  0.379101  0.648524  0.338278  1
  Zn  Zn10  1  0.646987  0.373912  0.357418  1
  Zn  Zn11  1  0.351798  0.740772  0.987083  1
  Zn  Zn12  1  0.603458  0.254325  0.732081  1
  Zn  Zn13  1  0.350432  0.998345  0.274085  1
  Zn  Zn14  1  0.721093  0.352887  0.993214  1
  Zn  Zn15  1  0.013073  0.358026  0.271129  1
  Zn  Zn16  1  0.273313  0.628089  0.728800  1
  Zn  Zn17  1  0.640588  0.646439  0.994848  1
  Zn  Zn18  1  0.006906  0.652234  0.351172  1
  Zn  Zn19  1  0.645720  0.998238  0.353447  1
  Zn  Zn20  1  0.359580  0.355654  0.004279  1
  Pt  Pt21  1  0.368642  0.000817  0.630782  1
  Pt  Pt22  1  0.997179  0.001722  0.344762  1
  Pt  Pt23  1  0.342576  0.361558  0.655310  1
  Pt  Pt24  1  0.658615  0.002703  0.999490  1
  Pt  Pt25  1  0.981855  0.637985  0.014416  1
