# generated using pymatgen
data_TmZr(SiRh2)4
_symmetry_space_group_name_H-M   'P 1'
_cell_length_a   4.12086700
_cell_length_b   8.98894200
_cell_length_c   11.19630400
_cell_angle_alpha   90.00000000
_cell_angle_beta   90.00000000
_cell_angle_gamma   90.00000000
_symmetry_Int_Tables_number   1
_chemical_formula_structural   TmZr(SiRh2)4
_chemical_formula_sum   'Tm2 Zr2 Si8 Rh16'
_cell_volume   414.73611777
_cell_formula_units_Z   2
loop_
 _symmetry_equiv_pos_site_id
 _symmetry_equiv_pos_as_xyz
  1  'x, y, z'
loop_
 _atom_site_type_symbol
 _atom_site_label
 _atom_site_symmetry_multiplicity
 _atom_site_fract_x
 _atom_site_fract_y
 _atom_site_fract_z
 _atom_site_occupancy
  Tm  Tm0  1  0.750000  0.853532  0.175636  1
  Tm  Tm1  1  0.750000  0.646468  0.675636  1
  Zr  Zr2  1  0.250000  0.145602  0.824629  1
  Zr  Zr3  1  0.250000  0.354398  0.324629  1
  Si  Si4  1  0.250000  0.410036  0.637524  1
  Si  Si5  1  0.250000  0.089964  0.137524  1
  Si  Si6  1  0.750000  0.587411  0.362603  1
  Si  Si7  1  0.750000  0.912589  0.862603  1
  Si  Si8  1  0.250000  0.616967  0.057710  1
  Si  Si9  1  0.250000  0.883033  0.557710  1
  Si  Si10  1  0.750000  0.385325  0.940933  1
  Si  Si11  1  0.750000  0.114675  0.440933  1
  Rh  Rh12  1  0.250000  0.612962  0.501910  1
  Rh  Rh13  1  0.250000  0.887038  0.001910  1
  Rh  Rh14  1  0.750000  0.381067  0.496503  1
  Rh  Rh15  1  0.750000  0.118933  0.996503  1
  Rh  Rh16  1  0.250000  0.683268  0.267878  1
  Rh  Rh17  1  0.250000  0.816732  0.767878  1
  Rh  Rh18  1  0.750000  0.304250  0.733704  1
  Rh  Rh19  1  0.750000  0.195750  0.233704  1
  Rh  Rh20  1  0.250000  0.171043  0.558141  1
  Rh  Rh21  1  0.250000  0.328957  0.058141  1
  Rh  Rh22  1  0.750000  0.828719  0.442532  1
  Rh  Rh23  1  0.750000  0.671281  0.942532  1
  Rh  Rh24  1  0.250000  0.010443  0.341558  1
  Rh  Rh25  1  0.250000  0.489557  0.841558  1
  Rh  Rh26  1  0.750000  0.997694  0.658738  1
  Rh  Rh27  1  0.750000  0.502306  0.158738  1
