# generated using pymatgen
data_La9Nd11(BiPb3)4
_symmetry_space_group_name_H-M   'P 1'
_cell_length_a   8.56834060
_cell_length_b   8.59123154
_cell_length_c   16.16653800
_cell_angle_alpha   90.00822300
_cell_angle_beta   90.10931778
_cell_angle_gamma   90.08937680
_symmetry_Int_Tables_number   1
_chemical_formula_structural   La9Nd11(BiPb3)4
_chemical_formula_sum   'La9 Nd11 Bi4 Pb12'
_cell_volume   1190.05723628
_cell_formula_units_Z   1
loop_
 _symmetry_equiv_pos_site_id
 _symmetry_equiv_pos_as_xyz
  1  'x, y, z'
loop_
 _atom_site_type_symbol
 _atom_site_label
 _atom_site_symmetry_multiplicity
 _atom_site_fract_x
 _atom_site_fract_y
 _atom_site_fract_z
 _atom_site_occupancy
  La  La0  1  0.129416  0.340541  0.618788  1
  La  La1  1  0.468062  0.677131  0.601020  1
  La  La2  1  0.969400  0.823340  0.900308  1
  La  La3  1  0.530939  0.323983  0.100590  1
  La  La4  1  0.032940  0.174496  0.397760  1
  La  La5  1  0.524000  0.321796  0.399881  1
  La  La6  1  0.023254  0.178351  0.099500  1
  La  La7  1  0.476856  0.678614  0.900919  1
  La  La8  1  0.975401  0.822348  0.600210  1
  Nd  Nd9  1  0.627825  0.157593  0.622052  1
  Nd  Nd10  1  0.128931  0.342402  0.878693  1
  Nd  Nd11  1  0.371448  0.842590  0.121615  1
  Nd  Nd12  1  0.872227  0.657017  0.378650  1
  Nd  Nd13  1  0.369373  0.841995  0.377994  1
  Nd  Nd14  1  0.867348  0.658701  0.120791  1
  Nd  Nd15  1  0.632431  0.158245  0.879910  1
  Nd  Nd16  1  0.797757  0.500629  0.752432  1
  Nd  Nd17  1  0.298039  0.999817  0.748088  1
  Nd  Nd18  1  0.201947  0.499612  0.251283  1
  Nd  Nd19  1  0.702536  0.000440  0.248187  1
  Bi  Bi20  1  0.715869  0.965561  0.455538  1
  Bi  Bi21  1  0.214167  0.535838  0.044377  1
  Bi  Bi22  1  0.285719  0.035790  0.955839  1
  Bi  Bi23  1  0.780563  0.466938  0.544495  1
  Pb  Pb24  1  0.288357  0.031743  0.544105  1
  Pb  Pb25  1  0.787320  0.463502  0.955775  1
  Pb  Pb26  1  0.712874  0.963372  0.044584  1
  Pb  Pb27  1  0.214315  0.537654  0.453638  1
  Pb  Pb28  1  0.434448  0.374757  0.751966  1
  Pb  Pb29  1  0.933115  0.124252  0.750522  1
  Pb  Pb30  1  0.566466  0.625474  0.250490  1
  Pb  Pb31  1  0.066101  0.874286  0.248971  1
  Pb  Pb32  1  0.664823  0.853286  0.749889  1
  Pb  Pb33  1  0.164812  0.647547  0.751901  1
  Pb  Pb34  1  0.335581  0.147038  0.248613  1
  Pb  Pb35  1  0.835336  0.353324  0.250624  1
