# generated using pymatgen
data_Er4SnB4Ir9
_symmetry_space_group_name_H-M   'P 1'
_cell_length_a   10.88987231
_cell_length_b   10.88987165
_cell_length_c   10.88987242
_cell_angle_alpha   29.49425842
_cell_angle_beta   29.49426505
_cell_angle_gamma   29.49425558
_symmetry_Int_Tables_number   1
_chemical_formula_structural   Er4SnB4Ir9
_chemical_formula_sum   'Er4 Sn1 B4 Ir9'
_cell_volume   277.07412336
_cell_formula_units_Z   1
loop_
 _symmetry_equiv_pos_site_id
 _symmetry_equiv_pos_as_xyz
  1  'x, y, z'
loop_
 _atom_site_type_symbol
 _atom_site_label
 _atom_site_symmetry_multiplicity
 _atom_site_fract_x
 _atom_site_fract_y
 _atom_site_fract_z
 _atom_site_occupancy
  Er  Er0  1  0.149493  0.149493  0.149493  1
  Er  Er1  1  0.950809  0.950809  0.950809  1
  Er  Er2  1  0.850507  0.850507  0.850507  1
  Er  Er3  1  0.049191  0.049191  0.049191  1
  Sn  Sn4  1  0.500000  0.500000  0.500000  1
  B  B5  1  0.616481  0.616481  0.616481  1
  B  B6  1  0.716712  0.716712  0.716712  1
  B  B7  1  0.383519  0.383519  0.383519  1
  B  B8  1  0.283288  0.283288  0.283288  1
  Ir  Ir9  1  0.403105  0.906401  0.403105  1
  Ir  Ir10  1  0.906401  0.403105  0.403105  1
  Ir  Ir11  1  0.500000  0.500000  0.000000  1
  Ir  Ir12  1  0.500000  0.000000  0.500000  1
  Ir  Ir13  1  0.000000  0.500000  0.500000  1
  Ir  Ir14  1  0.596895  0.093599  0.596895  1
  Ir  Ir15  1  0.596895  0.596895  0.093599  1
  Ir  Ir16  1  0.093599  0.596895  0.596895  1
  Ir  Ir17  1  0.403105  0.403105  0.906401  1
