# generated using pymatgen
data_Tm19LuBi7Sb5
_symmetry_space_group_name_H-M   'P 1'
_cell_length_a   8.07817527
_cell_length_b   9.35301344
_cell_length_c   11.79133603
_cell_angle_alpha   89.93928314
_cell_angle_beta   89.91466241
_cell_angle_gamma   90.05982930
_symmetry_Int_Tables_number   1
_chemical_formula_structural   Tm19LuBi7Sb5
_chemical_formula_sum   'Tm19 Lu1 Bi7 Sb5'
_cell_volume   890.89574288
_cell_formula_units_Z   1
loop_
 _symmetry_equiv_pos_site_id
 _symmetry_equiv_pos_as_xyz
  1  'x, y, z'
loop_
 _atom_site_type_symbol
 _atom_site_label
 _atom_site_symmetry_multiplicity
 _atom_site_fract_x
 _atom_site_fract_y
 _atom_site_fract_z
 _atom_site_occupancy
  Tm  Tm0  1  0.190724  0.563825  0.443752  1
  Tm  Tm1  1  0.689482  0.935260  0.058241  1
  Tm  Tm2  1  0.809120  0.064804  0.559138  1
  Tm  Tm3  1  0.312518  0.435962  0.938734  1
  Tm  Tm4  1  0.808131  0.436414  0.559219  1
  Tm  Tm5  1  0.310404  0.065139  0.941338  1
  Tm  Tm6  1  0.190251  0.935043  0.442206  1
  Tm  Tm7  1  0.689579  0.564526  0.058318  1
  Tm  Tm8  1  0.027683  0.750006  0.988572  1
  Tm  Tm9  1  0.526920  0.747446  0.512514  1
  Tm  Tm10  1  0.973038  0.250257  0.010728  1
  Tm  Tm11  1  0.471334  0.252406  0.490939  1
  Tm  Tm12  1  0.187757  0.745386  0.716250  1
  Tm  Tm13  1  0.681922  0.746754  0.782135  1
  Tm  Tm14  1  0.815949  0.249933  0.283250  1
  Tm  Tm15  1  0.315792  0.250119  0.216653  1
  Tm  Tm16  1  0.854325  0.749878  0.285379  1
  Tm  Tm17  1  0.354229  0.750277  0.215177  1
  Tm  Tm18  1  0.149161  0.253268  0.714272  1
  Lu  Lu19  1  0.641616  0.254051  0.783884  1
  Bi  Bi20  1  0.933277  0.496577  0.825246  1
  Bi  Bi21  1  0.433816  0.003120  0.675274  1
  Bi  Bi22  1  0.066338  0.996759  0.175060  1
  Bi  Bi23  1  0.566335  0.503276  0.324769  1
  Bi  Bi24  1  0.066668  0.503283  0.175183  1
  Bi  Bi25  1  0.566069  0.996832  0.326385  1
  Bi  Bi26  1  0.933453  0.003343  0.824171  1
  Sb  Sb27  1  0.434429  0.495880  0.673112  1
  Sb  Sb28  1  0.905729  0.750356  0.542235  1
  Sb  Sb29  1  0.405225  0.750377  0.958410  1
  Sb  Sb30  1  0.093437  0.249581  0.458216  1
  Sb  Sb31  1  0.595285  0.249861  0.041242  1
