# generated using pymatgen
data_Tb8HoTm11Bi12
_symmetry_space_group_name_H-M   'P 1'
_cell_length_a   8.22689983
_cell_length_b   9.44934911
_cell_length_c   12.03595000
_cell_angle_alpha   89.99760493
_cell_angle_beta   89.97425245
_cell_angle_gamma   89.99164954
_symmetry_Int_Tables_number   1
_chemical_formula_structural   Tb8HoTm11Bi12
_chemical_formula_sum   'Tb8 Ho1 Tm11 Bi12'
_cell_volume   935.66078936
_cell_formula_units_Z   1
loop_
 _symmetry_equiv_pos_site_id
 _symmetry_equiv_pos_as_xyz
  1  'x, y, z'
loop_
 _atom_site_type_symbol
 _atom_site_label
 _atom_site_symmetry_multiplicity
 _atom_site_fract_x
 _atom_site_fract_y
 _atom_site_fract_z
 _atom_site_occupancy
  Tb  Tb0  1  0.186409  0.749995  0.718605  1
  Tb  Tb1  1  0.686314  0.750008  0.781354  1
  Tb  Tb2  1  0.813657  0.249972  0.281445  1
  Tb  Tb3  1  0.313594  0.249868  0.218699  1
  Tb  Tb4  1  0.353632  0.749886  0.216159  1
  Tb  Tb5  1  0.853722  0.750009  0.283863  1
  Tb  Tb6  1  0.646440  0.249789  0.783664  1
  Tb  Tb7  1  0.145990  0.249731  0.716068  1
  Ho  Ho8  1  0.307203  0.435230  0.940559  1
  Tm  Tm9  1  0.024788  0.750001  0.988880  1
  Tm  Tm10  1  0.524934  0.749906  0.511049  1
  Tm  Tm11  1  0.974732  0.249841  0.011159  1
  Tm  Tm12  1  0.475071  0.250009  0.488930  1
  Tm  Tm13  1  0.807056  0.065593  0.559434  1
  Tm  Tm14  1  0.692963  0.934379  0.059478  1
  Tm  Tm15  1  0.192853  0.565700  0.440556  1
  Tm  Tm16  1  0.692743  0.565697  0.059410  1
  Tm  Tm17  1  0.192917  0.934326  0.440567  1
  Tm  Tm18  1  0.307157  0.065440  0.940513  1
  Tm  Tm19  1  0.807088  0.434384  0.559420  1
  Bi  Bi20  1  0.433975  0.003903  0.672387  1
  Bi  Bi21  1  0.933799  0.496037  0.827464  1
  Bi  Bi22  1  0.566149  0.503923  0.327651  1
  Bi  Bi23  1  0.066024  0.995969  0.172458  1
  Bi  Bi24  1  0.566105  0.996003  0.327590  1
  Bi  Bi25  1  0.066119  0.503872  0.172540  1
  Bi  Bi26  1  0.434036  0.496009  0.672344  1
  Bi  Bi27  1  0.933939  0.003853  0.827501  1
  Bi  Bi28  1  0.406784  0.750958  0.957818  1
  Bi  Bi29  1  0.906482  0.749991  0.542351  1
  Bi  Bi30  1  0.593783  0.249696  0.042451  1
  Bi  Bi31  1  0.093538  0.250021  0.457636  1
