# generated using pymatgen
data_Tb4NdEr5(In2Pd)4
_symmetry_space_group_name_H-M   'P 1'
_cell_length_a   3.62960500
_cell_length_b   8.18351502
_cell_length_c   18.29796346
_cell_angle_alpha   90.02619181
_cell_angle_beta   90.00000000
_cell_angle_gamma   90.00000000
_symmetry_Int_Tables_number   1
_chemical_formula_structural   Tb4NdEr5(In2Pd)4
_chemical_formula_sum   'Tb4 Nd1 Er5 In8 Pd4'
_cell_volume   543.50301657
_cell_formula_units_Z   1
loop_
 _symmetry_equiv_pos_site_id
 _symmetry_equiv_pos_as_xyz
  1  'x, y, z'
loop_
 _atom_site_type_symbol
 _atom_site_label
 _atom_site_symmetry_multiplicity
 _atom_site_fract_x
 _atom_site_fract_y
 _atom_site_fract_z
 _atom_site_occupancy
  Tb  Tb0  1  0.000000  0.999553  0.999975  1
  Tb  Tb1  1  0.000000  0.739426  0.281791  1
  Tb  Tb2  1  0.000000  0.261165  0.717946  1
  Tb  Tb3  1  0.000000  0.761329  0.782269  1
  Nd  Nd4  1  0.000000  0.500306  0.499562  1
  Er  Er5  1  0.000000  0.239365  0.218372  1
  Er  Er6  1  0.000000  0.617572  0.084727  1
  Er  Er7  1  0.000000  0.381343  0.916128  1
  Er  Er8  1  0.000000  0.880798  0.584211  1
  Er  Er9  1  0.000000  0.119628  0.415192  1
  In  In10  1  0.500000  0.703335  0.934253  1
  In  In11  1  0.500000  0.294586  0.067047  1
  In  In12  1  0.500000  0.800150  0.433103  1
  In  In13  1  0.500000  0.200729  0.566485  1
  In  In14  1  0.500000  0.583242  0.652256  1
  In  In15  1  0.500000  0.416321  0.347225  1
  In  In16  1  0.500000  0.919673  0.150827  1
  In  In17  1  0.500000  0.082218  0.849208  1
  Pd  Pd18  1  0.500000  0.520726  0.195139  1
  Pd  Pd19  1  0.500000  0.475682  0.805431  1
  Pd  Pd20  1  0.500000  0.975963  0.694991  1
  Pd  Pd21  1  0.500000  0.026890  0.303859  1
