# generated using pymatgen
data_CsGdHo9(C2Br9)2
_symmetry_space_group_name_H-M   'P 1'
_cell_length_a   10.85812606
_cell_length_b   10.87555827
_cell_length_c   10.89712300
_cell_angle_alpha   113.23472670
_cell_angle_beta   86.81671072
_cell_angle_gamma   119.92910961
_symmetry_Int_Tables_number   1
_chemical_formula_structural   CsGdHo9(C2Br9)2
_chemical_formula_sum   'Cs1 Gd1 Ho9 C4 Br18'
_cell_volume   1008.50801222
_cell_formula_units_Z   1
loop_
 _symmetry_equiv_pos_site_id
 _symmetry_equiv_pos_as_xyz
  1  'x, y, z'
loop_
 _atom_site_type_symbol
 _atom_site_label
 _atom_site_symmetry_multiplicity
 _atom_site_fract_x
 _atom_site_fract_y
 _atom_site_fract_z
 _atom_site_occupancy
  Cs  Cs0  1  0.500208  0.999621  0.500318  1
  Gd  Gd1  1  0.888299  0.058440  0.999374  1
  Ho  Ho2  1  0.668212  0.718587  0.705083  1
  Ho  Ho3  1  0.282896  0.362814  0.011501  1
  Ho  Ho4  1  0.094763  0.402121  0.299304  1
  Ho  Ho5  1  0.958996  0.035217  0.332834  1
  Ho  Ho6  1  0.906062  0.597715  0.700927  1
  Ho  Ho7  1  0.107593  0.943356  0.000759  1
  Ho  Ho8  1  0.041869  0.964509  0.667230  1
  Ho  Ho9  1  0.332452  0.281031  0.294801  1
  Ho  Ho10  1  0.717807  0.636829  0.988491  1
  C  C11  1  0.157663  0.227127  0.123342  1
  C  C12  1  0.843426  0.772279  0.876652  1
  C  C13  1  0.923405  0.852182  0.795977  1
  C  C14  1  0.077688  0.147279  0.204132  1
  Br  Br15  1  0.455464  0.530933  0.834584  1
  Br  Br16  1  0.376559  0.041465  0.157680  1
  Br  Br17  1  0.782739  0.857266  0.504042  1
  Br  Br18  1  0.844180  0.314675  0.159345  1
  Br  Br19  1  0.545197  0.468725  0.165405  1
  Br  Br20  1  0.218116  0.142092  0.495687  1
  Br  Br21  1  0.312753  0.101145  0.828311  1
  Br  Br22  1  0.686275  0.896665  0.173895  1
  Br  Br23  1  0.969492  0.760695  0.171809  1
  Br  Br24  1  0.934107  0.299261  0.499414  1
  Br  Br25  1  0.033701  0.241043  0.825808  1
  Br  Br26  1  0.066749  0.700871  0.501099  1
  Br  Br27  1  0.260797  0.617949  0.184190  1
  Br  Br28  1  0.739727  0.381689  0.815661  1
  Br  Br29  1  0.641592  0.438205  0.503659  1
  Br  Br30  1  0.156553  0.693229  0.846348  1
  Br  Br31  1  0.616274  0.953794  0.836244  1
  Br  Br32  1  0.358383  0.561191  0.496095  1
