# generated using pymatgen
data_Y14Ho2In6CoOs
_symmetry_space_group_name_H-M   'P 1'
_cell_length_a   10.40673500
_cell_length_b   10.41814244
_cell_length_c   7.07812429
_cell_angle_alpha   90.02843757
_cell_angle_beta   90.00000000
_cell_angle_gamma   119.96378882
_symmetry_Int_Tables_number   1
_chemical_formula_structural   Y14Ho2In6CoOs
_chemical_formula_sum   'Y14 Ho2 In6 Co1 Os1'
_cell_volume   664.83195402
_cell_formula_units_Z   1
loop_
 _symmetry_equiv_pos_site_id
 _symmetry_equiv_pos_as_xyz
  1  'x, y, z'
loop_
 _atom_site_type_symbol
 _atom_site_label
 _atom_site_symmetry_multiplicity
 _atom_site_fract_x
 _atom_site_fract_y
 _atom_site_fract_z
 _atom_site_occupancy
  Y  Y0  1  0.465946  0.931890  0.480867  1
  Y  Y1  1  0.535599  0.464416  0.981061  1
  Y  Y2  1  0.928817  0.464416  0.981061  1
  Y  Y3  1  0.535696  0.071393  0.980975  1
  Y  Y4  1  0.822561  0.178301  0.276169  1
  Y  Y5  1  0.355740  0.178301  0.276169  1
  Y  Y6  1  0.822044  0.644088  0.276527  1
  Y  Y7  1  0.176441  0.822940  0.776091  1
  Y  Y8  1  0.646498  0.822940  0.776091  1
  Y  Y9  1  0.176569  0.353139  0.775808  1
  Y  Y10  1  0.333160  0.666321  0.102951  1
  Y  Y11  1  0.666942  0.333883  0.592623  1
  Y  Y12  1  0.999974  0.999948  0.495342  1
  Y  Y13  1  0.000055  0.000110  0.998128  1
  Ho  Ho14  1  0.465191  0.534799  0.481562  1
  Ho  Ho15  1  0.069609  0.534799  0.481562  1
  In  In16  1  0.162126  0.837541  0.233593  1
  In  In17  1  0.675416  0.837541  0.233593  1
  In  In18  1  0.162415  0.324830  0.233856  1
  In  In19  1  0.836444  0.163273  0.733135  1
  In  In20  1  0.326829  0.163273  0.733135  1
  In  In21  1  0.836520  0.673042  0.733284  1
  Co  Co22  1  0.666648  0.333295  0.207270  1
  Os  Os23  1  0.332759  0.665519  0.703699  1
