# generated using pymatgen
data_Pr3BiF12
_symmetry_space_group_name_H-M   'P 1'
_cell_length_a   4.54781419
_cell_length_b   6.82471723
_cell_length_c   7.24499100
_cell_angle_alpha   90.00000000
_cell_angle_beta   90.00000000
_cell_angle_gamma   89.42508282
_symmetry_Int_Tables_number   1
_chemical_formula_structural   Pr3BiF12
_chemical_formula_sum   'Pr3 Bi1 F12'
_cell_volume   224.85542040
_cell_formula_units_Z   1
loop_
 _symmetry_equiv_pos_site_id
 _symmetry_equiv_pos_as_xyz
  1  'x, y, z'
loop_
 _atom_site_type_symbol
 _atom_site_label
 _atom_site_symmetry_multiplicity
 _atom_site_fract_x
 _atom_site_fract_y
 _atom_site_fract_z
 _atom_site_occupancy
  Pr  Pr0  1  0.936321  0.631540  0.750000  1
  Pr  Pr1  1  0.433450  0.868450  0.250000  1
  Pr  Pr2  1  0.560888  0.133569  0.750000  1
  Bi  Bi3  1  0.055626  0.366875  0.250000  1
  F  F4  1  0.384714  0.165287  0.435536  1
  F  F5  1  0.888862  0.335152  0.563994  1
  F  F6  1  0.114320  0.660065  0.066087  1
  F  F7  1  0.611824  0.836957  0.936340  1
  F  F8  1  0.591875  0.520371  0.250000  1
  F  F9  1  0.074465  0.979804  0.750000  1
  F  F10  1  0.922012  0.021278  0.250000  1
  F  F11  1  0.425925  0.483193  0.750000  1
  F  F12  1  0.384714  0.165287  0.064464  1
  F  F13  1  0.888862  0.335152  0.936006  1
  F  F14  1  0.114320  0.660065  0.433913  1
  F  F15  1  0.611824  0.836957  0.563660  1
