# generated using pymatgen
data_TmAl2(Fe4Tc)2
_symmetry_space_group_name_H-M   'P 1'
_cell_length_a   4.78096640
_cell_length_b   6.49124384
_cell_length_c   6.49124357
_cell_angle_alpha   96.94630191
_cell_angle_beta   111.60852126
_cell_angle_gamma   68.39149628
_symmetry_Int_Tables_number   1
_chemical_formula_structural   TmAl2(Fe4Tc)2
_chemical_formula_sum   'Tm1 Al2 Fe8 Tc2'
_cell_volume   174.10646842
_cell_formula_units_Z   1
loop_
 _symmetry_equiv_pos_site_id
 _symmetry_equiv_pos_as_xyz
  1  'x, y, z'
loop_
 _atom_site_type_symbol
 _atom_site_label
 _atom_site_symmetry_multiplicity
 _atom_site_fract_x
 _atom_site_fract_y
 _atom_site_fract_z
 _atom_site_occupancy
  Tm  Tm0  1  0.000000  0.000000  0.000000  1
  Al  Al1  1  0.710910  0.789090  0.210910  1
  Al  Al2  1  0.289090  0.210910  0.789090  1
  Fe  Fe3  1  0.500000  0.773139  0.773139  1
  Fe  Fe4  1  0.500000  0.226861  0.226861  1
  Fe  Fe5  1  0.500000  0.000000  0.500000  1
  Fe  Fe6  1  0.000000  0.000000  0.500000  1
  Fe  Fe7  1  0.500000  0.500000  0.000000  1
  Fe  Fe8  1  0.000000  0.500000  0.000000  1
  Fe  Fe9  1  0.639982  0.360018  0.639982  1
  Fe  Fe10  1  0.360018  0.639982  0.360018  1
  Tc  Tc11  1  0.000000  0.360906  0.360906  1
  Tc  Tc12  1  0.000000  0.639094  0.639094  1
