# generated using pymatgen
data_Lu6Nb4Ga12Os7
_symmetry_space_group_name_H-M   'P 1'
_cell_length_a   8.97530650
_cell_length_b   8.97530687
_cell_length_c   8.97530600
_cell_angle_alpha   59.99999584
_cell_angle_beta   59.99999446
_cell_angle_gamma   59.99999556
_symmetry_Int_Tables_number   1
_chemical_formula_structural   Lu6Nb4Ga12Os7
_chemical_formula_sum   'Lu6 Nb4 Ga12 Os7'
_cell_volume   511.24940371
_cell_formula_units_Z   1
loop_
 _symmetry_equiv_pos_site_id
 _symmetry_equiv_pos_as_xyz
  1  'x, y, z'
loop_
 _atom_site_type_symbol
 _atom_site_label
 _atom_site_symmetry_multiplicity
 _atom_site_fract_x
 _atom_site_fract_y
 _atom_site_fract_z
 _atom_site_occupancy
  Lu  Lu0  1  0.709412  0.709412  0.290588  1
  Lu  Lu1  1  0.290588  0.709412  0.290588  1
  Lu  Lu2  1  0.709412  0.290588  0.290588  1
  Lu  Lu3  1  0.290588  0.290588  0.709412  1
  Lu  Lu4  1  0.709412  0.290588  0.709412  1
  Lu  Lu5  1  0.290588  0.709412  0.709412  1
  Nb  Nb6  1  0.878415  0.878415  0.364755  1
  Nb  Nb7  1  0.878415  0.364755  0.878415  1
  Nb  Nb8  1  0.364755  0.878415  0.878415  1
  Nb  Nb9  1  0.878415  0.878415  0.878415  1
  Ga  Ga10  1  0.119545  0.119545  0.641363  1
  Ga  Ga11  1  0.119545  0.641363  0.119545  1
  Ga  Ga12  1  0.641363  0.119545  0.119545  1
  Ga  Ga13  1  0.119545  0.119545  0.119545  1
  Ga  Ga14  1  0.661622  0.661622  0.015134  1
  Ga  Ga15  1  0.661622  0.015134  0.661622  1
  Ga  Ga16  1  0.015134  0.661622  0.661622  1
  Ga  Ga17  1  0.661622  0.661622  0.661622  1
  Ga  Ga18  1  0.336086  0.336086  0.991743  1
  Ga  Ga19  1  0.336086  0.991743  0.336086  1
  Ga  Ga20  1  0.991743  0.336086  0.336086  1
  Ga  Ga21  1  0.336086  0.336086  0.336086  1
  Os  Os22  1  0.000000  0.000000  0.000000  1
  Os  Os23  1  0.996733  0.996733  0.503267  1
  Os  Os24  1  0.503267  0.996733  0.503267  1
  Os  Os25  1  0.996733  0.503267  0.503267  1
  Os  Os26  1  0.503267  0.503267  0.996733  1
  Os  Os27  1  0.996733  0.503267  0.996733  1
  Os  Os28  1  0.503267  0.996733  0.996733  1
