# generated using pymatgen
data_Dy2Y4Al24Os5Pt3
_symmetry_space_group_name_H-M   'P 1'
_cell_length_a   8.83119342
_cell_length_b   8.85148190
_cell_length_c   9.57210556
_cell_angle_alpha   90.12058312
_cell_angle_beta   89.74751363
_cell_angle_gamma   119.52991767
_symmetry_Int_Tables_number   1
_chemical_formula_structural   Dy2Y4Al24Os5Pt3
_chemical_formula_sum   'Dy2 Y4 Al24 Os5 Pt3'
_cell_volume   651.03905136
_cell_formula_units_Z   1
loop_
 _symmetry_equiv_pos_site_id
 _symmetry_equiv_pos_as_xyz
  1  'x, y, z'
loop_
 _atom_site_type_symbol
 _atom_site_label
 _atom_site_symmetry_multiplicity
 _atom_site_fract_x
 _atom_site_fract_y
 _atom_site_fract_z
 _atom_site_occupancy
  Dy  Dy0  1  0.194450  0.809380  0.251357  1
  Dy  Dy1  1  0.805550  0.190620  0.748643  1
  Y  Y2  1  0.187962  0.383105  0.250480  1
  Y  Y3  1  0.812038  0.616895  0.749520  1
  Y  Y4  1  0.614019  0.813629  0.252056  1
  Y  Y5  1  0.385981  0.186371  0.747944  1
  Al  Al6  1  0.335218  0.671399  0.029969  1
  Al  Al7  1  0.664782  0.328601  0.970031  1
  Al  Al8  1  0.669363  0.331258  0.528568  1
  Al  Al9  1  0.330637  0.668742  0.471432  1
  Al  Al10  1  0.158157  0.325949  0.574419  1
  Al  Al11  1  0.841843  0.674051  0.425581  1
  Al  Al12  1  0.673101  0.840777  0.575226  1
  Al  Al13  1  0.836780  0.675765  0.077710  1
  Al  Al14  1  0.326899  0.159223  0.424774  1
  Al  Al15  1  0.163220  0.324235  0.922290  1
  Al  Al16  1  0.163950  0.834826  0.575672  1
  Al  Al17  1  0.325897  0.158728  0.076099  1
  Al  Al18  1  0.836050  0.165174  0.424328  1
  Al  Al19  1  0.674103  0.841272  0.923901  1
  Al  Al20  1  0.831501  0.159356  0.077386  1
  Al  Al21  1  0.168499  0.840644  0.922614  1
  Al  Al22  1  0.560686  0.124946  0.249926  1
  Al  Al23  1  0.439314  0.875054  0.750074  1
  Al  Al24  1  0.873908  0.437803  0.252795  1
  Al  Al25  1  0.126092  0.562197  0.747205  1
  Al  Al26  1  0.562844  0.436289  0.249808  1
  Al  Al27  1  0.437156  0.563711  0.750192  1
  Al  Al28  1  0.998866  0.002688  0.250223  1
  Al  Al29  1  0.001134  0.997312  0.749777  1
  Os  Os30  1  0.500000  0.000000  0.000000  1
  Os  Os31  1  0.500000  0.000000  0.500000  1
  Os  Os32  1  0.000000  0.500000  0.500000  1
  Os  Os33  1  0.000000  0.000000  0.000000  1
  Os  Os34  1  0.000000  0.000000  0.500000  1
  Pt  Pt35  1  0.000000  0.500000  0.000000  1
  Pt  Pt36  1  0.500000  0.500000  0.000000  1
  Pt  Pt37  1  0.500000  0.500000  0.500000  1
