# generated using pymatgen
data_La4Cr3TcH20
_symmetry_space_group_name_H-M   'P 1'
_cell_length_a   4.55841070
_cell_length_b   4.79723378
_cell_length_c   11.95865698
_cell_angle_alpha   89.97192014
_cell_angle_beta   90.15491272
_cell_angle_gamma   90.02073926
_symmetry_Int_Tables_number   1
_chemical_formula_structural   La4Cr3TcH20
_chemical_formula_sum   'La4 Cr3 Tc1 H20'
_cell_volume   261.50805803
_cell_formula_units_Z   1
loop_
 _symmetry_equiv_pos_site_id
 _symmetry_equiv_pos_as_xyz
  1  'x, y, z'
loop_
 _atom_site_type_symbol
 _atom_site_label
 _atom_site_symmetry_multiplicity
 _atom_site_fract_x
 _atom_site_fract_y
 _atom_site_fract_z
 _atom_site_occupancy
  La  La0  1  0.262908  0.249250  0.645380  1
  La  La1  1  0.762011  0.249986  0.354524  1
  La  La2  1  0.232936  0.750656  0.147990  1
  La  La3  1  0.735784  0.750467  0.853332  1
  Cr  Cr4  1  0.777332  0.252120  0.078636  1
  Cr  Cr5  1  0.215800  0.749646  0.424647  1
  Cr  Cr6  1  0.716263  0.749392  0.575111  1
  Tc  Tc7  1  0.297766  0.249104  0.920150  1
  H  H8  1  0.491779  0.526920  0.494688  1
  H  H9  1  0.991579  0.971275  0.504674  1
  H  H10  1  0.014185  0.467763  0.995764  1
  H  H11  1  0.504470  0.012114  0.005177  1
  H  H12  1  0.198935  0.995166  0.821984  1
  H  H13  1  0.687925  0.503408  0.176063  1
  H  H14  1  0.301755  0.000036  0.327488  1
  H  H15  1  0.806274  0.502996  0.673140  1
  H  H16  1  0.191250  0.498277  0.821179  1
  H  H17  1  0.688072  0.999204  0.175893  1
  H  H18  1  0.300840  0.499012  0.327448  1
  H  H19  1  0.804477  0.998048  0.672666  1
  H  H20  1  0.595961  0.251387  0.831736  1
  H  H21  1  0.061185  0.251340  0.173108  1
  H  H22  1  0.929941  0.750099  0.332697  1
  H  H23  1  0.431567  0.749327  0.666460  1
  H  H24  1  0.012973  0.034362  0.995726  1
  H  H25  1  0.503036  0.488736  0.004875  1
  H  H26  1  0.491683  0.972122  0.494630  1
  H  H27  1  0.991310  0.527788  0.504831  1
