# generated using pymatgen
data_Pu2NbWN4
_symmetry_space_group_name_H-M   'P 1'
_cell_length_a   3.27676600
_cell_length_b   5.67426100
_cell_length_c   10.81306300
_cell_angle_alpha   90.00000000
_cell_angle_beta   90.00000000
_cell_angle_gamma   90.00000000
_symmetry_Int_Tables_number   1
_chemical_formula_structural   Pu2NbWN4
_chemical_formula_sum   'Pu4 Nb2 W2 N8'
_cell_volume   201.04971892
_cell_formula_units_Z   2
loop_
 _symmetry_equiv_pos_site_id
 _symmetry_equiv_pos_as_xyz
  1  'x, y, z'
loop_
 _atom_site_type_symbol
 _atom_site_label
 _atom_site_symmetry_multiplicity
 _atom_site_fract_x
 _atom_site_fract_y
 _atom_site_fract_z
 _atom_site_occupancy
  Pu  Pu0  1  0.250000  0.077722  0.856454  1
  Pu  Pu1  1  0.250000  0.577722  0.643546  1
  Pu  Pu2  1  0.750000  0.923098  0.141154  1
  Pu  Pu3  1  0.750000  0.423098  0.358846  1
  Nb  Nb4  1  0.250000  0.424998  0.097293  1
  Nb  Nb5  1  0.250000  0.924998  0.402707  1
  W  W6  1  0.750000  0.574167  0.896819  1
  W  W7  1  0.750000  0.074167  0.603181  1
  N  N8  1  0.250000  0.161574  0.244610  1
  N  N9  1  0.250000  0.661574  0.255390  1
  N  N10  1  0.750000  0.838985  0.753306  1
  N  N11  1  0.750000  0.338985  0.746694  1
  N  N12  1  0.250000  0.756841  0.989220  1
  N  N13  1  0.250000  0.256841  0.510780  1
  N  N14  1  0.750000  0.242615  0.002096  1
  N  N15  1  0.750000  0.742615  0.497904  1
