# generated using pymatgen
data_Y3Mg3AgRuAu
_symmetry_space_group_name_H-M   'P 1'
_cell_length_a   7.67788100
_cell_length_b   7.67788126
_cell_length_c   4.01156100
_cell_angle_alpha   90.00000000
_cell_angle_beta   90.00000000
_cell_angle_gamma   120.00000321
_symmetry_Int_Tables_number   1
_chemical_formula_structural   Y3Mg3AgRuAu
_chemical_formula_sum   'Y3 Mg3 Ag1 Ru1 Au1'
_cell_volume   204.79850686
_cell_formula_units_Z   1
loop_
 _symmetry_equiv_pos_site_id
 _symmetry_equiv_pos_as_xyz
  1  'x, y, z'
loop_
 _atom_site_type_symbol
 _atom_site_label
 _atom_site_symmetry_multiplicity
 _atom_site_fract_x
 _atom_site_fract_y
 _atom_site_fract_z
 _atom_site_occupancy
  Y  Y0  1  0.572078  0.965719  0.000000  1
  Y  Y1  1  0.034281  0.606358  0.000000  1
  Y  Y2  1  0.393642  0.427922  0.000000  1
  Mg  Mg3  1  0.251577  0.998139  0.500000  1
  Mg  Mg4  1  0.001861  0.253439  0.500000  1
  Mg  Mg5  1  0.746561  0.748423  0.500000  1
  Ag  Ag6  1  0.666667  0.333333  0.500000  1
  Ru  Ru7  1  0.333333  0.666667  0.500000  1
  Au  Au8  1  0.000000  0.000000  0.000000  1
