# generated using pymatgen
data_Hg2BiRu4PbO14
_symmetry_space_group_name_H-M   'P 1'
_cell_length_a   7.42813830
_cell_length_b   7.33235568
_cell_length_c   7.33235545
_cell_angle_alpha   59.37375864
_cell_angle_beta   59.55957911
_cell_angle_gamma   59.55958766
_symmetry_Int_Tables_number   1
_chemical_formula_structural   Hg2BiRu4PbO14
_chemical_formula_sum   'Hg2 Bi1 Ru4 Pb1 O14'
_cell_volume   279.16340806
_cell_formula_units_Z   1
loop_
 _symmetry_equiv_pos_site_id
 _symmetry_equiv_pos_as_xyz
  1  'x, y, z'
loop_
 _atom_site_type_symbol
 _atom_site_label
 _atom_site_symmetry_multiplicity
 _atom_site_fract_x
 _atom_site_fract_y
 _atom_site_fract_z
 _atom_site_occupancy
  Hg  Hg0  1  0.125000  0.125000  0.625000  1
  Hg  Hg1  1  0.125000  0.625000  0.125000  1
  Bi  Bi2  1  0.125000  0.125000  0.125000  1
  Ru  Ru3  1  0.625000  0.625000  0.125000  1
  Ru  Ru4  1  0.625000  0.125000  0.625000  1
  Ru  Ru5  1  0.125000  0.625000  0.625000  1
  Ru  Ru6  1  0.625000  0.625000  0.625000  1
  Pb  Pb7  1  0.625000  0.125000  0.125000  1
  O  O8  1  0.225762  0.265604  0.265604  1
  O  O9  1  0.024238  0.984396  0.984396  1
  O  O10  1  0.562904  0.947075  0.549267  1
  O  O11  1  0.304556  0.710030  0.300464  1
  O  O12  1  0.562904  0.549267  0.947075  1
  O  O13  1  0.937340  0.563989  0.563989  1
  O  O14  1  0.542702  0.953368  0.953368  1
  O  O15  1  0.945444  0.949536  0.539970  1
  O  O16  1  0.945444  0.539970  0.949536  1
  O  O17  1  0.707298  0.296632  0.296632  1
  O  O18  1  0.312660  0.686011  0.686011  1
  O  O19  1  0.687096  0.302925  0.700733  1
  O  O20  1  0.304556  0.300464  0.710030  1
  O  O21  1  0.687096  0.700733  0.302925  1
