# generated using pymatgen
data_Ho8Er8Cd4PdRu3
_symmetry_space_group_name_H-M   'P 1'
_cell_length_a   9.55990238
_cell_length_b   9.59318287
_cell_length_c   9.62574400
_cell_angle_alpha   59.88765730
_cell_angle_beta   59.77190826
_cell_angle_gamma   59.68345808
_symmetry_Int_Tables_number   1
_chemical_formula_structural   Ho8Er8Cd4PdRu3
_chemical_formula_sum   'Ho8 Er8 Cd4 Pd1 Ru3'
_cell_volume   621.10931832
_cell_formula_units_Z   1
loop_
 _symmetry_equiv_pos_site_id
 _symmetry_equiv_pos_as_xyz
  1  'x, y, z'
loop_
 _atom_site_type_symbol
 _atom_site_label
 _atom_site_symmetry_multiplicity
 _atom_site_fract_x
 _atom_site_fract_y
 _atom_site_fract_z
 _atom_site_occupancy
  Ho  Ho0  1  0.186969  0.188750  0.812141  1
  Ho  Ho1  1  0.815834  0.804710  0.189728  1
  Ho  Ho2  1  0.936568  0.562050  0.562156  1
  Ho  Ho3  1  0.557533  0.938143  0.938117  1
  Ho  Ho4  1  0.557533  0.938143  0.566207  1
  Ho  Ho5  1  0.936568  0.562050  0.939227  1
  Ho  Ho6  1  0.557374  0.566290  0.938168  1
  Ho  Ho7  1  0.936608  0.939183  0.562105  1
  Er  Er8  1  0.345551  0.351879  0.350581  1
  Er  Er9  1  0.345551  0.351879  0.951990  1
  Er  Er10  1  0.345604  0.952513  0.350942  1
  Er  Er11  1  0.963773  0.345254  0.345487  1
  Er  Er12  1  0.815563  0.189344  0.189765  1
  Er  Er13  1  0.186459  0.811394  0.812208  1
  Er  Er14  1  0.186459  0.811394  0.189940  1
  Er  Er15  1  0.815563  0.189344  0.805328  1
  Cd  Cd16  1  0.580732  0.580229  0.580554  1
  Cd  Cd17  1  0.580732  0.580229  0.258484  1
  Cd  Cd18  1  0.580897  0.258355  0.580374  1
  Cd  Cd19  1  0.255732  0.581471  0.581397  1
  Pd  Pd20  1  0.572676  0.142942  0.142190  1
  Ru  Ru21  1  0.146340  0.139131  0.138036  1
  Ru  Ru22  1  0.146340  0.139131  0.576494  1
  Ru  Ru23  1  0.147046  0.576193  0.138381  1
