# generated using pymatgen
data_Tb4Ho(TlSb)2
_symmetry_space_group_name_H-M   'P 1'
_cell_length_a   8.84656100
_cell_length_b   8.84656187
_cell_length_c   8.13962900
_cell_angle_alpha   90.00000000
_cell_angle_beta   90.00000000
_cell_angle_gamma   125.15248895
_symmetry_Int_Tables_number   1
_chemical_formula_structural   Tb4Ho(TlSb)2
_chemical_formula_sum   'Tb8 Ho2 Tl4 Sb4'
_cell_volume   520.84260021
_cell_formula_units_Z   2
loop_
 _symmetry_equiv_pos_site_id
 _symmetry_equiv_pos_as_xyz
  1  'x, y, z'
loop_
 _atom_site_type_symbol
 _atom_site_label
 _atom_site_symmetry_multiplicity
 _atom_site_fract_x
 _atom_site_fract_y
 _atom_site_fract_z
 _atom_site_occupancy
  Tb  Tb0  1  0.031712  0.307775  0.334029  1
  Tb  Tb1  1  0.968288  0.692225  0.665971  1
  Tb  Tb2  1  0.468288  0.192225  0.834029  1
  Tb  Tb3  1  0.807775  0.531712  0.165971  1
  Tb  Tb4  1  0.531712  0.807775  0.165971  1
  Tb  Tb5  1  0.192225  0.468288  0.834029  1
  Tb  Tb6  1  0.692225  0.968288  0.665971  1
  Tb  Tb7  1  0.307775  0.031712  0.334029  1
  Ho  Ho8  1  0.000000  0.000000  0.000000  1
  Ho  Ho9  1  0.500000  0.500000  0.500000  1
  Tl  Tl10  1  0.368088  0.368088  0.130852  1
  Tl  Tl11  1  0.631912  0.631912  0.869148  1
  Tl  Tl12  1  0.131912  0.131912  0.630852  1
  Tl  Tl13  1  0.868088  0.868088  0.369148  1
  Sb  Sb14  1  0.797656  0.202344  0.000000  1
  Sb  Sb15  1  0.202344  0.797656  0.000000  1
  Sb  Sb16  1  0.702344  0.297656  0.500000  1
  Sb  Sb17  1  0.297656  0.702344  0.500000  1
