# generated using pymatgen
data_Li2Y3Si3Pd
_symmetry_space_group_name_H-M   'P 1'
_cell_length_a   6.91019600
_cell_length_b   7.08809526
_cell_length_c   4.13404100
_cell_angle_alpha   90.00000000
_cell_angle_beta   90.00000000
_cell_angle_gamma   119.17316078
_symmetry_Int_Tables_number   1
_chemical_formula_structural   Li2Y3Si3Pd
_chemical_formula_sum   'Li2 Y3 Si3 Pd1'
_cell_volume   176.80062810
_cell_formula_units_Z   1
loop_
 _symmetry_equiv_pos_site_id
 _symmetry_equiv_pos_as_xyz
  1  'x, y, z'
loop_
 _atom_site_type_symbol
 _atom_site_label
 _atom_site_symmetry_multiplicity
 _atom_site_fract_x
 _atom_site_fract_y
 _atom_site_fract_z
 _atom_site_occupancy
  Li  Li0  1  0.772993  0.763323  0.500000  1
  Li  Li1  1  0.009669  0.236677  0.500000  1
  Y  Y2  1  0.991322  0.576516  0.000000  1
  Y  Y3  1  0.574235  0.000000  0.000000  1
  Y  Y4  1  0.414807  0.423484  0.000000  1
  Si  Si5  1  0.328140  0.677184  0.500000  1
  Si  Si6  1  0.650957  0.322816  0.500000  1
  Si  Si7  1  0.020497  0.000000  0.000000  1
  Pd  Pd8  1  0.237381  0.000000  0.500000  1
