# generated using pymatgen
data_Ho4Co11Cu4Ni5P12
_symmetry_space_group_name_H-M   'P 1'
_cell_length_a   3.71071500
_cell_length_b   10.25500271
_cell_length_c   11.90928672
_cell_angle_alpha   90.18678265
_cell_angle_beta   90.00000000
_cell_angle_gamma   90.00000000
_symmetry_Int_Tables_number   1
_chemical_formula_structural   Ho4Co11Cu4Ni5P12
_chemical_formula_sum   'Ho4 Co11 Cu4 Ni5 P12'
_cell_volume   453.18635242
_cell_formula_units_Z   1
loop_
 _symmetry_equiv_pos_site_id
 _symmetry_equiv_pos_as_xyz
  1  'x, y, z'
loop_
 _atom_site_type_symbol
 _atom_site_label
 _atom_site_symmetry_multiplicity
 _atom_site_fract_x
 _atom_site_fract_y
 _atom_site_fract_z
 _atom_site_occupancy
  Ho  Ho0  1  0.250000  0.578688  0.704976  1
  Ho  Ho1  1  0.250000  0.921575  0.204924  1
  Ho  Ho2  1  0.750000  0.421661  0.294649  1
  Ho  Ho3  1  0.750000  0.078283  0.796428  1
  Co  Co4  1  0.250000  0.275684  0.671623  1
  Co  Co5  1  0.750000  0.776341  0.827760  1
  Co  Co6  1  0.750000  0.724838  0.327991  1
  Co  Co7  1  0.250000  0.878208  0.698664  1
  Co  Co8  1  0.250000  0.623154  0.199455  1
  Co  Co9  1  0.750000  0.122261  0.301797  1
  Co  Co10  1  0.750000  0.378770  0.800254  1
  Co  Co11  1  0.250000  0.464799  0.933055  1
  Co  Co12  1  0.250000  0.035346  0.434523  1
  Co  Co13  1  0.750000  0.534969  0.066705  1
  Co  Co14  1  0.750000  0.963574  0.566575  1
  Cu  Cu15  1  0.250000  0.709071  0.991118  1
  Cu  Cu16  1  0.250000  0.790568  0.491242  1
  Cu  Cu17  1  0.750000  0.289320  0.007173  1
  Cu  Cu18  1  0.750000  0.208949  0.509786  1
  Ni  Ni19  1  0.250000  0.407072  0.482848  1
  Ni  Ni20  1  0.250000  0.094210  0.984339  1
  Ni  Ni21  1  0.750000  0.593179  0.516475  1
  Ni  Ni22  1  0.750000  0.904876  0.016380  1
  Ni  Ni23  1  0.250000  0.224736  0.171727  1
  P  P24  1  0.250000  0.428713  0.115278  1
  P  P25  1  0.250000  0.073556  0.616525  1
  P  P26  1  0.750000  0.575031  0.884281  1
  P  P27  1  0.750000  0.926543  0.384166  1
  P  P28  1  0.250000  0.270701  0.857179  1
  P  P29  1  0.250000  0.229128  0.358893  1
  P  P30  1  0.750000  0.729605  0.142439  1
  P  P31  1  0.750000  0.770175  0.643086  1
  P  P32  1  0.250000  0.603772  0.388030  1
  P  P33  1  0.250000  0.895936  0.888065  1
  P  P34  1  0.750000  0.397040  0.611764  1
  P  P35  1  0.750000  0.099668  0.109827  1
