# generated using pymatgen
data_Ba4TiReN6
_symmetry_space_group_name_H-M   'P 1'
_cell_length_a   6.69108912
_cell_length_b   6.69108833
_cell_length_c   13.31896675
_cell_angle_alpha   89.58576215
_cell_angle_beta   90.41423821
_cell_angle_gamma   125.95773665
_symmetry_Int_Tables_number   1
_chemical_formula_structural   Ba4TiReN6
_chemical_formula_sum   'Ba8 Ti2 Re2 N12'
_cell_volume   482.65857042
_cell_formula_units_Z   2
loop_
 _symmetry_equiv_pos_site_id
 _symmetry_equiv_pos_as_xyz
  1  'x, y, z'
loop_
 _atom_site_type_symbol
 _atom_site_label
 _atom_site_symmetry_multiplicity
 _atom_site_fract_x
 _atom_site_fract_y
 _atom_site_fract_z
 _atom_site_occupancy
  Ba  Ba0  1  0.560369  0.439631  0.650303  1
  Ba  Ba1  1  0.439631  0.560369  0.349697  1
  Ba  Ba2  1  0.944415  0.055585  0.132200  1
  Ba  Ba3  1  0.055585  0.944415  0.867800  1
  Ba  Ba4  1  0.862604  0.137396  0.580690  1
  Ba  Ba5  1  0.137396  0.862604  0.419310  1
  Ba  Ba6  1  0.642413  0.357587  0.076609  1
  Ba  Ba7  1  0.357587  0.642413  0.923391  1
  Ti  Ti8  1  0.743514  0.256486  0.834778  1
  Ti  Ti9  1  0.256486  0.743514  0.165222  1
  Re  Re10  1  0.758010  0.241990  0.337201  1
  Re  Re11  1  0.241990  0.758010  0.662799  1
  N  N12  1  0.842191  0.157809  0.945658  1
  N  N13  1  0.157809  0.842191  0.054342  1
  N  N14  1  0.666810  0.333190  0.449545  1
  N  N15  1  0.333190  0.666810  0.550455  1
  N  N16  1  0.589954  0.410046  0.868008  1
  N  N17  1  0.410046  0.589954  0.131992  1
  N  N18  1  0.908388  0.091612  0.373287  1
  N  N19  1  0.091612  0.908388  0.626713  1
  N  N20  1  0.517382  0.974077  0.742825  1
  N  N21  1  0.974077  0.517382  0.257175  1
  N  N22  1  0.482618  0.025923  0.257175  1
  N  N23  1  0.025923  0.482618  0.742825  1
