# generated using pymatgen
data_Pa2NiB8Rh
_symmetry_space_group_name_H-M   'P 1'
_cell_length_a   6.90551284
_cell_length_b   6.90551269
_cell_length_c   6.90551281
_cell_angle_alpha   111.35800490
_cell_angle_beta   113.74349754
_cell_angle_gamma   103.48335451
_symmetry_Int_Tables_number   1
_chemical_formula_structural   Pa2NiB8Rh
_chemical_formula_sum   'Pa4 Ni2 B16 Rh2'
_cell_volume   251.32380971
_cell_formula_units_Z   2
loop_
 _symmetry_equiv_pos_site_id
 _symmetry_equiv_pos_as_xyz
  1  'x, y, z'
loop_
 _atom_site_type_symbol
 _atom_site_label
 _atom_site_symmetry_multiplicity
 _atom_site_fract_x
 _atom_site_fract_y
 _atom_site_fract_z
 _atom_site_occupancy
  Pa  Pa0  1  0.799538  0.799538  0.000000  1
  Pa  Pa1  1  0.200462  0.200462  0.000000  1
  Pa  Pa2  1  0.751553  0.251553  0.500000  1
  Pa  Pa3  1  0.248447  0.748447  0.500000  1
  Ni  Ni4  1  0.500000  0.743767  0.243767  1
  Ni  Ni5  1  0.500000  0.256233  0.756233  1
  B  B6  1  0.271494  0.107299  0.378792  1
  B  B7  1  0.728506  0.892701  0.621208  1
  B  B8  1  0.271494  0.892701  0.164195  1
  B  B9  1  0.728506  0.107299  0.835805  1
  B  B10  1  0.109765  0.733464  0.843229  1
  B  B11  1  0.890235  0.266536  0.156771  1
  B  B12  1  0.109765  0.266536  0.376301  1
  B  B13  1  0.890235  0.733464  0.623699  1
  B  B14  1  0.113421  0.106803  0.528476  1
  B  B15  1  0.578327  0.584944  0.471524  1
  B  B16  1  0.113421  0.584944  0.006618  1
  B  B17  1  0.578327  0.106803  0.993382  1
  B  B18  1  0.886579  0.893197  0.471524  1
  B  B19  1  0.421673  0.415056  0.528476  1
  B  B20  1  0.886580  0.415056  0.993382  1
  B  B21  1  0.421673  0.893198  0.006618  1
  Rh  Rh22  1  0.276913  0.500000  0.776913  1
  Rh  Rh23  1  0.723087  0.500000  0.223087  1
