# generated using pymatgen
data_Ac3Sn3IrRuAu
_symmetry_space_group_name_H-M   'P 1'
_cell_length_a   7.81078400
_cell_length_b   7.81078382
_cell_length_c   4.39939200
_cell_angle_alpha   90.00000000
_cell_angle_beta   90.00000000
_cell_angle_gamma   120.00000305
_symmetry_Int_Tables_number   1
_chemical_formula_structural   Ac3Sn3IrRuAu
_chemical_formula_sum   'Ac3 Sn3 Ir1 Ru1 Au1'
_cell_volume   232.44088738
_cell_formula_units_Z   1
loop_
 _symmetry_equiv_pos_site_id
 _symmetry_equiv_pos_as_xyz
  1  'x, y, z'
loop_
 _atom_site_type_symbol
 _atom_site_label
 _atom_site_symmetry_multiplicity
 _atom_site_fract_x
 _atom_site_fract_y
 _atom_site_fract_z
 _atom_site_occupancy
  Ac  Ac0  1  0.592915  0.013112  0.000000  1
  Ac  Ac1  1  0.986888  0.579804  0.000000  1
  Ac  Ac2  1  0.420196  0.407085  0.000000  1
  Sn  Sn3  1  0.239976  0.007599  0.500000  1
  Sn  Sn4  1  0.992401  0.232376  0.500000  1
  Sn  Sn5  1  0.767624  0.760024  0.500000  1
  Ir  Ir6  1  0.666667  0.333333  0.500000  1
  Ru  Ru7  1  0.000000  0.000000  0.000000  1
  Au  Au8  1  0.333333  0.666667  0.500000  1
