# generated using pymatgen
data_Ti3B2Ru4Rh
_symmetry_space_group_name_H-M   'P 1'
_cell_length_a   3.01676300
_cell_length_b   9.23056048
_cell_length_c   9.29997798
_cell_angle_alpha   89.85448587
_cell_angle_beta   90.00000000
_cell_angle_gamma   90.00000000
_symmetry_Int_Tables_number   1
_chemical_formula_structural   Ti3B2Ru4Rh
_chemical_formula_sum   'Ti6 B4 Ru8 Rh2'
_cell_volume   258.97019560
_cell_formula_units_Z   2
loop_
 _symmetry_equiv_pos_site_id
 _symmetry_equiv_pos_as_xyz
  1  'x, y, z'
loop_
 _atom_site_type_symbol
 _atom_site_label
 _atom_site_symmetry_multiplicity
 _atom_site_fract_x
 _atom_site_fract_y
 _atom_site_fract_z
 _atom_site_occupancy
  Ti  Ti0  1  0.000000  0.827052  0.681658  1
  Ti  Ti1  1  0.000000  0.172948  0.318342  1
  Ti  Ti2  1  0.000000  0.675962  0.168939  1
  Ti  Ti3  1  0.000000  0.324038  0.831061  1
  Ti  Ti4  1  0.000000  0.500000  0.500000  1
  Ti  Ti5  1  0.000000  0.000000  0.000000  1
  B  B6  1  0.000000  0.376364  0.124879  1
  B  B7  1  0.000000  0.623636  0.875121  1
  B  B8  1  0.000000  0.117866  0.627157  1
  B  B9  1  0.000000  0.882134  0.372843  1
  Ru  Ru10  1  0.500000  0.213704  0.074638  1
  Ru  Ru11  1  0.500000  0.786296  0.925362  1
  Ru  Ru12  1  0.500000  0.427247  0.286560  1
  Ru  Ru13  1  0.500000  0.572753  0.713440  1
  Ru  Ru14  1  0.500000  0.923981  0.214296  1
  Ru  Ru15  1  0.500000  0.076019  0.785704  1
  Ru  Ru16  1  0.500000  0.000000  0.500000  1
  Ru  Ru17  1  0.500000  0.500000  0.000000  1
  Rh  Rh18  1  0.500000  0.284888  0.572770  1
  Rh  Rh19  1  0.500000  0.715112  0.427230  1
