# generated using pymatgen
data_Yb4Al6IrPt
_symmetry_space_group_name_H-M   'P 1'
_cell_length_a   5.55732400
_cell_length_b   5.55732421
_cell_length_c   8.81910100
_cell_angle_alpha   90.00000000
_cell_angle_beta   90.00000000
_cell_angle_gamma   119.99999877
_symmetry_Int_Tables_number   1
_chemical_formula_structural   Yb4Al6IrPt
_chemical_formula_sum   'Yb4 Al6 Ir1 Pt1'
_cell_volume   235.87743943
_cell_formula_units_Z   1
loop_
 _symmetry_equiv_pos_site_id
 _symmetry_equiv_pos_as_xyz
  1  'x, y, z'
loop_
 _atom_site_type_symbol
 _atom_site_label
 _atom_site_symmetry_multiplicity
 _atom_site_fract_x
 _atom_site_fract_y
 _atom_site_fract_z
 _atom_site_occupancy
  Yb  Yb0  1  0.666666  0.333334  0.052196  1
  Yb  Yb1  1  0.666666  0.333334  0.444579  1
  Yb  Yb2  1  0.333333  0.666666  0.555421  1
  Yb  Yb3  1  0.333333  0.666666  0.947803  1
  Al  Al4  1  0.162474  0.324950  0.252819  1
  Al  Al5  1  0.162475  0.837526  0.252819  1
  Al  Al6  1  0.675051  0.837526  0.252819  1
  Al  Al7  1  0.324950  0.162473  0.747181  1
  Al  Al8  1  0.837524  0.162473  0.747181  1
  Al  Al9  1  0.837525  0.675050  0.747181  1
  Ir  Ir10  1  0.000000  0.000000  0.500000  1
  Pt  Pt11  1  0.000000  0.000000  0.000000  1
