# generated using pymatgen
data_Eu4Mn3B3CO15
_symmetry_space_group_name_H-M   'P 1'
_cell_length_a   11.06070700
_cell_length_b   11.06070747
_cell_length_c   6.13331600
_cell_angle_alpha   90.00000000
_cell_angle_beta   90.00000000
_cell_angle_gamma   120.00000672
_symmetry_Int_Tables_number   1
_chemical_formula_structural   Eu4Mn3B3CO15
_chemical_formula_sum   'Eu8 Mn6 B6 C2 O30'
_cell_volume   649.81800032
_cell_formula_units_Z   2
loop_
 _symmetry_equiv_pos_site_id
 _symmetry_equiv_pos_as_xyz
  1  'x, y, z'
loop_
 _atom_site_type_symbol
 _atom_site_label
 _atom_site_symmetry_multiplicity
 _atom_site_fract_x
 _atom_site_fract_y
 _atom_site_fract_z
 _atom_site_occupancy
  Eu  Eu0  1  0.693642  0.859568  0.179013  1
  Eu  Eu1  1  0.859568  0.165926  0.679013  1
  Eu  Eu2  1  0.140432  0.834074  0.179013  1
  Eu  Eu3  1  0.666667  0.333333  0.685572  1
  Eu  Eu4  1  0.333333  0.666667  0.185572  1
  Eu  Eu5  1  0.165926  0.306358  0.179013  1
  Eu  Eu6  1  0.834074  0.693642  0.679013  1
  Eu  Eu7  1  0.306358  0.140432  0.679013  1
  Mn  Mn8  1  0.500192  0.499591  0.929722  1
  Mn  Mn9  1  0.499808  0.500409  0.429722  1
  Mn  Mn10  1  0.499591  0.999399  0.429722  1
  Mn  Mn11  1  0.500409  0.000601  0.929722  1
  Mn  Mn12  1  0.000601  0.500192  0.429722  1
  Mn  Mn13  1  0.999399  0.499808  0.929722  1
  B  B14  1  0.555599  0.777857  0.679419  1
  B  B15  1  0.222257  0.444401  0.679419  1
  B  B16  1  0.777857  0.222257  0.179419  1
  B  B17  1  0.222143  0.777743  0.679419  1
  B  B18  1  0.444401  0.222143  0.179419  1
  B  B19  1  0.777743  0.555599  0.179419  1
  C  C20  1  0.000000  0.000000  0.501743  1
  C  C21  1  0.000000  0.000000  0.001743  1
  O  O22  1  0.466844  0.175073  0.980982  1
  O  O23  1  0.865172  0.946382  0.505273  1
  O  O24  1  0.399478  0.320566  0.181297  1
  O  O25  1  0.081210  0.134828  0.505273  1
  O  O26  1  0.175073  0.708228  0.480982  1
  O  O27  1  0.101869  0.478805  0.178533  1
  O  O28  1  0.921088  0.600522  0.181297  1
  O  O29  1  0.679434  0.078912  0.181297  1
  O  O30  1  0.291114  0.461181  0.877322  1
  O  O31  1  0.134828  0.053618  0.005273  1
  O  O32  1  0.170067  0.708886  0.877322  1
  O  O33  1  0.533156  0.824927  0.480982  1
  O  O34  1  0.320566  0.921088  0.681297  1
  O  O35  1  0.824927  0.291772  0.980982  1
  O  O36  1  0.918790  0.865172  0.005273  1
  O  O37  1  0.829933  0.291114  0.377322  1
  O  O38  1  0.291772  0.466844  0.480982  1
  O  O39  1  0.538819  0.829933  0.877322  1
  O  O40  1  0.461181  0.170067  0.377322  1
  O  O41  1  0.600522  0.679434  0.681297  1
  O  O42  1  0.078912  0.399478  0.681297  1
  O  O43  1  0.053618  0.918790  0.505273  1
  O  O44  1  0.521195  0.623064  0.178533  1
  O  O45  1  0.623064  0.101869  0.678533  1
  O  O46  1  0.478805  0.376936  0.678533  1
  O  O47  1  0.708886  0.538819  0.377322  1
  O  O48  1  0.898131  0.521195  0.678533  1
  O  O49  1  0.708228  0.533156  0.980982  1
  O  O50  1  0.946382  0.081210  0.005273  1
  O  O51  1  0.376936  0.898131  0.178533  1
