# generated using pymatgen
data_TmLu3(Sc4Bi3)4
_symmetry_space_group_name_H-M   'P 1'
_cell_length_a   7.85811604
_cell_length_b   9.04646700
_cell_length_c   11.52074105
_cell_angle_alpha   90.00000000
_cell_angle_beta   90.01110613
_cell_angle_gamma   90.00000000
_symmetry_Int_Tables_number   1
_chemical_formula_structural   TmLu3(Sc4Bi3)4
_chemical_formula_sum   'Tm1 Lu3 Sc16 Bi12'
_cell_volume   818.98858377
_cell_formula_units_Z   1
loop_
 _symmetry_equiv_pos_site_id
 _symmetry_equiv_pos_as_xyz
  1  'x, y, z'
loop_
 _atom_site_type_symbol
 _atom_site_label
 _atom_site_symmetry_multiplicity
 _atom_site_fract_x
 _atom_site_fract_y
 _atom_site_fract_z
 _atom_site_occupancy
  Tm  Tm0  1  0.685103  0.250000  0.718337  1
  Lu  Lu1  1  0.185053  0.250000  0.781801  1
  Lu  Lu2  1  0.814811  0.750000  0.218184  1
  Lu  Lu3  1  0.314881  0.750000  0.281776  1
  Sc  Sc4  1  0.019835  0.250000  0.511509  1
  Sc  Sc5  1  0.980269  0.750000  0.488406  1
  Sc  Sc6  1  0.480236  0.750000  0.011626  1
  Sc  Sc7  1  0.519662  0.250000  0.988514  1
  Sc  Sc8  1  0.351675  0.250000  0.280428  1
  Sc  Sc9  1  0.648393  0.750000  0.719574  1
  Sc  Sc10  1  0.148350  0.750000  0.780417  1
  Sc  Sc11  1  0.851666  0.250000  0.219621  1
  Sc  Sc12  1  0.194103  0.067643  0.061914  1
  Sc  Sc13  1  0.805897  0.932320  0.938136  1
  Sc  Sc14  1  0.305976  0.932384  0.561912  1
  Sc  Sc15  1  0.805897  0.567680  0.938136  1
  Sc  Sc16  1  0.694063  0.067654  0.438028  1
  Sc  Sc17  1  0.194103  0.432357  0.061914  1
  Sc  Sc18  1  0.694063  0.432346  0.438028  1
  Sc  Sc19  1  0.305976  0.567616  0.561912  1
  Bi  Bi20  1  0.403402  0.250000  0.534920  1
  Bi  Bi21  1  0.596360  0.750000  0.464759  1
  Bi  Bi22  1  0.096332  0.750000  0.035214  1
  Bi  Bi23  1  0.903832  0.250000  0.964867  1
  Bi  Bi24  1  0.064927  0.008321  0.327508  1
  Bi  Bi25  1  0.935323  0.991467  0.672407  1
  Bi  Bi26  1  0.434838  0.991523  0.827646  1
  Bi  Bi27  1  0.935323  0.508533  0.672407  1
  Bi  Bi28  1  0.564945  0.008289  0.172472  1
  Bi  Bi29  1  0.064927  0.491679  0.327508  1
  Bi  Bi30  1  0.564945  0.491711  0.172472  1
  Bi  Bi31  1  0.434838  0.508477  0.827646  1
