# generated using pymatgen
data_Dy2Tm3Mo2C7
_symmetry_space_group_name_H-M   'P 1'
_cell_length_a   8.37677766
_cell_length_b   8.32905572
_cell_length_c   3.41163400
_cell_angle_alpha   90.00000000
_cell_angle_beta   90.00000000
_cell_angle_gamma   122.35013213
_symmetry_Int_Tables_number   1
_chemical_formula_structural   Dy2Tm3Mo2C7
_chemical_formula_sum   'Dy2 Tm3 Mo2 C7'
_cell_volume   201.08792556
_cell_formula_units_Z   1
loop_
 _symmetry_equiv_pos_site_id
 _symmetry_equiv_pos_as_xyz
  1  'x, y, z'
loop_
 _atom_site_type_symbol
 _atom_site_label
 _atom_site_symmetry_multiplicity
 _atom_site_fract_x
 _atom_site_fract_y
 _atom_site_fract_z
 _atom_site_occupancy
  Dy  Dy0  1  0.074792  0.329346  0.500000  1
  Dy  Dy1  1  0.925208  0.670654  0.500000  1
  Tm  Tm2  1  0.500000  0.500000  0.000000  1
  Tm  Tm3  1  0.662533  0.923768  0.500000  1
  Tm  Tm4  1  0.337467  0.076232  0.500000  1
  Mo  Mo5  1  0.712201  0.288672  0.000000  1
  Mo  Mo6  1  0.287799  0.711328  0.000000  1
  C  C7  1  0.622664  0.377878  0.500000  1
  C  C8  1  0.377336  0.622122  0.500000  1
  C  C9  1  0.000000  0.000000  0.000000  1
  C  C10  1  0.171947  0.164251  0.000000  1
  C  C11  1  0.828053  0.835749  0.000000  1
  C  C12  1  0.000000  0.500000  0.000000  1
  C  C13  1  0.500000  0.000000  0.000000  1
