# generated using pymatgen
data_SrEu3(B8Ru7)2
_symmetry_space_group_name_H-M   'P 1'
_cell_length_a   6.46231000
_cell_length_b   6.46700477
_cell_length_c   10.08625100
_cell_angle_alpha   90.00000000
_cell_angle_beta   90.00000000
_cell_angle_gamma   89.93809720
_symmetry_Int_Tables_number   1
_chemical_formula_structural   SrEu3(B8Ru7)2
_chemical_formula_sum   'Sr1 Eu3 B16 Ru14'
_cell_volume   421.52223387
_cell_formula_units_Z   1
loop_
 _symmetry_equiv_pos_site_id
 _symmetry_equiv_pos_as_xyz
  1  'x, y, z'
loop_
 _atom_site_type_symbol
 _atom_site_label
 _atom_site_symmetry_multiplicity
 _atom_site_fract_x
 _atom_site_fract_y
 _atom_site_fract_z
 _atom_site_occupancy
  Sr  Sr0  1  0.731113  0.889579  0.000000  1
  Eu  Eu1  1  0.113132  0.733431  0.500000  1
  Eu  Eu2  1  0.886142  0.267610  0.500000  1
  Eu  Eu3  1  0.265190  0.116294  0.000000  1
  B  B4  1  0.499830  0.999635  0.588616  1
  B  B5  1  0.499830  0.999635  0.411384  1
  B  B6  1  0.898133  0.275359  0.169218  1
  B  B7  1  0.102268  0.724611  0.830995  1
  B  B8  1  0.500087  0.499781  0.341664  1
  B  B9  1  0.500980  0.499743  0.841082  1
  B  B10  1  0.273644  0.101391  0.667498  1
  B  B11  1  0.102268  0.724611  0.169005  1
  B  B12  1  0.273644  0.101391  0.332502  1
  B  B13  1  0.898133  0.275359  0.830782  1
  B  B14  1  0.500087  0.499781  0.658336  1
  B  B15  1  0.500980  0.499743  0.158918  1
  B  B16  1  0.999846  0.499845  0.911089  1
  B  B17  1  0.726109  0.898019  0.667692  1
  B  B18  1  0.726109  0.898019  0.332308  1
  B  B19  1  0.999846  0.499845  0.088911  1
  Ru  Ru20  1  0.205149  0.395500  0.753861  1
  Ru  Ru21  1  0.403164  0.286928  0.500000  1
  Ru  Ru22  1  0.395035  0.794577  0.255168  1
  Ru  Ru23  1  0.205149  0.395500  0.246139  1
  Ru  Ru24  1  0.595958  0.712602  0.500000  1
  Ru  Ru25  1  0.604836  0.205538  0.744453  1
  Ru  Ru26  1  0.286754  0.595385  0.000000  1
  Ru  Ru27  1  0.712931  0.404237  0.000000  1
  Ru  Ru28  1  0.796371  0.603069  0.247612  1
  Ru  Ru29  1  0.796371  0.603069  0.752388  1
  Ru  Ru30  1  0.395035  0.794577  0.744832  1
  Ru  Ru31  1  0.000519  0.999899  0.250740  1
  Ru  Ru32  1  0.604836  0.205538  0.255547  1
  Ru  Ru33  1  0.000519  0.999899  0.749260  1
