# generated using pymatgen
data_Er3Nb5Fe3Co13P12
_symmetry_space_group_name_H-M   'P 1'
_cell_length_a   12.02018600
_cell_length_b   12.04083324
_cell_length_c   3.65339800
_cell_angle_alpha   90.00000000
_cell_angle_beta   90.00000000
_cell_angle_gamma   119.94329212
_symmetry_Int_Tables_number   1
_chemical_formula_structural   Er3Nb5Fe3Co13P12
_chemical_formula_sum   'Er3 Nb5 Fe3 Co13 P12'
_cell_volume   458.18749451
_cell_formula_units_Z   1
loop_
 _symmetry_equiv_pos_site_id
 _symmetry_equiv_pos_as_xyz
  1  'x, y, z'
loop_
 _atom_site_type_symbol
 _atom_site_label
 _atom_site_symmetry_multiplicity
 _atom_site_fract_x
 _atom_site_fract_y
 _atom_site_fract_z
 _atom_site_occupancy
  Er  Er0  1  0.822913  0.000000  0.500000  1
  Er  Er1  1  0.333821  0.667143  0.000000  1
  Er  Er2  1  0.666679  0.332857  0.000000  1
  Nb  Nb3  1  0.998213  0.817610  0.500000  1
  Nb  Nb4  1  0.180604  0.182390  0.500000  1
  Nb  Nb5  1  0.442574  0.000000  0.000000  1
  Nb  Nb6  1  0.000712  0.445647  0.000000  1
  Nb  Nb7  1  0.555065  0.554353  0.000000  1
  Fe  Fe8  1  0.273398  0.000000  0.500000  1
  Fe  Fe9  1  0.005157  0.280391  0.500000  1
  Fe  Fe10  1  0.724766  0.719609  0.500000  1
  Co  Co11  1  0.628188  0.804919  0.000000  1
  Co  Co12  1  0.189706  0.823640  0.000000  1
  Co  Co13  1  0.178258  0.368819  0.000000  1
  Co  Co14  1  0.366065  0.176360  0.000000  1
  Co  Co15  1  0.809439  0.631181  0.000000  1
  Co  Co16  1  0.823270  0.195081  0.000000  1
  Co  Co17  1  0.517406  0.873347  0.500000  1
  Co  Co18  1  0.125991  0.648248  0.500000  1
  Co  Co19  1  0.353371  0.478076  0.500000  1
  Co  Co20  1  0.477743  0.351752  0.500000  1
  Co  Co21  1  0.875295  0.521924  0.500000  1
  Co  Co22  1  0.644059  0.126653  0.500000  1
  Co  Co23  1  0.003595  0.000000  0.000000  1
  P  P24  1  0.174683  0.000000  0.000000  1
  P  P25  1  0.003189  0.176146  0.000000  1
  P  P26  1  0.827042  0.823854  0.000000  1
  P  P27  1  0.523906  0.690709  0.500000  1
  P  P28  1  0.309001  0.832614  0.500000  1
  P  P29  1  0.169380  0.479600  0.500000  1
  P  P30  1  0.476388  0.167386  0.500000  1
  P  P31  1  0.689781  0.520400  0.500000  1
  P  P32  1  0.833197  0.309291  0.500000  1
  P  P33  1  0.646326  0.000000  0.000000  1
  P  P34  1  0.000094  0.649367  0.000000  1
  P  P35  1  0.350727  0.350633  0.000000  1
