# generated using pymatgen
data_Er2PaCoOs2
_symmetry_space_group_name_H-M   'P 1'
_cell_length_a   5.35573097
_cell_length_b   5.70108772
_cell_length_c   5.70108900
_cell_angle_alpha   118.84883363
_cell_angle_beta   124.36722598
_cell_angle_gamma   89.21932495
_symmetry_Int_Tables_number   1
_chemical_formula_structural   Er2PaCoOs2
_chemical_formula_sum   'Er2 Pa1 Co1 Os2'
_cell_volume   117.51942448
_cell_formula_units_Z   1
loop_
 _symmetry_equiv_pos_site_id
 _symmetry_equiv_pos_as_xyz
  1  'x, y, z'
loop_
 _atom_site_type_symbol
 _atom_site_label
 _atom_site_symmetry_multiplicity
 _atom_site_fract_x
 _atom_site_fract_y
 _atom_site_fract_z
 _atom_site_occupancy
  Er  Er0  1  0.123683  0.873894  0.249790  1
  Er  Er1  1  0.876317  0.126106  0.750210  1
  Pa  Pa2  1  0.000000  0.500000  0.500000  1
  Co  Co3  1  0.500000  0.500000  0.000000  1
  Os  Os4  1  0.500000  0.000000  0.000000  1
  Os  Os5  1  0.500000  0.500000  0.500000  1
