# generated using pymatgen
data_Ho2CoSiI2
_symmetry_space_group_name_H-M   'P 1'
_cell_length_a   4.06434400
_cell_length_b   4.06434213
_cell_length_c   11.65620700
_cell_angle_alpha   90.00000000
_cell_angle_beta   90.00000000
_cell_angle_gamma   120.00001518
_symmetry_Int_Tables_number   1
_chemical_formula_structural   Ho2CoSiI2
_chemical_formula_sum   'Ho2 Co1 Si1 I2'
_cell_volume   166.75103380
_cell_formula_units_Z   1
loop_
 _symmetry_equiv_pos_site_id
 _symmetry_equiv_pos_as_xyz
  1  'x, y, z'
loop_
 _atom_site_type_symbol
 _atom_site_label
 _atom_site_symmetry_multiplicity
 _atom_site_fract_x
 _atom_site_fract_y
 _atom_site_fract_z
 _atom_site_occupancy
  Ho  Ho0  1  0.000000  0.000000  0.846833  1
  Ho  Ho1  1  0.000000  0.000000  0.153247  1
  Co  Co2  1  0.333333  0.666667  0.998920  1
  Si  Si3  1  0.666667  0.333333  0.002610  1
  I  I4  1  0.333333  0.666667  0.333381  1
  I  I5  1  0.666667  0.333333  0.665011  1
