# generated using pymatgen
data_Eu2CdWO7
_symmetry_space_group_name_H-M   'P 1'
_cell_length_a   6.67307261
_cell_length_b   6.50150893
_cell_length_c   7.70816200
_cell_angle_alpha   90.00000000
_cell_angle_beta   90.00000000
_cell_angle_gamma   112.32406393
_symmetry_Int_Tables_number   1
_chemical_formula_structural   Eu2CdWO7
_chemical_formula_sum   'Eu4 Cd2 W2 O14'
_cell_volume   309.35431618
_cell_formula_units_Z   2
loop_
 _symmetry_equiv_pos_site_id
 _symmetry_equiv_pos_as_xyz
  1  'x, y, z'
loop_
 _atom_site_type_symbol
 _atom_site_label
 _atom_site_symmetry_multiplicity
 _atom_site_fract_x
 _atom_site_fract_y
 _atom_site_fract_z
 _atom_site_occupancy
  Eu  Eu0  1  0.513636  0.045699  0.250000  1
  Eu  Eu1  1  0.486364  0.954301  0.750000  1
  Eu  Eu2  1  0.000000  0.000000  0.000000  1
  Eu  Eu3  1  0.000000  0.000000  0.500000  1
  Cd  Cd4  1  0.019573  0.516231  0.250000  1
  Cd  Cd5  1  0.980427  0.483769  0.750000  1
  W  W6  1  0.500000  0.500000  0.000000  1
  W  W7  1  0.500000  0.500000  0.500000  1
  O  O8  1  0.491406  0.440158  0.250000  1
  O  O9  1  0.508594  0.559842  0.750000  1
  O  O10  1  0.875092  0.146448  0.250000  1
  O  O11  1  0.124908  0.853552  0.750000  1
  O  O12  1  0.148149  0.887182  0.250000  1
  O  O13  1  0.851851  0.112818  0.750000  1
  O  O14  1  0.808232  0.568879  0.001208  1
  O  O15  1  0.191768  0.431121  0.998792  1
  O  O16  1  0.191768  0.431121  0.501208  1
  O  O17  1  0.566962  0.815329  0.468285  1
  O  O18  1  0.808232  0.568879  0.498792  1
  O  O19  1  0.433038  0.184671  0.531715  1
  O  O20  1  0.433038  0.184671  0.968285  1
  O  O21  1  0.566962  0.815329  0.031715  1
