# generated using pymatgen
data_Ba3ThIr2O9
_symmetry_space_group_name_H-M   'P 1'
_cell_length_a   6.01023700
_cell_length_b   6.01023732
_cell_length_c   15.03738400
_cell_angle_alpha   90.00000000
_cell_angle_beta   90.00000000
_cell_angle_gamma   120.00000377
_symmetry_Int_Tables_number   1
_chemical_formula_structural   Ba3ThIr2O9
_chemical_formula_sum   'Ba6 Th2 Ir4 O18'
_cell_volume   470.42037486
_cell_formula_units_Z   2
loop_
 _symmetry_equiv_pos_site_id
 _symmetry_equiv_pos_as_xyz
  1  'x, y, z'
loop_
 _atom_site_type_symbol
 _atom_site_label
 _atom_site_symmetry_multiplicity
 _atom_site_fract_x
 _atom_site_fract_y
 _atom_site_fract_z
 _atom_site_occupancy
  Ba  Ba0  1  0.000000  0.000000  0.250000  1
  Ba  Ba1  1  0.000000  0.000000  0.750000  1
  Ba  Ba2  1  0.333333  0.666667  0.605654  1
  Ba  Ba3  1  0.666667  0.333333  0.394346  1
  Ba  Ba4  1  0.666667  0.333333  0.105654  1
  Ba  Ba5  1  0.333333  0.666667  0.894346  1
  Th  Th6  1  0.000000  0.000000  0.500000  1
  Th  Th7  1  0.000000  0.000000  0.000000  1
  Ir  Ir8  1  0.333333  0.666667  0.332670  1
  Ir  Ir9  1  0.666667  0.333333  0.667330  1
  Ir  Ir10  1  0.666667  0.333333  0.832670  1
  Ir  Ir11  1  0.333333  0.666667  0.167330  1
  O  O12  1  0.493055  0.506945  0.250000  1
  O  O13  1  0.493055  0.986110  0.250000  1
  O  O14  1  0.013890  0.506945  0.250000  1
  O  O15  1  0.506945  0.493055  0.750000  1
  O  O16  1  0.506945  0.013890  0.750000  1
  O  O17  1  0.986110  0.493055  0.750000  1
  O  O18  1  0.175532  0.824468  0.089996  1
  O  O19  1  0.175532  0.351065  0.089996  1
  O  O20  1  0.648935  0.824468  0.089996  1
  O  O21  1  0.824468  0.175532  0.910004  1
  O  O22  1  0.824468  0.648935  0.910004  1
  O  O23  1  0.351065  0.175532  0.910004  1
  O  O24  1  0.824468  0.175532  0.589996  1
  O  O25  1  0.824468  0.648935  0.589996  1
  O  O26  1  0.351065  0.175532  0.589996  1
  O  O27  1  0.175532  0.824468  0.410004  1
  O  O28  1  0.175532  0.351065  0.410004  1
  O  O29  1  0.648935  0.824468  0.410004  1
