# generated using pymatgen
data_Mo6Pd3PtN2
_symmetry_space_group_name_H-M   'P 1'
_cell_length_a   6.88150400
_cell_length_b   6.88148287
_cell_length_c   6.88137403
_cell_angle_alpha   90.06485359
_cell_angle_beta   90.00000000
_cell_angle_gamma   90.00000000
_symmetry_Int_Tables_number   1
_chemical_formula_structural   Mo6Pd3PtN2
_chemical_formula_sum   'Mo12 Pd6 Pt2 N4'
_cell_volume   325.86692756
_cell_formula_units_Z   2
loop_
 _symmetry_equiv_pos_site_id
 _symmetry_equiv_pos_as_xyz
  1  'x, y, z'
loop_
 _atom_site_type_symbol
 _atom_site_label
 _atom_site_symmetry_multiplicity
 _atom_site_fract_x
 _atom_site_fract_y
 _atom_site_fract_z
 _atom_site_occupancy
  Mo  Mo0  1  0.626054  0.048509  0.548011  1
  Mo  Mo1  1  0.126054  0.951491  0.451989  1
  Mo  Mo2  1  0.875508  0.549222  0.954090  1
  Mo  Mo3  1  0.375508  0.450778  0.045910  1
  Mo  Mo4  1  0.203092  0.625239  0.702605  1
  Mo  Mo5  1  0.296835  0.125099  0.800738  1
  Mo  Mo6  1  0.796835  0.874901  0.199262  1
  Mo  Mo7  1  0.703092  0.374761  0.297395  1
  Mo  Mo8  1  0.047999  0.201916  0.123871  1
  Mo  Mo9  1  0.949912  0.295435  0.625672  1
  Mo  Mo10  1  0.547999  0.798084  0.876129  1
  Mo  Mo11  1  0.449912  0.704565  0.374328  1
  Pd  Pd12  1  0.809123  0.690575  0.557785  1
  Pd  Pd13  1  0.309123  0.309425  0.442215  1
  Pd  Pd14  1  0.059774  0.558032  0.311455  1
  Pd  Pd15  1  0.440651  0.061782  0.192499  1
  Pd  Pd16  1  0.559774  0.441968  0.688545  1
  Pd  Pd17  1  0.940651  0.938218  0.807501  1
  Pt  Pt18  1  0.690548  0.190244  0.939100  1
  Pt  Pt19  1  0.190548  0.809756  0.060900  1
  N  N20  1  0.375035  0.874952  0.624929  1
  N  N21  1  0.875035  0.125048  0.375071  1
  N  N22  1  0.125469  0.374723  0.875127  1
  N  N23  1  0.625469  0.625277  0.124873  1
