# generated using pymatgen
data_Y6Ni9B4Ir5
_symmetry_space_group_name_H-M   'P 1'
_cell_length_a   5.17919483
_cell_length_b   5.31831113
_cell_length_c   14.63629636
_cell_angle_alpha   90.40490736
_cell_angle_beta   89.78956296
_cell_angle_gamma   120.87607644
_symmetry_Int_Tables_number   1
_chemical_formula_structural   Y6Ni9B4Ir5
_chemical_formula_sum   'Y6 Ni9 B4 Ir5'
_cell_volume   346.00705580
_cell_formula_units_Z   1
loop_
 _symmetry_equiv_pos_site_id
 _symmetry_equiv_pos_as_xyz
  1  'x, y, z'
loop_
 _atom_site_type_symbol
 _atom_site_label
 _atom_site_symmetry_multiplicity
 _atom_site_fract_x
 _atom_site_fract_y
 _atom_site_fract_z
 _atom_site_occupancy
  Y  Y0  1  0.333480  0.664845  0.465780  1
  Y  Y1  1  0.660884  0.326444  0.968740  1
  Y  Y2  1  0.664362  0.330052  0.536244  1
  Y  Y3  1  0.331864  0.661148  0.030303  1
  Y  Y4  1  0.668095  0.335150  0.751659  1
  Y  Y5  1  0.332425  0.665755  0.249064  1
  Ni  Ni6  1  0.000285  0.002292  0.503206  1
  Ni  Ni7  1  0.667972  0.834319  0.652549  1
  Ni  Ni8  1  0.332329  0.166023  0.150062  1
  Ni  Ni9  1  0.836111  0.164090  0.150402  1
  Ni  Ni10  1  0.166141  0.331684  0.844513  1
  Ni  Ni11  1  0.165775  0.838481  0.846829  1
  Ni  Ni12  1  0.165960  0.331015  0.652462  1
  Ni  Ni13  1  0.670669  0.836965  0.845673  1
  Ni  Ni14  1  0.332646  0.167171  0.351798  1
  B  B15  1  0.660469  0.326189  0.249984  1
  B  B16  1  0.334340  0.665297  0.749876  1
  B  B17  1  0.001041  0.004375  0.749503  1
  B  B18  1  0.005041  0.003421  0.250572  1
  Ir  Ir19  1  0.833351  0.165785  0.354329  1
  Ir  Ir20  1  0.833856  0.668379  0.355763  1
  Ir  Ir21  1  0.001825  0.008098  0.995023  1
  Ir  Ir22  1  0.834926  0.668673  0.146822  1
  Ir  Ir23  1  0.166155  0.834353  0.648842  1
