# generated using pymatgen
data_Rb12Na8Zr3GeP12
_symmetry_space_group_name_H-M   'P 1'
_cell_length_a   10.70654804
_cell_length_b   10.70654835
_cell_length_c   15.58832219
_cell_angle_alpha   90.02299873
_cell_angle_beta   90.02299940
_cell_angle_gamma   142.60140609
_symmetry_Int_Tables_number   1
_chemical_formula_structural   Rb12Na8Zr3GeP12
_chemical_formula_sum   'Rb12 Na8 Zr3 Ge1 P12'
_cell_volume   1085.27939434
_cell_formula_units_Z   1
loop_
 _symmetry_equiv_pos_site_id
 _symmetry_equiv_pos_as_xyz
  1  'x, y, z'
loop_
 _atom_site_type_symbol
 _atom_site_label
 _atom_site_symmetry_multiplicity
 _atom_site_fract_x
 _atom_site_fract_y
 _atom_site_fract_z
 _atom_site_occupancy
  Rb  Rb0  1  0.931649  0.601151  0.828859  1
  Rb  Rb1  1  0.550417  0.892603  0.320367  1
  Rb  Rb2  1  0.398849  0.068351  0.171141  1
  Rb  Rb3  1  0.050939  0.389818  0.175988  1
  Rb  Rb4  1  0.891796  0.551290  0.321301  1
  Rb  Rb5  1  0.448710  0.108204  0.678699  1
  Rb  Rb6  1  0.610182  0.949061  0.824012  1
  Rb  Rb7  1  0.278513  0.278249  0.315205  1
  Rb  Rb8  1  0.774607  0.770294  0.185032  1
  Rb  Rb9  1  0.229706  0.225393  0.814968  1
  Rb  Rb10  1  0.721751  0.721487  0.684795  1
  Rb  Rb11  1  0.107397  0.449583  0.679633  1
  Na  Na12  1  0.920834  0.079166  0.000000  1
  Na  Na13  1  0.580429  0.419571  0.500000  1
  Na  Na14  1  0.080371  0.919629  0.000000  1
  Na  Na15  1  0.419334  0.580666  0.500000  1
  Na  Na16  1  0.753301  0.246699  0.000000  1
  Na  Na17  1  0.744260  0.255740  0.500000  1
  Na  Na18  1  0.245536  0.754464  0.000000  1
  Na  Na19  1  0.255872  0.744128  0.500000  1
  Zr  Zr20  1  0.913522  0.086478  0.500000  1
  Zr  Zr21  1  0.419081  0.580919  0.000000  1
  Zr  Zr22  1  0.086583  0.913417  0.500000  1
  Ge  Ge23  1  0.583748  0.416252  0.000000  1
  P  P24  1  0.855048  0.552849  0.091406  1
  P  P25  1  0.447151  0.144952  0.908594  1
  P  P26  1  0.628948  0.941946  0.597092  1
  P  P27  1  0.941797  0.628893  0.597208  1
  P  P28  1  0.132847  0.441598  0.905021  1
  P  P29  1  0.558402  0.867153  0.094979  1
  P  P30  1  0.371107  0.058203  0.402792  1
  P  P31  1  0.199397  0.199262  0.586645  1
  P  P32  1  0.701862  0.692743  0.912711  1
  P  P33  1  0.307257  0.298138  0.087289  1
  P  P34  1  0.058054  0.371052  0.402908  1
  P  P35  1  0.800738  0.800603  0.413355  1
