# generated using pymatgen
data_Sm2Zn3Ga5Au4
_symmetry_space_group_name_H-M   'P 1'
_cell_length_a   4.48695000
_cell_length_b   6.78034800
_cell_length_c   17.56626700
_cell_angle_alpha   90.00000000
_cell_angle_beta   90.00000000
_cell_angle_gamma   90.00000000
_symmetry_Int_Tables_number   1
_chemical_formula_structural   Sm2Zn3Ga5Au4
_chemical_formula_sum   'Sm4 Zn6 Ga10 Au8'
_cell_volume   534.41998943
_cell_formula_units_Z   2
loop_
 _symmetry_equiv_pos_site_id
 _symmetry_equiv_pos_as_xyz
  1  'x, y, z'
loop_
 _atom_site_type_symbol
 _atom_site_label
 _atom_site_symmetry_multiplicity
 _atom_site_fract_x
 _atom_site_fract_y
 _atom_site_fract_z
 _atom_site_occupancy
  Sm  Sm0  1  0.750000  0.986844  0.640196  1
  Sm  Sm1  1  0.250000  0.484676  0.860117  1
  Sm  Sm2  1  0.750000  0.513156  0.140196  1
  Sm  Sm3  1  0.250000  0.015324  0.360117  1
  Zn  Zn4  1  0.250000  0.227047  0.186453  1
  Zn  Zn5  1  0.250000  0.474132  0.431047  1
  Zn  Zn6  1  0.250000  0.025868  0.931047  1
  Zn  Zn7  1  0.250000  0.834465  0.182587  1
  Zn  Zn8  1  0.250000  0.665535  0.682587  1
  Zn  Zn9  1  0.250000  0.272953  0.686453  1
  Ga  Ga10  1  0.250000  0.171231  0.541787  1
  Ga  Ga11  1  0.750000  0.974023  0.070915  1
  Ga  Ga12  1  0.750000  0.169644  0.816995  1
  Ga  Ga13  1  0.250000  0.328769  0.041787  1
  Ga  Ga14  1  0.750000  0.830660  0.459850  1
  Ga  Ga15  1  0.750000  0.669340  0.959850  1
  Ga  Ga16  1  0.750000  0.769256  0.810115  1
  Ga  Ga17  1  0.750000  0.525977  0.570915  1
  Ga  Ga18  1  0.750000  0.330356  0.316995  1
  Ga  Ga19  1  0.750000  0.730744  0.310115  1
  Au  Au20  1  0.250000  0.965632  0.781661  1
  Au  Au21  1  0.750000  0.037002  0.217986  1
  Au  Au22  1  0.250000  0.534368  0.281661  1
  Au  Au23  1  0.250000  0.758898  0.534149  1
  Au  Au24  1  0.250000  0.741102  0.034149  1
  Au  Au25  1  0.750000  0.242894  0.466141  1
  Au  Au26  1  0.750000  0.257106  0.966141  1
  Au  Au27  1  0.750000  0.462998  0.717986  1
