# generated using pymatgen
data_Hf4Sc4Nb11Si16W
_symmetry_space_group_name_H-M   'P 1'
_cell_length_a   6.68104251
_cell_length_b   6.86929058
_cell_length_c   13.10600264
_cell_angle_alpha   90.05102981
_cell_angle_beta   90.08161725
_cell_angle_gamma   90.10531880
_symmetry_Int_Tables_number   1
_chemical_formula_structural   Hf4Sc4Nb11Si16W
_chemical_formula_sum   'Hf4 Sc4 Nb11 Si16 W1'
_cell_volume   601.48531264
_cell_formula_units_Z   1
loop_
 _symmetry_equiv_pos_site_id
 _symmetry_equiv_pos_as_xyz
  1  'x, y, z'
loop_
 _atom_site_type_symbol
 _atom_site_label
 _atom_site_symmetry_multiplicity
 _atom_site_fract_x
 _atom_site_fract_y
 _atom_site_fract_z
 _atom_site_occupancy
  Hf  Hf0  1  0.498822  0.673441  0.594942  1
  Hf  Hf1  1  0.997353  0.827177  0.904909  1
  Hf  Hf2  1  0.500261  0.325769  0.094890  1
  Hf  Hf3  1  0.002831  0.174180  0.405089  1
  Sc  Sc4  1  0.502896  0.327505  0.407731  1
  Sc  Sc5  1  0.002495  0.172218  0.093327  1
  Sc  Sc6  1  0.497447  0.672157  0.906181  1
  Sc  Sc7  1  0.996030  0.828748  0.593034  1
  Nb  Nb8  1  0.165737  0.328177  0.875233  1
  Nb  Nb9  1  0.334912  0.829378  0.124043  1
  Nb  Nb10  1  0.834256  0.671445  0.377914  1
  Nb  Nb11  1  0.336213  0.831411  0.376764  1
  Nb  Nb12  1  0.834888  0.670897  0.124072  1
  Nb  Nb13  1  0.665430  0.169554  0.875130  1
  Nb  Nb14  1  0.164183  0.329844  0.623159  1
  Nb  Nb15  1  0.837597  0.495955  0.749533  1
  Nb  Nb16  1  0.338169  0.004725  0.748064  1
  Nb  Nb17  1  0.162284  0.504032  0.250981  1
  Nb  Nb18  1  0.662239  0.996721  0.249904  1
  Si  Si19  1  0.670791  0.966468  0.462981  1
  Si  Si20  1  0.169057  0.534393  0.038743  1
  Si  Si21  1  0.330761  0.034421  0.960484  1
  Si  Si22  1  0.827563  0.460602  0.540312  1
  Si  Si23  1  0.332834  0.035799  0.540319  1
  Si  Si24  1  0.829851  0.465212  0.960375  1
  Si  Si25  1  0.670343  0.965069  0.039027  1
  Si  Si26  1  0.170732  0.535910  0.460933  1
  Si  Si27  1  0.463004  0.385545  0.748574  1
  Si  Si28  1  0.959676  0.114304  0.748199  1
  Si  Si29  1  0.538713  0.613428  0.250791  1
  Si  Si30  1  0.038841  0.886361  0.250162  1
  Si  Si31  1  0.703443  0.860939  0.749691  1
  Si  Si32  1  0.204832  0.639463  0.749934  1
  Si  Si33  1  0.295954  0.139685  0.249989  1
  Si  Si34  1  0.795232  0.360979  0.250066  1
  W  W35  1  0.664328  0.168088  0.624518  1
