# generated using pymatgen
data_Rb6BaO4
_symmetry_space_group_name_H-M   'P 1'
_cell_length_a   9.67763000
_cell_length_b   9.67763013
_cell_length_c   7.16518400
_cell_angle_alpha   90.00000000
_cell_angle_beta   90.00000000
_cell_angle_gamma   120.00000640
_symmetry_Int_Tables_number   1
_chemical_formula_structural   Rb6BaO4
_chemical_formula_sum   'Rb12 Ba2 O8'
_cell_volume   581.16036090
_cell_formula_units_Z   2
loop_
 _symmetry_equiv_pos_site_id
 _symmetry_equiv_pos_as_xyz
  1  'x, y, z'
loop_
 _atom_site_type_symbol
 _atom_site_label
 _atom_site_symmetry_multiplicity
 _atom_site_fract_x
 _atom_site_fract_y
 _atom_site_fract_z
 _atom_site_occupancy
  Rb  Rb0  1  0.541050  0.458950  0.108973  1
  Rb  Rb1  1  0.541050  0.082099  0.108973  1
  Rb  Rb2  1  0.458950  0.541050  0.608973  1
  Rb  Rb3  1  0.917901  0.458950  0.108973  1
  Rb  Rb4  1  0.458950  0.917901  0.608973  1
  Rb  Rb5  1  0.082099  0.541050  0.608973  1
  Rb  Rb6  1  0.137019  0.862981  0.282554  1
  Rb  Rb7  1  0.137019  0.274038  0.282554  1
  Rb  Rb8  1  0.862981  0.137019  0.782554  1
  Rb  Rb9  1  0.725962  0.862981  0.282554  1
  Rb  Rb10  1  0.862981  0.725962  0.782554  1
  Rb  Rb11  1  0.274038  0.137019  0.782554  1
  Ba  Ba12  1  0.333333  0.666667  0.014616  1
  Ba  Ba13  1  0.666667  0.333333  0.514616  1
  O  O14  1  0.333333  0.666667  0.366123  1
  O  O15  1  0.666667  0.333333  0.866123  1
  O  O16  1  0.811636  0.188364  0.389560  1
  O  O17  1  0.811636  0.623271  0.389560  1
  O  O18  1  0.188364  0.811636  0.889560  1
  O  O19  1  0.376729  0.188364  0.389560  1
  O  O20  1  0.188364  0.376729  0.889560  1
  O  O21  1  0.623271  0.811636  0.889560  1
