# generated using pymatgen
data_ZrSc5CoTe2
_symmetry_space_group_name_H-M   'P 1'
_cell_length_a   3.72104800
_cell_length_b   7.65115560
_cell_length_c   7.85388882
_cell_angle_alpha   119.14972093
_cell_angle_beta   90.00000000
_cell_angle_gamma   90.00000000
_symmetry_Int_Tables_number   1
_chemical_formula_structural   ZrSc5CoTe2
_chemical_formula_sum   'Zr1 Sc5 Co1 Te2'
_cell_volume   195.28339113
_cell_formula_units_Z   1
loop_
 _symmetry_equiv_pos_site_id
 _symmetry_equiv_pos_as_xyz
  1  'x, y, z'
loop_
 _atom_site_type_symbol
 _atom_site_label
 _atom_site_symmetry_multiplicity
 _atom_site_fract_x
 _atom_site_fract_y
 _atom_site_fract_z
 _atom_site_occupancy
  Zr  Zr0  1  0.500000  0.239066  0.000000  1
  Sc  Sc1  1  0.500000  0.769101  0.763189  1
  Sc  Sc2  1  0.500000  0.005912  0.236811  1
  Sc  Sc3  1  0.000000  0.391434  0.385776  1
  Sc  Sc4  1  0.000000  0.005658  0.614224  1
  Sc  Sc5  1  0.000000  0.607449  0.000000  1
  Co  Co6  1  0.000000  0.977656  0.000000  1
  Te  Te7  1  0.500000  0.671254  0.338784  1
  Te  Te8  1  0.500000  0.332469  0.661216  1
