# generated using pymatgen
data_Y6Ge2P11Rh20
_symmetry_space_group_name_H-M   'P 1'
_cell_length_a   13.50701201
_cell_length_b   13.50625372
_cell_length_c   3.89647651
_cell_angle_alpha   90.15457650
_cell_angle_beta   90.02137349
_cell_angle_gamma   120.10787788
_symmetry_Int_Tables_number   1
_chemical_formula_structural   Y6Ge2P11Rh20
_chemical_formula_sum   'Y6 Ge2 P11 Rh20'
_cell_volume   614.92381402
_cell_formula_units_Z   1
loop_
 _symmetry_equiv_pos_site_id
 _symmetry_equiv_pos_as_xyz
  1  'x, y, z'
loop_
 _atom_site_type_symbol
 _atom_site_label
 _atom_site_symmetry_multiplicity
 _atom_site_fract_x
 _atom_site_fract_y
 _atom_site_fract_z
 _atom_site_occupancy
  Y  Y0  1  0.530307  0.715839  0.249094  1
  Y  Y1  1  0.282305  0.812478  0.249160  1
  Y  Y2  1  0.186240  0.469062  0.249258  1
  Y  Y3  1  0.468155  0.285874  0.751253  1
  Y  Y4  1  0.723349  0.189440  0.750018  1
  Y  Y5  1  0.815662  0.532659  0.749947  1
  Ge  Ge6  1  0.528928  0.140203  0.251690  1
  Ge  Ge7  1  0.999228  0.999787  0.999547  1
  P  P8  1  0.864593  0.388916  0.249672  1
  P  P9  1  0.612054  0.475589  0.250823  1
  P  P10  1  0.948019  0.717989  0.251832  1
  P  P11  1  0.281677  0.230000  0.250546  1
  P  P12  1  0.768928  0.050064  0.250106  1
  P  P13  1  0.387020  0.525878  0.750078  1
  P  P14  1  0.473514  0.860519  0.749643  1
  P  P15  1  0.139925  0.613405  0.749674  1
  P  P16  1  0.718277  0.769859  0.749952  1
  P  P17  1  0.229378  0.949520  0.749840  1
  P  P18  1  0.051661  0.281711  0.748458  1
  Rh  Rh19  1  0.333608  0.665712  0.752257  1
  Rh  Rh20  1  0.920956  0.251022  0.248950  1
  Rh  Rh21  1  0.748126  0.669412  0.251578  1
  Rh  Rh22  1  0.325268  0.078495  0.249062  1
  Rh  Rh23  1  0.431312  0.013815  0.750249  1
  Rh  Rh24  1  0.974749  0.416522  0.749952  1
  Rh  Rh25  1  0.582969  0.557586  0.750965  1
  Rh  Rh26  1  0.674622  0.343927  0.245505  1
  Rh  Rh27  1  0.094872  0.197107  0.252128  1
  Rh  Rh28  1  0.804495  0.898593  0.255029  1
  Rh  Rh29  1  0.099453  0.904245  0.254901  1
  Rh  Rh30  1  0.029092  0.584820  0.249383  1
  Rh  Rh31  1  0.415171  0.441882  0.249971  1
  Rh  Rh32  1  0.558217  0.968568  0.250506  1
  Rh  Rh33  1  0.669436  0.918084  0.750988  1
  Rh  Rh34  1  0.080576  0.749147  0.750860  1
  Rh  Rh35  1  0.250184  0.332061  0.749127  1
  Rh  Rh36  1  0.904508  0.802304  0.747983  1
  Rh  Rh37  1  0.194728  0.102668  0.745311  1
  Rh  Rh38  1  0.898439  0.095241  0.744705  1
