# generated using pymatgen
data_Tb11DyOsRu3
_symmetry_space_group_name_H-M   'P 1'
_cell_length_a   6.34168817
_cell_length_b   7.33933011
_cell_length_c   9.22408912
_cell_angle_alpha   90.00998797
_cell_angle_beta   89.92300269
_cell_angle_gamma   90.00335767
_symmetry_Int_Tables_number   1
_chemical_formula_structural   Tb11DyOsRu3
_chemical_formula_sum   'Tb11 Dy1 Os1 Ru3'
_cell_volume   429.32323770
_cell_formula_units_Z   1
loop_
 _symmetry_equiv_pos_site_id
 _symmetry_equiv_pos_as_xyz
  1  'x, y, z'
loop_
 _atom_site_type_symbol
 _atom_site_label
 _atom_site_symmetry_multiplicity
 _atom_site_fract_x
 _atom_site_fract_y
 _atom_site_fract_z
 _atom_site_occupancy
  Tb  Tb0  1  0.169649  0.176585  0.434871  1
  Tb  Tb1  1  0.670165  0.323238  0.564545  1
  Tb  Tb2  1  0.829126  0.822653  0.934778  1
  Tb  Tb3  1  0.669978  0.323566  0.935609  1
  Tb  Tb4  1  0.829160  0.822759  0.565419  1
  Tb  Tb5  1  0.331472  0.676400  0.436193  1
  Tb  Tb6  1  0.169831  0.176706  0.065072  1
  Tb  Tb7  1  0.866218  0.540345  0.249733  1
  Tb  Tb8  1  0.633916  0.039571  0.249849  1
  Tb  Tb9  1  0.132904  0.460743  0.750227  1
  Tb  Tb10  1  0.365237  0.961868  0.750164  1
  Dy  Dy11  1  0.331605  0.676078  0.063587  1
  Os  Os12  1  0.541445  0.614758  0.750480  1
  Ru  Ru13  1  0.040728  0.884849  0.249749  1
  Ru  Ru14  1  0.459303  0.385145  0.249788  1
  Ru  Ru15  1  0.959262  0.114736  0.749938  1
