# generated using pymatgen
data_YLu3(GaRh)4
_symmetry_space_group_name_H-M   'P 1'
_cell_length_a   4.22069100
_cell_length_b   6.78251696
_cell_length_c   7.81667900
_cell_angle_alpha   90.50726593
_cell_angle_beta   90.00000000
_cell_angle_gamma   90.00000000
_symmetry_Int_Tables_number   1
_chemical_formula_structural   YLu3(GaRh)4
_chemical_formula_sum   'Y1 Lu3 Ga4 Rh4'
_cell_volume   223.75858328
_cell_formula_units_Z   1
loop_
 _symmetry_equiv_pos_site_id
 _symmetry_equiv_pos_as_xyz
  1  'x, y, z'
loop_
 _atom_site_type_symbol
 _atom_site_label
 _atom_site_symmetry_multiplicity
 _atom_site_fract_x
 _atom_site_fract_y
 _atom_site_fract_z
 _atom_site_occupancy
  Y  Y0  1  0.750000  0.530595  0.814181  1
  Lu  Lu1  1  0.250000  0.969439  0.313626  1
  Lu  Lu2  1  0.250000  0.467812  0.186901  1
  Lu  Lu3  1  0.750000  0.031683  0.684023  1
  Ga  Ga4  1  0.250000  0.351542  0.565579  1
  Ga  Ga5  1  0.250000  0.852115  0.935295  1
  Ga  Ga6  1  0.750000  0.648681  0.433295  1
  Ga  Ga7  1  0.750000  0.146239  0.065870  1
  Rh  Rh8  1  0.250000  0.232889  0.884395  1
  Rh  Rh9  1  0.250000  0.744087  0.612306  1
  Rh  Rh10  1  0.750000  0.763030  0.119999  1
  Rh  Rh11  1  0.750000  0.261889  0.384531  1
