# generated using pymatgen
data_PaCr3(CuS4)2
_symmetry_space_group_name_H-M   'P 1'
_cell_length_a   7.20749304
_cell_length_b   7.20749348
_cell_length_c   7.20749263
_cell_angle_alpha   59.27578143
_cell_angle_beta   59.27577938
_cell_angle_gamma   59.27577925
_symmetry_Int_Tables_number   1
_chemical_formula_structural   PaCr3(CuS4)2
_chemical_formula_sum   'Pa1 Cr3 Cu2 S8'
_cell_volume   260.38453267
_cell_formula_units_Z   1
loop_
 _symmetry_equiv_pos_site_id
 _symmetry_equiv_pos_as_xyz
  1  'x, y, z'
loop_
 _atom_site_type_symbol
 _atom_site_label
 _atom_site_symmetry_multiplicity
 _atom_site_fract_x
 _atom_site_fract_y
 _atom_site_fract_z
 _atom_site_occupancy
  Pa  Pa0  1  0.000000  0.000000  0.000000  1
  Cr  Cr1  1  0.500000  0.000000  0.000000  1
  Cr  Cr2  1  0.000000  0.000000  0.500000  1
  Cr  Cr3  1  0.000000  0.500000  0.000000  1
  Cu  Cu4  1  0.370069  0.370069  0.370069  1
  Cu  Cu5  1  0.629931  0.629931  0.629931  1
  S  S6  1  0.240019  0.240019  0.240019  1
  S  S7  1  0.764063  0.259418  0.259418  1
  S  S8  1  0.259418  0.259418  0.764063  1
  S  S9  1  0.259418  0.764063  0.259418  1
  S  S10  1  0.759981  0.759981  0.759981  1
  S  S11  1  0.235937  0.740582  0.740582  1
  S  S12  1  0.740582  0.740582  0.235937  1
  S  S13  1  0.740582  0.235937  0.740582  1
