# generated using pymatgen
data_YbDy(Y4Ir3)2
_symmetry_space_group_name_H-M   'P 1'
_cell_length_a   10.92529900
_cell_length_b   10.92529900
_cell_length_c   6.36850200
_cell_angle_alpha   90.00000000
_cell_angle_beta   90.00000000
_cell_angle_gamma   90.00000000
_symmetry_Int_Tables_number   1
_chemical_formula_structural   YbDy(Y4Ir3)2
_chemical_formula_sum   'Yb2 Dy2 Y16 Ir12'
_cell_volume   760.15814347
_cell_formula_units_Z   2
loop_
 _symmetry_equiv_pos_site_id
 _symmetry_equiv_pos_as_xyz
  1  'x, y, z'
loop_
 _atom_site_type_symbol
 _atom_site_label
 _atom_site_symmetry_multiplicity
 _atom_site_fract_x
 _atom_site_fract_y
 _atom_site_fract_z
 _atom_site_occupancy
  Yb  Yb0  1  0.000000  0.000000  0.500000  1
  Yb  Yb1  1  0.000000  0.000000  0.000000  1
  Dy  Dy2  1  0.500000  0.500000  0.000000  1
  Dy  Dy3  1  0.500000  0.500000  0.500000  1
  Y  Y4  1  0.290136  0.087879  0.381173  1
  Y  Y5  1  0.290136  0.912121  0.881173  1
  Y  Y6  1  0.709864  0.087879  0.881173  1
  Y  Y7  1  0.709864  0.912121  0.381173  1
  Y  Y8  1  0.589234  0.791277  0.879668  1
  Y  Y9  1  0.589234  0.208723  0.379668  1
  Y  Y10  1  0.410766  0.791277  0.379668  1
  Y  Y11  1  0.410766  0.208723  0.879668  1
  Y  Y12  1  0.208723  0.410766  0.620332  1
  Y  Y13  1  0.208723  0.589234  0.120332  1
  Y  Y14  1  0.791277  0.410766  0.120332  1
  Y  Y15  1  0.791277  0.589234  0.620332  1
  Y  Y16  1  0.912121  0.709864  0.118827  1
  Y  Y17  1  0.912121  0.290136  0.618827  1
  Y  Y18  1  0.087879  0.709864  0.618827  1
  Y  Y19  1  0.087879  0.290136  0.118827  1
  Ir  Ir20  1  0.842444  0.157556  0.250000  1
  Ir  Ir21  1  0.842444  0.842444  0.750000  1
  Ir  Ir22  1  0.157556  0.157556  0.750000  1
  Ir  Ir23  1  0.157556  0.842444  0.250000  1
  Ir  Ir24  1  0.652922  0.347078  0.750000  1
  Ir  Ir25  1  0.652922  0.652922  0.250000  1
  Ir  Ir26  1  0.347078  0.347078  0.250000  1
  Ir  Ir27  1  0.347078  0.652922  0.750000  1
  Ir  Ir28  1  0.500000  0.000000  0.123141  1
  Ir  Ir29  1  0.500000  0.000000  0.623141  1
  Ir  Ir30  1  0.000000  0.500000  0.876859  1
  Ir  Ir31  1  0.000000  0.500000  0.376859  1
