# generated using pymatgen
data_RbHo2CuSe4
_symmetry_space_group_name_H-M   'P 1'
_cell_length_a   7.46661981
_cell_length_b   7.46661840
_cell_length_c   14.42069100
_cell_angle_alpha   90.00000000
_cell_angle_beta   90.00000000
_cell_angle_gamma   147.77920247
_symmetry_Int_Tables_number   1
_chemical_formula_structural   RbHo2CuSe4
_chemical_formula_sum   'Rb2 Ho4 Cu2 Se8'
_cell_volume   428.65775227
_cell_formula_units_Z   2
loop_
 _symmetry_equiv_pos_site_id
 _symmetry_equiv_pos_as_xyz
  1  'x, y, z'
loop_
 _atom_site_type_symbol
 _atom_site_label
 _atom_site_symmetry_multiplicity
 _atom_site_fract_x
 _atom_site_fract_y
 _atom_site_fract_z
 _atom_site_occupancy
  Rb  Rb0  1  0.110007  0.889993  0.250000  1
  Rb  Rb1  1  0.889993  0.110007  0.750000  1
  Ho  Ho2  1  0.633676  0.366324  0.936301  1
  Ho  Ho3  1  0.366324  0.633676  0.436301  1
  Ho  Ho4  1  0.633676  0.366324  0.563699  1
  Ho  Ho5  1  0.366324  0.633676  0.063699  1
  Cu  Cu6  1  0.163961  0.836039  0.750000  1
  Cu  Cu7  1  0.836039  0.163961  0.250000  1
  Se  Se8  1  0.000000  0.000000  0.500000  1
  Se  Se9  1  0.000000  0.000000  0.000000  1
  Se  Se10  1  0.739650  0.260350  0.107911  1
  Se  Se11  1  0.260350  0.739650  0.892089  1
  Se  Se12  1  0.571253  0.428747  0.750000  1
  Se  Se13  1  0.739650  0.260350  0.392089  1
  Se  Se14  1  0.428747  0.571253  0.250000  1
  Se  Se15  1  0.260350  0.739650  0.607911  1
