# generated using pymatgen
data_Ho16TlIn(AgRh2)2
_symmetry_space_group_name_H-M   'P 1'
_cell_length_a   9.56480202
_cell_length_b   9.58652467
_cell_length_c   9.56480343
_cell_angle_alpha   59.78058847
_cell_angle_beta   59.85954573
_cell_angle_gamma   59.78058965
_symmetry_Int_Tables_number   1
_chemical_formula_structural   Ho16TlIn(AgRh2)2
_chemical_formula_sum   'Ho16 Tl1 In1 Ag2 Rh4'
_cell_volume   617.43310036
_cell_formula_units_Z   1
loop_
 _symmetry_equiv_pos_site_id
 _symmetry_equiv_pos_as_xyz
  1  'x, y, z'
loop_
 _atom_site_type_symbol
 _atom_site_label
 _atom_site_symmetry_multiplicity
 _atom_site_fract_x
 _atom_site_fract_y
 _atom_site_fract_z
 _atom_site_occupancy
  Ho  Ho0  1  0.190614  0.183395  0.813275  1
  Ho  Ho1  1  0.602564  0.600120  0.197612  1
  Ho  Ho2  1  0.438038  0.060967  0.438038  1
  Ho  Ho3  1  0.439402  0.437997  0.059883  1
  Ho  Ho4  1  0.814829  0.187656  0.814829  1
  Ho  Ho5  1  0.188362  0.811636  0.188362  1
  Ho  Ho6  1  0.436735  0.062142  0.060991  1
  Ho  Ho7  1  0.192239  0.812887  0.813873  1
  Ho  Ho8  1  0.059098  0.440225  0.059098  1
  Ho  Ho9  1  0.813873  0.812887  0.192239  1
  Ho  Ho10  1  0.197612  0.600120  0.602564  1
  Ho  Ho11  1  0.059883  0.437997  0.439402  1
  Ho  Ho12  1  0.060991  0.062142  0.436735  1
  Ho  Ho13  1  0.813275  0.183395  0.190614  1
  Ho  Ho14  1  0.602166  0.197468  0.602166  1
  Ho  Ho15  1  0.600111  0.598154  0.600111  1
  Tl  Tl16  1  0.830747  0.835811  0.830747  1
  In  In17  1  0.828385  0.507086  0.828385  1
  Ag  Ag18  1  0.832036  0.833673  0.498712  1
  Ag  Ag19  1  0.498712  0.833673  0.832036  1
  Rh  Rh20  1  0.393393  0.820875  0.393393  1
  Rh  Rh21  1  0.392636  0.392434  0.392636  1
  Rh  Rh22  1  0.821786  0.393632  0.392514  1
  Rh  Rh23  1  0.392514  0.393632  0.821786  1
