# generated using pymatgen
data_Y4AlGa17Ir6
_symmetry_space_group_name_H-M   'P 1'
_cell_length_a   7.59421720
_cell_length_b   7.59421663
_cell_length_c   9.50192600
_cell_angle_alpha   89.98886104
_cell_angle_beta   89.98885193
_cell_angle_gamma   119.85119359
_symmetry_Int_Tables_number   1
_chemical_formula_structural   Y4AlGa17Ir6
_chemical_formula_sum   'Y4 Al1 Ga17 Ir6'
_cell_volume   475.28871225
_cell_formula_units_Z   1
loop_
 _symmetry_equiv_pos_site_id
 _symmetry_equiv_pos_as_xyz
  1  'x, y, z'
loop_
 _atom_site_type_symbol
 _atom_site_label
 _atom_site_symmetry_multiplicity
 _atom_site_fract_x
 _atom_site_fract_y
 _atom_site_fract_z
 _atom_site_occupancy
  Y  Y0  1  0.998972  0.669015  0.249858  1
  Y  Y1  1  0.001836  0.329624  0.749526  1
  Y  Y2  1  0.669015  0.998972  0.249858  1
  Y  Y3  1  0.329624  0.001836  0.749526  1
  Al  Al4  1  0.336476  0.336476  0.950680  1
  Ga  Ga5  1  0.126807  0.126807  0.249080  1
  Ga  Ga6  1  0.871539  0.871539  0.749021  1
  Ga  Ga7  1  0.998636  0.334412  0.080043  1
  Ga  Ga8  1  0.999847  0.664730  0.918380  1
  Ga  Ga9  1  0.999352  0.664355  0.581309  1
  Ga  Ga10  1  0.334511  0.999822  0.418177  1
  Ga  Ga11  1  0.999822  0.334511  0.418177  1
  Ga  Ga12  1  0.664355  0.999352  0.581309  1
  Ga  Ga13  1  0.664730  0.999847  0.918380  1
  Ga  Ga14  1  0.334412  0.998636  0.080043  1
  Ga  Ga15  1  0.331971  0.331971  0.563397  1
  Ga  Ga16  1  0.668167  0.668167  0.434072  1
  Ga  Ga17  1  0.672352  0.672352  0.066009  1
  Ga  Ga18  1  0.340571  0.548004  0.249733  1
  Ga  Ga19  1  0.655330  0.450539  0.750158  1
  Ga  Ga20  1  0.548004  0.340571  0.249733  1
  Ga  Ga21  1  0.450539  0.655330  0.750158  1
  Ir  Ir22  1  0.669237  0.328591  0.999116  1
  Ir  Ir23  1  0.328591  0.669237  0.999116  1
  Ir  Ir24  1  0.328491  0.671715  0.499559  1
  Ir  Ir25  1  0.671715  0.328491  0.499559  1
  Ir  Ir26  1  0.005217  0.005217  0.996877  1
  Ir  Ir27  1  0.999878  0.999878  0.499144  1
