# generated using pymatgen
data_Pr3YErP12Ru19
_symmetry_space_group_name_H-M   'P 1'
_cell_length_a   12.60890300
_cell_length_b   12.60890385
_cell_length_c   4.01420000
_cell_angle_alpha   90.00000000
_cell_angle_beta   90.00000000
_cell_angle_gamma   120.00000040
_symmetry_Int_Tables_number   1
_chemical_formula_structural   Pr3YErP12Ru19
_chemical_formula_sum   'Pr3 Y1 Er1 P12 Ru19'
_cell_volume   552.69339317
_cell_formula_units_Z   1
loop_
 _symmetry_equiv_pos_site_id
 _symmetry_equiv_pos_as_xyz
  1  'x, y, z'
loop_
 _atom_site_type_symbol
 _atom_site_label
 _atom_site_symmetry_multiplicity
 _atom_site_fract_x
 _atom_site_fract_y
 _atom_site_fract_z
 _atom_site_occupancy
  Pr  Pr0  1  0.183845  0.183859  0.500000  1
  Pr  Pr1  1  0.816141  0.999986  0.500000  1
  Pr  Pr2  1  0.000014  0.816155  0.500000  1
  Y  Y3  1  0.333333  0.666667  0.000000  1
  Er  Er4  1  0.666667  0.333333  0.000000  1
  P  P5  1  0.811067  0.811066  0.000000  1
  P  P6  1  0.188934  0.000001  0.000000  1
  P  P7  1  0.999999  0.188933  0.000000  1
  P  P8  1  0.174024  0.478824  0.500000  1
  P  P9  1  0.521176  0.695200  0.500000  1
  P  P10  1  0.304800  0.825976  0.500000  1
  P  P11  1  0.695112  0.520815  0.500000  1
  P  P12  1  0.825703  0.304888  0.500000  1
  P  P13  1  0.479185  0.174297  0.500000  1
  P  P14  1  0.374223  0.374257  0.000000  1
  P  P15  1  0.625743  0.999966  0.000000  1
  P  P16  1  0.000034  0.625777  0.000000  1
  Ru  Ru17  1  0.553727  0.553713  0.000000  1
  Ru  Ru18  1  0.446287  0.000014  0.000000  1
  Ru  Ru19  1  0.999986  0.446273  0.000000  1
  Ru  Ru20  1  0.712423  0.712415  0.500000  1
  Ru  Ru21  1  0.287585  0.000008  0.500000  1
  Ru  Ru22  1  0.999992  0.287577  0.500000  1
  Ru  Ru23  1  0.185286  0.381452  0.000000  1
  Ru  Ru24  1  0.618548  0.803834  0.000000  1
  Ru  Ru25  1  0.196166  0.814714  0.000000  1
  Ru  Ru26  1  0.803684  0.618209  0.000000  1
  Ru  Ru27  1  0.814525  0.196316  0.000000  1
  Ru  Ru28  1  0.381791  0.185475  0.000000  1
  Ru  Ru29  1  0.367956  0.493509  0.500000  1
  Ru  Ru30  1  0.506491  0.874447  0.500000  1
  Ru  Ru31  1  0.125553  0.632044  0.500000  1
  Ru  Ru32  1  0.873969  0.506057  0.500000  1
  Ru  Ru33  1  0.632087  0.126031  0.500000  1
  Ru  Ru34  1  0.493943  0.367913  0.500000  1
  Ru  Ru35  1  0.000000  0.000000  0.000000  1
