# generated using pymatgen
data_LaPr2Hg3Pd2Rh
_symmetry_space_group_name_H-M   'P 1'
_cell_length_a   7.80004555
_cell_length_b   7.82112619
_cell_length_c   4.02418800
_cell_angle_alpha   90.00000000
_cell_angle_beta   90.00000000
_cell_angle_gamma   119.47156664
_symmetry_Int_Tables_number   1
_chemical_formula_structural   LaPr2Hg3Pd2Rh
_chemical_formula_sum   'La1 Pr2 Hg3 Pd2 Rh1'
_cell_volume   213.72894148
_cell_formula_units_Z   1
loop_
 _symmetry_equiv_pos_site_id
 _symmetry_equiv_pos_as_xyz
  1  'x, y, z'
loop_
 _atom_site_type_symbol
 _atom_site_label
 _atom_site_symmetry_multiplicity
 _atom_site_fract_x
 _atom_site_fract_y
 _atom_site_fract_z
 _atom_site_occupancy
  La  La0  1  0.411480  0.397409  0.500000  1
  Pr  Pr1  1  0.604055  0.010869  0.500000  1
  Pr  Pr2  1  0.988944  0.592960  0.500000  1
  Hg  Hg3  1  0.740109  0.742619  0.000000  1
  Hg  Hg4  1  0.259856  0.994738  0.000000  1
  Hg  Hg5  1  0.000287  0.262249  0.000000  1
  Pd  Pd6  1  0.332782  0.664715  0.000000  1
  Pd  Pd7  1  0.000607  0.000616  0.500000  1
  Rh  Rh8  1  0.661881  0.333827  0.000000  1
