# generated using pymatgen
data_YbY(Co3Si2)2
_symmetry_space_group_name_H-M   'P 1'
_cell_length_a   6.26630100
_cell_length_b   6.26630031
_cell_length_c   6.26630078
_cell_angle_alpha   130.27265983
_cell_angle_beta   114.25204136
_cell_angle_gamma   86.72220712
_symmetry_Int_Tables_number   1
_chemical_formula_structural   YbY(Co3Si2)2
_chemical_formula_sum   'Yb1 Y1 Co6 Si4'
_cell_volume   163.30976755
_cell_formula_units_Z   1
loop_
 _symmetry_equiv_pos_site_id
 _symmetry_equiv_pos_as_xyz
  1  'x, y, z'
loop_
 _atom_site_type_symbol
 _atom_site_label
 _atom_site_symmetry_multiplicity
 _atom_site_fract_x
 _atom_site_fract_y
 _atom_site_fract_z
 _atom_site_occupancy
  Yb  Yb0  1  0.250000  0.535725  0.285725  1
  Y  Y1  1  0.750000  0.463156  0.713156  1
  Co  Co2  1  0.999102  0.999765  0.498868  1
  Co  Co3  1  0.500898  0.999765  0.000663  1
  Co  Co4  1  0.719707  0.000185  0.719901  1
  Co  Co5  1  0.219715  0.500194  0.719901  1
  Co  Co6  1  0.280285  0.000185  0.280479  1
  Co  Co7  1  0.780293  0.500194  0.280479  1
  Si  Si8  1  0.081127  0.880365  0.799238  1
  Si  Si9  1  0.921257  0.122434  0.201176  1
  Si  Si10  1  0.578743  0.779920  0.201176  1
  Si  Si11  1  0.418873  0.218110  0.799238  1
