# generated using pymatgen
data_Pr2BeSiI
_symmetry_space_group_name_H-M   'P 1'
_cell_length_a   3.99609200
_cell_length_b   3.99609270
_cell_length_c   17.98427300
_cell_angle_alpha   90.00000000
_cell_angle_beta   90.00000000
_cell_angle_gamma   119.99999418
_symmetry_Int_Tables_number   1
_chemical_formula_structural   Pr2BeSiI
_chemical_formula_sum   'Pr4 Be2 Si2 I2'
_cell_volume   248.71076110
_cell_formula_units_Z   2
loop_
 _symmetry_equiv_pos_site_id
 _symmetry_equiv_pos_as_xyz
  1  'x, y, z'
loop_
 _atom_site_type_symbol
 _atom_site_label
 _atom_site_symmetry_multiplicity
 _atom_site_fract_x
 _atom_site_fract_y
 _atom_site_fract_z
 _atom_site_occupancy
  Pr  Pr0  1  0.000000  0.000000  0.612168  1
  Pr  Pr1  1  0.000000  0.000000  0.387153  1
  Pr  Pr2  1  0.000000  0.000000  0.112168  1
  Pr  Pr3  1  0.000000  0.000000  0.887153  1
  Be  Be4  1  0.666667  0.333333  0.501804  1
  Be  Be5  1  0.333333  0.666667  0.001804  1
  Si  Si6  1  0.666667  0.333333  0.998758  1
  Si  Si7  1  0.333333  0.666667  0.498758  1
  I  I8  1  0.666667  0.333333  0.250117  1
  I  I9  1  0.333333  0.666667  0.750117  1
