# generated using pymatgen
data_Tb7Dy5Ir4
_symmetry_space_group_name_H-M   'P 1'
_cell_length_a   6.39577623
_cell_length_b   7.27224919
_cell_length_c   9.28758510
_cell_angle_alpha   89.99585939
_cell_angle_beta   90.01637200
_cell_angle_gamma   90.02617283
_symmetry_Int_Tables_number   1
_chemical_formula_structural   Tb7Dy5Ir4
_chemical_formula_sum   'Tb7 Dy5 Ir4'
_cell_volume   431.98110890
_cell_formula_units_Z   1
loop_
 _symmetry_equiv_pos_site_id
 _symmetry_equiv_pos_as_xyz
  1  'x, y, z'
loop_
 _atom_site_type_symbol
 _atom_site_label
 _atom_site_symmetry_multiplicity
 _atom_site_fract_x
 _atom_site_fract_y
 _atom_site_fract_z
 _atom_site_occupancy
  Tb  Tb0  1  0.328106  0.677071  0.062718  1
  Tb  Tb1  1  0.171828  0.177013  0.437142  1
  Tb  Tb2  1  0.671814  0.323000  0.562839  1
  Tb  Tb3  1  0.867729  0.534451  0.249959  1
  Tb  Tb4  1  0.632280  0.034376  0.249878  1
  Tb  Tb5  1  0.132226  0.465644  0.750103  1
  Tb  Tb6  1  0.367736  0.965512  0.750053  1
  Dy  Dy7  1  0.828233  0.823094  0.937010  1
  Dy  Dy8  1  0.671844  0.322984  0.937201  1
  Dy  Dy9  1  0.828175  0.822962  0.562975  1
  Dy  Dy10  1  0.328167  0.677016  0.437114  1
  Dy  Dy11  1  0.171738  0.176935  0.062771  1
  Ir  Ir12  1  0.048607  0.882574  0.250055  1
  Ir  Ir13  1  0.451309  0.382604  0.249849  1
  Ir  Ir14  1  0.951230  0.117213  0.750362  1
  Ir  Ir15  1  0.548976  0.617551  0.749971  1
