# generated using pymatgen
data_Dy5Cd2(InPd)2
_symmetry_space_group_name_H-M   'P 1'
_cell_length_a   3.59083400
_cell_length_b   8.07015200
_cell_length_c   18.36102900
_cell_angle_alpha   90.00000000
_cell_angle_beta   90.00000000
_cell_angle_gamma   90.00000000
_symmetry_Int_Tables_number   1
_chemical_formula_structural   Dy5Cd2(InPd)2
_chemical_formula_sum   'Dy10 Cd4 In4 Pd4'
_cell_volume   532.07647774
_cell_formula_units_Z   2
loop_
 _symmetry_equiv_pos_site_id
 _symmetry_equiv_pos_as_xyz
  1  'x, y, z'
loop_
 _atom_site_type_symbol
 _atom_site_label
 _atom_site_symmetry_multiplicity
 _atom_site_fract_x
 _atom_site_fract_y
 _atom_site_fract_z
 _atom_site_occupancy
  Dy  Dy0  1  0.000000  0.500000  0.500000  1
  Dy  Dy1  1  0.000000  0.000000  0.000000  1
  Dy  Dy2  1  0.000000  0.741048  0.280998  1
  Dy  Dy3  1  0.000000  0.258952  0.719002  1
  Dy  Dy4  1  0.000000  0.758952  0.780998  1
  Dy  Dy5  1  0.000000  0.241048  0.219002  1
  Dy  Dy6  1  0.000000  0.612765  0.083156  1
  Dy  Dy7  1  0.000000  0.387235  0.916844  1
  Dy  Dy8  1  0.000000  0.887235  0.583156  1
  Dy  Dy9  1  0.000000  0.112765  0.416844  1
  Cd  Cd10  1  0.500000  0.712542  0.931317  1
  Cd  Cd11  1  0.500000  0.287458  0.068683  1
  Cd  Cd12  1  0.500000  0.787458  0.431317  1
  Cd  Cd13  1  0.500000  0.212542  0.568683  1
  In  In14  1  0.500000  0.577020  0.647971  1
  In  In15  1  0.500000  0.422980  0.352029  1
  In  In16  1  0.500000  0.922980  0.147971  1
  In  In17  1  0.500000  0.077020  0.852029  1
  Pd  Pd18  1  0.500000  0.524769  0.196707  1
  Pd  Pd19  1  0.500000  0.475231  0.803293  1
  Pd  Pd20  1  0.500000  0.975231  0.696707  1
  Pd  Pd21  1  0.500000  0.024769  0.303293  1
