# generated using pymatgen
data_Tb9Yb3(PrSn2)8
_symmetry_space_group_name_H-M   'P 1'
_cell_length_a   8.06238128
_cell_length_b   8.39653430
_cell_length_c   15.83591900
_cell_angle_alpha   90.00000000
_cell_angle_beta   90.00000000
_cell_angle_gamma   90.03038549
_symmetry_Int_Tables_number   1
_chemical_formula_structural   Tb9Yb3(PrSn2)8
_chemical_formula_sum   'Tb9 Yb3 Pr8 Sn16'
_cell_volume   1072.02918703
_cell_formula_units_Z   1
loop_
 _symmetry_equiv_pos_site_id
 _symmetry_equiv_pos_as_xyz
  1  'x, y, z'
loop_
 _atom_site_type_symbol
 _atom_site_label
 _atom_site_symmetry_multiplicity
 _atom_site_fract_x
 _atom_site_fract_y
 _atom_site_fract_z
 _atom_site_occupancy
  Tb  Tb0  1  0.336077  0.829443  0.875180  1
  Tb  Tb1  1  0.834295  0.670818  0.624579  1
  Tb  Tb2  1  0.664006  0.172162  0.375873  1
  Tb  Tb3  1  0.163956  0.329509  0.123658  1
  Tb  Tb4  1  0.664006  0.172162  0.124127  1
  Tb  Tb5  1  0.163956  0.329509  0.376342  1
  Tb  Tb6  1  0.336077  0.829443  0.624820  1
  Tb  Tb7  1  0.834295  0.670818  0.875421  1
  Tb  Tb8  1  0.165686  0.499208  0.750000  1
  Yb  Yb9  1  0.666183  0.001294  0.750000  1
  Yb  Yb10  1  0.833518  0.501534  0.250000  1
  Yb  Yb11  1  0.334026  0.998936  0.250000  1
  Pr  Pr12  1  0.496722  0.320094  0.902944  1
  Pr  Pr13  1  0.994317  0.178300  0.596097  1
  Pr  Pr14  1  0.505548  0.679976  0.403957  1
  Pr  Pr15  1  0.005907  0.819265  0.095982  1
  Pr  Pr16  1  0.505548  0.679976  0.096043  1
  Pr  Pr17  1  0.005907  0.819265  0.404018  1
  Pr  Pr18  1  0.496722  0.320094  0.597056  1
  Pr  Pr19  1  0.994317  0.178300  0.903903  1
  Sn  Sn20  1  0.325211  0.040691  0.037552  1
  Sn  Sn21  1  0.823836  0.461851  0.461503  1
  Sn  Sn22  1  0.674966  0.960079  0.537922  1
  Sn  Sn23  1  0.175159  0.537392  0.958808  1
  Sn  Sn24  1  0.674966  0.960079  0.962078  1
  Sn  Sn25  1  0.175159  0.537392  0.541192  1
  Sn  Sn26  1  0.325211  0.040691  0.462448  1
  Sn  Sn27  1  0.823836  0.461851  0.038497  1
  Sn  Sn28  1  0.532219  0.613843  0.750000  1
  Sn  Sn29  1  0.033803  0.880420  0.750000  1
  Sn  Sn30  1  0.464826  0.384406  0.250000  1
  Sn  Sn31  1  0.965420  0.115813  0.250000  1
  Sn  Sn32  1  0.293196  0.142690  0.750000  1
  Sn  Sn33  1  0.800597  0.361871  0.750000  1
  Sn  Sn34  1  0.705639  0.863000  0.250000  1
  Sn  Sn35  1  0.204885  0.637824  0.250000  1
