# generated using pymatgen
data_Er4Lu2Zn23P
_symmetry_space_group_name_H-M   'P 1'
_cell_length_a   8.98050823
_cell_length_b   8.98040180
_cell_length_c   8.98174200
_cell_angle_alpha   59.99542701
_cell_angle_beta   59.99511736
_cell_angle_gamma   60.01083191
_symmetry_Int_Tables_number   1
_chemical_formula_structural   Er4Lu2Zn23P
_chemical_formula_sum   'Er4 Lu2 Zn23 P1'
_cell_volume   512.20847191
_cell_formula_units_Z   1
loop_
 _symmetry_equiv_pos_site_id
 _symmetry_equiv_pos_as_xyz
  1  'x, y, z'
loop_
 _atom_site_type_symbol
 _atom_site_label
 _atom_site_symmetry_multiplicity
 _atom_site_fract_x
 _atom_site_fract_y
 _atom_site_fract_z
 _atom_site_occupancy
  Er  Er0  1  0.711693  0.711234  0.288535  1
  Er  Er1  1  0.288826  0.711162  0.711407  1
  Er  Er2  1  0.288846  0.711155  0.288606  1
  Er  Er3  1  0.288780  0.288299  0.711465  1
  Lu  Lu4  1  0.710722  0.289287  0.289493  1
  Lu  Lu5  1  0.710714  0.289279  0.710510  1
  Zn  Zn6  1  0.624837  0.125794  0.124677  1
  Zn  Zn7  1  0.125220  0.624148  0.125304  1
  Zn  Zn8  1  0.124380  0.125597  0.624480  1
  Zn  Zn9  1  0.124383  0.125594  0.125540  1
  Zn  Zn10  1  0.375864  0.874742  0.874706  1
  Zn  Zn11  1  0.874206  0.375171  0.875308  1
  Zn  Zn12  1  0.874425  0.875598  0.375522  1
  Zn  Zn13  1  0.874426  0.875592  0.874466  1
  Zn  Zn14  1  0.500371  0.000069  0.999701  1
  Zn  Zn15  1  0.500379  0.000049  0.499855  1
  Zn  Zn16  1  0.500503  0.499495  0.999999  1
  Zn  Zn17  1  0.999947  0.499637  0.500147  1
  Zn  Zn18  1  0.999946  0.499634  0.000301  1
  Zn  Zn19  1  0.999640  0.000340  0.500003  1
  Zn  Zn20  1  0.999963  0.000008  0.000022  1
  Zn  Zn21  1  0.009425  0.329886  0.330336  1
  Zn  Zn22  1  0.329892  0.010466  0.329823  1
  Zn  Zn23  1  0.330350  0.329808  0.009956  1
  Zn  Zn24  1  0.330330  0.329814  0.329889  1
  Zn  Zn25  1  0.989540  0.670119  0.670158  1
  Zn  Zn26  1  0.670149  0.990557  0.669647  1
  Zn  Zn27  1  0.670194  0.669653  0.990041  1
  Zn  Zn28  1  0.670211  0.669657  0.670105  1
  P  P29  1  0.501839  0.498157  0.499997  1
