# generated using pymatgen
data_CrTc2As7
_symmetry_space_group_name_H-M   'P 1'
_cell_length_a   7.55451784
_cell_length_b   7.55451787
_cell_length_c   7.55293161
_cell_angle_alpha   109.65807780
_cell_angle_beta   109.65806947
_cell_angle_gamma   109.10670634
_symmetry_Int_Tables_number   1
_chemical_formula_structural   CrTc2As7
_chemical_formula_sum   'Cr2 Tc4 As14'
_cell_volume   331.77820331
_cell_formula_units_Z   2
loop_
 _symmetry_equiv_pos_site_id
 _symmetry_equiv_pos_as_xyz
  1  'x, y, z'
loop_
 _atom_site_type_symbol
 _atom_site_label
 _atom_site_symmetry_multiplicity
 _atom_site_fract_x
 _atom_site_fract_y
 _atom_site_fract_z
 _atom_site_occupancy
  Cr  Cr0  1  0.340293  0.001122  0.341414  1
  Cr  Cr1  1  0.001122  0.340293  0.341414  1
  Tc  Tc2  1  0.000965  0.658488  0.659453  1
  Tc  Tc3  1  0.340858  0.340858  0.001649  1
  Tc  Tc4  1  0.660791  0.660791  0.001649  1
  Tc  Tc5  1  0.658488  0.000965  0.659453  1
  As  As6  1  0.752517  0.495063  0.247578  1
  As  As7  1  0.495063  0.752517  0.247578  1
  As  As8  1  0.495061  0.247818  0.742879  1
  As  As9  1  0.745782  0.245782  0.491564  1
  As  As10  1  0.245782  0.745782  0.491564  1
  As  As11  1  0.247818  0.495061  0.742879  1
  As  As12  1  0.006848  0.006848  0.332277  1
  As  As13  1  0.675521  0.007408  0.007430  1
  As  As14  1  0.007408  0.675521  0.007430  1
  As  As15  1  0.325429  0.325429  0.332277  1
  As  As16  1  0.000022  0.331909  0.007430  1
  As  As17  1  0.668584  0.668584  0.668326  1
  As  As18  1  0.331909  0.000022  0.007430  1
  As  As19  1  0.999742  0.999742  0.668326  1
