# generated using pymatgen
data_PrY15(MgSn4)4
_symmetry_space_group_name_H-M   'P 1'
_cell_length_a   7.70093352
_cell_length_b   8.28237572
_cell_length_c   15.42070760
_cell_angle_alpha   89.97456209
_cell_angle_beta   89.92687078
_cell_angle_gamma   89.90988034
_symmetry_Int_Tables_number   1
_chemical_formula_structural   PrY15(MgSn4)4
_chemical_formula_sum   'Pr1 Y15 Mg4 Sn16'
_cell_volume   983.56184061
_cell_formula_units_Z   1
loop_
 _symmetry_equiv_pos_site_id
 _symmetry_equiv_pos_as_xyz
  1  'x, y, z'
loop_
 _atom_site_type_symbol
 _atom_site_label
 _atom_site_symmetry_multiplicity
 _atom_site_fract_x
 _atom_site_fract_y
 _atom_site_fract_z
 _atom_site_occupancy
  Pr  Pr0  1  0.339076  0.828492  0.871905  1
  Y  Y1  1  0.837512  0.670825  0.628345  1
  Y  Y2  1  0.663169  0.170387  0.371450  1
  Y  Y3  1  0.161359  0.330068  0.130177  1
  Y  Y4  1  0.661258  0.170405  0.129358  1
  Y  Y5  1  0.162069  0.329141  0.371395  1
  Y  Y6  1  0.338524  0.829477  0.628138  1
  Y  Y7  1  0.836822  0.670499  0.870691  1
  Y  Y8  1  0.501118  0.315064  0.908669  1
  Y  Y9  1  0.002151  0.184954  0.590898  1
  Y  Y10  1  0.498831  0.684077  0.408401  1
  Y  Y11  1  0.997689  0.815462  0.091854  1
  Y  Y12  1  0.498846  0.684527  0.092523  1
  Y  Y13  1  0.999059  0.815784  0.408044  1
  Y  Y14  1  0.501675  0.315888  0.590564  1
  Y  Y15  1  0.001629  0.184286  0.908351  1
  Mg  Mg16  1  0.162098  0.493879  0.748767  1
  Mg  Mg17  1  0.664566  0.009004  0.749313  1
  Mg  Mg18  1  0.836264  0.505674  0.250229  1
  Mg  Mg19  1  0.336158  0.993878  0.250777  1
  Sn  Sn20  1  0.316884  0.038919  0.040800  1
  Sn  Sn21  1  0.817975  0.462665  0.462610  1
  Sn  Sn22  1  0.682580  0.963787  0.537455  1
  Sn  Sn23  1  0.177751  0.532873  0.963545  1
  Sn  Sn24  1  0.689202  0.964248  0.964009  1
  Sn  Sn25  1  0.182759  0.537828  0.537135  1
  Sn  Sn26  1  0.318409  0.037087  0.462638  1
  Sn  Sn27  1  0.816469  0.462066  0.037719  1
  Sn  Sn28  1  0.526113  0.585511  0.748173  1
  Sn  Sn29  1  0.023240  0.910948  0.747495  1
  Sn  Sn30  1  0.474309  0.409239  0.250580  1
  Sn  Sn31  1  0.974170  0.090980  0.249702  1
  Sn  Sn32  1  0.304317  0.154375  0.748897  1
  Sn  Sn33  1  0.806071  0.348088  0.749184  1
  Sn  Sn34  1  0.694913  0.848076  0.250182  1
  Sn  Sn35  1  0.194963  0.651537  0.250024  1
