# generated using pymatgen
data_TbDy2TlF10
_symmetry_space_group_name_H-M   'P 1'
_cell_length_a   8.31062702
_cell_length_b   8.31062402
_cell_length_c   8.30177500
_cell_angle_alpha   60.03506136
_cell_angle_beta   60.03508123
_cell_angle_gamma   59.92942561
_symmetry_Int_Tables_number   1
_chemical_formula_structural   TbDy2TlF10
_chemical_formula_sum   'Tb2 Dy4 Tl2 F20'
_cell_volume   405.43476605
_cell_formula_units_Z   2
loop_
 _symmetry_equiv_pos_site_id
 _symmetry_equiv_pos_as_xyz
  1  'x, y, z'
loop_
 _atom_site_type_symbol
 _atom_site_label
 _atom_site_symmetry_multiplicity
 _atom_site_fract_x
 _atom_site_fract_y
 _atom_site_fract_z
 _atom_site_occupancy
  Tb  Tb0  1  0.240601  0.240601  0.759400  1
  Tb  Tb1  1  0.759399  0.759399  0.240600  1
  Dy  Dy2  1  0.759444  0.240555  0.240556  1
  Dy  Dy3  1  0.240556  0.759445  0.759444  1
  Dy  Dy4  1  0.240555  0.759444  0.240556  1
  Dy  Dy5  1  0.759445  0.240556  0.759444  1
  Tl  Tl6  1  0.250002  0.250000  0.250000  1
  Tl  Tl7  1  0.749998  0.750000  0.750000  1
  F  F8  1  0.829226  0.498991  0.501011  1
  F  F9  1  0.170774  0.501009  0.498989  1
  F  F10  1  0.498989  0.829226  0.170775  1
  F  F11  1  0.501011  0.170774  0.829225  1
  F  F12  1  0.498991  0.829226  0.501011  1
  F  F13  1  0.170774  0.501011  0.829225  1
  F  F14  1  0.501009  0.170774  0.498989  1
  F  F15  1  0.829226  0.498989  0.170775  1
  F  F16  1  0.499999  0.499999  0.828453  1
  F  F17  1  0.500001  0.500001  0.171547  1
  F  F18  1  0.171547  0.828453  0.500000  1
  F  F19  1  0.828453  0.171547  0.500000  1
  F  F20  1  0.109827  0.109827  0.111148  1
  F  F21  1  0.890173  0.890173  0.888852  1
  F  F22  1  0.109826  0.109827  0.669200  1
  F  F23  1  0.111145  0.669200  0.109827  1
  F  F24  1  0.890174  0.890173  0.330800  1
  F  F25  1  0.888855  0.330800  0.890173  1
  F  F26  1  0.669201  0.111145  0.109827  1
  F  F27  1  0.330799  0.888855  0.890173  1
