# generated using pymatgen
data_HoTm19(Ga2Bi)4
_symmetry_space_group_name_H-M   'P 1'
_cell_length_a   8.11856818
_cell_length_b   8.11853213
_cell_length_c   12.57989029
_cell_angle_alpha   89.98353868
_cell_angle_beta   89.97946256
_cell_angle_gamma   89.98942635
_symmetry_Int_Tables_number   1
_chemical_formula_structural   HoTm19(Ga2Bi)4
_chemical_formula_sum   'Ho1 Tm19 Ga8 Bi4'
_cell_volume   829.15124382
_cell_formula_units_Z   1
loop_
 _symmetry_equiv_pos_site_id
 _symmetry_equiv_pos_as_xyz
  1  'x, y, z'
loop_
 _atom_site_type_symbol
 _atom_site_label
 _atom_site_symmetry_multiplicity
 _atom_site_fract_x
 _atom_site_fract_y
 _atom_site_fract_z
 _atom_site_occupancy
  Ho  Ho0  1  0.151734  0.152013  0.106329  1
  Tm  Tm1  1  0.000029  0.500011  0.750009  1
  Tm  Tm2  1  0.999804  0.500273  0.250213  1
  Tm  Tm3  1  0.500320  0.999805  0.250260  1
  Tm  Tm4  1  0.500015  0.000041  0.750047  1
  Tm  Tm5  1  0.651081  0.650754  0.607987  1
  Tm  Tm6  1  0.651002  0.349047  0.107946  1
  Tm  Tm7  1  0.849042  0.849352  0.391857  1
  Tm  Tm8  1  0.150663  0.848863  0.891202  1
  Tm  Tm9  1  0.348970  0.349291  0.608236  1
  Tm  Tm10  1  0.348713  0.650692  0.107938  1
  Tm  Tm11  1  0.150966  0.150635  0.392120  1
  Tm  Tm12  1  0.848532  0.150347  0.891203  1
  Tm  Tm13  1  0.650555  0.349093  0.392115  1
  Tm  Tm14  1  0.350331  0.350009  0.891013  1
  Tm  Tm15  1  0.150608  0.849100  0.608365  1
  Tm  Tm16  1  0.848963  0.848631  0.108519  1
  Tm  Tm17  1  0.349437  0.650889  0.392129  1
  Tm  Tm18  1  0.650632  0.650959  0.891412  1
  Tm  Tm19  1  0.849415  0.150944  0.608369  1
  Ga  Ga20  1  0.849893  0.849900  0.749893  1
  Ga  Ga21  1  0.849506  0.149704  0.250515  1
  Ga  Ga22  1  0.649501  0.649502  0.250224  1
  Ga  Ga23  1  0.350121  0.650049  0.750013  1
  Ga  Ga24  1  0.150085  0.150100  0.750255  1
  Ga  Ga25  1  0.149715  0.849473  0.250527  1
  Ga  Ga26  1  0.350603  0.350638  0.251070  1
  Ga  Ga27  1  0.650052  0.350133  0.750011  1
  Bi  Bi28  1  0.000013  0.499708  0.500038  1
  Bi  Bi29  1  0.999331  0.500697  0.999884  1
  Bi  Bi30  1  0.499706  0.000011  0.500242  1
  Bi  Bi31  1  0.500659  0.999335  0.000058  1
