# generated using pymatgen
data_LaNd3(EuSe4)2
_symmetry_space_group_name_H-M   'P 1'
_cell_length_a   7.82902018
_cell_length_b   7.82148460
_cell_length_c   7.82901960
_cell_angle_alpha   109.40093743
_cell_angle_beta   109.50738119
_cell_angle_gamma   109.54437137
_symmetry_Int_Tables_number   1
_chemical_formula_structural   LaNd3(EuSe4)2
_chemical_formula_sum   'La1 Nd3 Eu2 Se8'
_cell_volume   368.86902517
_cell_formula_units_Z   1
loop_
 _symmetry_equiv_pos_site_id
 _symmetry_equiv_pos_as_xyz
  1  'x, y, z'
loop_
 _atom_site_type_symbol
 _atom_site_label
 _atom_site_symmetry_multiplicity
 _atom_site_fract_x
 _atom_site_fract_y
 _atom_site_fract_z
 _atom_site_occupancy
  La  La0  1  0.750657  0.375000  0.875657  1
  Nd  Nd1  1  0.624752  0.500613  0.375151  1
  Nd  Nd2  1  0.499821  0.875000  0.124821  1
  Nd  Nd3  1  0.124538  0.249387  0.624139  1
  Eu  Eu4  1  0.249983  0.749799  0.500347  1
  Eu  Eu5  1  0.000548  0.000201  0.000184  1
  Se  Se6  1  0.729171  0.977594  0.598580  1
  Se  Se7  1  0.378996  0.129437  0.398719  1
  Se  Se8  1  0.519282  0.620563  0.749559  1
  Se  Se9  1  0.231211  0.480155  0.100580  1
  Se  Se10  1  0.378224  0.129288  0.900695  1
  Se  Se11  1  0.870424  0.269845  0.251056  1
  Se  Se12  1  0.021406  0.620712  0.748936  1
  Se  Se13  1  0.870987  0.772406  0.251577  1
