# generated using pymatgen
data_Ho4GePS2
_symmetry_space_group_name_H-M   'P 1'
_cell_length_a   6.86632547
_cell_length_b   6.86632572
_cell_length_c   6.86632500
_cell_angle_alpha   132.02890115
_cell_angle_beta   132.02891426
_cell_angle_gamma   70.18337952
_symmetry_Int_Tables_number   1
_chemical_formula_structural   Ho4GePS2
_chemical_formula_sum   'Ho4 Ge1 P1 S2'
_cell_volume   175.08319824
_cell_formula_units_Z   1
loop_
 _symmetry_equiv_pos_site_id
 _symmetry_equiv_pos_as_xyz
  1  'x, y, z'
loop_
 _atom_site_type_symbol
 _atom_site_label
 _atom_site_symmetry_multiplicity
 _atom_site_fract_x
 _atom_site_fract_y
 _atom_site_fract_z
 _atom_site_occupancy
  Ho  Ho0  1  0.749009  0.749009  0.000000  1
  Ho  Ho1  1  0.250992  0.250992  0.000000  1
  Ho  Ho2  1  0.003318  0.503318  0.500000  1
  Ho  Ho3  1  0.496682  0.996682  0.500000  1
  Ge  Ge4  1  0.000000  0.000000  0.000000  1
  P  P5  1  0.250000  0.750000  0.500000  1
  S  S6  1  0.500000  0.500000  0.000000  1
  S  S7  1  0.750000  0.250000  0.500000  1
