# generated using pymatgen
data_Ho2FeCo9P7W2
_symmetry_space_group_name_H-M   'P 1'
_cell_length_a   9.04158546
_cell_length_b   9.01598631
_cell_length_c   3.68147400
_cell_angle_alpha   90.00000000
_cell_angle_beta   90.00000000
_cell_angle_gamma   119.97959201
_symmetry_Int_Tables_number   1
_chemical_formula_structural   Ho2FeCo9P7W2
_chemical_formula_sum   'Ho2 Fe1 Co9 P7 W2'
_cell_volume   259.95577990
_cell_formula_units_Z   1
loop_
 _symmetry_equiv_pos_site_id
 _symmetry_equiv_pos_as_xyz
  1  'x, y, z'
loop_
 _atom_site_type_symbol
 _atom_site_label
 _atom_site_symmetry_multiplicity
 _atom_site_fract_x
 _atom_site_fract_y
 _atom_site_fract_z
 _atom_site_occupancy
  Ho  Ho0  1  0.999789  0.003993  0.000000  1
  Ho  Ho1  1  0.331778  0.665737  0.500000  1
  Fe  Fe2  1  0.886513  0.428689  0.500000  1
  Co  Co3  1  0.296258  0.900540  0.000000  1
  Co  Co4  1  0.604595  0.703655  0.000000  1
  Co  Co5  1  0.099264  0.396004  0.000000  1
  Co  Co6  1  0.787372  0.174816  0.000000  1
  Co  Co7  1  0.386136  0.211599  0.000000  1
  Co  Co8  1  0.828030  0.614093  0.000000  1
  Co  Co9  1  0.719755  0.949141  0.500000  1
  Co  Co10  1  0.228033  0.280694  0.500000  1
  Co  Co11  1  0.051986  0.766237  0.500000  1
  P  P12  1  0.554782  0.918456  0.000000  1
  P  P13  1  0.364153  0.445035  0.000000  1
  P  P14  1  0.077626  0.631149  0.000000  1
  P  P15  1  0.956853  0.221801  0.500000  1
  P  P16  1  0.252670  0.039235  0.500000  1
  P  P17  1  0.787868  0.744234  0.500000  1
  P  P18  1  0.673879  0.337517  0.000000  1
  W  W19  1  0.543833  0.113787  0.500000  1
  W  W20  1  0.568827  0.453590  0.500000  1
