# generated using pymatgen
data_Yb3P4
_symmetry_space_group_name_H-M   'P 1'
_cell_length_a   5.50351521
_cell_length_b   7.33257898
_cell_length_c   8.61515274
_cell_angle_alpha   96.88443560
_cell_angle_beta   71.37280783
_cell_angle_gamma   112.04151040
_symmetry_Int_Tables_number   1
_chemical_formula_structural   Yb3P4
_chemical_formula_sum   'Yb6 P8'
_cell_volume   305.37347864
_cell_formula_units_Z   2
loop_
 _symmetry_equiv_pos_site_id
 _symmetry_equiv_pos_as_xyz
  1  'x, y, z'
loop_
 _atom_site_type_symbol
 _atom_site_label
 _atom_site_symmetry_multiplicity
 _atom_site_fract_x
 _atom_site_fract_y
 _atom_site_fract_z
 _atom_site_occupancy
  Yb  Yb0  1  0.737067  0.000000  0.000000  1
  Yb  Yb1  1  0.674848  0.501102  0.164031  1
  Yb  Yb2  1  0.088880  0.001102  0.335968  1
  Yb  Yb3  1  0.987069  0.500000  0.500000  1
  Yb  Yb4  1  0.423746  0.998898  0.664032  1
  Yb  Yb5  1  0.337778  0.498898  0.835968  1
  P  P6  1  0.155230  0.831483  0.998282  1
  P  P7  1  0.257432  0.675059  0.160043  1
  P  P8  1  0.667476  0.175059  0.339958  1
  P  P9  1  0.403510  0.331483  0.501719  1
  P  P10  1  0.573746  0.668517  0.498281  1
  P  P11  1  0.832374  0.824941  0.660043  1
  P  P12  1  0.742417  0.324941  0.839958  1
  P  P13  1  0.322027  0.168517  0.001719  1
