# generated using pymatgen
data_Cs2Tm(SiO3)3
_symmetry_space_group_name_H-M   'P 1'
_cell_length_a   7.43559000
_cell_length_b   7.43558878
_cell_length_c   10.74678600
_cell_angle_alpha   90.00000000
_cell_angle_beta   90.00000000
_cell_angle_gamma   119.99999653
_symmetry_Int_Tables_number   1
_chemical_formula_structural   Cs2Tm(SiO3)3
_chemical_formula_sum   'Cs4 Tm2 Si6 O18'
_cell_volume   514.56476663
_cell_formula_units_Z   2
loop_
 _symmetry_equiv_pos_site_id
 _symmetry_equiv_pos_as_xyz
  1  'x, y, z'
loop_
 _atom_site_type_symbol
 _atom_site_label
 _atom_site_symmetry_multiplicity
 _atom_site_fract_x
 _atom_site_fract_y
 _atom_site_fract_z
 _atom_site_occupancy
  Cs  Cs0  1  0.333333  0.666667  0.436087  1
  Cs  Cs1  1  0.666667  0.333333  0.936087  1
  Cs  Cs2  1  0.666667  0.333333  0.563913  1
  Cs  Cs3  1  0.333333  0.666667  0.063913  1
  Tm  Tm4  1  0.000000  0.000000  0.500000  1
  Tm  Tm5  1  0.000000  0.000000  0.000000  1
  Si  Si6  1  0.605970  0.760822  0.750000  1
  Si  Si7  1  0.845148  0.605970  0.250000  1
  Si  Si8  1  0.760822  0.154852  0.250000  1
  Si  Si9  1  0.239178  0.845148  0.750000  1
  Si  Si10  1  0.154852  0.394030  0.750000  1
  Si  Si11  1  0.394030  0.239178  0.250000  1
  O  O12  1  0.267473  0.202115  0.378200  1
  O  O13  1  0.065359  0.267473  0.878200  1
  O  O14  1  0.202115  0.934641  0.878200  1
  O  O15  1  0.797885  0.065359  0.378200  1
  O  O16  1  0.934641  0.732527  0.378200  1
  O  O17  1  0.732527  0.797885  0.878200  1
  O  O18  1  0.732527  0.797885  0.621800  1
  O  O19  1  0.934641  0.732527  0.121800  1
  O  O20  1  0.797885  0.065359  0.121800  1
  O  O21  1  0.202115  0.934641  0.621800  1
  O  O22  1  0.065359  0.267473  0.621800  1
  O  O23  1  0.267473  0.202115  0.121800  1
  O  O24  1  0.511874  0.097993  0.250000  1
  O  O25  1  0.413880  0.511874  0.750000  1
  O  O26  1  0.097993  0.586120  0.750000  1
  O  O27  1  0.902007  0.413880  0.250000  1
  O  O28  1  0.586120  0.488126  0.250000  1
  O  O29  1  0.488126  0.902007  0.750000  1
