# generated using pymatgen
data_Ta4BeCo4SiP2
_symmetry_space_group_name_H-M   'P 1'
_cell_length_a   3.57225000
_cell_length_b   6.12369217
_cell_length_c   6.98887003
_cell_angle_alpha   90.07202692
_cell_angle_beta   90.00000000
_cell_angle_gamma   90.00000000
_symmetry_Int_Tables_number   1
_chemical_formula_structural   Ta4BeCo4SiP2
_chemical_formula_sum   'Ta4 Be1 Co4 Si1 P2'
_cell_volume   152.88392256
_cell_formula_units_Z   1
loop_
 _symmetry_equiv_pos_site_id
 _symmetry_equiv_pos_as_xyz
  1  'x, y, z'
loop_
 _atom_site_type_symbol
 _atom_site_label
 _atom_site_symmetry_multiplicity
 _atom_site_fract_x
 _atom_site_fract_y
 _atom_site_fract_z
 _atom_site_occupancy
  Ta  Ta0  1  0.250000  0.027978  0.827380  1
  Ta  Ta1  1  0.250000  0.520468  0.680517  1
  Ta  Ta2  1  0.750000  0.988365  0.173502  1
  Ta  Ta3  1  0.750000  0.468524  0.315496  1
  Be  Be4  1  0.250000  0.274350  0.118425  1
  Co  Co5  1  0.250000  0.142583  0.439516  1
  Co  Co6  1  0.250000  0.640304  0.059182  1
  Co  Co7  1  0.750000  0.858921  0.568485  1
  Co  Co8  1  0.750000  0.357403  0.937825  1
  Si  Si9  1  0.250000  0.772024  0.376875  1
  P  P10  1  0.750000  0.723842  0.882905  1
  P  P11  1  0.750000  0.225238  0.619894  1
