# generated using pymatgen
data_Ho4Mg2B4IrRh9
_symmetry_space_group_name_H-M   'P 1'
_cell_length_a   9.64547734
_cell_length_b   9.64547734
_cell_length_c   3.18499000
_cell_angle_alpha   90.00000000
_cell_angle_beta   90.00000000
_cell_angle_gamma   89.83221389
_symmetry_Int_Tables_number   1
_chemical_formula_structural   Ho4Mg2B4IrRh9
_chemical_formula_sum   'Ho4 Mg2 B4 Ir1 Rh9'
_cell_volume   296.31501654
_cell_formula_units_Z   1
loop_
 _symmetry_equiv_pos_site_id
 _symmetry_equiv_pos_as_xyz
  1  'x, y, z'
loop_
 _atom_site_type_symbol
 _atom_site_label
 _atom_site_symmetry_multiplicity
 _atom_site_fract_x
 _atom_site_fract_y
 _atom_site_fract_z
 _atom_site_occupancy
  Ho  Ho0  1  0.677649  0.177649  0.000000  1
  Ho  Ho1  1  0.322351  0.822351  0.000000  1
  Ho  Ho2  1  0.175736  0.324264  0.000000  1
  Ho  Ho3  1  0.824264  0.675736  0.000000  1
  Mg  Mg4  1  0.000000  0.000000  0.000000  1
  Mg  Mg5  1  0.500000  0.500000  0.000000  1
  B  B6  1  0.121898  0.621898  0.000000  1
  B  B7  1  0.878102  0.378102  0.000000  1
  B  B8  1  0.621743  0.878257  0.000000  1
  B  B9  1  0.378257  0.121743  0.000000  1
  Ir  Ir10  1  0.500000  0.000000  0.500000  1
  Rh  Rh11  1  0.000000  0.500000  0.500000  1
  Rh  Rh12  1  0.224007  0.071027  0.500000  1
  Rh  Rh13  1  0.775993  0.928973  0.500000  1
  Rh  Rh14  1  0.069698  0.775381  0.500000  1
  Rh  Rh15  1  0.724619  0.430302  0.500000  1
  Rh  Rh16  1  0.930302  0.224619  0.500000  1
  Rh  Rh17  1  0.275381  0.569698  0.500000  1
  Rh  Rh18  1  0.571027  0.724007  0.500000  1
  Rh  Rh19  1  0.428973  0.275993  0.500000  1
