# generated using pymatgen
data_Pr4Dy3(HoBi2)3
_symmetry_space_group_name_H-M   'P 1'
_cell_length_a   8.46717400
_cell_length_b   9.75923900
_cell_length_c   12.38994700
_cell_angle_alpha   90.00002348
_cell_angle_beta   90.00000000
_cell_angle_gamma   90.00000000
_symmetry_Int_Tables_number   1
_chemical_formula_structural   Pr4Dy3(HoBi2)3
_chemical_formula_sum   'Pr8 Dy6 Ho6 Bi12'
_cell_volume   1023.82065523
_cell_formula_units_Z   2
loop_
 _symmetry_equiv_pos_site_id
 _symmetry_equiv_pos_as_xyz
  1  'x, y, z'
loop_
 _atom_site_type_symbol
 _atom_site_label
 _atom_site_symmetry_multiplicity
 _atom_site_fract_x
 _atom_site_fract_y
 _atom_site_fract_z
 _atom_site_occupancy
  Pr  Pr0  1  0.186480  0.749988  0.720803  1
  Pr  Pr1  1  0.686480  0.750012  0.779197  1
  Pr  Pr2  1  0.813601  0.250068  0.279194  1
  Pr  Pr3  1  0.313601  0.249932  0.220806  1
  Pr  Pr4  1  0.353666  0.749830  0.215760  1
  Pr  Pr5  1  0.853666  0.750170  0.284240  1
  Pr  Pr6  1  0.646515  0.249961  0.784200  1
  Pr  Pr7  1  0.146515  0.250039  0.715800  1
  Dy  Dy8  1  0.307976  0.437991  0.942737  1
  Dy  Dy9  1  0.807976  0.062009  0.557263  1
  Dy  Dy10  1  0.692121  0.938024  0.057328  1
  Dy  Dy11  1  0.192121  0.561976  0.442672  1
  Dy  Dy12  1  0.691805  0.562185  0.057239  1
  Dy  Dy13  1  0.191805  0.937815  0.442761  1
  Ho  Ho14  1  0.024809  0.750154  0.988084  1
  Ho  Ho15  1  0.524809  0.749846  0.511916  1
  Ho  Ho16  1  0.975411  0.249963  0.011945  1
  Ho  Ho17  1  0.475411  0.250037  0.488055  1
  Ho  Ho18  1  0.307910  0.063042  0.942680  1
  Ho  Ho19  1  0.807910  0.436958  0.557320  1
  Bi  Bi20  1  0.436388  0.004566  0.667466  1
  Bi  Bi21  1  0.936388  0.495434  0.832534  1
  Bi  Bi22  1  0.563600  0.504532  0.332580  1
  Bi  Bi23  1  0.063600  0.995468  0.167420  1
  Bi  Bi24  1  0.563443  0.995422  0.332455  1
  Bi  Bi25  1  0.063443  0.504578  0.167545  1
  Bi  Bi26  1  0.436591  0.495375  0.667511  1
  Bi  Bi27  1  0.936591  0.004625  0.832489  1
  Bi  Bi28  1  0.407324  0.750851  0.957740  1
  Bi  Bi29  1  0.907324  0.749149  0.542260  1
  Bi  Bi30  1  0.592363  0.249874  0.042048  1
  Bi  Bi31  1  0.092363  0.250126  0.457952  1
