# generated using pymatgen
data_Dy2HoCo9(GeB2)2
_symmetry_space_group_name_H-M   'P 1'
_cell_length_a   5.15226300
_cell_length_b   5.15226269
_cell_length_c   9.43705800
_cell_angle_alpha   90.00000000
_cell_angle_beta   90.00000000
_cell_angle_gamma   120.00000840
_symmetry_Int_Tables_number   1
_chemical_formula_structural   Dy2HoCo9(GeB2)2
_chemical_formula_sum   'Dy2 Ho1 Co9 Ge2 B4'
_cell_volume   216.95179143
_cell_formula_units_Z   1
loop_
 _symmetry_equiv_pos_site_id
 _symmetry_equiv_pos_as_xyz
  1  'x, y, z'
loop_
 _atom_site_type_symbol
 _atom_site_label
 _atom_site_symmetry_multiplicity
 _atom_site_fract_x
 _atom_site_fract_y
 _atom_site_fract_z
 _atom_site_occupancy
  Dy  Dy0  1  0.000000  0.000000  0.340226  1
  Dy  Dy1  1  0.000000  0.000000  0.999814  1
  Ho  Ho2  1  0.000000  0.000000  0.660071  1
  Co  Co3  1  0.500000  0.500000  0.500181  1
  Co  Co4  1  0.000000  0.500000  0.500181  1
  Co  Co5  1  0.500000  0.000000  0.203428  1
  Co  Co6  1  0.500000  0.500000  0.203428  1
  Co  Co7  1  0.000000  0.500000  0.203428  1
  Co  Co8  1  0.500000  0.000000  0.796338  1
  Co  Co9  1  0.500000  0.500000  0.796338  1
  Co  Co10  1  0.000000  0.500000  0.796338  1
  Co  Co11  1  0.500000  0.000000  0.500181  1
  Ge  Ge12  1  0.333333  0.666667  0.999994  1
  Ge  Ge13  1  0.666667  0.333333  0.999994  1
  B  B14  1  0.333333  0.666667  0.651561  1
  B  B15  1  0.666667  0.333333  0.651561  1
  B  B16  1  0.666667  0.333333  0.348470  1
  B  B17  1  0.333333  0.666667  0.348470  1
