# generated using pymatgen
data_Ho8In4Cu5Pt3
_symmetry_space_group_name_H-M   'P 1'
_cell_length_a   7.66073753
_cell_length_b   7.65644775
_cell_length_c   7.30280000
_cell_angle_alpha   89.88776484
_cell_angle_beta   89.96376353
_cell_angle_gamma   90.03008686
_symmetry_Int_Tables_number   1
_chemical_formula_structural   Ho8In4Cu5Pt3
_chemical_formula_sum   'Ho8 In4 Cu5 Pt3'
_cell_volume   428.33773199
_cell_formula_units_Z   1
loop_
 _symmetry_equiv_pos_site_id
 _symmetry_equiv_pos_as_xyz
  1  'x, y, z'
loop_
 _atom_site_type_symbol
 _atom_site_label
 _atom_site_symmetry_multiplicity
 _atom_site_fract_x
 _atom_site_fract_y
 _atom_site_fract_z
 _atom_site_occupancy
  Ho  Ho0  1  0.175504  0.168490  0.998416  1
  Ho  Ho1  1  0.834213  0.826804  0.001274  1
  Ho  Ho2  1  0.666990  0.329202  0.501888  1
  Ho  Ho3  1  0.324550  0.672505  0.501712  1
  Ho  Ho4  1  0.672431  0.324203  0.998539  1
  Ho  Ho5  1  0.319848  0.676456  0.998770  1
  Ho  Ho6  1  0.829249  0.822229  0.498673  1
  Ho  Ho7  1  0.180107  0.172562  0.501440  1
  In  In8  1  0.506358  0.999520  0.249375  1
  In  In9  1  0.507265  0.996210  0.750791  1
  In  In10  1  0.997322  0.494213  0.250594  1
  In  In11  1  0.993535  0.494060  0.749829  1
  Cu  Cu12  1  0.380905  0.381162  0.244641  1
  Cu  Cu13  1  0.625464  0.627347  0.756646  1
  Cu  Cu14  1  0.619104  0.619060  0.243826  1
  Cu  Cu15  1  0.873841  0.126079  0.743038  1
  Cu  Cu16  1  0.874175  0.126799  0.256485  1
  Pt  Pt17  1  0.380047  0.381444  0.754073  1
  Pt  Pt18  1  0.119559  0.880462  0.253925  1
  Pt  Pt19  1  0.119531  0.881193  0.746066  1
