# generated using pymatgen
data_NdTm5Co16(TcP6)2
_symmetry_space_group_name_H-M   'P 1'
_cell_length_a   3.70681600
_cell_length_b   10.51874300
_cell_length_c   12.20332300
_cell_angle_alpha   90.00000000
_cell_angle_beta   90.00000000
_cell_angle_gamma   90.00000000
_symmetry_Int_Tables_number   1
_chemical_formula_structural   NdTm5Co16(TcP6)2
_chemical_formula_sum   'Nd1 Tm5 Co16 Tc2 P12'
_cell_volume   475.82031444
_cell_formula_units_Z   1
loop_
 _symmetry_equiv_pos_site_id
 _symmetry_equiv_pos_as_xyz
  1  'x, y, z'
loop_
 _atom_site_type_symbol
 _atom_site_label
 _atom_site_symmetry_multiplicity
 _atom_site_fract_x
 _atom_site_fract_y
 _atom_site_fract_z
 _atom_site_occupancy
  Nd  Nd0  1  0.500000  0.000000  0.474931  1
  Tm  Tm1  1  0.000000  0.500000  0.524519  1
  Tm  Tm2  1  0.500000  0.817434  0.204673  1
  Tm  Tm3  1  0.500000  0.182566  0.204673  1
  Tm  Tm4  1  0.000000  0.681540  0.794282  1
  Tm  Tm5  1  0.000000  0.318460  0.794282  1
  Co  Co6  1  0.500000  0.500000  0.702824  1
  Co  Co7  1  0.000000  0.000000  0.294414  1
  Co  Co8  1  0.000000  0.500000  0.986688  1
  Co  Co9  1  0.500000  0.000000  0.012893  1
  Co  Co10  1  0.500000  0.332597  0.989612  1
  Co  Co11  1  0.500000  0.667403  0.989612  1
  Co  Co12  1  0.000000  0.168324  0.010442  1
  Co  Co13  1  0.000000  0.831676  0.010442  1
  Co  Co14  1  0.500000  0.299533  0.430561  1
  Co  Co15  1  0.500000  0.700467  0.430561  1
  Co  Co16  1  0.000000  0.207149  0.569901  1
  Co  Co17  1  0.000000  0.792851  0.569901  1
  Co  Co18  1  0.500000  0.877712  0.709741  1
  Co  Co19  1  0.500000  0.122288  0.709741  1
  Co  Co20  1  0.000000  0.620643  0.291304  1
  Co  Co21  1  0.000000  0.379357  0.291304  1
  Tc  Tc22  1  0.500000  0.500000  0.156605  1
  Tc  Tc23  1  0.000000  0.000000  0.845476  1
  P  P24  1  0.500000  0.500000  0.880288  1
  P  P25  1  0.000000  0.000000  0.118599  1
  P  P26  1  0.500000  0.500000  0.349490  1
  P  P27  1  0.000000  0.000000  0.654857  1
  P  P28  1  0.500000  0.313100  0.616759  1
  P  P29  1  0.500000  0.686900  0.616759  1
  P  P30  1  0.000000  0.191673  0.381525  1
  P  P31  1  0.000000  0.808327  0.381525  1
  P  P32  1  0.500000  0.844922  0.892826  1
  P  P33  1  0.500000  0.155078  0.892826  1
  P  P34  1  0.000000  0.653908  0.107583  1
  P  P35  1  0.000000  0.346092  0.107583  1
