# generated using pymatgen
data_Pm2Te2MoO12
_symmetry_space_group_name_H-M   'P 1'
_cell_length_a   6.97018376
_cell_length_b   6.97018517
_cell_length_c   11.96701253
_cell_angle_alpha   77.22816471
_cell_angle_beta   77.22815931
_cell_angle_gamma   110.48116666
_symmetry_Int_Tables_number   1
_chemical_formula_structural   Pm2Te2MoO12
_chemical_formula_sum   'Pm4 Te4 Mo2 O24'
_cell_volume   502.03625545
_cell_formula_units_Z   2
loop_
 _symmetry_equiv_pos_site_id
 _symmetry_equiv_pos_as_xyz
  1  'x, y, z'
loop_
 _atom_site_type_symbol
 _atom_site_label
 _atom_site_symmetry_multiplicity
 _atom_site_fract_x
 _atom_site_fract_y
 _atom_site_fract_z
 _atom_site_occupancy
  Pm  Pm0  1  0.190639  0.435641  0.592542  1
  Pm  Pm1  1  0.809361  0.564359  0.407458  1
  Pm  Pm2  1  0.564359  0.809361  0.907458  1
  Pm  Pm3  1  0.435641  0.190639  0.092542  1
  Te  Te4  1  0.013550  0.304217  0.950977  1
  Te  Te5  1  0.986450  0.695783  0.049023  1
  Te  Te6  1  0.695783  0.986450  0.549023  1
  Te  Te7  1  0.304217  0.013550  0.450977  1
  Mo  Mo8  1  0.600037  0.399963  0.750000  1
  Mo  Mo9  1  0.399963  0.600037  0.250000  1
  O  O10  1  0.540876  0.471514  0.605998  1
  O  O11  1  0.459124  0.528486  0.394002  1
  O  O12  1  0.528486  0.459124  0.894002  1
  O  O13  1  0.471514  0.540876  0.105998  1
  O  O14  1  0.501943  0.114389  0.795263  1
  O  O15  1  0.498057  0.885611  0.204737  1
  O  O16  1  0.885611  0.498057  0.704737  1
  O  O17  1  0.114389  0.501943  0.295263  1
  O  O18  1  0.732919  0.148725  0.950009  1
  O  O19  1  0.267081  0.851275  0.049991  1
  O  O20  1  0.851275  0.267081  0.549991  1
  O  O21  1  0.148725  0.732919  0.450009  1
  O  O22  1  0.384707  0.825452  0.581292  1
  O  O23  1  0.615293  0.174548  0.418708  1
  O  O24  1  0.174548  0.615293  0.918708  1
  O  O25  1  0.825452  0.384707  0.081292  1
  O  O26  1  0.174968  0.322783  0.798257  1
  O  O27  1  0.825032  0.677217  0.201743  1
  O  O28  1  0.677217  0.825032  0.701743  1
  O  O29  1  0.322783  0.174968  0.298257  1
  O  O30  1  0.900962  0.839593  0.936335  1
  O  O31  1  0.099038  0.160407  0.063665  1
  O  O32  1  0.160407  0.099038  0.563665  1
  O  O33  1  0.839593  0.900962  0.436335  1
