# generated using pymatgen
data_Pr4SBr6
_symmetry_space_group_name_H-M   'P 1'
_cell_length_a   4.22228200
_cell_length_b   13.71282200
_cell_length_c   14.31255600
_cell_angle_alpha   90.00000000
_cell_angle_beta   90.00000000
_cell_angle_gamma   90.00000000
_symmetry_Int_Tables_number   1
_chemical_formula_structural   Pr4SBr6
_chemical_formula_sum   'Pr8 S2 Br12'
_cell_volume   828.68842633
_cell_formula_units_Z   2
loop_
 _symmetry_equiv_pos_site_id
 _symmetry_equiv_pos_as_xyz
  1  'x, y, z'
loop_
 _atom_site_type_symbol
 _atom_site_label
 _atom_site_symmetry_multiplicity
 _atom_site_fract_x
 _atom_site_fract_y
 _atom_site_fract_z
 _atom_site_occupancy
  Pr  Pr0  1  0.000000  0.106882  0.082091  1
  Pr  Pr1  1  0.000000  0.893118  0.917909  1
  Pr  Pr2  1  0.000000  0.606882  0.417909  1
  Pr  Pr3  1  0.000000  0.393118  0.582091  1
  Pr  Pr4  1  0.500000  0.126142  0.849521  1
  Pr  Pr5  1  0.500000  0.873858  0.150479  1
  Pr  Pr6  1  0.500000  0.626142  0.650479  1
  Pr  Pr7  1  0.500000  0.373858  0.349521  1
  S  S8  1  0.500000  0.000000  0.000000  1
  S  S9  1  0.500000  0.500000  0.500000  1
  Br  Br10  1  0.500000  0.263176  0.678984  1
  Br  Br11  1  0.500000  0.736824  0.321016  1
  Br  Br12  1  0.500000  0.763176  0.821016  1
  Br  Br13  1  0.500000  0.236824  0.178984  1
  Br  Br14  1  0.000000  0.259589  0.927883  1
  Br  Br15  1  0.000000  0.740411  0.072117  1
  Br  Br16  1  0.000000  0.482882  0.241587  1
  Br  Br17  1  0.000000  0.517118  0.758413  1
  Br  Br18  1  0.000000  0.982882  0.258413  1
  Br  Br19  1  0.000000  0.017118  0.741587  1
  Br  Br20  1  0.000000  0.240411  0.427883  1
  Br  Br21  1  0.000000  0.759589  0.572117  1
