# generated using pymatgen
data_Tb12Pr4Cd4RuPt3
_symmetry_space_group_name_H-M   'P 1'
_cell_length_a   9.81393443
_cell_length_b   9.81016932
_cell_length_c   9.81013749
_cell_angle_alpha   59.94588586
_cell_angle_beta   59.75910999
_cell_angle_gamma   59.75889930
_symmetry_Int_Tables_number   1
_chemical_formula_structural   Tb12Pr4Cd4RuPt3
_chemical_formula_sum   'Tb12 Pr4 Cd4 Ru1 Pt3'
_cell_volume   665.13761346
_cell_formula_units_Z   1
loop_
 _symmetry_equiv_pos_site_id
 _symmetry_equiv_pos_as_xyz
  1  'x, y, z'
loop_
 _atom_site_type_symbol
 _atom_site_label
 _atom_site_symmetry_multiplicity
 _atom_site_fract_x
 _atom_site_fract_y
 _atom_site_fract_z
 _atom_site_occupancy
  Tb  Tb0  1  0.351316  0.351368  0.351368  1
  Tb  Tb1  1  0.347095  0.347800  0.953809  1
  Tb  Tb2  1  0.347099  0.953809  0.347798  1
  Tb  Tb3  1  0.952628  0.347651  0.347651  1
  Tb  Tb4  1  0.817003  0.187127  0.187128  1
  Tb  Tb5  1  0.187713  0.810756  0.810756  1
  Tb  Tb6  1  0.187864  0.816231  0.188001  1
  Tb  Tb7  1  0.810562  0.186438  0.810339  1
  Tb  Tb8  1  0.187864  0.188000  0.816231  1
  Tb  Tb9  1  0.810563  0.810339  0.186439  1
  Tb  Tb10  1  0.940658  0.558863  0.558863  1
  Tb  Tb11  1  0.554922  0.942000  0.942000  1
  Pr  Pr12  1  0.564025  0.935951  0.565223  1
  Pr  Pr13  1  0.937234  0.560697  0.935276  1
  Pr  Pr14  1  0.564026  0.565223  0.935951  1
  Pr  Pr15  1  0.937235  0.935277  0.560696  1
  Cd  Cd16  1  0.582569  0.577960  0.577960  1
  Cd  Cd17  1  0.578592  0.583144  0.258847  1
  Cd  Cd18  1  0.578592  0.258847  0.583142  1
  Cd  Cd19  1  0.259218  0.578728  0.578729  1
  Ru  Ru20  1  0.144781  0.141200  0.141203  1
  Pt  Pt21  1  0.142798  0.146162  0.573258  1
  Pt  Pt22  1  0.142796  0.573260  0.146161  1
  Pt  Pt23  1  0.572846  0.143167  0.143167  1
