# generated using pymatgen
data_YbEr2Lu5(B6Os)4
_symmetry_space_group_name_H-M   'P 1'
_cell_length_a   3.60616800
_cell_length_b   9.06032325
_cell_length_c   11.44187005
_cell_angle_alpha   89.93283188
_cell_angle_beta   90.00000000
_cell_angle_gamma   90.00000000
_symmetry_Int_Tables_number   1
_chemical_formula_structural   YbEr2Lu5(B6Os)4
_chemical_formula_sum   'Yb1 Er2 Lu5 B24 Os4'
_cell_volume   373.84050990
_cell_formula_units_Z   1
loop_
 _symmetry_equiv_pos_site_id
 _symmetry_equiv_pos_as_xyz
  1  'x, y, z'
loop_
 _atom_site_type_symbol
 _atom_site_label
 _atom_site_symmetry_multiplicity
 _atom_site_fract_x
 _atom_site_fract_y
 _atom_site_fract_z
 _atom_site_occupancy
  Yb  Yb0  1  0.000000  0.322279  0.413563  1
  Er  Er1  1  0.000000  0.677148  0.585188  1
  Er  Er2  1  0.000000  0.821527  0.086442  1
  Lu  Lu3  1  0.000000  0.179394  0.914580  1
  Lu  Lu4  1  0.000000  0.944631  0.372174  1
  Lu  Lu5  1  0.000000  0.057372  0.627062  1
  Lu  Lu6  1  0.000000  0.443175  0.128318  1
  Lu  Lu7  1  0.000000  0.555784  0.873022  1
  B  B8  1  0.500000  0.553768  0.432697  1
  B  B9  1  0.500000  0.445862  0.567427  1
  B  B10  1  0.500000  0.053468  0.065675  1
  B  B11  1  0.500000  0.946480  0.933007  1
  B  B12  1  0.500000  0.749717  0.419318  1
  B  B13  1  0.500000  0.250670  0.581115  1
  B  B14  1  0.500000  0.248877  0.079739  1
  B  B15  1  0.500000  0.750441  0.919636  1
  B  B16  1  0.500000  0.792463  0.265808  1
  B  B17  1  0.500000  0.208206  0.735106  1
  B  B18  1  0.500000  0.290985  0.233604  1
  B  B19  1  0.500000  0.708326  0.766176  1
  B  B20  1  0.500000  0.630919  0.185124  1
  B  B21  1  0.500000  0.368892  0.816299  1
  B  B22  1  0.500000  0.130593  0.314523  1
  B  B23  1  0.500000  0.869402  0.684656  1
  B  B24  1  0.500000  0.982281  0.212238  1
  B  B25  1  0.500000  0.018552  0.787024  1
  B  B26  1  0.500000  0.482283  0.286934  1
  B  B27  1  0.500000  0.517550  0.713593  1
  B  B28  1  0.500000  0.604525  0.029043  1
  B  B29  1  0.500000  0.394714  0.971281  1
  B  B30  1  0.500000  0.102116  0.471747  1
  B  B31  1  0.500000  0.896730  0.528538  1
  Os  Os32  1  0.000000  0.639707  0.319946  1
  Os  Os33  1  0.000000  0.361579  0.681011  1
  Os  Os34  1  0.000000  0.136946  0.177362  1
  Os  Os35  1  0.000000  0.862632  0.821027  1
