# generated using pymatgen
data_TmTaAl4Mo
_symmetry_space_group_name_H-M   'P 1'
_cell_length_a   5.50459799
_cell_length_b   5.50459906
_cell_length_c   5.50459844
_cell_angle_alpha   103.88997715
_cell_angle_beta   103.88997676
_cell_angle_gamma   121.32444375
_symmetry_Int_Tables_number   1
_chemical_formula_structural   TmTaAl4Mo
_chemical_formula_sum   'Tm1 Ta1 Al4 Mo1'
_cell_volume   124.20684453
_cell_formula_units_Z   1
loop_
 _symmetry_equiv_pos_site_id
 _symmetry_equiv_pos_as_xyz
  1  'x, y, z'
loop_
 _atom_site_type_symbol
 _atom_site_label
 _atom_site_symmetry_multiplicity
 _atom_site_fract_x
 _atom_site_fract_y
 _atom_site_fract_z
 _atom_site_occupancy
  Tm  Tm0  1  0.000000  0.000000  0.000000  1
  Ta  Ta1  1  0.750000  0.250000  0.500000  1
  Al  Al2  1  0.306383  0.306383  0.612765  1
  Al  Al3  1  0.693617  0.693617  0.387235  1
  Al  Al4  1  0.693617  0.306383  0.000000  1
  Al  Al5  1  0.306383  0.693617  0.000000  1
  Mo  Mo6  1  0.250000  0.750000  0.500000  1
