# generated using pymatgen
data_LiCe2DyIn3Ir2
_symmetry_space_group_name_H-M   'P 1'
_cell_length_a   7.71466703
_cell_length_b   7.71488189
_cell_length_c   3.87543500
_cell_angle_alpha   90.00000000
_cell_angle_beta   90.00000000
_cell_angle_gamma   120.89066078
_symmetry_Int_Tables_number   1
_chemical_formula_structural   LiCe2DyIn3Ir2
_chemical_formula_sum   'Li1 Ce2 Dy1 In3 Ir2'
_cell_volume   197.93811227
_cell_formula_units_Z   1
loop_
 _symmetry_equiv_pos_site_id
 _symmetry_equiv_pos_as_xyz
  1  'x, y, z'
loop_
 _atom_site_type_symbol
 _atom_site_label
 _atom_site_symmetry_multiplicity
 _atom_site_fract_x
 _atom_site_fract_y
 _atom_site_fract_z
 _atom_site_occupancy
  Li  Li0  1  0.994211  0.994261  0.000000  1
  Ce  Ce1  1  0.574691  0.000842  0.000000  1
  Ce  Ce2  1  0.000820  0.574728  0.000000  1
  Dy  Dy3  1  0.418748  0.418745  0.000000  1
  In  In4  1  0.007400  0.247808  0.500000  1
  In  In5  1  0.743464  0.743519  0.500000  1
  In  In6  1  0.247791  0.007298  0.500000  1
  Ir  Ir7  1  0.331070  0.681715  0.500000  1
  Ir  Ir8  1  0.681804  0.331083  0.500000  1
