# generated using pymatgen
data_Eu5Sb3Cl
_symmetry_space_group_name_H-M   'P 1'
_cell_length_a   9.48968100
_cell_length_b   9.48968091
_cell_length_c   7.11135000
_cell_angle_alpha   90.00000000
_cell_angle_beta   90.00000000
_cell_angle_gamma   119.99999684
_symmetry_Int_Tables_number   1
_chemical_formula_structural   Eu5Sb3Cl
_chemical_formula_sum   'Eu10 Sb6 Cl2'
_cell_volume   554.60773516
_cell_formula_units_Z   2
loop_
 _symmetry_equiv_pos_site_id
 _symmetry_equiv_pos_as_xyz
  1  'x, y, z'
loop_
 _atom_site_type_symbol
 _atom_site_label
 _atom_site_symmetry_multiplicity
 _atom_site_fract_x
 _atom_site_fract_y
 _atom_site_fract_z
 _atom_site_occupancy
  Eu  Eu0  1  0.258941  0.000000  0.250000  1
  Eu  Eu1  1  0.000000  0.741059  0.750000  1
  Eu  Eu2  1  0.741059  0.741059  0.250000  1
  Eu  Eu3  1  0.258941  0.258941  0.750000  1
  Eu  Eu4  1  0.741059  0.000000  0.750000  1
  Eu  Eu5  1  0.000000  0.258941  0.250000  1
  Eu  Eu6  1  0.666667  0.333333  0.500000  1
  Eu  Eu7  1  0.333333  0.666667  0.000000  1
  Eu  Eu8  1  0.333333  0.666667  0.500000  1
  Eu  Eu9  1  0.666667  0.333333  0.000000  1
  Sb  Sb10  1  0.608331  0.608331  0.750000  1
  Sb  Sb11  1  0.000000  0.608331  0.250000  1
  Sb  Sb12  1  0.608331  0.000000  0.250000  1
  Sb  Sb13  1  0.391669  0.000000  0.750000  1
  Sb  Sb14  1  0.000000  0.391669  0.750000  1
  Sb  Sb15  1  0.391669  0.391669  0.250000  1
  Cl  Cl16  1  0.000000  0.000000  0.500000  1
  Cl  Cl17  1  0.000000  0.000000  0.000000  1
