# generated using pymatgen
data_PrGd4Al2Ru3
_symmetry_space_group_name_H-M   'P 1'
_cell_length_a   8.43092926
_cell_length_b   8.43092915
_cell_length_c   8.41314000
_cell_angle_alpha   109.52351180
_cell_angle_beta   109.41663712
_cell_angle_gamma   109.55903249
_symmetry_Int_Tables_number   1
_chemical_formula_structural   PrGd4Al2Ru3
_chemical_formula_sum   'Pr2 Gd8 Al4 Ru6'
_cell_volume   459.86181761
_cell_formula_units_Z   2
loop_
 _symmetry_equiv_pos_site_id
 _symmetry_equiv_pos_as_xyz
  1  'x, y, z'
loop_
 _atom_site_type_symbol
 _atom_site_label
 _atom_site_symmetry_multiplicity
 _atom_site_fract_x
 _atom_site_fract_y
 _atom_site_fract_z
 _atom_site_occupancy
  Pr  Pr0  1  0.281982  0.501423  0.002872  1
  Pr  Pr1  1  0.998551  0.279109  0.497128  1
  Gd  Gd2  1  0.250196  0.685302  0.435571  1
  Gd  Gd3  1  0.749731  0.814625  0.064429  1
  Gd  Gd4  1  0.434204  0.247858  0.683181  1
  Gd  Gd5  1  0.682909  0.432909  0.250000  1
  Gd  Gd6  1  0.064677  0.751023  0.816819  1
  Gd  Gd7  1  0.815735  0.065735  0.750000  1
  Gd  Gd8  1  0.215889  0.212866  0.213560  1
  Gd  Gd9  1  0.499307  0.002329  0.286440  1
  Al  Al10  1  0.588948  0.590246  0.588253  1
  Al  Al11  1  0.501992  0.000694  0.911747  1
  Al  Al12  1  0.906807  0.501296  0.001209  1
  Al  Al13  1  0.000087  0.905598  0.498791  1
  Ru  Ru14  1  0.251425  0.116547  0.869902  1
  Ru  Ru15  1  0.746646  0.381522  0.630098  1
  Ru  Ru16  1  0.871978  0.250775  0.117474  1
  Ru  Ru17  1  0.122388  0.872387  0.250000  1
  Ru  Ru18  1  0.633301  0.754505  0.382526  1
  Ru  Ru19  1  0.383246  0.633246  0.750000  1
