# generated using pymatgen
data_TlOsRu3Pb3O13
_symmetry_space_group_name_H-M   'P 1'
_cell_length_a   7.34432183
_cell_length_b   7.38744339
_cell_length_c   7.37857800
_cell_angle_alpha   60.03968979
_cell_angle_beta   59.84558567
_cell_angle_gamma   59.88394764
_symmetry_Int_Tables_number   1
_chemical_formula_structural   TlOsRu3Pb3O13
_chemical_formula_sum   'Tl1 Os1 Ru3 Pb3 O13'
_cell_volume   282.58054337
_cell_formula_units_Z   1
loop_
 _symmetry_equiv_pos_site_id
 _symmetry_equiv_pos_as_xyz
  1  'x, y, z'
loop_
 _atom_site_type_symbol
 _atom_site_label
 _atom_site_symmetry_multiplicity
 _atom_site_fract_x
 _atom_site_fract_y
 _atom_site_fract_z
 _atom_site_occupancy
  Tl  Tl0  1  0.892040  0.369953  0.369004  1
  Os  Os1  1  0.872980  0.374913  0.876053  1
  Ru  Ru2  1  0.872681  0.876145  0.375195  1
  Ru  Ru3  1  0.872681  0.876145  0.875978  1
  Ru  Ru4  1  0.373837  0.874539  0.875812  1
  Pb  Pb5  1  0.367823  0.375405  0.377767  1
  Pb  Pb6  1  0.367823  0.375405  0.879006  1
  Pb  Pb7  1  0.371230  0.876382  0.376194  1
  O  O8  1  0.198969  0.797624  0.804227  1
  O  O9  1  0.198969  0.797624  0.199180  1
  O  O10  1  0.551490  0.950430  0.943947  1
  O  O11  1  0.551490  0.950430  0.554134  1
  O  O12  1  0.944107  0.945233  0.555330  1
  O  O13  1  0.802433  0.802573  0.197496  1
  O  O14  1  0.563847  0.558296  0.938929  1
  O  O15  1  0.808593  0.194734  0.810000  1
  O  O16  1  0.808593  0.194734  0.186672  1
  O  O17  1  0.947709  0.552904  0.938729  1
  O  O18  1  0.947709  0.552904  0.560658  1
  O  O19  1  0.195787  0.202830  0.800691  1
  O  O20  1  0.489208  0.500797  0.504998  1
