# generated using pymatgen
data_YbY2Ho5(B6Os)4
_symmetry_space_group_name_H-M   'P 1'
_cell_length_a   3.64777300
_cell_length_b   9.14362962
_cell_length_c   11.53142328
_cell_angle_alpha   90.07877533
_cell_angle_beta   90.00000000
_cell_angle_gamma   90.00000000
_symmetry_Int_Tables_number   1
_chemical_formula_structural   YbY2Ho5(B6Os)4
_chemical_formula_sum   'Yb1 Y2 Ho5 B24 Os4'
_cell_volume   384.61740514
_cell_formula_units_Z   1
loop_
 _symmetry_equiv_pos_site_id
 _symmetry_equiv_pos_as_xyz
  1  'x, y, z'
loop_
 _atom_site_type_symbol
 _atom_site_label
 _atom_site_symmetry_multiplicity
 _atom_site_fract_x
 _atom_site_fract_y
 _atom_site_fract_z
 _atom_site_occupancy
  Yb  Yb0  1  0.000000  0.822941  0.086389  1
  Y  Y1  1  0.000000  0.322038  0.413512  1
  Y  Y2  1  0.000000  0.678449  0.585599  1
  Ho  Ho3  1  0.000000  0.176461  0.914950  1
  Ho  Ho4  1  0.000000  0.942881  0.370895  1
  Ho  Ho5  1  0.000000  0.056263  0.627455  1
  Ho  Ho6  1  0.000000  0.443851  0.128022  1
  Ho  Ho7  1  0.000000  0.558067  0.872823  1
  B  B8  1  0.500000  0.553233  0.433107  1
  B  B9  1  0.500000  0.445975  0.567753  1
  B  B10  1  0.500000  0.053430  0.067206  1
  B  B11  1  0.500000  0.946365  0.932873  1
  B  B12  1  0.500000  0.747551  0.418922  1
  B  B13  1  0.500000  0.251757  0.580914  1
  B  B14  1  0.500000  0.248012  0.080557  1
  B  B15  1  0.500000  0.752544  0.919294  1
  B  B16  1  0.500000  0.789840  0.266127  1
  B  B17  1  0.500000  0.209381  0.733868  1
  B  B18  1  0.500000  0.290901  0.233338  1
  B  B19  1  0.500000  0.710155  0.766411  1
  B  B20  1  0.500000  0.631071  0.185904  1
  B  B21  1  0.500000  0.368741  0.814960  1
  B  B22  1  0.500000  0.131264  0.313618  1
  B  B23  1  0.500000  0.869096  0.685291  1
  B  B24  1  0.500000  0.983072  0.212105  1
  B  B25  1  0.500000  0.017097  0.787339  1
  B  B26  1  0.500000  0.482994  0.287626  1
  B  B27  1  0.500000  0.516956  0.713303  1
  B  B28  1  0.500000  0.604328  0.029080  1
  B  B29  1  0.500000  0.394557  0.970814  1
  B  B30  1  0.500000  0.107043  0.470011  1
  B  B31  1  0.500000  0.893084  0.529250  1
  Os  Os32  1  0.000000  0.636548  0.322157  1
  Os  Os33  1  0.000000  0.362446  0.679242  1
  Os  Os34  1  0.000000  0.138690  0.178788  1
  Os  Os35  1  0.000000  0.862914  0.820500  1
