# generated using pymatgen
data_Pr5IrOs
_symmetry_space_group_name_H-M   'P 1'
_cell_length_a   9.03992005
_cell_length_b   9.03991983
_cell_length_c   7.45610782
_cell_angle_alpha   83.68282318
_cell_angle_beta   83.68282415
_cell_angle_gamma   43.61690737
_symmetry_Int_Tables_number   1
_chemical_formula_structural   Pr5IrOs
_chemical_formula_sum   'Pr10 Ir2 Os2'
_cell_volume   417.36291370
_cell_formula_units_Z   2
loop_
 _symmetry_equiv_pos_site_id
 _symmetry_equiv_pos_as_xyz
  1  'x, y, z'
loop_
 _atom_site_type_symbol
 _atom_site_label
 _atom_site_symmetry_multiplicity
 _atom_site_fract_x
 _atom_site_fract_y
 _atom_site_fract_z
 _atom_site_occupancy
  Pr  Pr0  1  0.020107  0.796815  0.915989  1
  Pr  Pr1  1  0.203185  0.979893  0.584011  1
  Pr  Pr2  1  0.984195  0.200529  0.080929  1
  Pr  Pr3  1  0.799471  0.015805  0.419071  1
  Pr  Pr4  1  0.351152  0.212722  0.816645  1
  Pr  Pr5  1  0.787278  0.648848  0.683355  1
  Pr  Pr6  1  0.645830  0.787171  0.182130  1
  Pr  Pr7  1  0.212829  0.354170  0.317870  1
  Pr  Pr8  1  0.566862  0.433138  0.750000  1
  Pr  Pr9  1  0.431753  0.568247  0.250000  1
  Ir  Ir10  1  0.822785  0.401057  0.424927  1
  Ir  Ir11  1  0.598943  0.177215  0.075073  1
  Os  Os12  1  0.176616  0.601008  0.572701  1
  Os  Os13  1  0.398992  0.823384  0.927299  1
