# generated using pymatgen
data_PrSm3(Sn5Rh3)2
_symmetry_space_group_name_H-M   'P 1'
_cell_length_a   13.58236356
_cell_length_b   13.58236417
_cell_length_c   7.25337351
_cell_angle_alpha   89.92232571
_cell_angle_beta   90.07767509
_cell_angle_gamma   160.81757128
_symmetry_Int_Tables_number   1
_chemical_formula_structural   PrSm3(Sn5Rh3)2
_chemical_formula_sum   'Pr1 Sm3 Sn10 Rh6'
_cell_volume   439.67070549
_cell_formula_units_Z   1
loop_
 _symmetry_equiv_pos_site_id
 _symmetry_equiv_pos_as_xyz
  1  'x, y, z'
loop_
 _atom_site_type_symbol
 _atom_site_label
 _atom_site_symmetry_multiplicity
 _atom_site_fract_x
 _atom_site_fract_y
 _atom_site_fract_z
 _atom_site_occupancy
  Pr  Pr0  1  0.172706  0.827294  0.752593  1
  Sm  Sm1  1  0.828220  0.171780  0.254219  1
  Sm  Sm2  1  0.475604  0.524396  0.739720  1
  Sm  Sm3  1  0.523554  0.476446  0.239106  1
  Sn  Sn4  1  0.879563  0.120437  0.731429  1
  Sn  Sn5  1  0.120594  0.879406  0.233443  1
  Sn  Sn6  1  0.704826  0.295174  0.048138  1
  Sn  Sn7  1  0.295709  0.704291  0.546435  1
  Sn  Sn8  1  0.595317  0.404683  0.613235  1
  Sn  Sn9  1  0.403390  0.596610  0.111684  1
  Sn  Sn10  1  0.952016  0.047984  0.401229  1
  Sn  Sn11  1  0.047405  0.952595  0.901522  1
  Sn  Sn12  1  0.291138  0.708862  0.975974  1
  Sn  Sn13  1  0.710239  0.289761  0.473352  1
  Rh  Rh14  1  0.050444  0.949556  0.518712  1
  Rh  Rh15  1  0.948722  0.051278  0.019214  1
  Rh  Rh16  1  0.778096  0.221904  0.763065  1
  Rh  Rh17  1  0.223144  0.776856  0.262598  1
  Rh  Rh18  1  0.394696  0.605304  0.483629  1
  Rh  Rh19  1  0.604616  0.395384  0.986699  1
