# generated using pymatgen
data_Nd5Si9P3Ir19
_symmetry_space_group_name_H-M   'P 1'
_cell_length_a   12.90607900
_cell_length_b   12.90607901
_cell_length_c   3.99026000
_cell_angle_alpha   90.00000000
_cell_angle_beta   90.00000000
_cell_angle_gamma   120.00000254
_symmetry_Int_Tables_number   1
_chemical_formula_structural   Nd5Si9P3Ir19
_chemical_formula_sum   'Nd5 Si9 P3 Ir19'
_cell_volume   575.59956082
_cell_formula_units_Z   1
loop_
 _symmetry_equiv_pos_site_id
 _symmetry_equiv_pos_as_xyz
  1  'x, y, z'
loop_
 _atom_site_type_symbol
 _atom_site_label
 _atom_site_symmetry_multiplicity
 _atom_site_fract_x
 _atom_site_fract_y
 _atom_site_fract_z
 _atom_site_occupancy
  Nd  Nd0  1  0.000000  0.813499  0.500000  1
  Nd  Nd1  1  0.186501  0.186501  0.500000  1
  Nd  Nd2  1  0.813499  0.000000  0.500000  1
  Nd  Nd3  1  0.333333  0.666667  0.000000  1
  Nd  Nd4  1  0.666667  0.333333  0.000000  1
  Si  Si5  1  0.519780  0.687334  0.500000  1
  Si  Si6  1  0.312666  0.832446  0.500000  1
  Si  Si7  1  0.167554  0.480220  0.500000  1
  Si  Si8  1  0.480220  0.167554  0.500000  1
  Si  Si9  1  0.687334  0.519780  0.500000  1
  Si  Si10  1  0.832446  0.312666  0.500000  1
  Si  Si11  1  0.000000  0.630851  0.000000  1
  Si  Si12  1  0.369149  0.369149  0.000000  1
  Si  Si13  1  0.630851  0.000000  0.000000  1
  P  P14  1  0.000000  0.180784  0.000000  1
  P  P15  1  0.819216  0.819216  0.000000  1
  P  P16  1  0.180784  0.000000  0.000000  1
  Ir  Ir17  1  0.000000  0.280766  0.500000  1
  Ir  Ir18  1  0.719234  0.719234  0.500000  1
  Ir  Ir19  1  0.280766  0.000000  0.500000  1
  Ir  Ir20  1  0.625399  0.805035  0.000000  1
  Ir  Ir21  1  0.194965  0.820364  0.000000  1
  Ir  Ir22  1  0.179636  0.374601  0.000000  1
  Ir  Ir23  1  0.374601  0.179636  0.000000  1
  Ir  Ir24  1  0.805035  0.625399  0.000000  1
  Ir  Ir25  1  0.820364  0.194965  0.000000  1
  Ir  Ir26  1  0.513280  0.874187  0.500000  1
  Ir  Ir27  1  0.125813  0.639093  0.500000  1
  Ir  Ir28  1  0.360907  0.486720  0.500000  1
  Ir  Ir29  1  0.486720  0.360907  0.500000  1
  Ir  Ir30  1  0.874187  0.513280  0.500000  1
  Ir  Ir31  1  0.639093  0.125813  0.500000  1
  Ir  Ir32  1  0.000000  0.000000  0.000000  1
  Ir  Ir33  1  0.000000  0.446747  0.000000  1
  Ir  Ir34  1  0.553253  0.553253  0.000000  1
  Ir  Ir35  1  0.446747  0.000000  0.000000  1
