# generated using pymatgen
data_Tb5Th3(ZnRh)8
_symmetry_space_group_name_H-M   'P 1'
_cell_length_a   3.94435500
_cell_length_b   7.31423289
_cell_length_c   16.44116239
_cell_angle_alpha   89.47557283
_cell_angle_beta   90.00000000
_cell_angle_gamma   90.00000000
_symmetry_Int_Tables_number   1
_chemical_formula_structural   Tb5Th3(ZnRh)8
_chemical_formula_sum   'Tb5 Th3 Zn8 Rh8'
_cell_volume   474.30653271
_cell_formula_units_Z   1
loop_
 _symmetry_equiv_pos_site_id
 _symmetry_equiv_pos_as_xyz
  1  'x, y, z'
loop_
 _atom_site_type_symbol
 _atom_site_label
 _atom_site_symmetry_multiplicity
 _atom_site_fract_x
 _atom_site_fract_y
 _atom_site_fract_z
 _atom_site_occupancy
  Tb  Tb0  1  0.250000  0.672109  0.561350  1
  Tb  Tb1  1  0.750000  0.830601  0.058517  1
  Tb  Tb2  1  0.250000  0.057217  0.715172  1
  Tb  Tb3  1  0.250000  0.171028  0.940603  1
  Tb  Tb4  1  0.750000  0.941841  0.285041  1
  Th  Th5  1  0.250000  0.554869  0.784092  1
  Th  Th6  1  0.750000  0.448549  0.214029  1
  Th  Th7  1  0.750000  0.328769  0.440702  1
  Zn  Zn8  1  0.250000  0.104442  0.153111  1
  Zn  Zn9  1  0.750000  0.501339  0.943048  1
  Zn  Zn10  1  0.750000  0.993480  0.562784  1
  Zn  Zn11  1  0.750000  0.381362  0.649700  1
  Zn  Zn12  1  0.750000  0.896207  0.847902  1
  Zn  Zn13  1  0.250000  0.499685  0.056122  1
  Zn  Zn14  1  0.250000  0.624910  0.348044  1
  Zn  Zn15  1  0.250000  0.988362  0.438064  1
  Rh  Rh16  1  0.750000  0.745964  0.436403  1
  Rh  Rh17  1  0.750000  0.270033  0.813756  1
  Rh  Rh18  1  0.750000  0.754256  0.691489  1
  Rh  Rh19  1  0.250000  0.732962  0.184914  1
  Rh  Rh20  1  0.250000  0.752488  0.932895  1
  Rh  Rh21  1  0.250000  0.251154  0.559859  1
  Rh  Rh22  1  0.750000  0.249648  0.068573  1
  Rh  Rh23  1  0.250000  0.248724  0.313826  1
