# generated using pymatgen
data_Li3Hf5(Si4Ru3)4
_symmetry_space_group_name_H-M   'P 1'
_cell_length_a   9.84652237
_cell_length_b   9.83600072
_cell_length_c   13.31570083
_cell_angle_alpha   54.03605444
_cell_angle_beta   53.99268419
_cell_angle_gamma   31.18003341
_symmetry_Int_Tables_number   1
_chemical_formula_structural   Li3Hf5(Si4Ru3)4
_chemical_formula_sum   'Li3 Hf5 Si16 Ru12'
_cell_volume   529.05630521
_cell_formula_units_Z   1
loop_
 _symmetry_equiv_pos_site_id
 _symmetry_equiv_pos_as_xyz
  1  'x, y, z'
loop_
 _atom_site_type_symbol
 _atom_site_label
 _atom_site_symmetry_multiplicity
 _atom_site_fract_x
 _atom_site_fract_y
 _atom_site_fract_z
 _atom_site_occupancy
  Li  Li0  1  0.298637  0.555856  0.649357  1
  Li  Li1  1  0.439175  0.704114  0.852197  1
  Li  Li2  1  0.700991  0.445369  0.351507  1
  Hf  Hf3  1  0.558612  0.299062  0.143350  1
  Hf  Hf4  1  0.039629  0.290921  0.636902  1
  Hf  Hf5  1  0.709382  0.959045  0.861976  1
  Hf  Hf6  1  0.961953  0.704146  0.364459  1
  Hf  Hf7  1  0.296505  0.035960  0.136677  1
  Si  Si8  1  0.874166  0.127562  0.252332  1
  Si  Si9  1  0.132390  0.869589  0.749241  1
  Si  Si10  1  0.388081  0.614480  0.253862  1
  Si  Si11  1  0.613723  0.385935  0.749070  1
  Si  Si12  1  0.964517  0.259424  0.895590  1
  Si  Si13  1  0.746422  0.027004  0.606947  1
  Si  Si14  1  0.022327  0.752816  0.106198  1
  Si  Si15  1  0.252347  0.976707  0.390206  1
  Si  Si16  1  0.575717  0.081448  0.064874  1
  Si  Si17  1  0.911939  0.423601  0.432071  1
  Si  Si18  1  0.424200  0.914223  0.929731  1
  Si  Si19  1  0.084558  0.577661  0.567591  1
  Si  Si20  1  0.382146  0.148219  0.396181  1
  Si  Si21  1  0.855295  0.606971  0.108747  1
  Si  Si22  1  0.615092  0.851389  0.605027  1
  Si  Si23  1  0.146405  0.386209  0.895546  1
  Ru  Ru24  1  0.651676  0.830743  0.281314  1
  Ru  Ru25  1  0.173855  0.354081  0.215987  1
  Ru  Ru26  1  0.759453  0.482808  0.068329  1
  Ru  Ru27  1  0.829987  0.650957  0.782185  1
  Ru  Ru28  1  0.907663  0.131128  0.586794  1
  Ru  Ru29  1  0.854471  0.105207  0.914770  1
  Ru  Ru30  1  0.092670  0.867629  0.414488  1
  Ru  Ru31  1  0.144001  0.895582  0.089376  1
  Ru  Ru32  1  0.238004  0.516583  0.932422  1
  Ru  Ru33  1  0.491205  0.756671  0.567261  1
  Ru  Ru34  1  0.513704  0.239335  0.431377  1
  Ru  Ru35  1  0.349099  0.171567  0.716060  1
