# generated using pymatgen
data_Hf7MnFe5Co11P12
_symmetry_space_group_name_H-M   'P 1'
_cell_length_a   11.96112857
_cell_length_b   11.94209398
_cell_length_c   3.63188800
_cell_angle_alpha   90.00000000
_cell_angle_beta   90.00000000
_cell_angle_gamma   120.26934871
_symmetry_Int_Tables_number   1
_chemical_formula_structural   Hf7MnFe5Co11P12
_chemical_formula_sum   'Hf7 Mn1 Fe5 Co11 P12'
_cell_volume   448.05422579
_cell_formula_units_Z   1
loop_
 _symmetry_equiv_pos_site_id
 _symmetry_equiv_pos_as_xyz
  1  'x, y, z'
loop_
 _atom_site_type_symbol
 _atom_site_label
 _atom_site_symmetry_multiplicity
 _atom_site_fract_x
 _atom_site_fract_y
 _atom_site_fract_z
 _atom_site_occupancy
  Hf  Hf0  1  0.813022  0.811837  0.500000  1
  Hf  Hf1  1  0.002147  0.179059  0.500000  1
  Hf  Hf2  1  0.556119  0.999363  0.000000  1
  Hf  Hf3  1  0.334058  0.666411  0.000000  1
  Hf  Hf4  1  0.665427  0.335445  0.000000  1
  Hf  Hf5  1  0.999098  0.556759  0.000000  1
  Hf  Hf6  1  0.178764  0.999945  0.500000  1
  Mn  Mn7  1  0.446970  0.449518  0.000000  1
  Fe  Fe8  1  0.624487  0.816651  0.000000  1
  Fe  Fe9  1  0.376297  0.203422  0.000000  1
  Fe  Fe10  1  0.000823  0.723101  0.500000  1
  Fe  Fe11  1  0.282429  0.284686  0.500000  1
  Fe  Fe12  1  0.813981  0.622797  0.000000  1
  Co  Co13  1  0.873862  0.355166  0.500000  1
  Co  Co14  1  0.723621  0.000298  0.500000  1
  Co  Co15  1  0.182033  0.810144  0.000000  1
  Co  Co16  1  0.356994  0.873155  0.500000  1
  Co  Co17  1  0.131027  0.480837  0.500000  1
  Co  Co18  1  0.636822  0.513230  0.500000  1
  Co  Co19  1  0.002055  0.001730  0.000000  1
  Co  Co20  1  0.514516  0.639485  0.500000  1
  Co  Co21  1  0.482879  0.130026  0.500000  1
  Co  Co22  1  0.200814  0.375334  0.000000  1
  Co  Co23  1  0.809051  0.178398  0.000000  1
  P  P24  1  0.005512  0.348716  0.000000  1
  P  P25  1  0.824987  0.519501  0.500000  1
  P  P26  1  0.690602  0.174418  0.500000  1
  P  P27  1  0.180374  0.178375  0.000000  1
  P  P28  1  0.636832  0.636864  0.000000  1
  P  P29  1  0.822684  0.994326  0.000000  1
  P  P30  1  0.517198  0.824422  0.500000  1
  P  P31  1  0.173258  0.691698  0.500000  1
  P  P32  1  0.349530  0.007921  0.000000  1
  P  P33  1  0.478306  0.315316  0.500000  1
  P  P34  1  0.995573  0.820972  0.000000  1
  P  P35  1  0.317846  0.480675  0.500000  1
