# generated using pymatgen
data_Nd3Sm5(Si3Pt)4
_symmetry_space_group_name_H-M   'P 1'
_cell_length_a   8.20432900
_cell_length_b   8.20741394
_cell_length_c   8.49764000
_cell_angle_alpha   90.00000000
_cell_angle_beta   90.00000000
_cell_angle_gamma   119.98757107
_symmetry_Int_Tables_number   1
_chemical_formula_structural   Nd3Sm5(Si3Pt)4
_chemical_formula_sum   'Nd3 Sm5 Si12 Pt4'
_cell_volume   495.60164972
_cell_formula_units_Z   1
loop_
 _symmetry_equiv_pos_site_id
 _symmetry_equiv_pos_as_xyz
  1  'x, y, z'
loop_
 _atom_site_type_symbol
 _atom_site_label
 _atom_site_symmetry_multiplicity
 _atom_site_fract_x
 _atom_site_fract_y
 _atom_site_fract_z
 _atom_site_occupancy
  Nd  Nd0  1  0.500761  0.001522  0.250000  1
  Nd  Nd1  1  0.999986  0.999971  0.750000  1
  Nd  Nd2  1  0.999990  0.999979  0.250000  1
  Sm  Sm3  1  0.499208  0.500778  0.750000  1
  Sm  Sm4  1  0.500729  0.499335  0.250000  1
  Sm  Sm5  1  0.001571  0.500778  0.750000  1
  Sm  Sm6  1  0.998607  0.499336  0.250000  1
  Sm  Sm7  1  0.499210  0.998420  0.750000  1
  Si  Si8  1  0.834139  0.166361  0.998251  1
  Si  Si9  1  0.165850  0.833636  0.000010  1
  Si  Si10  1  0.332222  0.166361  0.998251  1
  Si  Si11  1  0.165850  0.833636  0.499990  1
  Si  Si12  1  0.667786  0.833636  0.000010  1
  Si  Si13  1  0.834139  0.166361  0.501749  1
  Si  Si14  1  0.833909  0.667818  0.999237  1
  Si  Si15  1  0.667786  0.833636  0.499990  1
  Si  Si16  1  0.166061  0.332122  0.000883  1
  Si  Si17  1  0.332222  0.166361  0.501749  1
  Si  Si18  1  0.166061  0.332122  0.499117  1
  Si  Si19  1  0.833909  0.667818  0.500763  1
  Pt  Pt20  1  0.666978  0.333956  0.996628  1
  Pt  Pt21  1  0.333023  0.666047  0.999951  1
  Pt  Pt22  1  0.333023  0.666047  0.500049  1
  Pt  Pt23  1  0.666978  0.333956  0.503372  1
