# generated using pymatgen
data_BaCd4PtAu
_symmetry_space_group_name_H-M   'P 1'
_cell_length_a   8.65669990
_cell_length_b   8.65669990
_cell_length_c   4.54224200
_cell_angle_alpha   90.00000000
_cell_angle_beta   90.00000000
_cell_angle_gamma   91.07214639
_symmetry_Int_Tables_number   1
_chemical_formula_structural   BaCd4PtAu
_chemical_formula_sum   'Ba2 Cd8 Pt2 Au2'
_cell_volume   340.32899618
_cell_formula_units_Z   2
loop_
 _symmetry_equiv_pos_site_id
 _symmetry_equiv_pos_as_xyz
  1  'x, y, z'
loop_
 _atom_site_type_symbol
 _atom_site_label
 _atom_site_symmetry_multiplicity
 _atom_site_fract_x
 _atom_site_fract_y
 _atom_site_fract_z
 _atom_site_occupancy
  Ba  Ba0  1  0.500000  0.500000  0.500000  1
  Ba  Ba1  1  0.000000  0.000000  0.000000  1
  Cd  Cd2  1  0.340622  0.093032  0.500000  1
  Cd  Cd3  1  0.659378  0.906968  0.500000  1
  Cd  Cd4  1  0.838157  0.418688  0.000000  1
  Cd  Cd5  1  0.161843  0.581312  0.000000  1
  Cd  Cd6  1  0.093032  0.340622  0.500000  1
  Cd  Cd7  1  0.906968  0.659378  0.500000  1
  Cd  Cd8  1  0.418688  0.838157  0.000000  1
  Cd  Cd9  1  0.581312  0.161843  0.000000  1
  Pt  Pt10  1  0.278559  0.278559  0.000000  1
  Pt  Pt11  1  0.721441  0.721441  0.000000  1
  Au  Au12  1  0.783090  0.216910  0.500000  1
  Au  Au13  1  0.216910  0.783090  0.500000  1
