# generated using pymatgen
data_TbTh3(BRu)16
_symmetry_space_group_name_H-M   'P 1'
_cell_length_a   9.29670026
_cell_length_b   7.55221059
_cell_length_c   7.55221175
_cell_angle_alpha   89.67300242
_cell_angle_beta   114.11032852
_cell_angle_gamma   114.11033377
_symmetry_Int_Tables_number   1
_chemical_formula_structural   TbTh3(BRu)16
_chemical_formula_sum   'Tb1 Th3 B16 Ru16'
_cell_volume   433.42046975
_cell_formula_units_Z   1
loop_
 _symmetry_equiv_pos_site_id
 _symmetry_equiv_pos_as_xyz
  1  'x, y, z'
loop_
 _atom_site_type_symbol
 _atom_site_label
 _atom_site_symmetry_multiplicity
 _atom_site_fract_x
 _atom_site_fract_y
 _atom_site_fract_z
 _atom_site_occupancy
  Tb  Tb0  1  0.249999  0.125000  0.875000  1
  Th  Th1  1  0.750000  0.874999  0.124999  1
  Th  Th2  1  0.249999  0.624999  0.375000  1
  Th  Th3  1  0.750000  0.375000  0.625000  1
  B  B4  1  0.914181  0.289740  0.063395  1
  B  B5  1  0.415041  0.563731  0.124461  1
  B  B6  1  0.084959  0.209421  0.148691  1
  B  B7  1  0.582302  0.146443  0.206945  1
  B  B8  1  0.412820  0.062853  0.287246  1
  B  B9  1  0.914181  0.624441  0.350785  1
  B  B10  1  0.585819  0.649214  0.375560  1
  B  B11  1  0.084959  0.875539  0.436269  1
  B  B12  1  0.917698  0.124643  0.564141  1
  B  B13  1  0.412820  0.349966  0.625573  1
  B  B14  1  0.087180  0.374427  0.650034  1
  B  B15  1  0.585819  0.936604  0.710259  1
  B  B16  1  0.415041  0.851309  0.790579  1
  B  B17  1  0.917698  0.793055  0.853558  1
  B  B18  1  0.582302  0.435859  0.875356  1
  B  B19  1  0.087180  0.712754  0.937147  1
  Ru  Ru20  1  0.872506  0.551269  0.039150  1
  Ru  Ru21  1  0.371674  0.832457  0.049348  1
  Ru  Ru22  1  0.128326  0.950652  0.167543  1
  Ru  Ru23  1  0.626030  0.458420  0.177357  1
  Ru  Ru24  1  0.373307  0.334113  0.321769  1
  Ru  Ru25  1  0.872506  0.321238  0.333357  1
  Ru  Ru26  1  0.627494  0.960851  0.448731  1
  Ru  Ru27  1  0.128326  0.177674  0.460781  1
  Ru  Ru28  1  0.873970  0.822644  0.541579  1
  Ru  Ru29  1  0.373307  0.039195  0.551538  1
  Ru  Ru30  1  0.126693  0.678231  0.665887  1
  Ru  Ru31  1  0.627494  0.666644  0.678761  1
  Ru  Ru32  1  0.371674  0.539219  0.822326  1
  Ru  Ru33  1  0.873970  0.051326  0.832391  1
  Ru  Ru34  1  0.626030  0.167610  0.948673  1
  Ru  Ru35  1  0.126693  0.448462  0.960805  1
