# generated using pymatgen
data_ErLu2Si2GeRu2
_symmetry_space_group_name_H-M   'P 1'
_cell_length_a   5.66409525
_cell_length_b   5.66409718
_cell_length_c   13.71998500
_cell_angle_alpha   90.00000000
_cell_angle_beta   90.00000000
_cell_angle_gamma   137.06780028
_symmetry_Int_Tables_number   1
_chemical_formula_structural   ErLu2Si2GeRu2
_chemical_formula_sum   'Er2 Lu4 Si4 Ge2 Ru4'
_cell_volume   299.81023047
_cell_formula_units_Z   2
loop_
 _symmetry_equiv_pos_site_id
 _symmetry_equiv_pos_as_xyz
  1  'x, y, z'
loop_
 _atom_site_type_symbol
 _atom_site_label
 _atom_site_symmetry_multiplicity
 _atom_site_fract_x
 _atom_site_fract_y
 _atom_site_fract_z
 _atom_site_occupancy
  Er  Er0  1  0.645317  0.354683  0.250000  1
  Er  Er1  1  0.354683  0.645317  0.750000  1
  Lu  Lu2  1  0.925337  0.074663  0.112298  1
  Lu  Lu3  1  0.074663  0.925337  0.887702  1
  Lu  Lu4  1  0.074663  0.925337  0.612298  1
  Lu  Lu5  1  0.925337  0.074663  0.387702  1
  Si  Si6  1  0.614778  0.385222  0.038372  1
  Si  Si7  1  0.385222  0.614778  0.961628  1
  Si  Si8  1  0.385222  0.614778  0.538372  1
  Si  Si9  1  0.614778  0.385222  0.461628  1
  Ge  Ge10  1  0.340557  0.659443  0.250000  1
  Ge  Ge11  1  0.659443  0.340557  0.750000  1
  Ru  Ru12  1  0.789069  0.210931  0.580025  1
  Ru  Ru13  1  0.210931  0.789069  0.419975  1
  Ru  Ru14  1  0.210931  0.789069  0.080025  1
  Ru  Ru15  1  0.789069  0.210931  0.919975  1
