# generated using pymatgen
data_SmYLu2(NiP)4
_symmetry_space_group_name_H-M   'P 1'
_cell_length_a   3.87832800
_cell_length_b   3.87833024
_cell_length_c   15.39208400
_cell_angle_alpha   90.00000000
_cell_angle_beta   90.00000000
_cell_angle_gamma   120.00001504
_symmetry_Int_Tables_number   1
_chemical_formula_structural   SmYLu2(NiP)4
_chemical_formula_sum   'Sm1 Y1 Lu2 Ni4 P4'
_cell_volume   200.50135524
_cell_formula_units_Z   1
loop_
 _symmetry_equiv_pos_site_id
 _symmetry_equiv_pos_as_xyz
  1  'x, y, z'
loop_
 _atom_site_type_symbol
 _atom_site_label
 _atom_site_symmetry_multiplicity
 _atom_site_fract_x
 _atom_site_fract_y
 _atom_site_fract_z
 _atom_site_occupancy
  Sm  Sm0  1  0.000000  0.000000  0.500000  1
  Y  Y1  1  0.000000  0.000000  0.000000  1
  Lu  Lu2  1  0.000000  0.000000  0.247403  1
  Lu  Lu3  1  0.000000  0.000000  0.752597  1
  Ni  Ni4  1  0.333333  0.666667  0.361320  1
  Ni  Ni5  1  0.666667  0.333333  0.638680  1
  Ni  Ni6  1  0.666667  0.333333  0.867222  1
  Ni  Ni7  1  0.333333  0.666667  0.132778  1
  P  P8  1  0.333333  0.666667  0.877529  1
  P  P9  1  0.666667  0.333333  0.122471  1
  P  P10  1  0.666667  0.333333  0.372256  1
  P  P11  1  0.333333  0.666667  0.627744  1
