# generated using pymatgen
data_Ti7Nb5Al8(CuC)4
_symmetry_space_group_name_H-M   'P 1'
_cell_length_a   8.23448638
_cell_length_b   8.23317374
_cell_length_c   8.23505541
_cell_angle_alpha   60.01683615
_cell_angle_beta   59.87309171
_cell_angle_gamma   60.03430412
_symmetry_Int_Tables_number   1
_chemical_formula_structural   Ti7Nb5Al8(CuC)4
_chemical_formula_sum   'Ti7 Nb5 Al8 Cu4 C4'
_cell_volume   394.55218973
_cell_formula_units_Z   1
loop_
 _symmetry_equiv_pos_site_id
 _symmetry_equiv_pos_as_xyz
  1  'x, y, z'
loop_
 _atom_site_type_symbol
 _atom_site_label
 _atom_site_symmetry_multiplicity
 _atom_site_fract_x
 _atom_site_fract_y
 _atom_site_fract_z
 _atom_site_occupancy
  Ti  Ti0  1  0.319519  0.681211  0.319369  1
  Ti  Ti1  1  0.568975  0.931865  0.567426  1
  Ti  Ti2  1  0.568528  0.931617  0.932935  1
  Ti  Ti3  1  0.933089  0.568805  0.566540  1
  Ti  Ti4  1  0.931170  0.569597  0.931400  1
  Ti  Ti5  1  0.317064  0.318912  0.683316  1
  Ti  Ti6  1  0.567784  0.568057  0.932837  1
  Nb  Nb7  1  0.932996  0.930980  0.567815  1
  Nb  Nb8  1  0.684397  0.318294  0.315912  1
  Nb  Nb9  1  0.315864  0.682781  0.684132  1
  Nb  Nb10  1  0.684053  0.680878  0.316604  1
  Nb  Nb11  1  0.682802  0.318156  0.681270  1
  Al  Al12  1  0.914900  0.254197  0.915611  1
  Al  Al13  1  0.332429  0.332802  0.000162  1
  Al  Al14  1  0.002797  0.331932  0.332271  1
  Al  Al15  1  0.333153  0.334963  0.334800  1
  Al  Al16  1  0.252989  0.915356  0.915734  1
  Al  Al17  1  0.915371  0.915093  0.917128  1
  Al  Al18  1  0.915320  0.915802  0.251454  1
  Al  Al19  1  0.332551  0.998845  0.333229  1
  Cu  Cu20  1  0.125197  0.625028  0.125139  1
  Cu  Cu21  1  0.125197  0.125108  0.625727  1
  Cu  Cu22  1  0.623796  0.125698  0.125328  1
  Cu  Cu23  1  0.124623  0.124470  0.123924  1
  C  C24  1  0.617078  0.122607  0.629723  1
  C  C25  1  0.622789  0.629814  0.117386  1
  C  C26  1  0.127215  0.617993  0.624013  1
  C  C27  1  0.628356  0.629139  0.628813  1
