# generated using pymatgen
data_Ca3La4Pr3Ru4
_symmetry_space_group_name_H-M   'P 1'
_cell_length_a   9.02271757
_cell_length_b   9.07255829
_cell_length_c   7.44733305
_cell_angle_alpha   84.34314214
_cell_angle_beta   83.86027496
_cell_angle_gamma   43.50839722
_symmetry_Int_Tables_number   1
_chemical_formula_structural   Ca3La4Pr3Ru4
_chemical_formula_sum   'Ca3 La4 Pr3 Ru4'
_cell_volume   417.10407109
_cell_formula_units_Z   1
loop_
 _symmetry_equiv_pos_site_id
 _symmetry_equiv_pos_as_xyz
  1  'x, y, z'
loop_
 _atom_site_type_symbol
 _atom_site_label
 _atom_site_symmetry_multiplicity
 _atom_site_fract_x
 _atom_site_fract_y
 _atom_site_fract_z
 _atom_site_occupancy
  Ca  Ca0  1  0.364397  0.208862  0.816883  1
  Ca  Ca1  1  0.790400  0.637888  0.684275  1
  Ca  Ca2  1  0.633906  0.794012  0.184015  1
  La  La3  1  0.011975  0.802837  0.904832  1
  La  La4  1  0.202073  0.986443  0.598809  1
  La  La5  1  0.990018  0.198642  0.097418  1
  La  La6  1  0.803424  0.008179  0.404328  1
  Pr  Pr7  1  0.211228  0.365107  0.318375  1
  Pr  Pr8  1  0.572159  0.428443  0.747582  1
  Pr  Pr9  1  0.430932  0.572001  0.249398  1
  Ru  Ru10  1  0.158556  0.629822  0.582419  1
  Ru  Ru11  1  0.355327  0.842288  0.907666  1
  Ru  Ru12  1  0.850621  0.361679  0.405503  1
  Ru  Ru13  1  0.624983  0.163798  0.098495  1
