# generated using pymatgen
data_Ca2V3As7Rh9
_symmetry_space_group_name_H-M   'P 1'
_cell_length_a   9.95673717
_cell_length_b   9.96020948
_cell_length_c   3.93959600
_cell_angle_alpha   89.99811586
_cell_angle_beta   90.00069730
_cell_angle_gamma   120.06096387
_symmetry_Int_Tables_number   1
_chemical_formula_structural   Ca2V3As7Rh9
_chemical_formula_sum   'Ca2 V3 As7 Rh9'
_cell_volume   338.14324391
_cell_formula_units_Z   1
loop_
 _symmetry_equiv_pos_site_id
 _symmetry_equiv_pos_as_xyz
  1  'x, y, z'
loop_
 _atom_site_type_symbol
 _atom_site_label
 _atom_site_symmetry_multiplicity
 _atom_site_fract_x
 _atom_site_fract_y
 _atom_site_fract_z
 _atom_site_occupancy
  Ca  Ca0  1  0.999963  0.000012  0.763915  1
  Ca  Ca1  1  0.333348  0.666641  0.263890  1
  V  V2  1  0.785715  0.545252  0.763547  1
  V  V3  1  0.454734  0.240343  0.763564  1
  V  V4  1  0.759554  0.214299  0.763542  1
  As  As5  1  0.666764  0.333333  0.263257  1
  As  As6  1  0.074692  0.624595  0.763897  1
  As  As7  1  0.375397  0.450153  0.763894  1
  As  As8  1  0.549942  0.925401  0.763904  1
  As  As9  1  0.253235  0.039529  0.263883  1
  As  As10  1  0.960304  0.213684  0.263870  1
  As  As11  1  0.786278  0.746617  0.263884  1
  Rh  Rh12  1  0.509311  0.060065  0.263858  1
  Rh  Rh13  1  0.940011  0.449387  0.263852  1
  Rh  Rh14  1  0.550674  0.490621  0.263857  1
  Rh  Rh15  1  0.099574  0.381268  0.763883  1
  Rh  Rh16  1  0.618758  0.718378  0.763886  1
  Rh  Rh17  1  0.281670  0.900403  0.763895  1
  Rh  Rh18  1  0.233438  0.271296  0.263888  1
  Rh  Rh19  1  0.728697  0.962140  0.263879  1
  Rh  Rh20  1  0.037942  0.766583  0.263890  1
