# generated using pymatgen
data_Tm3Sc7(SiPb3)2
_symmetry_space_group_name_H-M   'P 1'
_cell_length_a   8.96618200
_cell_length_b   8.96618253
_cell_length_c   6.19732000
_cell_angle_alpha   90.00000000
_cell_angle_beta   90.00000000
_cell_angle_gamma   119.99999804
_symmetry_Int_Tables_number   1
_chemical_formula_structural   Tm3Sc7(SiPb3)2
_chemical_formula_sum   'Tm3 Sc7 Si2 Pb6'
_cell_volume   431.46908914
_cell_formula_units_Z   1
loop_
 _symmetry_equiv_pos_site_id
 _symmetry_equiv_pos_as_xyz
  1  'x, y, z'
loop_
 _atom_site_type_symbol
 _atom_site_label
 _atom_site_symmetry_multiplicity
 _atom_site_fract_x
 _atom_site_fract_y
 _atom_site_fract_z
 _atom_site_occupancy
  Tm  Tm0  1  0.759151  0.759151  0.250000  1
  Tm  Tm1  1  0.240849  0.000000  0.250000  1
  Tm  Tm2  1  0.000000  0.240849  0.250000  1
  Sc  Sc3  1  0.666667  0.333333  0.500742  1
  Sc  Sc4  1  0.333333  0.666667  0.500742  1
  Sc  Sc5  1  0.333333  0.666667  0.999258  1
  Sc  Sc6  1  0.666667  0.333333  0.999258  1
  Sc  Sc7  1  0.261578  0.261578  0.750000  1
  Sc  Sc8  1  0.738422  0.000000  0.750000  1
  Sc  Sc9  1  0.000000  0.738422  0.750000  1
  Si  Si10  1  0.000000  0.000000  0.543370  1
  Si  Si11  1  0.000000  0.000000  0.956630  1
  Pb  Pb12  1  0.399731  0.399731  0.250000  1
  Pb  Pb13  1  0.600269  0.000000  0.250000  1
  Pb  Pb14  1  0.000000  0.600269  0.250000  1
  Pb  Pb15  1  0.608434  0.608434  0.750000  1
  Pb  Pb16  1  0.391566  0.000000  0.750000  1
  Pb  Pb17  1  0.000000  0.391566  0.750000  1
