# generated using pymatgen
data_HoEr2MoO6
_symmetry_space_group_name_H-M   'P 1'
_cell_length_a   6.58830856
_cell_length_b   6.59124622
_cell_length_c   6.59191550
_cell_angle_alpha   92.06447335
_cell_angle_beta   92.07463627
_cell_angle_gamma   92.03085976
_symmetry_Int_Tables_number   1
_chemical_formula_structural   HoEr2MoO6
_chemical_formula_sum   'Ho2 Er4 Mo2 O12'
_cell_volume   285.68816046
_cell_formula_units_Z   2
loop_
 _symmetry_equiv_pos_site_id
 _symmetry_equiv_pos_as_xyz
  1  'x, y, z'
loop_
 _atom_site_type_symbol
 _atom_site_label
 _atom_site_symmetry_multiplicity
 _atom_site_fract_x
 _atom_site_fract_y
 _atom_site_fract_z
 _atom_site_occupancy
  Ho  Ho0  1  0.068967  0.560509  0.253083  1
  Ho  Ho1  1  0.560073  0.252748  0.068777  1
  Er  Er2  1  0.746763  0.931022  0.440390  1
  Er  Er3  1  0.931144  0.439831  0.746737  1
  Er  Er4  1  0.439913  0.747036  0.930492  1
  Er  Er5  1  0.252884  0.068852  0.560402  1
  Mo  Mo6  1  0.499651  0.500178  0.500189  1
  Mo  Mo7  1  0.999858  0.999512  0.999477  1
  O  O8  1  0.597735  0.467581  0.811884  1
  O  O9  1  0.466607  0.812494  0.597500  1
  O  O10  1  0.811855  0.597780  0.467545  1
  O  O11  1  0.403305  0.534463  0.187774  1
  O  O12  1  0.533410  0.187377  0.403799  1
  O  O13  1  0.187909  0.401947  0.534480  1
  O  O14  1  0.069389  0.910149  0.312048  1
  O  O15  1  0.909382  0.311272  0.068497  1
  O  O16  1  0.688380  0.929184  0.091431  1
  O  O17  1  0.091307  0.688243  0.929299  1
  O  O18  1  0.930260  0.091116  0.688012  1
  O  O19  1  0.311207  0.068707  0.908183  1
