# generated using pymatgen
data_Ti4V6IrOs
_symmetry_space_group_name_H-M   'P 1'
_cell_length_a   5.04586100
_cell_length_b   5.04586141
_cell_length_c   8.18918700
_cell_angle_alpha   90.00000000
_cell_angle_beta   90.00000000
_cell_angle_gamma   120.00000384
_symmetry_Int_Tables_number   1
_chemical_formula_structural   Ti4V6IrOs
_chemical_formula_sum   'Ti4 V6 Ir1 Os1'
_cell_volume   180.56850581
_cell_formula_units_Z   1
loop_
 _symmetry_equiv_pos_site_id
 _symmetry_equiv_pos_as_xyz
  1  'x, y, z'
loop_
 _atom_site_type_symbol
 _atom_site_label
 _atom_site_symmetry_multiplicity
 _atom_site_fract_x
 _atom_site_fract_y
 _atom_site_fract_z
 _atom_site_occupancy
  Ti  Ti0  1  0.333333  0.666667  0.440714  1
  Ti  Ti1  1  0.666667  0.333333  0.559286  1
  Ti  Ti2  1  0.666667  0.333333  0.940430  1
  Ti  Ti3  1  0.333333  0.666667  0.059570  1
  V  V4  1  0.828291  0.171709  0.247794  1
  V  V5  1  0.828291  0.656582  0.247794  1
  V  V6  1  0.343418  0.171709  0.247794  1
  V  V7  1  0.171709  0.828291  0.752206  1
  V  V8  1  0.171709  0.343418  0.752206  1
  V  V9  1  0.656582  0.828291  0.752206  1
  Ir  Ir10  1  0.000000  0.000000  0.500000  1
  Os  Os11  1  0.000000  0.000000  0.000000  1
