# generated using pymatgen
data_Tm3NbFe7CoP6
_symmetry_space_group_name_H-M   'P 1'
_cell_length_a   3.71988400
_cell_length_b   10.72046500
_cell_length_c   12.24851100
_cell_angle_alpha   90.00000000
_cell_angle_beta   90.00000000
_cell_angle_gamma   90.00000000
_symmetry_Int_Tables_number   1
_chemical_formula_structural   Tm3NbFe7CoP6
_chemical_formula_sum   'Tm6 Nb2 Fe14 Co2 P12'
_cell_volume   488.45697661
_cell_formula_units_Z   2
loop_
 _symmetry_equiv_pos_site_id
 _symmetry_equiv_pos_as_xyz
  1  'x, y, z'
loop_
 _atom_site_type_symbol
 _atom_site_label
 _atom_site_symmetry_multiplicity
 _atom_site_fract_x
 _atom_site_fract_y
 _atom_site_fract_z
 _atom_site_occupancy
  Tm  Tm0  1  0.000000  0.500000  0.534641  1
  Tm  Tm1  1  0.500000  0.000000  0.465359  1
  Tm  Tm2  1  0.500000  0.824233  0.203019  1
  Tm  Tm3  1  0.500000  0.175767  0.203019  1
  Tm  Tm4  1  0.000000  0.675767  0.796981  1
  Tm  Tm5  1  0.000000  0.324233  0.796981  1
  Nb  Nb6  1  0.500000  0.500000  0.157741  1
  Nb  Nb7  1  0.000000  0.000000  0.842259  1
  Fe  Fe8  1  0.000000  0.500000  0.988034  1
  Fe  Fe9  1  0.500000  0.000000  0.011966  1
  Fe  Fe10  1  0.500000  0.330253  0.997266  1
  Fe  Fe11  1  0.500000  0.669747  0.997266  1
  Fe  Fe12  1  0.000000  0.169747  0.002734  1
  Fe  Fe13  1  0.000000  0.830253  0.002734  1
  Fe  Fe14  1  0.500000  0.297223  0.430184  1
  Fe  Fe15  1  0.500000  0.702777  0.430184  1
  Fe  Fe16  1  0.000000  0.202777  0.569816  1
  Fe  Fe17  1  0.000000  0.797223  0.569816  1
  Fe  Fe18  1  0.500000  0.881933  0.700493  1
  Fe  Fe19  1  0.500000  0.118067  0.700493  1
  Fe  Fe20  1  0.000000  0.618067  0.299507  1
  Fe  Fe21  1  0.000000  0.381933  0.299507  1
  Co  Co22  1  0.500000  0.500000  0.705181  1
  Co  Co23  1  0.000000  0.000000  0.294819  1
  P  P24  1  0.500000  0.500000  0.888565  1
  P  P25  1  0.000000  0.000000  0.111435  1
  P  P26  1  0.500000  0.500000  0.363967  1
  P  P27  1  0.000000  0.000000  0.636033  1
  P  P28  1  0.500000  0.312395  0.615632  1
  P  P29  1  0.500000  0.687605  0.615632  1
  P  P30  1  0.000000  0.187605  0.384368  1
  P  P31  1  0.000000  0.812395  0.384368  1
  P  P32  1  0.500000  0.840305  0.895519  1
  P  P33  1  0.500000  0.159695  0.895519  1
  P  P34  1  0.000000  0.659695  0.104481  1
  P  P35  1  0.000000  0.340305  0.104481  1
