# generated using pymatgen
data_Tb16MgCd(Co2Hg)2
_symmetry_space_group_name_H-M   'P 1'
_cell_length_a   9.53842713
_cell_length_b   9.51892240
_cell_length_c   9.51681100
_cell_angle_alpha   60.00733369
_cell_angle_beta   60.07493408
_cell_angle_gamma   60.24007075
_symmetry_Int_Tables_number   1
_chemical_formula_structural   Tb16MgCd(Co2Hg)2
_chemical_formula_sum   'Tb16 Mg1 Cd1 Co4 Hg2'
_cell_volume   612.48179559
_cell_formula_units_Z   1
loop_
 _symmetry_equiv_pos_site_id
 _symmetry_equiv_pos_as_xyz
  1  'x, y, z'
loop_
 _atom_site_type_symbol
 _atom_site_label
 _atom_site_symmetry_multiplicity
 _atom_site_fract_x
 _atom_site_fract_y
 _atom_site_fract_z
 _atom_site_occupancy
  Tb  Tb0  1  0.809758  0.187127  0.190621  1
  Tb  Tb1  1  0.184967  0.811722  0.814121  1
  Tb  Tb2  1  0.184967  0.811722  0.189190  1
  Tb  Tb3  1  0.809758  0.187127  0.812494  1
  Tb  Tb4  1  0.187008  0.187418  0.812787  1
  Tb  Tb5  1  0.807598  0.808270  0.192066  1
  Tb  Tb6  1  0.937581  0.560802  0.562607  1
  Tb  Tb7  1  0.560370  0.938913  0.938050  1
  Tb  Tb8  1  0.560371  0.938913  0.562667  1
  Tb  Tb9  1  0.937581  0.560802  0.939010  1
  Tb  Tb10  1  0.561696  0.562106  0.938100  1
  Tb  Tb11  1  0.937501  0.939576  0.561461  1
  Tb  Tb12  1  0.346559  0.345583  0.343636  1
  Tb  Tb13  1  0.346559  0.345583  0.964220  1
  Tb  Tb14  1  0.348421  0.960898  0.345340  1
  Tb  Tb15  1  0.956780  0.348595  0.347312  1
  Mg  Mg16  1  0.277752  0.576910  0.572669  1
  Cd  Cd17  1  0.582051  0.258323  0.579813  1
  Co  Co18  1  0.140843  0.141493  0.140084  1
  Co  Co19  1  0.140843  0.141493  0.577582  1
  Co  Co20  1  0.139932  0.577836  0.141117  1
  Co  Co21  1  0.578023  0.140458  0.140760  1
  Hg  Hg22  1  0.581539  0.584163  0.587259  1
  Hg  Hg23  1  0.581539  0.584163  0.247039  1
