# generated using pymatgen
data_Zr2Sc2Pd7Pt5
_symmetry_space_group_name_H-M   'P 1'
_cell_length_a   5.70361429
_cell_length_b   5.70112137
_cell_length_c   9.32002000
_cell_angle_alpha   90.00000000
_cell_angle_beta   89.83624773
_cell_angle_gamma   119.98554953
_symmetry_Int_Tables_number   1
_chemical_formula_structural   Zr2Sc2Pd7Pt5
_chemical_formula_sum   'Zr2 Sc2 Pd7 Pt5'
_cell_volume   262.49362928
_cell_formula_units_Z   1
loop_
 _symmetry_equiv_pos_site_id
 _symmetry_equiv_pos_as_xyz
  1  'x, y, z'
loop_
 _atom_site_type_symbol
 _atom_site_label
 _atom_site_symmetry_multiplicity
 _atom_site_fract_x
 _atom_site_fract_y
 _atom_site_fract_z
 _atom_site_occupancy
  Zr  Zr0  1  0.000000  0.000000  0.500000  1
  Zr  Zr1  1  0.000000  0.000000  0.000000  1
  Sc  Sc2  1  0.665000  0.332498  0.749818  1
  Sc  Sc3  1  0.335000  0.667502  0.250182  1
  Pd  Pd4  1  0.168644  0.338958  0.750490  1
  Pd  Pd5  1  0.831356  0.170313  0.249510  1
  Pd  Pd6  1  0.341258  0.170629  0.249108  1
  Pd  Pd7  1  0.658742  0.829371  0.750892  1
  Pd  Pd8  1  0.000000  0.500000  0.000000  1
  Pd  Pd9  1  0.831356  0.661042  0.249510  1
  Pd  Pd10  1  0.168644  0.829687  0.750490  1
  Pt  Pt11  1  0.500000  0.000000  0.000000  1
  Pt  Pt12  1  0.500000  0.500000  0.500000  1
  Pt  Pt13  1  0.000000  0.500000  0.500000  1
  Pt  Pt14  1  0.500000  0.500000  0.000000  1
  Pt  Pt15  1  0.500000  0.000000  0.500000  1
