# generated using pymatgen
data_DyLu9(NiBi2)2
_symmetry_space_group_name_H-M   'P 1'
_cell_length_a   7.83810400
_cell_length_b   8.81352900
_cell_length_c   12.10887000
_cell_angle_alpha   90.00000000
_cell_angle_beta   90.00000000
_cell_angle_gamma   90.00000000
_symmetry_Int_Tables_number   1
_chemical_formula_structural   DyLu9(NiBi2)2
_chemical_formula_sum   'Dy2 Lu18 Ni4 Bi8'
_cell_volume   836.49717023
_cell_formula_units_Z   2
loop_
 _symmetry_equiv_pos_site_id
 _symmetry_equiv_pos_as_xyz
  1  'x, y, z'
loop_
 _atom_site_type_symbol
 _atom_site_label
 _atom_site_symmetry_multiplicity
 _atom_site_fract_x
 _atom_site_fract_y
 _atom_site_fract_z
 _atom_site_occupancy
  Dy  Dy0  1  0.380371  0.250000  0.692143  1
  Dy  Dy1  1  0.119629  0.250000  0.192143  1
  Lu  Lu2  1  0.157710  0.750000  0.205157  1
  Lu  Lu3  1  0.342290  0.750000  0.705157  1
  Lu  Lu4  1  0.842699  0.250000  0.795015  1
  Lu  Lu5  1  0.657301  0.250000  0.295015  1
  Lu  Lu6  1  0.444172  0.750000  0.999358  1
  Lu  Lu7  1  0.055828  0.750000  0.499358  1
  Lu  Lu8  1  0.557345  0.250000  0.001016  1
  Lu  Lu9  1  0.942655  0.250000  0.501016  1
  Lu  Lu10  1  0.616491  0.750000  0.310283  1
  Lu  Lu11  1  0.883509  0.750000  0.810283  1
  Lu  Lu12  1  0.826453  0.545054  0.064350  1
  Lu  Lu13  1  0.673547  0.954946  0.564350  1
  Lu  Lu14  1  0.173864  0.043288  0.934553  1
  Lu  Lu15  1  0.326136  0.456712  0.434553  1
  Lu  Lu16  1  0.173864  0.456712  0.934553  1
  Lu  Lu17  1  0.326136  0.043288  0.434553  1
  Lu  Lu18  1  0.826453  0.954946  0.064350  1
  Lu  Lu19  1  0.673547  0.545054  0.564350  1
  Ni  Ni20  1  0.423702  0.750000  0.492977  1
  Ni  Ni21  1  0.076298  0.750000  0.992977  1
  Ni  Ni22  1  0.574660  0.250000  0.505608  1
  Ni  Ni23  1  0.925340  0.250000  0.005608  1
  Bi  Bi24  1  0.929069  0.511288  0.328728  1
  Bi  Bi25  1  0.570931  0.988712  0.828728  1
  Bi  Bi26  1  0.067078  0.009034  0.671589  1
  Bi  Bi27  1  0.432922  0.490966  0.171589  1
  Bi  Bi28  1  0.067078  0.490966  0.671589  1
  Bi  Bi29  1  0.432922  0.009034  0.171589  1
  Bi  Bi30  1  0.929069  0.988712  0.328728  1
  Bi  Bi31  1  0.570931  0.511288  0.828728  1
