# generated using pymatgen
data_Zr2TiRe2Mo
_symmetry_space_group_name_H-M   'P 1'
_cell_length_a   5.32583949
_cell_length_b   5.33908367
_cell_length_c   8.82047200
_cell_angle_alpha   90.00000000
_cell_angle_beta   90.00000000
_cell_angle_gamma   120.08230132
_symmetry_Int_Tables_number   1
_chemical_formula_structural   Zr2TiRe2Mo
_chemical_formula_sum   'Zr4 Ti2 Re4 Mo2'
_cell_volume   217.02836088
_cell_formula_units_Z   2
loop_
 _symmetry_equiv_pos_site_id
 _symmetry_equiv_pos_as_xyz
  1  'x, y, z'
loop_
 _atom_site_type_symbol
 _atom_site_label
 _atom_site_symmetry_multiplicity
 _atom_site_fract_x
 _atom_site_fract_y
 _atom_site_fract_z
 _atom_site_occupancy
  Zr  Zr0  1  0.332543  0.666272  0.436092  1
  Zr  Zr1  1  0.667457  0.333728  0.936092  1
  Zr  Zr2  1  0.667457  0.333728  0.563908  1
  Zr  Zr3  1  0.332543  0.666272  0.063908  1
  Ti  Ti4  1  0.000000  0.000000  0.500000  1
  Ti  Ti5  1  0.000000  0.000000  0.000000  1
  Re  Re6  1  0.831379  0.169267  0.250000  1
  Re  Re7  1  0.168621  0.337888  0.750000  1
  Re  Re8  1  0.168621  0.830733  0.750000  1
  Re  Re9  1  0.831379  0.662112  0.250000  1
  Mo  Mo10  1  0.659731  0.829865  0.750000  1
  Mo  Mo11  1  0.340269  0.170135  0.250000  1
