# generated using pymatgen
data_TbNdFe14(SiC)3
_symmetry_space_group_name_H-M   'P 1'
_cell_length_a   6.46859938
_cell_length_b   6.46859926
_cell_length_c   6.46859981
_cell_angle_alpha   83.91374000
_cell_angle_beta   83.91373772
_cell_angle_gamma   83.91374359
_symmetry_Int_Tables_number   1
_chemical_formula_structural   TbNdFe14(SiC)3
_chemical_formula_sum   'Tb1 Nd1 Fe14 Si3 C3'
_cell_volume   266.38903786
_cell_formula_units_Z   1
loop_
 _symmetry_equiv_pos_site_id
 _symmetry_equiv_pos_as_xyz
  1  'x, y, z'
loop_
 _atom_site_type_symbol
 _atom_site_label
 _atom_site_symmetry_multiplicity
 _atom_site_fract_x
 _atom_site_fract_y
 _atom_site_fract_z
 _atom_site_occupancy
  Tb  Tb0  1  0.347084  0.347084  0.347084  1
  Nd  Nd1  1  0.650558  0.650558  0.650558  1
  Fe  Fe2  1  0.714831  0.284387  0.001122  1
  Fe  Fe3  1  0.001122  0.714831  0.284387  1
  Fe  Fe4  1  0.284387  0.001122  0.714831  1
  Fe  Fe5  1  0.001122  0.284387  0.714831  1
  Fe  Fe6  1  0.714831  0.001122  0.284387  1
  Fe  Fe7  1  0.284387  0.714831  0.001122  1
  Fe  Fe8  1  0.338544  0.338544  0.865538  1
  Fe  Fe9  1  0.865538  0.338544  0.338544  1
  Fe  Fe10  1  0.338544  0.865538  0.338544  1
  Fe  Fe11  1  0.660407  0.660407  0.136643  1
  Fe  Fe12  1  0.136643  0.660407  0.660407  1
  Fe  Fe13  1  0.660407  0.136643  0.660407  1
  Fe  Fe14  1  0.904035  0.904035  0.904035  1
  Fe  Fe15  1  0.096945  0.096945  0.096945  1
  Si  Si16  1  0.999901  0.999901  0.499718  1
  Si  Si17  1  0.499718  0.999901  0.999901  1
  Si  Si18  1  0.999901  0.499718  0.999901  1
  C  C19  1  0.497696  0.497696  0.005703  1
  C  C20  1  0.005703  0.497696  0.497696  1
  C  C21  1  0.497696  0.005703  0.497696  1
