# generated using pymatgen
data_HfZr3In2CoPd3
_symmetry_space_group_name_H-M   'P 1'
_cell_length_a   7.54700591
_cell_length_b   7.56966982
_cell_length_c   3.32846900
_cell_angle_alpha   90.00000000
_cell_angle_beta   90.00000000
_cell_angle_gamma   90.45861872
_symmetry_Int_Tables_number   1
_chemical_formula_structural   HfZr3In2CoPd3
_chemical_formula_sum   'Hf1 Zr3 In2 Co1 Pd3'
_cell_volume   190.14382675
_cell_formula_units_Z   1
loop_
 _symmetry_equiv_pos_site_id
 _symmetry_equiv_pos_as_xyz
  1  'x, y, z'
loop_
 _atom_site_type_symbol
 _atom_site_label
 _atom_site_symmetry_multiplicity
 _atom_site_fract_x
 _atom_site_fract_y
 _atom_site_fract_z
 _atom_site_occupancy
  Hf  Hf0  1  0.322736  0.858228  0.000000  1
  Zr  Zr1  1  0.189415  0.310350  0.000000  1
  Zr  Zr2  1  0.837402  0.663874  0.000000  1
  Zr  Zr3  1  0.641885  0.177507  0.000000  1
  In  In4  1  0.995385  0.000218  0.500000  1
  In  In5  1  0.499726  0.504379  0.500000  1
  Co  Co6  1  0.374118  0.123066  0.500000  1
  Pd  Pd7  1  0.624884  0.869395  0.500000  1
  Pd  Pd8  1  0.876745  0.365720  0.500000  1
  Pd  Pd9  1  0.137704  0.627264  0.500000  1
