# generated using pymatgen
data_Sm4Er4Sc11Si16Mo
_symmetry_space_group_name_H-M   'P 1'
_cell_length_a   7.10354727
_cell_length_b   7.35121647
_cell_length_c   13.93161918
_cell_angle_alpha   90.20171348
_cell_angle_beta   89.73169343
_cell_angle_gamma   89.78038437
_symmetry_Int_Tables_number   1
_chemical_formula_structural   Sm4Er4Sc11Si16Mo
_chemical_formula_sum   'Sm4 Er4 Sc11 Si16 Mo1'
_cell_volume   727.48728949
_cell_formula_units_Z   1
loop_
 _symmetry_equiv_pos_site_id
 _symmetry_equiv_pos_as_xyz
  1  'x, y, z'
loop_
 _atom_site_type_symbol
 _atom_site_label
 _atom_site_symmetry_multiplicity
 _atom_site_fract_x
 _atom_site_fract_y
 _atom_site_fract_z
 _atom_site_occupancy
  Sm  Sm0  1  0.011475  0.173213  0.097871  1
  Sm  Sm1  1  0.989529  0.826849  0.898921  1
  Sm  Sm2  1  0.488189  0.675750  0.900076  1
  Sm  Sm3  1  0.992385  0.829859  0.594189  1
  Er  Er4  1  0.512595  0.323386  0.098053  1
  Er  Er5  1  0.010494  0.176160  0.402457  1
  Er  Er6  1  0.506468  0.323074  0.409812  1
  Er  Er7  1  0.488054  0.676166  0.595571  1
  Sc  Sc8  1  0.164820  0.494200  0.744110  1
  Sc  Sc9  1  0.837018  0.497585  0.252409  1
  Sc  Sc10  1  0.336455  0.002825  0.253206  1
  Sc  Sc11  1  0.658315  0.003153  0.746560  1
  Sc  Sc12  1  0.663949  0.825374  0.378863  1
  Sc  Sc13  1  0.169048  0.677200  0.378164  1
  Sc  Sc14  1  0.668666  0.824035  0.125689  1
  Sc  Sc15  1  0.833513  0.323902  0.622747  1
  Sc  Sc16  1  0.334239  0.177572  0.874588  1
  Sc  Sc17  1  0.830064  0.323589  0.871544  1
  Sc  Sc18  1  0.170164  0.675831  0.126710  1
  Si  Si19  1  0.044388  0.123535  0.744645  1
  Si  Si20  1  0.963043  0.883351  0.253085  1
  Si  Si21  1  0.466781  0.616078  0.251504  1
  Si  Si22  1  0.531950  0.373949  0.744334  1
  Si  Si23  1  0.289375  0.883391  0.744624  1
  Si  Si24  1  0.708625  0.127086  0.252743  1
  Si  Si25  1  0.216572  0.373742  0.252071  1
  Si  Si26  1  0.783479  0.621200  0.744982  1
  Si  Si27  1  0.177500  0.449354  0.540090  1
  Si  Si28  1  0.840860  0.529101  0.458973  1
  Si  Si29  1  0.334764  0.971323  0.469732  1
  Si  Si30  1  0.843796  0.534881  0.039702  1
  Si  Si31  1  0.643803  0.035979  0.544558  1
  Si  Si32  1  0.152837  0.464638  0.959961  1
  Si  Si33  1  0.658167  0.040047  0.960257  1
  Si  Si34  1  0.345163  0.964546  0.039601  1
  Mo  Mo35  1  0.333456  0.178073  0.627597  1
