# generated using pymatgen
data_Dy4ErZn2Bi
_symmetry_space_group_name_H-M   'P 1'
_cell_length_a   8.60608897
_cell_length_b   8.60608863
_cell_length_c   8.60608952
_cell_angle_alpha   123.25287868
_cell_angle_beta   123.25287184
_cell_angle_gamma   84.45253288
_symmetry_Int_Tables_number   1
_chemical_formula_structural   Dy4ErZn2Bi
_chemical_formula_sum   'Dy8 Er2 Zn4 Bi2'
_cell_volume   426.37016346
_cell_formula_units_Z   2
loop_
 _symmetry_equiv_pos_site_id
 _symmetry_equiv_pos_as_xyz
  1  'x, y, z'
loop_
 _atom_site_type_symbol
 _atom_site_label
 _atom_site_symmetry_multiplicity
 _atom_site_fract_x
 _atom_site_fract_y
 _atom_site_fract_z
 _atom_site_occupancy
  Dy  Dy0  1  0.510943  0.010943  0.806007  1
  Dy  Dy1  1  0.204935  0.704935  0.193993  1
  Dy  Dy2  1  0.010943  0.204935  0.500000  1
  Dy  Dy3  1  0.704935  0.510943  0.500000  1
  Dy  Dy4  1  0.489057  0.989057  0.193993  1
  Dy  Dy5  1  0.795065  0.295065  0.806007  1
  Dy  Dy6  1  0.989057  0.795065  0.500000  1
  Dy  Dy7  1  0.295065  0.489057  0.500000  1
  Er  Er8  1  0.500000  0.500000  0.000000  1
  Er  Er9  1  0.000000  0.000000  0.000000  1
  Zn  Zn10  1  0.139819  0.639819  0.779637  1
  Zn  Zn11  1  0.860181  0.360181  0.220363  1
  Zn  Zn12  1  0.639819  0.860181  0.500000  1
  Zn  Zn13  1  0.360181  0.139819  0.500000  1
  Bi  Bi14  1  0.250000  0.250000  0.000000  1
  Bi  Bi15  1  0.750000  0.750000  0.000000  1
