# generated using pymatgen
data_Sm2YTm3NiI10
_symmetry_space_group_name_H-M   'P 1'
_cell_length_a   7.70208925
_cell_length_b   9.66502218
_cell_length_c   9.79281272
_cell_angle_alpha   106.91740977
_cell_angle_beta   96.54282065
_cell_angle_gamma   104.83705359
_symmetry_Int_Tables_number   1
_chemical_formula_structural   Sm2YTm3NiI10
_chemical_formula_sum   'Sm2 Y1 Tm3 Ni1 I10'
_cell_volume   660.03818746
_cell_formula_units_Z   1
loop_
 _symmetry_equiv_pos_site_id
 _symmetry_equiv_pos_as_xyz
  1  'x, y, z'
loop_
 _atom_site_type_symbol
 _atom_site_label
 _atom_site_symmetry_multiplicity
 _atom_site_fract_x
 _atom_site_fract_y
 _atom_site_fract_z
 _atom_site_occupancy
  Sm  Sm0  1  0.882773  0.956281  0.237293  1
  Sm  Sm1  1  0.114493  0.042276  0.761516  1
  Y  Y2  1  0.340684  0.121155  0.159338  1
  Tm  Tm3  1  0.029718  0.724185  0.917410  1
  Tm  Tm4  1  0.969090  0.275285  0.081643  1
  Tm  Tm5  1  0.665820  0.880742  0.843297  1
  Ni  Ni6  1  0.999614  0.999665  0.999628  1
  I  I7  1  0.653873  0.553266  0.730226  1
  I  I8  1  0.343530  0.449892  0.269652  1
  I  I9  1  0.733871  0.911181  0.542612  1
  I  I10  1  0.262425  0.087454  0.458650  1
  I  I11  1  0.082640  0.378403  0.825475  1
  I  I12  1  0.915491  0.620932  0.173397  1
  I  I13  1  0.448871  0.812033  0.088033  1
  I  I14  1  0.551404  0.184782  0.908537  1
  I  I15  1  0.232718  0.741758  0.663290  1
  I  I16  1  0.772984  0.260709  0.340003  1
