# generated using pymatgen
data_K3MoS3
_symmetry_space_group_name_H-M   'P 1'
_cell_length_a   7.77414160
_cell_length_b   7.77414241
_cell_length_c   8.23324462
_cell_angle_alpha   74.22495354
_cell_angle_beta   74.22495953
_cell_angle_gamma   109.96314402
_symmetry_Int_Tables_number   1
_chemical_formula_structural   K3MoS3
_chemical_formula_sum   'K6 Mo2 S6'
_cell_volume   411.87862165
_cell_formula_units_Z   2
loop_
 _symmetry_equiv_pos_site_id
 _symmetry_equiv_pos_as_xyz
  1  'x, y, z'
loop_
 _atom_site_type_symbol
 _atom_site_label
 _atom_site_symmetry_multiplicity
 _atom_site_fract_x
 _atom_site_fract_y
 _atom_site_fract_z
 _atom_site_occupancy
  K  K0  1  0.000000  0.500000  0.000000  1
  K  K1  1  0.500000  0.000000  0.000000  1
  K  K2  1  0.779503  0.779503  0.687318  1
  K  K3  1  0.220497  0.220497  0.312682  1
  K  K4  1  0.663931  0.336069  0.500000  1
  K  K5  1  0.336069  0.663931  0.500000  1
  Mo  Mo6  1  0.889069  0.889069  0.148859  1
  Mo  Mo7  1  0.110931  0.110931  0.851141  1
  S  S8  1  0.637764  0.637764  0.129109  1
  S  S9  1  0.362236  0.362236  0.870891  1
  S  S10  1  0.761088  0.060897  0.295628  1
  S  S11  1  0.939103  0.238912  0.704372  1
  S  S12  1  0.238912  0.939103  0.704372  1
  S  S13  1  0.060897  0.761088  0.295628  1
