# generated using pymatgen
data_SrPt4Pb3O14
_symmetry_space_group_name_H-M   'P 1'
_cell_length_a   7.45953182
_cell_length_b   7.37594929
_cell_length_c   7.45953100
_cell_angle_alpha   59.62443405
_cell_angle_beta   59.99999918
_cell_angle_gamma   59.62442912
_symmetry_Int_Tables_number   1
_chemical_formula_structural   SrPt4Pb3O14
_chemical_formula_sum   'Sr1 Pt4 Pb3 O14'
_cell_volume   288.56069922
_cell_formula_units_Z   1
loop_
 _symmetry_equiv_pos_site_id
 _symmetry_equiv_pos_as_xyz
  1  'x, y, z'
loop_
 _atom_site_type_symbol
 _atom_site_label
 _atom_site_symmetry_multiplicity
 _atom_site_fract_x
 _atom_site_fract_y
 _atom_site_fract_z
 _atom_site_occupancy
  Sr  Sr0  1  0.625000  0.125000  0.625000  1
  Pt  Pt1  1  0.625000  0.125000  0.125000  1
  Pt  Pt2  1  0.125000  0.125000  0.125000  1
  Pt  Pt3  1  0.125000  0.625000  0.125000  1
  Pt  Pt4  1  0.125000  0.125000  0.625000  1
  Pb  Pb5  1  0.625000  0.625000  0.125000  1
  Pb  Pb6  1  0.625000  0.625000  0.625000  1
  Pb  Pb7  1  0.125000  0.625000  0.625000  1
  O  O8  1  0.044259  0.457240  0.454243  1
  O  O9  1  0.795757  0.792760  0.205741  1
  O  O10  1  0.793991  0.208960  0.203060  1
  O  O11  1  0.760141  0.719576  0.760141  1
  O  O12  1  0.044259  0.457240  0.044259  1
  O  O13  1  0.456009  0.041040  0.456009  1
  O  O14  1  0.046940  0.041040  0.456009  1
  O  O15  1  0.489859  0.530424  0.489859  1
  O  O16  1  0.203060  0.208960  0.793991  1
  O  O17  1  0.205741  0.792760  0.205741  1
  O  O18  1  0.793991  0.208960  0.793991  1
  O  O19  1  0.456009  0.041040  0.046940  1
  O  O20  1  0.454243  0.457240  0.044259  1
  O  O21  1  0.205741  0.792760  0.795757  1
