# generated using pymatgen
data_K3SrTa4O12
_symmetry_space_group_name_H-M   'P 1'
_cell_length_a   8.07276100
_cell_length_b   5.71456701
_cell_length_c   5.71158836
_cell_angle_alpha   90.02427414
_cell_angle_beta   90.00000000
_cell_angle_gamma   90.00000000
_symmetry_Int_Tables_number   1
_chemical_formula_structural   K3SrTa4O12
_chemical_formula_sum   'K3 Sr1 Ta4 O12'
_cell_volume   263.48887655
_cell_formula_units_Z   1
loop_
 _symmetry_equiv_pos_site_id
 _symmetry_equiv_pos_as_xyz
  1  'x, y, z'
loop_
 _atom_site_type_symbol
 _atom_site_label
 _atom_site_symmetry_multiplicity
 _atom_site_fract_x
 _atom_site_fract_y
 _atom_site_fract_z
 _atom_site_occupancy
  K  K0  1  0.000000  0.000563  0.999651  1
  K  K1  1  0.500000  0.499892  0.500674  1
  K  K2  1  0.500000  0.999246  0.998684  1
  Sr  Sr3  1  0.000000  0.501428  0.502116  1
  Ta  Ta4  1  0.251086  0.999957  0.499824  1
  Ta  Ta5  1  0.748906  0.500073  0.000241  1
  Ta  Ta6  1  0.748914  0.999957  0.499824  1
  Ta  Ta7  1  0.251094  0.500073  0.000241  1
  O  O8  1  0.246388  0.748301  0.251412  1
  O  O9  1  0.753330  0.744531  0.744607  1
  O  O10  1  0.756709  0.251865  0.748090  1
  O  O11  1  0.243158  0.255804  0.255709  1
  O  O12  1  0.243291  0.251865  0.748090  1
  O  O13  1  0.756842  0.255804  0.255709  1
  O  O14  1  0.753612  0.748301  0.251412  1
  O  O15  1  0.246670  0.744531  0.744607  1
  O  O16  1  0.000000  0.995283  0.499953  1
  O  O17  1  0.000000  0.503164  0.999646  1
  O  O18  1  0.500000  0.002567  0.499100  1
  O  O19  1  0.500000  0.496793  0.000411  1
