# generated using pymatgen
data_BaSb12OsPdRu2
_symmetry_space_group_name_H-M   'P 1'
_cell_length_a   8.20036066
_cell_length_b   8.20416181
_cell_length_c   8.20032507
_cell_angle_alpha   109.47639613
_cell_angle_beta   109.47821818
_cell_angle_gamma   109.50034790
_symmetry_Int_Tables_number   1
_chemical_formula_structural   BaSb12OsPdRu2
_chemical_formula_sum   'Ba1 Sb12 Os1 Pd1 Ru2'
_cell_volume   424.47759632
_cell_formula_units_Z   1
loop_
 _symmetry_equiv_pos_site_id
 _symmetry_equiv_pos_as_xyz
  1  'x, y, z'
loop_
 _atom_site_type_symbol
 _atom_site_label
 _atom_site_symmetry_multiplicity
 _atom_site_fract_x
 _atom_site_fract_y
 _atom_site_fract_z
 _atom_site_occupancy
  Ba  Ba0  1  0.000000  0.000000  0.000000  1
  Sb  Sb1  1  0.151146  0.810857  0.650090  1
  Sb  Sb2  1  0.158994  0.499953  0.340497  1
  Sb  Sb3  1  0.499039  0.650484  0.840448  1
  Sb  Sb4  1  0.340466  0.839393  0.189331  1
  Sb  Sb5  1  0.818961  0.659068  0.159094  1
  Sb  Sb6  1  0.660308  0.841811  0.500276  1
  Sb  Sb7  1  0.181039  0.340932  0.840906  1
  Sb  Sb8  1  0.659534  0.160607  0.810669  1
  Sb  Sb9  1  0.339692  0.158189  0.499724  1
  Sb  Sb10  1  0.500961  0.349516  0.159552  1
  Sb  Sb11  1  0.841006  0.500047  0.659503  1
  Sb  Sb12  1  0.848854  0.189143  0.349910  1
  Os  Os13  1  0.500000  0.500000  0.500000  1
  Pd  Pd14  1  0.500000  0.000000  0.000000  1
  Ru  Ru15  1  0.000000  0.000000  0.500000  1
  Ru  Ru16  1  0.000000  0.500000  0.000000  1
