# generated using pymatgen
data_Dy3UPd12
_symmetry_space_group_name_H-M   'P 1'
_cell_length_a   5.82526600
_cell_length_b   5.82526571
_cell_length_c   9.53982900
_cell_angle_alpha   90.00000000
_cell_angle_beta   90.00000000
_cell_angle_gamma   120.00000167
_symmetry_Int_Tables_number   1
_chemical_formula_structural   Dy3UPd12
_chemical_formula_sum   'Dy3 U1 Pd12'
_cell_volume   280.35139107
_cell_formula_units_Z   1
loop_
 _symmetry_equiv_pos_site_id
 _symmetry_equiv_pos_as_xyz
  1  'x, y, z'
loop_
 _atom_site_type_symbol
 _atom_site_label
 _atom_site_symmetry_multiplicity
 _atom_site_fract_x
 _atom_site_fract_y
 _atom_site_fract_z
 _atom_site_occupancy
  Dy  Dy0  1  0.000000  0.000000  0.506307  1
  Dy  Dy1  1  0.000000  0.000000  0.993693  1
  Dy  Dy2  1  0.333333  0.666667  0.750000  1
  U  U3  1  0.666667  0.333333  0.250000  1
  Pd  Pd4  1  0.503013  0.496987  0.494252  1
  Pd  Pd5  1  0.503013  0.006027  0.494252  1
  Pd  Pd6  1  0.993973  0.496987  0.494252  1
  Pd  Pd7  1  0.503013  0.496987  0.005748  1
  Pd  Pd8  1  0.503013  0.006027  0.005748  1
  Pd  Pd9  1  0.993973  0.496987  0.005748  1
  Pd  Pd10  1  0.171722  0.828278  0.250000  1
  Pd  Pd11  1  0.171722  0.343444  0.250000  1
  Pd  Pd12  1  0.656556  0.828278  0.250000  1
  Pd  Pd13  1  0.825403  0.174597  0.750000  1
  Pd  Pd14  1  0.825403  0.650805  0.750000  1
  Pd  Pd15  1  0.349195  0.174597  0.750000  1
