# generated using pymatgen
data_Y3Er(LuIn5)2
_symmetry_space_group_name_H-M   'P 1'
_cell_length_a   6.54170200
_cell_length_b   10.35476903
_cell_length_c   12.18682900
_cell_angle_alpha   90.00000000
_cell_angle_beta   90.00000000
_cell_angle_gamma   90.00406142
_symmetry_Int_Tables_number   1
_chemical_formula_structural   Y3Er(LuIn5)2
_chemical_formula_sum   'Y6 Er2 Lu4 In20'
_cell_volume   825.50914480
_cell_formula_units_Z   2
loop_
 _symmetry_equiv_pos_site_id
 _symmetry_equiv_pos_as_xyz
  1  'x, y, z'
loop_
 _atom_site_type_symbol
 _atom_site_label
 _atom_site_symmetry_multiplicity
 _atom_site_fract_x
 _atom_site_fract_y
 _atom_site_fract_z
 _atom_site_occupancy
  Y  Y0  1  0.112756  0.988699  0.858242  1
  Y  Y1  1  0.387244  0.511301  0.358242  1
  Y  Y2  1  0.112549  0.511336  0.858303  1
  Y  Y3  1  0.387451  0.988664  0.358303  1
  Y  Y4  1  0.887294  0.011255  0.141687  1
  Y  Y5  1  0.612706  0.488745  0.641687  1
  Er  Er6  1  0.887188  0.488932  0.141865  1
  Er  Er7  1  0.612812  0.011068  0.641865  1
  Lu  Lu8  1  0.352630  0.750098  0.052333  1
  Lu  Lu9  1  0.147370  0.749902  0.552333  1
  Lu  Lu10  1  0.647351  0.250146  0.947872  1
  Lu  Lu11  1  0.852649  0.249854  0.447872  1
  In  In12  1  0.610675  0.750828  0.506698  1
  In  In13  1  0.889325  0.749172  0.006698  1
  In  In14  1  0.389698  0.249746  0.494002  1
  In  In15  1  0.110302  0.250254  0.994002  1
  In  In16  1  0.650406  0.749566  0.241247  1
  In  In17  1  0.849594  0.750434  0.741247  1
  In  In18  1  0.350735  0.249827  0.758431  1
  In  In19  1  0.149265  0.250173  0.258431  1
  In  In20  1  0.118350  0.750106  0.277682  1
  In  In21  1  0.381650  0.749894  0.777682  1
  In  In22  1  0.880330  0.249129  0.721969  1
  In  In23  1  0.619670  0.250871  0.221969  1
  In  In24  1  0.871125  0.542848  0.400220  1
  In  In25  1  0.628875  0.957152  0.900220  1
  In  In26  1  0.129526  0.042964  0.599157  1
  In  In27  1  0.370474  0.457036  0.099157  1
  In  In28  1  0.128830  0.456740  0.599055  1
  In  In29  1  0.371170  0.043260  0.099055  1
  In  In30  1  0.871151  0.957150  0.401239  1
  In  In31  1  0.628849  0.542850  0.901239  1
