# generated using pymatgen
data_Tb2Tm6Cd2CoNi
_symmetry_space_group_name_H-M   'P 1'
_cell_length_a   9.45889175
_cell_length_b   9.45889222
_cell_length_c   9.48433500
_cell_angle_alpha   59.91097780
_cell_angle_beta   59.91097615
_cell_angle_gamma   59.80010141
_symmetry_Int_Tables_number   1
_chemical_formula_structural   Tb2Tm6Cd2CoNi
_chemical_formula_sum   'Tb4 Tm12 Cd4 Co2 Ni2'
_cell_volume   598.31252244
_cell_formula_units_Z   2
loop_
 _symmetry_equiv_pos_site_id
 _symmetry_equiv_pos_as_xyz
  1  'x, y, z'
loop_
 _atom_site_type_symbol
 _atom_site_label
 _atom_site_symmetry_multiplicity
 _atom_site_fract_x
 _atom_site_fract_y
 _atom_site_fract_z
 _atom_site_occupancy
  Tb  Tb0  1  0.347580  0.347580  0.350347  1
  Tb  Tb1  1  0.347580  0.347580  0.954493  1
  Tb  Tb2  1  0.346748  0.955024  0.349114  1
  Tb  Tb3  1  0.955024  0.346748  0.349114  1
  Tm  Tm4  1  0.815631  0.186431  0.187796  1
  Tm  Tm5  1  0.186431  0.815631  0.810142  1
  Tm  Tm6  1  0.186431  0.815631  0.187796  1
  Tm  Tm7  1  0.815631  0.186431  0.810142  1
  Tm  Tm8  1  0.187113  0.187113  0.812887  1
  Tm  Tm9  1  0.812882  0.812882  0.187118  1
  Tm  Tm10  1  0.936465  0.562519  0.565315  1
  Tm  Tm11  1  0.562519  0.936465  0.935701  1
  Tm  Tm12  1  0.562519  0.936465  0.565315  1
  Tm  Tm13  1  0.936465  0.562519  0.935701  1
  Tm  Tm14  1  0.564502  0.564502  0.935498  1
  Tm  Tm15  1  0.937048  0.937048  0.562952  1
  Cd  Cd16  1  0.580634  0.580634  0.581781  1
  Cd  Cd17  1  0.580634  0.580634  0.256953  1
  Cd  Cd18  1  0.581179  0.254869  0.581977  1
  Cd  Cd19  1  0.254869  0.581179  0.581977  1
  Co  Co20  1  0.141876  0.141876  0.140896  1
  Co  Co21  1  0.141876  0.141876  0.575355  1
  Ni  Ni22  1  0.141060  0.577306  0.140818  1
  Ni  Ni23  1  0.577306  0.141060  0.140818  1
