# generated using pymatgen
data_Tb2Ga9RuPt2
_symmetry_space_group_name_H-M   'P 1'
_cell_length_a   7.65287863
_cell_length_b   7.65287840
_cell_length_c   9.54346532
_cell_angle_alpha   89.87625004
_cell_angle_beta   89.87625199
_cell_angle_gamma   119.92931922
_symmetry_Int_Tables_number   1
_chemical_formula_structural   Tb2Ga9RuPt2
_chemical_formula_sum   'Tb4 Ga18 Ru2 Pt4'
_cell_volume   484.38557592
_cell_formula_units_Z   2
loop_
 _symmetry_equiv_pos_site_id
 _symmetry_equiv_pos_as_xyz
  1  'x, y, z'
loop_
 _atom_site_type_symbol
 _atom_site_label
 _atom_site_symmetry_multiplicity
 _atom_site_fract_x
 _atom_site_fract_y
 _atom_site_fract_z
 _atom_site_occupancy
  Tb  Tb0  1  0.997168  0.669770  0.250528  1
  Tb  Tb1  1  0.002832  0.330230  0.749472  1
  Tb  Tb2  1  0.669770  0.997168  0.250528  1
  Tb  Tb3  1  0.330230  0.002832  0.749472  1
  Ga  Ga4  1  0.132594  0.132594  0.251042  1
  Ga  Ga5  1  0.867406  0.867406  0.748958  1
  Ga  Ga6  1  0.000339  0.334421  0.083878  1
  Ga  Ga7  1  0.999661  0.665579  0.916122  1
  Ga  Ga8  1  0.001330  0.659570  0.577182  1
  Ga  Ga9  1  0.340430  0.998670  0.422818  1
  Ga  Ga10  1  0.998670  0.340430  0.422818  1
  Ga  Ga11  1  0.659570  0.001330  0.577182  1
  Ga  Ga12  1  0.665579  0.999661  0.916122  1
  Ga  Ga13  1  0.334421  0.000339  0.083878  1
  Ga  Ga14  1  0.337159  0.337159  0.562843  1
  Ga  Ga15  1  0.662841  0.662841  0.437157  1
  Ga  Ga16  1  0.665710  0.665710  0.072831  1
  Ga  Ga17  1  0.334290  0.334290  0.927169  1
  Ga  Ga18  1  0.337459  0.546991  0.255420  1
  Ga  Ga19  1  0.662541  0.453009  0.744580  1
  Ga  Ga20  1  0.546991  0.337459  0.255420  1
  Ga  Ga21  1  0.453009  0.662541  0.744580  1
  Ru  Ru22  1  0.328113  0.671887  0.500000  1
  Ru  Ru23  1  0.671887  0.328113  0.500000  1
  Pt  Pt24  1  0.670745  0.329255  0.000000  1
  Pt  Pt25  1  0.329255  0.670745  0.000000  1
  Pt  Pt26  1  0.000000  0.000000  0.000000  1
  Pt  Pt27  1  0.000000  0.000000  0.500000  1
