# generated using pymatgen
data_Ho7Th7OsRh5
_symmetry_space_group_name_H-M   'P 1'
_cell_length_a   9.90379602
_cell_length_b   9.81369853
_cell_length_c   6.34527802
_cell_angle_alpha   89.77402977
_cell_angle_beta   90.33314570
_cell_angle_gamma   120.43837295
_symmetry_Int_Tables_number   1
_chemical_formula_structural   Ho7Th7OsRh5
_chemical_formula_sum   'Ho7 Th7 Os1 Rh5'
_cell_volume   531.70730869
_cell_formula_units_Z   1
loop_
 _symmetry_equiv_pos_site_id
 _symmetry_equiv_pos_as_xyz
  1  'x, y, z'
loop_
 _atom_site_type_symbol
 _atom_site_label
 _atom_site_symmetry_multiplicity
 _atom_site_fract_x
 _atom_site_fract_y
 _atom_site_fract_z
 _atom_site_occupancy
  Ho  Ho0  1  0.873335  0.745364  0.743443  1
  Ho  Ho1  1  0.540272  0.463344  0.447311  1
  Ho  Ho2  1  0.921813  0.461774  0.444271  1
  Ho  Ho3  1  0.539469  0.078380  0.445217  1
  Ho  Ho4  1  0.463780  0.538419  0.941782  1
  Ho  Ho5  1  0.075940  0.537774  0.944708  1
  Ho  Ho6  1  0.464290  0.925394  0.945983  1
  Th  Th7  1  0.332453  0.667636  0.465623  1
  Th  Th8  1  0.668555  0.332705  0.965601  1
  Th  Th9  1  0.127064  0.869876  0.243724  1
  Th  Th10  1  0.746521  0.873748  0.239847  1
  Th  Th11  1  0.124099  0.252554  0.237310  1
  Th  Th12  1  0.868404  0.126363  0.741805  1
  Th  Th13  1  0.254812  0.124498  0.739675  1
  Os  Os14  1  0.814371  0.185821  0.192016  1
  Rh  Rh15  1  0.370027  0.185856  0.194392  1
  Rh  Rh16  1  0.812080  0.629141  0.196132  1
  Rh  Rh17  1  0.192837  0.816220  0.690203  1
  Rh  Rh18  1  0.621623  0.813014  0.688348  1
  Rh  Rh19  1  0.188253  0.372124  0.696148  1
