# generated using pymatgen
data_YHo7Ti12Si15As
_symmetry_space_group_name_H-M   'P 1'
_cell_length_a   7.05237281
_cell_length_b   7.04507973
_cell_length_c   12.94805112
_cell_angle_alpha   89.97054037
_cell_angle_beta   89.82102844
_cell_angle_gamma   89.92932399
_symmetry_Int_Tables_number   1
_chemical_formula_structural   YHo7Ti12Si15As
_chemical_formula_sum   'Y1 Ho7 Ti12 Si15 As1'
_cell_volume   643.31410670
_cell_formula_units_Z   1
loop_
 _symmetry_equiv_pos_site_id
 _symmetry_equiv_pos_as_xyz
  1  'x, y, z'
loop_
 _atom_site_type_symbol
 _atom_site_label
 _atom_site_symmetry_multiplicity
 _atom_site_fract_x
 _atom_site_fract_y
 _atom_site_fract_z
 _atom_site_occupancy
  Y  Y0  1  0.341482  0.002112  0.466125  1
  Ho  Ho1  1  0.497725  0.842439  0.717414  1
  Ho  Ho2  1  0.502130  0.158849  0.216336  1
  Ho  Ho3  1  0.840623  0.497343  0.283059  1
  Ho  Ho4  1  0.158741  0.501337  0.783503  1
  Ho  Ho5  1  0.660383  0.995578  0.967503  1
  Ho  Ho6  1  0.999304  0.343632  0.532154  1
  Ho  Ho7  1  0.998316  0.658923  0.033401  1
  Ti  Ti8  1  0.326016  0.326505  0.999705  1
  Ti  Ti9  1  0.173025  0.826798  0.249939  1
  Ti  Ti10  1  0.823684  0.173654  0.750150  1
  Ti  Ti11  1  0.673226  0.672750  0.500189  1
  Ti  Ti12  1  0.153714  0.008985  0.875512  1
  Ti  Ti13  1  0.491847  0.651655  0.125842  1
  Ti  Ti14  1  0.509191  0.348124  0.627036  1
  Ti  Ti15  1  0.654070  0.494531  0.874699  1
  Ti  Ti16  1  0.347607  0.507936  0.374012  1
  Ti  Ti17  1  0.847658  0.992096  0.375788  1
  Ti  Ti18  1  0.007979  0.151322  0.124122  1
  Ti  Ti19  1  0.989579  0.844142  0.623163  1
  Si  Si20  1  0.368788  0.702967  0.933715  1
  Si  Si21  1  0.630265  0.298259  0.434454  1
  Si  Si22  1  0.702894  0.369473  0.066177  1
  Si  Si23  1  0.297446  0.630126  0.566305  1
  Si  Si24  1  0.797121  0.869324  0.184210  1
  Si  Si25  1  0.130246  0.203125  0.315763  1
  Si  Si26  1  0.870218  0.797783  0.815692  1
  Si  Si27  1  0.291078  0.952770  0.064537  1
  Si  Si28  1  0.547585  0.790197  0.314226  1
  Si  Si29  1  0.461462  0.211228  0.819497  1
  Si  Si30  1  0.790690  0.546993  0.685357  1
  Si  Si31  1  0.208887  0.452679  0.185312  1
  Si  Si32  1  0.709091  0.046818  0.564507  1
  Si  Si33  1  0.953333  0.290853  0.935438  1
  Si  Si34  1  0.046820  0.709155  0.434748  1
  As  As35  1  0.197776  0.129540  0.680410  1
