# generated using pymatgen
data_Y4Si8Tc5Os
_symmetry_space_group_name_H-M   'P 1'
_cell_length_a   6.78626055
_cell_length_b   6.84658331
_cell_length_c   6.76364914
_cell_angle_alpha   69.58077263
_cell_angle_beta   89.82815454
_cell_angle_gamma   89.47414752
_symmetry_Int_Tables_number   1
_chemical_formula_structural   Y4Si8Tc5Os
_chemical_formula_sum   'Y4 Si8 Tc5 Os1'
_cell_volume   294.49860328
_cell_formula_units_Z   1
loop_
 _symmetry_equiv_pos_site_id
 _symmetry_equiv_pos_as_xyz
  1  'x, y, z'
loop_
 _atom_site_type_symbol
 _atom_site_label
 _atom_site_symmetry_multiplicity
 _atom_site_fract_x
 _atom_site_fract_y
 _atom_site_fract_z
 _atom_site_occupancy
  Y  Y0  1  0.174110  0.944401  0.191614  1
  Y  Y1  1  0.332543  0.437296  0.191583  1
  Y  Y2  1  0.835059  0.061558  0.808791  1
  Y  Y3  1  0.672262  0.557365  0.809343  1
  Si  Si4  1  0.567199  0.108560  0.112571  1
  Si  Si5  1  0.349577  0.623078  0.526001  1
  Si  Si6  1  0.847851  0.876480  0.467470  1
  Si  Si7  1  0.060657  0.387858  0.892290  1
  Si  Si8  1  0.136384  0.134304  0.507916  1
  Si  Si9  1  0.636349  0.365407  0.494707  1
  Si  Si10  1  0.950345  0.633237  0.100479  1
  Si  Si11  1  0.450743  0.871011  0.898738  1
  Tc  Tc12  1  0.850693  0.259940  0.246126  1
  Tc  Tc13  1  0.351141  0.242484  0.756354  1
  Tc  Tc14  1  0.147151  0.771812  0.764769  1
  Tc  Tc15  1  0.499858  0.989207  0.499686  1
  Tc  Tc16  1  0.999211  0.513508  0.499863  1
  Os  Os17  1  0.638864  0.722493  0.231700  1
