# generated using pymatgen
data_Th6TcPd4Au3
_symmetry_space_group_name_H-M   'P 1'
_cell_length_a   8.23746961
_cell_length_b   8.21466360
_cell_length_c   8.20219681
_cell_angle_alpha   114.14714574
_cell_angle_beta   114.27497616
_cell_angle_gamma   114.36723932
_symmetry_Int_Tables_number   1
_chemical_formula_structural   Th6TcPd4Au3
_chemical_formula_sum   'Th6 Tc1 Pd4 Au3'
_cell_volume   330.52467647
_cell_formula_units_Z   1
loop_
 _symmetry_equiv_pos_site_id
 _symmetry_equiv_pos_as_xyz
  1  'x, y, z'
loop_
 _atom_site_type_symbol
 _atom_site_label
 _atom_site_symmetry_multiplicity
 _atom_site_fract_x
 _atom_site_fract_y
 _atom_site_fract_z
 _atom_site_occupancy
  Th  Th0  1  0.037147  0.396324  0.279362  1
  Th  Th1  1  0.390743  0.278150  0.026231  1
  Th  Th2  1  0.717772  0.963069  0.607794  1
  Th  Th3  1  0.262774  0.014627  0.381296  1
  Th  Th4  1  0.618922  0.735378  0.975678  1
  Th  Th5  1  0.983519  0.622177  0.731813  1
  Tc  Tc6  1  0.999315  0.999841  0.001996  1
  Pd  Pd7  1  0.501653  0.496970  0.498832  1
  Pd  Pd8  1  0.417586  0.925860  0.762684  1
  Pd  Pd9  1  0.927184  0.763213  0.422572  1
  Pd  Pd10  1  0.234469  0.578212  0.071992  1
  Au  Au11  1  0.763109  0.420602  0.926118  1
  Au  Au12  1  0.073515  0.234143  0.580171  1
  Au  Au13  1  0.572292  0.071434  0.233462  1
