# generated using pymatgen
data_Tb5Hf3(ReB6)4
_symmetry_space_group_name_H-M   'P 1'
_cell_length_a   3.62826100
_cell_length_b   9.06427919
_cell_length_c   11.45955334
_cell_angle_alpha   90.02577988
_cell_angle_beta   90.00000000
_cell_angle_gamma   90.00000000
_symmetry_Int_Tables_number   1
_chemical_formula_structural   Tb5Hf3(ReB6)4
_chemical_formula_sum   'Tb5 Hf3 Re4 B24'
_cell_volume   376.87683238
_cell_formula_units_Z   1
loop_
 _symmetry_equiv_pos_site_id
 _symmetry_equiv_pos_as_xyz
  1  'x, y, z'
loop_
 _atom_site_type_symbol
 _atom_site_label
 _atom_site_symmetry_multiplicity
 _atom_site_fract_x
 _atom_site_fract_y
 _atom_site_fract_z
 _atom_site_occupancy
  Tb  Tb0  1  0.000000  0.821465  0.086864  1
  Tb  Tb1  1  0.000000  0.177814  0.913682  1
  Tb  Tb2  1  0.000000  0.321006  0.413947  1
  Tb  Tb3  1  0.000000  0.679248  0.585775  1
  Tb  Tb4  1  0.000000  0.444126  0.127489  1
  Hf  Hf5  1  0.000000  0.557084  0.869030  1
  Hf  Hf6  1  0.000000  0.944249  0.373875  1
  Hf  Hf7  1  0.000000  0.056022  0.627254  1
  Re  Re8  1  0.000000  0.134178  0.182776  1
  Re  Re9  1  0.000000  0.860719  0.817052  1
  Re  Re10  1  0.000000  0.644182  0.322674  1
  Re  Re11  1  0.000000  0.359643  0.679852  1
  B  B12  1  0.500000  0.051367  0.067484  1
  B  B13  1  0.500000  0.945367  0.932321  1
  B  B14  1  0.500000  0.555167  0.433775  1
  B  B15  1  0.500000  0.446115  0.567101  1
  B  B16  1  0.500000  0.247531  0.082903  1
  B  B17  1  0.500000  0.747554  0.916362  1
  B  B18  1  0.500000  0.754167  0.419020  1
  B  B19  1  0.500000  0.247026  0.581998  1
  B  B20  1  0.500000  0.290662  0.236415  1
  B  B21  1  0.500000  0.706127  0.763680  1
  B  B22  1  0.500000  0.795424  0.266493  1
  B  B23  1  0.500000  0.205626  0.734835  1
  B  B24  1  0.500000  0.128277  0.317450  1
  B  B25  1  0.500000  0.870900  0.682983  1
  B  B26  1  0.500000  0.633105  0.185919  1
  B  B27  1  0.500000  0.370189  0.815568  1
  B  B28  1  0.500000  0.484542  0.288449  1
  B  B29  1  0.500000  0.517786  0.713202  1
  B  B30  1  0.500000  0.980439  0.214984  1
  B  B31  1  0.500000  0.018455  0.785786  1
  B  B32  1  0.500000  0.099104  0.473823  1
  B  B33  1  0.500000  0.901755  0.527439  1
  B  B34  1  0.500000  0.602571  0.023032  1
  B  B35  1  0.500000  0.401012  0.968706  1
