# generated using pymatgen
data_Tb15YCd2(HgPt2)2
_symmetry_space_group_name_H-M   'P 1'
_cell_length_a   9.71347968
_cell_length_b   9.71347911
_cell_length_c   9.70946800
_cell_angle_alpha   60.01366592
_cell_angle_beta   60.01366783
_cell_angle_gamma   60.05356328
_symmetry_Int_Tables_number   1
_chemical_formula_structural   Tb15YCd2(HgPt2)2
_chemical_formula_sum   'Tb15 Y1 Cd2 Hg2 Pt4'
_cell_volume   648.17956564
_cell_formula_units_Z   1
loop_
 _symmetry_equiv_pos_site_id
 _symmetry_equiv_pos_as_xyz
  1  'x, y, z'
loop_
 _atom_site_type_symbol
 _atom_site_label
 _atom_site_symmetry_multiplicity
 _atom_site_fract_x
 _atom_site_fract_y
 _atom_site_fract_z
 _atom_site_occupancy
  Tb  Tb0  1  0.352752  0.352752  0.351030  1
  Tb  Tb1  1  0.352752  0.352752  0.943465  1
  Tb  Tb2  1  0.355551  0.937638  0.353406  1
  Tb  Tb3  1  0.937638  0.355551  0.353406  1
  Tb  Tb4  1  0.810512  0.189508  0.190302  1
  Tb  Tb5  1  0.189508  0.810512  0.809678  1
  Tb  Tb6  1  0.189508  0.810512  0.190302  1
  Tb  Tb7  1  0.810512  0.189508  0.809678  1
  Tb  Tb8  1  0.189876  0.189876  0.810124  1
  Tb  Tb9  1  0.809815  0.809815  0.190185  1
  Tb  Tb10  1  0.935108  0.563877  0.564536  1
  Tb  Tb11  1  0.563877  0.935108  0.936479  1
  Tb  Tb12  1  0.563877  0.935108  0.564536  1
  Tb  Tb13  1  0.935108  0.563877  0.936479  1
  Tb  Tb14  1  0.564401  0.564401  0.935599  1
  Y  Y15  1  0.936070  0.936070  0.563930  1
  Cd  Cd16  1  0.580673  0.254002  0.582663  1
  Cd  Cd17  1  0.254002  0.580673  0.582663  1
  Hg  Hg18  1  0.584972  0.584972  0.588165  1
  Hg  Hg19  1  0.584972  0.584972  0.241891  1
  Pt  Pt20  1  0.143165  0.143165  0.145659  1
  Pt  Pt21  1  0.143165  0.143165  0.568010  1
  Pt  Pt22  1  0.142019  0.570165  0.143909  1
  Pt  Pt23  1  0.570165  0.142019  0.143909  1
