# generated using pymatgen
data_Li2Sc3Bi3C
_symmetry_space_group_name_H-M   'P 1'
_cell_length_a   8.60204000
_cell_length_b   8.60204072
_cell_length_c   5.92959000
_cell_angle_alpha   90.00000000
_cell_angle_beta   90.00000000
_cell_angle_gamma   119.99999722
_symmetry_Int_Tables_number   1
_chemical_formula_structural   Li2Sc3Bi3C
_chemical_formula_sum   'Li4 Sc6 Bi6 C2'
_cell_volume   379.97783249
_cell_formula_units_Z   2
loop_
 _symmetry_equiv_pos_site_id
 _symmetry_equiv_pos_as_xyz
  1  'x, y, z'
loop_
 _atom_site_type_symbol
 _atom_site_label
 _atom_site_symmetry_multiplicity
 _atom_site_fract_x
 _atom_site_fract_y
 _atom_site_fract_z
 _atom_site_occupancy
  Li  Li0  1  0.666667  0.333333  0.500000  1
  Li  Li1  1  0.333333  0.666667  0.500000  1
  Li  Li2  1  0.333333  0.666667  0.000000  1
  Li  Li3  1  0.666667  0.333333  0.000000  1
  Sc  Sc4  1  0.793319  0.793319  0.250000  1
  Sc  Sc5  1  0.206681  0.000000  0.250000  1
  Sc  Sc6  1  0.000000  0.206681  0.250000  1
  Sc  Sc7  1  0.206681  0.206681  0.750000  1
  Sc  Sc8  1  0.793319  0.000000  0.750000  1
  Sc  Sc9  1  0.000000  0.793319  0.750000  1
  Bi  Bi10  1  0.410227  0.410227  0.250000  1
  Bi  Bi11  1  0.589773  0.000000  0.250000  1
  Bi  Bi12  1  0.000000  0.589773  0.250000  1
  Bi  Bi13  1  0.589773  0.589773  0.750000  1
  Bi  Bi14  1  0.410227  0.000000  0.750000  1
  Bi  Bi15  1  0.000000  0.410227  0.750000  1
  C  C16  1  0.000000  0.000000  0.500000  1
  C  C17  1  0.000000  0.000000  0.000000  1
