# generated using pymatgen
data_Tb7Zn(Co3Sn11)2
_symmetry_space_group_name_H-M   'P 1'
_cell_length_a   9.67435500
_cell_length_b   9.67435421
_cell_length_c   9.97868300
_cell_angle_alpha   90.00000000
_cell_angle_beta   90.00000000
_cell_angle_gamma   120.00000610
_symmetry_Int_Tables_number   1
_chemical_formula_structural   Tb7Zn(Co3Sn11)2
_chemical_formula_sum   'Tb7 Zn1 Co6 Sn22'
_cell_volume   808.81246463
_cell_formula_units_Z   1
loop_
 _symmetry_equiv_pos_site_id
 _symmetry_equiv_pos_as_xyz
  1  'x, y, z'
loop_
 _atom_site_type_symbol
 _atom_site_label
 _atom_site_symmetry_multiplicity
 _atom_site_fract_x
 _atom_site_fract_y
 _atom_site_fract_z
 _atom_site_occupancy
  Tb  Tb0  1  0.000000  0.000000  0.000000  1
  Tb  Tb1  1  0.478857  0.521143  0.305609  1
  Tb  Tb2  1  0.521143  0.478857  0.694391  1
  Tb  Tb3  1  0.478857  0.957713  0.305609  1
  Tb  Tb4  1  0.521143  0.042287  0.694391  1
  Tb  Tb5  1  0.042287  0.521143  0.305609  1
  Tb  Tb6  1  0.957713  0.478857  0.694391  1
  Zn  Zn7  1  0.000000  0.000000  0.500000  1
  Co  Co8  1  0.832190  0.167810  0.197362  1
  Co  Co9  1  0.167810  0.832190  0.802638  1
  Co  Co10  1  0.832190  0.664380  0.197362  1
  Co  Co11  1  0.167810  0.335620  0.802638  1
  Co  Co12  1  0.335620  0.167810  0.197362  1
  Co  Co13  1  0.664380  0.832190  0.802638  1
  Sn  Sn14  1  0.345486  0.000000  0.000000  1
  Sn  Sn15  1  0.654514  0.000000  0.000000  1
  Sn  Sn16  1  0.000000  0.345486  0.000000  1
  Sn  Sn17  1  0.000000  0.654514  0.000000  1
  Sn  Sn18  1  0.654514  0.654514  0.000000  1
  Sn  Sn19  1  0.345486  0.345486  0.000000  1
  Sn  Sn20  1  0.333333  0.666667  0.818903  1
  Sn  Sn21  1  0.666667  0.333333  0.181097  1
  Sn  Sn22  1  0.782879  0.217121  0.453405  1
  Sn  Sn23  1  0.217121  0.782879  0.546595  1
  Sn  Sn24  1  0.782879  0.565759  0.453405  1
  Sn  Sn25  1  0.217121  0.434241  0.546595  1
  Sn  Sn26  1  0.434241  0.217121  0.453405  1
  Sn  Sn27  1  0.565759  0.782879  0.546595  1
  Sn  Sn28  1  0.333333  0.666667  0.116153  1
  Sn  Sn29  1  0.666667  0.333333  0.883847  1
  Sn  Sn30  1  0.114108  0.885892  0.276338  1
  Sn  Sn31  1  0.885892  0.114108  0.723662  1
  Sn  Sn32  1  0.114108  0.228218  0.276338  1
  Sn  Sn33  1  0.885892  0.771782  0.723662  1
  Sn  Sn34  1  0.771782  0.885892  0.276338  1
  Sn  Sn35  1  0.228218  0.114108  0.723662  1
