# generated using pymatgen
data_Sr5Ag4
_symmetry_space_group_name_H-M   'P 1'
_cell_length_a   8.50745100
_cell_length_b   8.69718700
_cell_length_c   16.69091700
_cell_angle_alpha   90.00000000
_cell_angle_beta   90.00000000
_cell_angle_gamma   90.00000000
_symmetry_Int_Tables_number   1
_chemical_formula_structural   Sr5Ag4
_chemical_formula_sum   'Sr20 Ag16'
_cell_volume   1234.97584114
_cell_formula_units_Z   4
loop_
 _symmetry_equiv_pos_site_id
 _symmetry_equiv_pos_as_xyz
  1  'x, y, z'
loop_
 _atom_site_type_symbol
 _atom_site_label
 _atom_site_symmetry_multiplicity
 _atom_site_fract_x
 _atom_site_fract_y
 _atom_site_fract_z
 _atom_site_occupancy
  Sr  Sr0  1  0.323383  0.825741  0.879728  1
  Sr  Sr1  1  0.823383  0.674259  0.620272  1
  Sr  Sr2  1  0.676617  0.174259  0.379729  1
  Sr  Sr3  1  0.176617  0.325741  0.120271  1
  Sr  Sr4  1  0.676617  0.174259  0.120271  1
  Sr  Sr5  1  0.176617  0.325741  0.379729  1
  Sr  Sr6  1  0.323383  0.825741  0.620272  1
  Sr  Sr7  1  0.823383  0.674259  0.879728  1
  Sr  Sr8  1  0.482108  0.324357  0.901129  1
  Sr  Sr9  1  0.982108  0.175643  0.598871  1
  Sr  Sr10  1  0.517892  0.675643  0.401129  1
  Sr  Sr11  1  0.017892  0.824357  0.098871  1
  Sr  Sr12  1  0.517892  0.675643  0.098871  1
  Sr  Sr13  1  0.017892  0.824357  0.401129  1
  Sr  Sr14  1  0.482108  0.324357  0.598871  1
  Sr  Sr15  1  0.982108  0.175643  0.901129  1
  Sr  Sr16  1  0.155524  0.487287  0.750000  1
  Sr  Sr17  1  0.655524  0.012713  0.750000  1
  Sr  Sr18  1  0.844476  0.512713  0.250000  1
  Sr  Sr19  1  0.344476  0.987287  0.250000  1
  Ag  Ag20  1  0.350918  0.017827  0.045875  1
  Ag  Ag21  1  0.850918  0.482173  0.454125  1
  Ag  Ag22  1  0.649082  0.982173  0.545875  1
  Ag  Ag23  1  0.149082  0.517827  0.954125  1
  Ag  Ag24  1  0.649082  0.982173  0.954125  1
  Ag  Ag25  1  0.149082  0.517827  0.545875  1
  Ag  Ag26  1  0.350918  0.017827  0.454125  1
  Ag  Ag27  1  0.850918  0.482173  0.045875  1
  Ag  Ag28  1  0.530402  0.605255  0.750000  1
  Ag  Ag29  1  0.030402  0.894745  0.750000  1
  Ag  Ag30  1  0.469598  0.394745  0.250000  1
  Ag  Ag31  1  0.969598  0.105255  0.250000  1
  Ag  Ag32  1  0.276216  0.124238  0.750000  1
  Ag  Ag33  1  0.776216  0.375762  0.750000  1
  Ag  Ag34  1  0.723784  0.875762  0.250000  1
  Ag  Ag35  1  0.223784  0.624238  0.250000  1
