# generated using pymatgen
data_LaPr2Nd9(Si7Br3)2
_symmetry_space_group_name_H-M   'P 1'
_cell_length_a   4.09343300
_cell_length_b   11.77948773
_cell_length_c   16.57483887
_cell_angle_alpha   90.20405513
_cell_angle_beta   90.00000000
_cell_angle_gamma   90.00000000
_symmetry_Int_Tables_number   1
_chemical_formula_structural   LaPr2Nd9(Si7Br3)2
_chemical_formula_sum   'La1 Pr2 Nd9 Si14 Br6'
_cell_volume   799.20952521
_cell_formula_units_Z   1
loop_
 _symmetry_equiv_pos_site_id
 _symmetry_equiv_pos_as_xyz
  1  'x, y, z'
loop_
 _atom_site_type_symbol
 _atom_site_label
 _atom_site_symmetry_multiplicity
 _atom_site_fract_x
 _atom_site_fract_y
 _atom_site_fract_z
 _atom_site_occupancy
  La  La0  1  0.000000  0.936242  0.379217  1
  Pr  Pr1  1  0.500000  0.342009  0.499935  1
  Pr  Pr2  1  0.000000  0.658483  0.000367  1
  Nd  Nd3  1  0.500000  0.358984  0.756899  1
  Nd  Nd4  1  0.000000  0.640815  0.743469  1
  Nd  Nd5  1  0.500000  0.359751  0.242423  1
  Nd  Nd6  1  0.000000  0.640224  0.257135  1
  Nd  Nd7  1  0.500000  0.065759  0.880266  1
  Nd  Nd8  1  0.000000  0.933550  0.620390  1
  Nd  Nd9  1  0.500000  0.066081  0.118780  1
  Nd  Nd10  1  0.500000  0.355804  0.999918  1
  Nd  Nd11  1  0.000000  0.643095  0.500603  1
  Si  Si12  1  0.000000  0.151028  0.999839  1
  Si  Si13  1  0.500000  0.847425  0.500771  1
  Si  Si14  1  0.500000  0.567233  0.876057  1
  Si  Si15  1  0.000000  0.432465  0.624352  1
  Si  Si16  1  0.500000  0.567604  0.123976  1
  Si  Si17  1  0.000000  0.432134  0.375789  1
  Si  Si18  1  0.000000  0.253241  0.873683  1
  Si  Si19  1  0.500000  0.746407  0.627081  1
  Si  Si20  1  0.000000  0.253229  0.126188  1
  Si  Si21  1  0.500000  0.745277  0.374438  1
  Si  Si22  1  0.000000  0.457797  0.876602  1
  Si  Si23  1  0.500000  0.541897  0.623734  1
  Si  Si24  1  0.500000  0.541388  0.376813  1
  Si  Si25  1  0.000000  0.458070  0.123167  1
  Br  Br26  1  0.500000  0.108486  0.693246  1
  Br  Br27  1  0.000000  0.891357  0.807175  1
  Br  Br28  1  0.000000  0.139643  0.501679  1
  Br  Br29  1  0.500000  0.861792  0.999470  1
  Br  Br30  1  0.500000  0.112379  0.305635  1
  Br  Br31  1  0.000000  0.890347  0.190907  1
