# generated using pymatgen
data_NdThZn5Ga
_symmetry_space_group_name_H-M   'P 1'
_cell_length_a   8.41373371
_cell_length_b   8.41373269
_cell_length_c   8.90976000
_cell_angle_alpha   90.00000000
_cell_angle_beta   90.00000000
_cell_angle_gamma   149.16707469
_symmetry_Int_Tables_number   1
_chemical_formula_structural   NdThZn5Ga
_chemical_formula_sum   'Nd2 Th2 Zn10 Ga2'
_cell_volume   323.27206764
_cell_formula_units_Z   2
loop_
 _symmetry_equiv_pos_site_id
 _symmetry_equiv_pos_as_xyz
  1  'x, y, z'
loop_
 _atom_site_type_symbol
 _atom_site_label
 _atom_site_symmetry_multiplicity
 _atom_site_fract_x
 _atom_site_fract_y
 _atom_site_fract_z
 _atom_site_occupancy
  Nd  Nd0  1  0.000000  0.000000  0.500000  1
  Nd  Nd1  1  0.000000  0.000000  0.000000  1
  Th  Th2  1  0.204252  0.795748  0.250000  1
  Th  Th3  1  0.795748  0.204252  0.750000  1
  Zn  Zn4  1  0.813724  0.186276  0.392893  1
  Zn  Zn5  1  0.186276  0.813724  0.607107  1
  Zn  Zn6  1  0.813724  0.186276  0.107107  1
  Zn  Zn7  1  0.186276  0.813724  0.892893  1
  Zn  Zn8  1  0.651126  0.348874  0.478503  1
  Zn  Zn9  1  0.348874  0.651126  0.521497  1
  Zn  Zn10  1  0.651126  0.348874  0.021497  1
  Zn  Zn11  1  0.348874  0.651126  0.978503  1
  Zn  Zn12  1  0.403473  0.596527  0.250000  1
  Zn  Zn13  1  0.596527  0.403473  0.750000  1
  Ga  Ga14  1  0.556990  0.443010  0.250000  1
  Ga  Ga15  1  0.443010  0.556990  0.750000  1
