# generated using pymatgen
data_TbTh3(HgRh2)2
_symmetry_space_group_name_H-M   'P 1'
_cell_length_a   7.75500224
_cell_length_b   7.75500224
_cell_length_c   3.76217000
_cell_angle_alpha   90.00000000
_cell_angle_beta   90.00000000
_cell_angle_gamma   91.21546134
_symmetry_Int_Tables_number   1
_chemical_formula_structural   TbTh3(HgRh2)2
_chemical_formula_sum   'Tb1 Th3 Hg2 Rh4'
_cell_volume   226.20621971
_cell_formula_units_Z   1
loop_
 _symmetry_equiv_pos_site_id
 _symmetry_equiv_pos_as_xyz
  1  'x, y, z'
loop_
 _atom_site_type_symbol
 _atom_site_label
 _atom_site_symmetry_multiplicity
 _atom_site_fract_x
 _atom_site_fract_y
 _atom_site_fract_z
 _atom_site_occupancy
  Tb  Tb0  1  0.328821  0.171180  0.500001  1
  Th  Th1  1  0.830898  0.327393  0.500001  1
  Th  Th2  1  0.172608  0.669103  0.500001  1
  Th  Th3  1  0.669312  0.830689  0.500001  1
  Hg  Hg4  1  0.007323  0.003399  0.000000  1
  Hg  Hg5  1  0.496601  0.492677  0.000000  1
  Rh  Rh6  1  0.637592  0.131442  0.000000  1
  Rh  Rh7  1  0.125060  0.374941  0.000000  1
  Rh  Rh8  1  0.863229  0.636770  0.000000  1
  Rh  Rh9  1  0.368559  0.862407  0.000000  1
