# generated using pymatgen
data_Tm2Sc3Ga3Sn
_symmetry_space_group_name_H-M   'P 1'
_cell_length_a   7.27960998
_cell_length_b   7.64650735
_cell_length_c   14.57615336
_cell_angle_alpha   90.01550728
_cell_angle_beta   89.63279324
_cell_angle_gamma   89.96842107
_symmetry_Int_Tables_number   1
_chemical_formula_structural   Tm2Sc3Ga3Sn
_chemical_formula_sum   'Tm8 Sc12 Ga12 Sn4'
_cell_volume   811.34422438
_cell_formula_units_Z   4
loop_
 _symmetry_equiv_pos_site_id
 _symmetry_equiv_pos_as_xyz
  1  'x, y, z'
loop_
 _atom_site_type_symbol
 _atom_site_label
 _atom_site_symmetry_multiplicity
 _atom_site_fract_x
 _atom_site_fract_y
 _atom_site_fract_z
 _atom_site_occupancy
  Tm  Tm0  1  0.012912  0.175440  0.092709  1
  Tm  Tm1  1  0.994368  0.823628  0.904230  1
  Tm  Tm2  1  0.487433  0.683345  0.905914  1
  Tm  Tm3  1  0.990355  0.824850  0.599715  1
  Tm  Tm4  1  0.500123  0.312358  0.094319  1
  Tm  Tm5  1  0.997212  0.178649  0.400218  1
  Tm  Tm6  1  0.502730  0.315343  0.400358  1
  Tm  Tm7  1  0.502343  0.686732  0.601777  1
  Sc  Sc8  1  0.166026  0.505190  0.754395  1
  Sc  Sc9  1  0.832759  0.496077  0.248027  1
  Sc  Sc10  1  0.330151  0.004936  0.246155  1
  Sc  Sc11  1  0.668701  0.993110  0.752729  1
  Sc  Sc12  1  0.341427  0.164762  0.632819  1
  Sc  Sc13  1  0.670727  0.840510  0.370163  1
  Sc  Sc14  1  0.167293  0.667147  0.367288  1
  Sc  Sc15  1  0.664189  0.840078  0.125419  1
  Sc  Sc16  1  0.826222  0.322577  0.630054  1
  Sc  Sc17  1  0.330266  0.170700  0.876423  1
  Sc  Sc18  1  0.831395  0.320761  0.873057  1
  Sc  Sc19  1  0.179151  0.673718  0.123777  1
  Ga  Ga20  1  0.033522  0.113304  0.749839  1
  Ga  Ga21  1  0.967794  0.884538  0.246733  1
  Ga  Ga22  1  0.470753  0.615976  0.249785  1
  Ga  Ga23  1  0.530695  0.387135  0.753759  1
  Ga  Ga24  1  0.286240  0.869102  0.751169  1
  Ga  Ga25  1  0.713882  0.133727  0.248508  1
  Ga  Ga26  1  0.212334  0.368942  0.249044  1
  Ga  Ga27  1  0.787516  0.628007  0.751259  1
  Ga  Ga28  1  0.672223  0.039038  0.541841  1
  Ga  Ga29  1  0.169647  0.462764  0.957510  1
  Ga  Ga30  1  0.663265  0.035064  0.958658  1
  Ga  Ga31  1  0.338123  0.962802  0.039706  1
  Sn  Sn32  1  0.179876  0.460518  0.542154  1
  Sn  Sn33  1  0.820866  0.541510  0.459806  1
  Sn  Sn34  1  0.327332  0.959807  0.461248  1
  Sn  Sn35  1  0.830147  0.537854  0.039435  1
