# generated using pymatgen
data_PrNd9Sb9Te
_symmetry_space_group_name_H-M   'P 1'
_cell_length_a   7.82249220
_cell_length_b   9.08337623
_cell_length_c   10.07742100
_cell_angle_alpha   102.78609078
_cell_angle_beta   97.55962190
_cell_angle_gamma   106.90033374
_symmetry_Int_Tables_number   1
_chemical_formula_structural   PrNd9Sb9Te
_chemical_formula_sum   'Pr1 Nd9 Sb9 Te1'
_cell_volume   653.24358337
_cell_formula_units_Z   1
loop_
 _symmetry_equiv_pos_site_id
 _symmetry_equiv_pos_as_xyz
  1  'x, y, z'
loop_
 _atom_site_type_symbol
 _atom_site_label
 _atom_site_symmetry_multiplicity
 _atom_site_fract_x
 _atom_site_fract_y
 _atom_site_fract_z
 _atom_site_occupancy
  Pr  Pr0  1  0.901449  0.550042  0.800196  1
  Nd  Nd1  1  0.694901  0.151668  0.398713  1
  Nd  Nd2  1  0.500551  0.750252  0.000839  1
  Nd  Nd3  1  0.695850  0.644863  0.397945  1
  Nd  Nd4  1  0.304020  0.354932  0.601691  1
  Nd  Nd5  1  0.100494  0.948312  0.195420  1
  Nd  Nd6  1  0.498976  0.249621  0.999076  1
  Nd  Nd7  1  0.305699  0.848389  0.601253  1
  Nd  Nd8  1  0.098433  0.450029  0.200063  1
  Nd  Nd9  1  0.899539  0.051768  0.804814  1
  Sb  Sb10  1  0.799950  0.600797  0.101527  1
  Sb  Sb11  1  0.598748  0.198697  0.699707  1
  Sb  Sb12  1  0.400617  0.800704  0.300155  1
  Sb  Sb13  1  0.800748  0.100115  0.101843  1
  Sb  Sb14  1  0.200869  0.398987  0.899345  1
  Sb  Sb15  1  0.601079  0.701397  0.699650  1
  Sb  Sb16  1  0.398238  0.298940  0.300039  1
  Sb  Sb17  1  0.199980  0.900726  0.898481  1
  Sb  Sb18  1  0.000033  0.499849  0.499304  1
  Te  Te19  1  0.999826  0.999912  0.499938  1
