# generated using pymatgen
data_Sr2Zn19Cu3
_symmetry_space_group_name_H-M   'P 1'
_cell_length_a   8.31002951
_cell_length_b   8.31654057
_cell_length_c   8.31002952
_cell_angle_alpha   99.57130330
_cell_angle_beta   99.58309349
_cell_angle_gamma   131.80478754
_symmetry_Int_Tables_number   1
_chemical_formula_structural   Sr2Zn19Cu3
_chemical_formula_sum   'Sr2 Zn19 Cu3'
_cell_volume   390.94789592
_cell_formula_units_Z   1
loop_
 _symmetry_equiv_pos_site_id
 _symmetry_equiv_pos_as_xyz
  1  'x, y, z'
loop_
 _atom_site_type_symbol
 _atom_site_label
 _atom_site_symmetry_multiplicity
 _atom_site_fract_x
 _atom_site_fract_y
 _atom_site_fract_z
 _atom_site_occupancy
  Sr  Sr0  1  0.000119  0.999904  0.999785  1
  Sr  Sr1  1  0.249881  0.750096  0.500215  1
  Zn  Zn2  1  0.060535  0.642650  0.826539  1
  Zn  Zn3  1  0.818060  0.238945  0.172599  1
  Zn  Zn4  1  0.752247  0.255994  0.503747  1
  Zn  Zn5  1  0.497753  0.494006  0.996253  1
  Zn  Zn6  1  0.625000  0.875000  0.250000  1
  Zn  Zn7  1  0.816111  0.642650  0.582115  1
  Zn  Zn8  1  0.897273  0.810102  0.328683  1
  Zn  Zn9  1  0.484997  0.566490  0.673992  1
  Zn  Zn10  1  0.066346  0.238945  0.420885  1
  Zn  Zn11  1  0.768581  0.939898  0.587171  1
  Zn  Zn12  1  0.357502  0.183510  0.418506  1
  Zn  Zn13  1  0.431940  0.511055  0.327401  1
  Zn  Zn14  1  0.189465  0.107350  0.673461  1
  Zn  Zn15  1  0.433889  0.107350  0.917885  1
  Zn  Zn16  1  0.352727  0.939898  0.171317  1
  Zn  Zn17  1  0.765003  0.183510  0.826008  1
  Zn  Zn18  1  0.183654  0.511055  0.079115  1
  Zn  Zn19  1  0.481419  0.810102  0.912829  1
  Zn  Zn20  1  0.892498  0.566490  0.081494  1
  Cu  Cu21  1  0.625000  0.375000  0.750000  1
  Cu  Cu22  1  0.625000  0.375000  0.250000  1
  Cu  Cu23  1  0.125000  0.375000  0.750000  1
