# generated using pymatgen
data_Er5Lu15(Cd3Ir)2
_symmetry_space_group_name_H-M   'P 1'
_cell_length_a   9.40016000
_cell_length_b   9.39976816
_cell_length_c   9.68331100
_cell_angle_alpha   90.00000000
_cell_angle_beta   90.00000000
_cell_angle_gamma   119.98047680
_symmetry_Int_Tables_number   1
_chemical_formula_structural   Er5Lu15(Cd3Ir)2
_chemical_formula_sum   'Er5 Lu15 Cd6 Ir2'
_cell_volume   741.12643533
_cell_formula_units_Z   1
loop_
 _symmetry_equiv_pos_site_id
 _symmetry_equiv_pos_as_xyz
  1  'x, y, z'
loop_
 _atom_site_type_symbol
 _atom_site_label
 _atom_site_symmetry_multiplicity
 _atom_site_fract_x
 _atom_site_fract_y
 _atom_site_fract_z
 _atom_site_occupancy
  Er  Er0  1  0.540342  0.081615  0.250000  1
  Er  Er1  1  0.918408  0.459677  0.250000  1
  Er  Er2  1  0.459326  0.540616  0.750000  1
  Er  Er3  1  0.459567  0.919458  0.750000  1
  Er  Er4  1  0.080552  0.540458  0.750000  1
  Lu  Lu5  1  0.000185  0.999824  0.500004  1
  Lu  Lu6  1  0.000185  0.999824  0.999996  1
  Lu  Lu7  1  0.209502  0.790481  0.441397  1
  Lu  Lu8  1  0.209948  0.418575  0.441354  1
  Lu  Lu9  1  0.581392  0.790047  0.441317  1
  Lu  Lu10  1  0.790523  0.209465  0.558201  1
  Lu  Lu11  1  0.789873  0.580794  0.557971  1
  Lu  Lu12  1  0.419131  0.210061  0.557899  1
  Lu  Lu13  1  0.790523  0.209465  0.941799  1
  Lu  Lu14  1  0.789873  0.580794  0.942029  1
  Lu  Lu15  1  0.419131  0.210061  0.942101  1
  Lu  Lu16  1  0.209502  0.790481  0.058603  1
  Lu  Lu17  1  0.209948  0.418575  0.058646  1
  Lu  Lu18  1  0.581392  0.790047  0.058683  1
  Lu  Lu19  1  0.540225  0.459800  0.250000  1
  Cd  Cd20  1  0.887484  0.112767  0.250000  1
  Cd  Cd21  1  0.886163  0.774254  0.250000  1
  Cd  Cd22  1  0.225882  0.113834  0.250000  1
  Cd  Cd23  1  0.112850  0.887629  0.750000  1
  Cd  Cd24  1  0.113117  0.225415  0.750000  1
  Cd  Cd25  1  0.774625  0.886955  0.750000  1
  Ir  Ir26  1  0.333635  0.666182  0.250000  1
  Ir  Ir27  1  0.666720  0.332847  0.750000  1
