# generated using pymatgen
data_Er6BiO12
_symmetry_space_group_name_H-M   'P 1'
_cell_length_a   6.51729415
_cell_length_b   6.51739232
_cell_length_c   6.51712874
_cell_angle_alpha   99.14192177
_cell_angle_beta   99.14118231
_cell_angle_gamma   99.14029749
_symmetry_Int_Tables_number   1
_chemical_formula_structural   Er6BiO12
_chemical_formula_sum   'Er6 Bi1 O12'
_cell_volume   264.97687334
_cell_formula_units_Z   1
loop_
 _symmetry_equiv_pos_site_id
 _symmetry_equiv_pos_as_xyz
  1  'x, y, z'
loop_
 _atom_site_type_symbol
 _atom_site_label
 _atom_site_symmetry_multiplicity
 _atom_site_fract_x
 _atom_site_fract_y
 _atom_site_fract_z
 _atom_site_occupancy
  Er  Er0  1  0.609313  0.308398  0.141034  1
  Er  Er1  1  0.140881  0.609271  0.308572  1
  Er  Er2  1  0.691560  0.859182  0.390836  1
  Er  Er3  1  0.308440  0.140818  0.609163  1
  Er  Er4  1  0.859119  0.390728  0.691427  1
  Er  Er5  1  0.390687  0.691602  0.858966  1
  Bi  Bi6  1  0.000000  0.000000  0.000000  1
  O  O7  1  0.682188  0.928562  0.051899  1
  O  O8  1  0.948100  0.317821  0.071436  1
  O  O9  1  0.432472  0.584442  0.178567  1
  O  O10  1  0.071429  0.948100  0.317806  1
  O  O11  1  0.821441  0.567543  0.415549  1
  O  O12  1  0.584447  0.178580  0.432456  1
  O  O13  1  0.415553  0.821420  0.567544  1
  O  O14  1  0.178559  0.432456  0.584451  1
  O  O15  1  0.928571  0.051900  0.682194  1
  O  O16  1  0.567528  0.415558  0.821433  1
  O  O17  1  0.051900  0.682179  0.928564  1
  O  O18  1  0.317812  0.071438  0.948101  1
