# generated using pymatgen
data_Ho2Tm10Ru3Rh
_symmetry_space_group_name_H-M   'P 1'
_cell_length_a   6.24453115
_cell_length_b   7.23527292
_cell_length_c   9.03350100
_cell_angle_alpha   90.00000000
_cell_angle_beta   90.00000000
_cell_angle_gamma   90.01612668
_symmetry_Int_Tables_number   1
_chemical_formula_structural   Ho2Tm10Ru3Rh
_chemical_formula_sum   'Ho2 Tm10 Ru3 Rh1'
_cell_volume   408.14157314
_cell_formula_units_Z   1
loop_
 _symmetry_equiv_pos_site_id
 _symmetry_equiv_pos_as_xyz
  1  'x, y, z'
loop_
 _atom_site_type_symbol
 _atom_site_label
 _atom_site_symmetry_multiplicity
 _atom_site_fract_x
 _atom_site_fract_y
 _atom_site_fract_z
 _atom_site_occupancy
  Ho  Ho0  1  0.631704  0.038115  0.250000  1
  Ho  Ho1  1  0.869084  0.540064  0.250000  1
  Tm  Tm2  1  0.368403  0.960005  0.750000  1
  Tm  Tm3  1  0.132281  0.460423  0.750000  1
  Tm  Tm4  1  0.167732  0.174713  0.062216  1
  Tm  Tm5  1  0.829970  0.823422  0.935261  1
  Tm  Tm6  1  0.672309  0.323032  0.933431  1
  Tm  Tm7  1  0.829970  0.823422  0.564739  1
  Tm  Tm8  1  0.329786  0.678733  0.061994  1
  Tm  Tm9  1  0.167732  0.174713  0.437784  1
  Tm  Tm10  1  0.329786  0.678733  0.438006  1
  Tm  Tm11  1  0.672309  0.323032  0.566569  1
  Ru  Ru12  1  0.537244  0.614779  0.750000  1
  Ru  Ru13  1  0.963452  0.115795  0.750000  1
  Ru  Ru14  1  0.041330  0.885172  0.250000  1
  Rh  Rh15  1  0.456906  0.385847  0.250000  1
