# generated using pymatgen
data_Hf4Ga2Pt3Rh7
_symmetry_space_group_name_H-M   'P 1'
_cell_length_a   4.11881800
_cell_length_b   5.57729200
_cell_length_c   10.98255642
_cell_angle_alpha   88.33865398
_cell_angle_beta   90.00000000
_cell_angle_gamma   90.00000000
_symmetry_Int_Tables_number   1
_chemical_formula_structural   Hf4Ga2Pt3Rh7
_chemical_formula_sum   'Hf4 Ga2 Pt3 Rh7'
_cell_volume   252.18359536
_cell_formula_units_Z   1
loop_
 _symmetry_equiv_pos_site_id
 _symmetry_equiv_pos_as_xyz
  1  'x, y, z'
loop_
 _atom_site_type_symbol
 _atom_site_label
 _atom_site_symmetry_multiplicity
 _atom_site_fract_x
 _atom_site_fract_y
 _atom_site_fract_z
 _atom_site_occupancy
  Hf  Hf0  1  0.500000  0.185068  0.641636  1
  Hf  Hf1  1  0.500000  0.814932  0.358364  1
  Hf  Hf2  1  0.500000  0.693195  0.864299  1
  Hf  Hf3  1  0.500000  0.306805  0.135701  1
  Ga  Ga4  1  0.000000  0.500000  0.500000  1
  Ga  Ga5  1  0.000000  0.000000  0.000000  1
  Pt  Pt6  1  0.000000  0.440196  0.746378  1
  Pt  Pt7  1  0.000000  0.559804  0.253622  1
  Pt  Pt8  1  0.000000  0.000000  0.500000  1
  Rh  Rh9  1  0.500000  0.197099  0.890007  1
  Rh  Rh10  1  0.500000  0.802901  0.109993  1
  Rh  Rh11  1  0.500000  0.695727  0.608787  1
  Rh  Rh12  1  0.500000  0.304273  0.391213  1
  Rh  Rh13  1  0.000000  0.500000  0.000000  1
  Rh  Rh14  1  0.000000  0.060596  0.244967  1
  Rh  Rh15  1  0.000000  0.939404  0.755033  1
