# generated using pymatgen
data_HoErNi7
_symmetry_space_group_name_H-M   'P 1'
_cell_length_a   4.91776282
_cell_length_b   4.91776104
_cell_length_c   12.32676119
_cell_angle_alpha   78.49375491
_cell_angle_beta   78.49375781
_cell_angle_gamma   60.00001573
_symmetry_Int_Tables_number   1
_chemical_formula_structural   HoErNi7
_chemical_formula_sum   'Ho2 Er2 Ni14'
_cell_volume   251.23340915
_cell_formula_units_Z   2
loop_
 _symmetry_equiv_pos_site_id
 _symmetry_equiv_pos_as_xyz
  1  'x, y, z'
loop_
 _atom_site_type_symbol
 _atom_site_label
 _atom_site_symmetry_multiplicity
 _atom_site_fract_x
 _atom_site_fract_y
 _atom_site_fract_z
 _atom_site_occupancy
  Ho  Ho0  1  0.949426  0.949426  0.151724  1
  Ho  Ho1  1  0.050574  0.050574  0.848276  1
  Er  Er2  1  0.852725  0.852725  0.441825  1
  Er  Er3  1  0.147275  0.147275  0.558175  1
  Ni  Ni4  1  0.500000  0.500000  0.500000  1
  Ni  Ni5  1  0.722022  0.722022  0.833935  1
  Ni  Ni6  1  0.277978  0.277978  0.166065  1
  Ni  Ni7  1  0.611660  0.611660  0.165018  1
  Ni  Ni8  1  0.388340  0.388340  0.834982  1
  Ni  Ni9  1  0.000000  0.500000  0.000000  1
  Ni  Ni10  1  0.500000  0.000000  0.000000  1
  Ni  Ni11  1  0.500000  0.500000  0.000000  1
  Ni  Ni12  1  0.389108  0.389108  0.330093  1
  Ni  Ni13  1  0.891691  0.389108  0.330093  1
  Ni  Ni14  1  0.389108  0.891691  0.330093  1
  Ni  Ni15  1  0.610892  0.610892  0.669907  1
  Ni  Ni16  1  0.108309  0.610892  0.669907  1
  Ni  Ni17  1  0.610892  0.108309  0.669907  1
