# generated using pymatgen
data_Tb3Er17(FeBi2)4
_symmetry_space_group_name_H-M   'P 1'
_cell_length_a   7.95087230
_cell_length_b   8.86458200
_cell_length_c   12.37311300
_cell_angle_alpha   90.00000000
_cell_angle_beta   89.98423278
_cell_angle_gamma   90.00000000
_symmetry_Int_Tables_number   1
_chemical_formula_structural   Tb3Er17(FeBi2)4
_chemical_formula_sum   'Tb3 Er17 Fe4 Bi8'
_cell_volume   872.07131765
_cell_formula_units_Z   1
loop_
 _symmetry_equiv_pos_site_id
 _symmetry_equiv_pos_as_xyz
  1  'x, y, z'
loop_
 _atom_site_type_symbol
 _atom_site_label
 _atom_site_symmetry_multiplicity
 _atom_site_fract_x
 _atom_site_fract_y
 _atom_site_fract_z
 _atom_site_occupancy
  Tb  Tb0  1  0.846865  0.750000  0.198866  1
  Tb  Tb1  1  0.118772  0.750000  0.813883  1
  Tb  Tb2  1  0.380577  0.750000  0.313567  1
  Er  Er3  1  0.652992  0.750000  0.698701  1
  Er  Er4  1  0.346478  0.250000  0.300809  1
  Er  Er5  1  0.153654  0.250000  0.800779  1
  Er  Er6  1  0.882230  0.250000  0.185771  1
  Er  Er7  1  0.617871  0.250000  0.685675  1
  Er  Er8  1  0.554369  0.750000  0.995540  1
  Er  Er9  1  0.445169  0.250000  0.003817  1
  Er  Er10  1  0.055126  0.250000  0.504244  1
  Er  Er11  1  0.944521  0.750000  0.495938  1
  Er  Er12  1  0.826459  0.462640  0.936549  1
  Er  Er13  1  0.172382  0.532900  0.063283  1
  Er  Er14  1  0.328298  0.533887  0.563659  1
  Er  Er15  1  0.172382  0.967100  0.063283  1
  Er  Er16  1  0.673122  0.463280  0.437205  1
  Er  Er17  1  0.826459  0.037360  0.936549  1
  Er  Er18  1  0.673122  0.036720  0.437205  1
  Er  Er19  1  0.328298  0.966113  0.563659  1
  Fe  Fe20  1  0.934137  0.750000  0.992342  1
  Fe  Fe21  1  0.065990  0.250000  0.007660  1
  Fe  Fe22  1  0.434516  0.250000  0.507943  1
  Fe  Fe23  1  0.566158  0.750000  0.492681  1
  Bi  Bi24  1  0.931466  0.007607  0.673162  1
  Bi  Bi25  1  0.067339  0.994593  0.327324  1
  Bi  Bi26  1  0.433525  0.993701  0.826794  1
  Bi  Bi27  1  0.067339  0.505407  0.327324  1
  Bi  Bi28  1  0.567695  0.008167  0.172917  1
  Bi  Bi29  1  0.931466  0.492393  0.673162  1
  Bi  Bi30  1  0.567695  0.491833  0.172917  1
  Bi  Bi31  1  0.433525  0.506299  0.826794  1
