# generated using pymatgen
data_Sc10In8GePt3
_symmetry_space_group_name_H-M   'P 1'
_cell_length_a   3.46247200
_cell_length_b   7.72901600
_cell_length_c   17.51159656
_cell_angle_alpha   89.60884113
_cell_angle_beta   90.00000000
_cell_angle_gamma   90.00000000
_symmetry_Int_Tables_number   1
_chemical_formula_structural   Sc10In8GePt3
_chemical_formula_sum   'Sc10 In8 Ge1 Pt3'
_cell_volume   468.62569657
_cell_formula_units_Z   1
loop_
 _symmetry_equiv_pos_site_id
 _symmetry_equiv_pos_as_xyz
  1  'x, y, z'
loop_
 _atom_site_type_symbol
 _atom_site_label
 _atom_site_symmetry_multiplicity
 _atom_site_fract_x
 _atom_site_fract_y
 _atom_site_fract_z
 _atom_site_occupancy
  Sc  Sc0  1  0.500000  0.499542  0.498531  1
  Sc  Sc1  1  0.500000  0.999731  0.002327  1
  Sc  Sc2  1  0.500000  0.875555  0.415291  1
  Sc  Sc3  1  0.500000  0.122533  0.582612  1
  Sc  Sc4  1  0.500000  0.620865  0.917181  1
  Sc  Sc5  1  0.500000  0.372297  0.081224  1
  Sc  Sc6  1  0.500000  0.240982  0.280833  1
  Sc  Sc7  1  0.500000  0.752965  0.721785  1
  Sc  Sc8  1  0.500000  0.253138  0.778661  1
  Sc  Sc9  1  0.500000  0.759932  0.223167  1
  In  In10  1  0.000000  0.202390  0.433143  1
  In  In11  1  0.000000  0.795521  0.564578  1
  In  In12  1  0.000000  0.294431  0.935274  1
  In  In13  1  0.000000  0.705650  0.063882  1
  In  In14  1  0.000000  0.574535  0.354649  1
  In  In15  1  0.000000  0.427874  0.646877  1
  In  In16  1  0.000000  0.928724  0.853212  1
  In  In17  1  0.000000  0.064107  0.146427  1
  Ge  Ge18  1  0.000000  0.468830  0.196352  1
  Pt  Pt19  1  0.000000  0.963905  0.303338  1
  Pt  Pt20  1  0.000000  0.038746  0.694243  1
  Pt  Pt21  1  0.000000  0.537748  0.806412  1
