# generated using pymatgen
data_La4Pr3Nd9(CdIr)4
_symmetry_space_group_name_H-M   'P 1'
_cell_length_a   10.02952848
_cell_length_b   10.01920271
_cell_length_c   10.03050864
_cell_angle_alpha   60.03080569
_cell_angle_beta   60.06453639
_cell_angle_gamma   60.04052536
_symmetry_Int_Tables_number   1
_chemical_formula_structural   La4Pr3Nd9(CdIr)4
_chemical_formula_sum   'La4 Pr3 Nd9 Cd4 Ir4'
_cell_volume   713.45591572
_cell_formula_units_Z   1
loop_
 _symmetry_equiv_pos_site_id
 _symmetry_equiv_pos_as_xyz
  1  'x, y, z'
loop_
 _atom_site_type_symbol
 _atom_site_label
 _atom_site_symmetry_multiplicity
 _atom_site_fract_x
 _atom_site_fract_y
 _atom_site_fract_z
 _atom_site_occupancy
  La  La0  1  0.347710  0.347636  0.347897  1
  La  La1  1  0.348138  0.347873  0.955975  1
  La  La2  1  0.347897  0.956755  0.347710  1
  La  La3  1  0.955975  0.348012  0.348138  1
  Pr  Pr4  1  0.938238  0.561762  0.938238  1
  Pr  Pr5  1  0.561691  0.562231  0.938076  1
  Pr  Pr6  1  0.938076  0.938002  0.561691  1
  Nd  Nd7  1  0.810400  0.189609  0.189421  1
  Nd  Nd8  1  0.189421  0.810570  0.810400  1
  Nd  Nd9  1  0.189493  0.810507  0.189493  1
  Nd  Nd10  1  0.810330  0.189670  0.810330  1
  Nd  Nd11  1  0.189545  0.189738  0.810279  1
  Nd  Nd12  1  0.810279  0.810438  0.189545  1
  Nd  Nd13  1  0.938309  0.562001  0.561453  1
  Nd  Nd14  1  0.561453  0.938237  0.938309  1
  Nd  Nd15  1  0.561972  0.938028  0.561972  1
  Cd  Cd16  1  0.580115  0.580067  0.579853  1
  Cd  Cd17  1  0.579967  0.580181  0.259924  1
  Cd  Cd18  1  0.579853  0.259964  0.580115  1
  Cd  Cd19  1  0.259924  0.579926  0.579967  1
  Ir  Ir20  1  0.142185  0.141108  0.141903  1
  Ir  Ir21  1  0.142374  0.141594  0.574746  1
  Ir  Ir22  1  0.141903  0.574804  0.142185  1
  Ir  Ir23  1  0.574746  0.141285  0.142374  1
