# generated using pymatgen
data_DyY9(GaSb)3
_symmetry_space_group_name_H-M   'P 1'
_cell_length_a   8.78675401
_cell_length_b   8.78790849
_cell_length_c   6.51115000
_cell_angle_alpha   89.99597941
_cell_angle_beta   90.00149776
_cell_angle_gamma   119.98993212
_symmetry_Int_Tables_number   1
_chemical_formula_structural   DyY9(GaSb)3
_chemical_formula_sum   'Dy1 Y9 Ga3 Sb3'
_cell_volume   435.45810275
_cell_formula_units_Z   1
loop_
 _symmetry_equiv_pos_site_id
 _symmetry_equiv_pos_as_xyz
  1  'x, y, z'
loop_
 _atom_site_type_symbol
 _atom_site_label
 _atom_site_symmetry_multiplicity
 _atom_site_fract_x
 _atom_site_fract_y
 _atom_site_fract_z
 _atom_site_occupancy
  Dy  Dy0  1  0.327335  0.666582  0.002918  1
  Y  Y1  1  0.660839  0.333419  0.497124  1
  Y  Y2  1  0.660817  0.333417  0.002871  1
  Y  Y3  1  0.327412  0.666582  0.497110  1
  Y  Y4  1  0.235517  0.999995  0.249989  1
  Y  Y5  1  0.243281  0.232174  0.750011  1
  Y  Y6  1  0.011126  0.767820  0.750009  1
  Y  Y7  1  0.012120  0.249307  0.249981  1
  Y  Y8  1  0.762826  0.750713  0.249991  1
  Y  Y9  1  0.753486  0.000001  0.750011  1
  Ga  Ga10  1  0.998692  0.602615  0.249966  1
  Ga  Ga11  1  0.396043  0.397413  0.249965  1
  Ga  Ga12  1  0.398480  0.999972  0.750031  1
  Sb  Sb13  1  0.609138  0.999981  0.249978  1
  Sb  Sb14  1  0.605048  0.607230  0.750017  1
  Sb  Sb15  1  0.997841  0.392779  0.750027  1
