# generated using pymatgen
data_K2LiTmBi2
_symmetry_space_group_name_H-M   'P 1'
_cell_length_a   11.07664496
_cell_length_b   11.07664491
_cell_length_c   7.20139100
_cell_angle_alpha   90.00000000
_cell_angle_beta   90.00000000
_cell_angle_gamma   98.97551433
_symmetry_Int_Tables_number   1
_chemical_formula_structural   K2LiTmBi2
_chemical_formula_sum   'K8 Li4 Tm4 Bi8'
_cell_volume   872.73449719
_cell_formula_units_Z   4
loop_
 _symmetry_equiv_pos_site_id
 _symmetry_equiv_pos_as_xyz
  1  'x, y, z'
loop_
 _atom_site_type_symbol
 _atom_site_label
 _atom_site_symmetry_multiplicity
 _atom_site_fract_x
 _atom_site_fract_y
 _atom_site_fract_z
 _atom_site_occupancy
  K  K0  1  0.571095  0.928905  0.750000  1
  K  K1  1  0.928905  0.571095  0.250000  1
  K  K2  1  0.428905  0.071095  0.250000  1
  K  K3  1  0.071095  0.428905  0.750000  1
  K  K4  1  0.675513  0.324487  0.782742  1
  K  K5  1  0.824487  0.175513  0.282742  1
  K  K6  1  0.324487  0.675513  0.217258  1
  K  K7  1  0.175513  0.824487  0.717258  1
  Li  Li8  1  0.620803  0.620803  0.000000  1
  Li  Li9  1  0.879197  0.879197  0.500000  1
  Li  Li10  1  0.379197  0.379197  0.000000  1
  Li  Li11  1  0.120803  0.120803  0.500000  1
  Tm  Tm12  1  0.870239  0.870239  0.000000  1
  Tm  Tm13  1  0.629761  0.629761  0.500000  1
  Tm  Tm14  1  0.129761  0.129761  0.000000  1
  Tm  Tm15  1  0.370239  0.370239  0.500000  1
  Bi  Bi16  1  0.352536  0.147464  0.750000  1
  Bi  Bi17  1  0.147464  0.352536  0.250000  1
  Bi  Bi18  1  0.647464  0.852536  0.250000  1
  Bi  Bi19  1  0.852536  0.647464  0.750000  1
  Bi  Bi20  1  0.898608  0.101392  0.758460  1
  Bi  Bi21  1  0.601392  0.398608  0.258460  1
  Bi  Bi22  1  0.101392  0.898608  0.241540  1
  Bi  Bi23  1  0.398608  0.601392  0.741540  1
