# generated using pymatgen
data_Mn4(NbSi2)3
_symmetry_space_group_name_H-M   'P 1'
_cell_length_a   16.70589200
_cell_length_b   16.70589200
_cell_length_c   4.96421800
_cell_angle_alpha   90.00000000
_cell_angle_beta   90.00000000
_cell_angle_gamma   90.00000000
_symmetry_Int_Tables_number   1
_chemical_formula_structural   Mn4(NbSi2)3
_chemical_formula_sum   'Mn32 Nb24 Si48'
_cell_volume   1385.44785272
_cell_formula_units_Z   8
loop_
 _symmetry_equiv_pos_site_id
 _symmetry_equiv_pos_as_xyz
  1  'x, y, z'
loop_
 _atom_site_type_symbol
 _atom_site_label
 _atom_site_symmetry_multiplicity
 _atom_site_fract_x
 _atom_site_fract_y
 _atom_site_fract_z
 _atom_site_occupancy
  Mn  Mn0  1  0.155680  0.052807  0.250997  1
  Mn  Mn1  1  0.052807  0.844320  0.750997  1
  Mn  Mn2  1  0.947193  0.155680  0.750997  1
  Mn  Mn3  1  0.844320  0.947193  0.250997  1
  Mn  Mn4  1  0.344320  0.552807  0.749003  1
  Mn  Mn5  1  0.655680  0.447193  0.749003  1
  Mn  Mn6  1  0.552807  0.655680  0.249003  1
  Mn  Mn7  1  0.447193  0.344320  0.249003  1
  Mn  Mn8  1  0.844320  0.947193  0.749003  1
  Mn  Mn9  1  0.947193  0.155680  0.249003  1
  Mn  Mn10  1  0.052807  0.844320  0.249003  1
  Mn  Mn11  1  0.155680  0.052807  0.749003  1
  Mn  Mn12  1  0.655680  0.447193  0.250997  1
  Mn  Mn13  1  0.344320  0.552807  0.250997  1
  Mn  Mn14  1  0.447193  0.344320  0.750997  1
  Mn  Mn15  1  0.552807  0.655680  0.750997  1
  Mn  Mn16  1  0.041972  0.385254  0.000000  1
  Mn  Mn17  1  0.385254  0.958028  0.500000  1
  Mn  Mn18  1  0.614746  0.041972  0.500000  1
  Mn  Mn19  1  0.958028  0.614746  0.000000  1
  Mn  Mn20  1  0.458028  0.885254  0.000000  1
  Mn  Mn21  1  0.541972  0.114746  0.000000  1
  Mn  Mn22  1  0.885254  0.541972  0.500000  1
  Mn  Mn23  1  0.114746  0.458028  0.500000  1
  Mn  Mn24  1  0.125838  0.625838  0.250000  1
  Mn  Mn25  1  0.625838  0.874162  0.750000  1
  Mn  Mn26  1  0.374162  0.125838  0.750000  1
  Mn  Mn27  1  0.874162  0.374162  0.250000  1
  Mn  Mn28  1  0.874162  0.374162  0.750000  1
  Mn  Mn29  1  0.374162  0.125838  0.250000  1
  Mn  Mn30  1  0.625838  0.874162  0.250000  1
  Mn  Mn31  1  0.125838  0.625838  0.750000  1
  Nb  Nb32  1  0.104529  0.206635  0.000000  1
  Nb  Nb33  1  0.206635  0.895471  0.500000  1
  Nb  Nb34  1  0.793365  0.104529  0.500000  1
  Nb  Nb35  1  0.895471  0.793365  0.000000  1
  Nb  Nb36  1  0.395471  0.706635  0.000000  1
  Nb  Nb37  1  0.604529  0.293365  0.000000  1
  Nb  Nb38  1  0.706635  0.604529  0.500000  1
  Nb  Nb39  1  0.293365  0.395471  0.500000  1
  Nb  Nb40  1  0.296662  0.283131  0.000000  1
  Nb  Nb41  1  0.283131  0.703338  0.500000  1
  Nb  Nb42  1  0.716869  0.296662  0.500000  1
  Nb  Nb43  1  0.703338  0.716869  0.000000  1
  Nb  Nb44  1  0.203338  0.783131  0.000000  1
  Nb  Nb45  1  0.796662  0.216869  0.000000  1
  Nb  Nb46  1  0.783131  0.796662  0.500000  1
  Nb  Nb47  1  0.216869  0.203338  0.500000  1
  Nb  Nb48  1  0.210844  0.471459  0.000000  1
  Nb  Nb49  1  0.471459  0.789156  0.500000  1
  Nb  Nb50  1  0.528541  0.210844  0.500000  1
  Nb  Nb51  1  0.789156  0.528541  0.000000  1
  Nb  Nb52  1  0.289156  0.971459  0.000000  1
  Nb  Nb53  1  0.710844  0.028541  0.000000  1
  Nb  Nb54  1  0.971459  0.710844  0.500000  1
  Nb  Nb55  1  0.028541  0.289156  0.500000  1
  Si  Si56  1  0.433397  0.020795  0.000000  1
  Si  Si57  1  0.020795  0.566603  0.500000  1
  Si  Si58  1  0.979205  0.433397  0.500000  1
  Si  Si59  1  0.566603  0.979205  0.000000  1
  Si  Si60  1  0.066603  0.520795  0.000000  1
  Si  Si61  1  0.933397  0.479205  0.000000  1
  Si  Si62  1  0.520795  0.933397  0.500000  1
  Si  Si63  1  0.479205  0.066603  0.500000  1
  Si  Si64  1  0.031914  0.063928  0.000000  1
  Si  Si65  1  0.063928  0.968086  0.500000  1
  Si  Si66  1  0.936072  0.031914  0.500000  1
  Si  Si67  1  0.968086  0.936072  0.000000  1
  Si  Si68  1  0.468086  0.563928  0.000000  1
  Si  Si69  1  0.531914  0.436072  0.000000  1
  Si  Si70  1  0.563928  0.531914  0.500000  1
  Si  Si71  1  0.436072  0.468086  0.500000  1
  Si  Si72  1  0.248721  0.131700  0.000000  1
  Si  Si73  1  0.131700  0.751279  0.500000  1
  Si  Si74  1  0.868300  0.248721  0.500000  1
  Si  Si75  1  0.751279  0.868300  0.000000  1
  Si  Si76  1  0.251279  0.631700  0.000000  1
  Si  Si77  1  0.748721  0.368300  0.000000  1
  Si  Si78  1  0.631700  0.748721  0.500000  1
  Si  Si79  1  0.368300  0.251279  0.500000  1
  Si  Si80  1  0.452265  0.224207  0.000000  1
  Si  Si81  1  0.224207  0.547735  0.500000  1
  Si  Si82  1  0.775793  0.452265  0.500000  1
  Si  Si83  1  0.547735  0.775793  0.000000  1
  Si  Si84  1  0.047735  0.724207  0.000000  1
  Si  Si85  1  0.952265  0.275793  0.000000  1
  Si  Si86  1  0.724207  0.952265  0.500000  1
  Si  Si87  1  0.275793  0.047735  0.500000  1
  Si  Si88  1  0.360798  0.430558  0.000000  1
  Si  Si89  1  0.430558  0.639202  0.500000  1
  Si  Si90  1  0.569442  0.360798  0.500000  1
  Si  Si91  1  0.639202  0.569442  0.000000  1
  Si  Si92  1  0.139202  0.930558  0.000000  1
  Si  Si93  1  0.860798  0.069442  0.000000  1
  Si  Si94  1  0.930558  0.860798  0.500000  1
  Si  Si95  1  0.069442  0.139202  0.500000  1
  Si  Si96  1  0.661673  0.161673  0.250000  1
  Si  Si97  1  0.161673  0.338327  0.750000  1
  Si  Si98  1  0.838327  0.661673  0.750000  1
  Si  Si99  1  0.338327  0.838327  0.250000  1
  Si  Si100  1  0.338327  0.838327  0.750000  1
  Si  Si101  1  0.838327  0.661673  0.250000  1
  Si  Si102  1  0.161673  0.338327  0.250000  1
  Si  Si103  1  0.661673  0.161673  0.750000  1
