# generated using pymatgen
data_TbY3Fe5Os3
_symmetry_space_group_name_H-M   'P 1'
_cell_length_a   5.27127043
_cell_length_b   5.24638961
_cell_length_c   9.07201210
_cell_angle_alpha   72.93212513
_cell_angle_beta   90.59854930
_cell_angle_gamma   120.18954576
_symmetry_Int_Tables_number   1
_chemical_formula_structural   TbY3Fe5Os3
_chemical_formula_sum   'Tb1 Y3 Fe5 Os3'
_cell_volume   204.43260893
_cell_formula_units_Z   1
loop_
 _symmetry_equiv_pos_site_id
 _symmetry_equiv_pos_as_xyz
  1  'x, y, z'
loop_
 _atom_site_type_symbol
 _atom_site_label
 _atom_site_symmetry_multiplicity
 _atom_site_fract_x
 _atom_site_fract_y
 _atom_site_fract_z
 _atom_site_occupancy
  Tb  Tb0  1  0.876372  0.750847  0.376146  1
  Y  Y1  1  0.375714  0.749770  0.873607  1
  Y  Y2  1  0.998629  0.999224  0.998888  1
  Y  Y3  1  0.499204  0.000277  0.501364  1
  Fe  Fe4  1  0.937462  0.874759  0.687906  1
  Fe  Fe5  1  0.184269  0.369726  0.443799  1
  Fe  Fe6  1  0.690789  0.380282  0.931325  1
  Fe  Fe7  1  0.937470  0.375271  0.187037  1
  Fe  Fe8  1  0.437406  0.374649  0.687948  1
  Os  Os9  1  0.437513  0.375474  0.187067  1
  Os  Os10  1  0.937620  0.374529  0.687865  1
  Os  Os11  1  0.437549  0.875192  0.187044  1
