# generated using pymatgen
data_Y4B16OsRu3
_symmetry_space_group_name_H-M   'P 1'
_cell_length_a   3.56604600
_cell_length_b   5.97016701
_cell_length_c   11.55037902
_cell_angle_alpha   89.99322919
_cell_angle_beta   90.00000000
_cell_angle_gamma   90.00000000
_symmetry_Int_Tables_number   1
_chemical_formula_structural   Y4B16OsRu3
_chemical_formula_sum   'Y4 B16 Os1 Ru3'
_cell_volume   245.90629924
_cell_formula_units_Z   1
loop_
 _symmetry_equiv_pos_site_id
 _symmetry_equiv_pos_as_xyz
  1  'x, y, z'
loop_
 _atom_site_type_symbol
 _atom_site_label
 _atom_site_symmetry_multiplicity
 _atom_site_fract_x
 _atom_site_fract_y
 _atom_site_fract_z
 _atom_site_occupancy
  Y  Y0  1  0.000000  0.629267  0.350276  1
  Y  Y1  1  0.000000  0.370707  0.649715  1
  Y  Y2  1  0.000000  0.129349  0.150186  1
  Y  Y3  1  0.000000  0.870591  0.849906  1
  B  B4  1  0.500000  0.789649  0.185653  1
  B  B5  1  0.500000  0.210418  0.814430  1
  B  B6  1  0.500000  0.289470  0.314599  1
  B  B7  1  0.500000  0.710453  0.685310  1
  B  B8  1  0.500000  0.863590  0.029909  1
  B  B9  1  0.500000  0.136361  0.969882  1
  B  B10  1  0.500000  0.363810  0.469818  1
  B  B11  1  0.500000  0.636138  0.530291  1
  B  B12  1  0.500000  0.888399  0.453446  1
  B  B13  1  0.500000  0.111629  0.546665  1
  B  B14  1  0.500000  0.388180  0.046738  1
  B  B15  1  0.500000  0.611885  0.953249  1
  B  B16  1  0.500000  0.977270  0.308309  1
  B  B17  1  0.500000  0.023018  0.691735  1
  B  B18  1  0.500000  0.476521  0.191644  1
  B  B19  1  0.500000  0.523213  0.808303  1
  Os  Os20  1  0.000000  0.641302  0.092713  1
  Ru  Ru21  1  0.000000  0.358732  0.907311  1
  Ru  Ru22  1  0.000000  0.140452  0.407326  1
  Ru  Ru23  1  0.000000  0.859595  0.592585  1
