# generated using pymatgen
data_Nd20Si15Ir
_symmetry_space_group_name_H-M   'P 1'
_cell_length_a   7.78622703
_cell_length_b   7.93660956
_cell_length_c   15.13193368
_cell_angle_alpha   89.81316701
_cell_angle_beta   89.70369262
_cell_angle_gamma   90.00200496
_symmetry_Int_Tables_number   1
_chemical_formula_structural   Nd20Si15Ir
_chemical_formula_sum   'Nd20 Si15 Ir1'
_cell_volume   935.07918743
_cell_formula_units_Z   1
loop_
 _symmetry_equiv_pos_site_id
 _symmetry_equiv_pos_as_xyz
  1  'x, y, z'
loop_
 _atom_site_type_symbol
 _atom_site_label
 _atom_site_symmetry_multiplicity
 _atom_site_fract_x
 _atom_site_fract_y
 _atom_site_fract_z
 _atom_site_occupancy
  Nd  Nd0  1  0.134896  0.511775  0.748026  1
  Nd  Nd1  1  0.812211  0.331176  0.615485  1
  Nd  Nd2  1  0.458720  0.685868  0.899037  1
  Nd  Nd3  1  0.958742  0.814064  0.898835  1
  Nd  Nd4  1  0.185698  0.683206  0.121197  1
  Nd  Nd5  1  0.690475  0.818392  0.121239  1
  Nd  Nd6  1  0.309694  0.180328  0.877936  1
  Nd  Nd7  1  0.185502  0.678547  0.379651  1
  Nd  Nd8  1  0.041813  0.187507  0.102625  1
  Nd  Nd9  1  0.312895  0.179730  0.621795  1
  Nd  Nd10  1  0.857192  0.490380  0.259990  1
  Nd  Nd11  1  0.363891  0.009098  0.253422  1
  Nd  Nd12  1  0.539134  0.318844  0.398711  1
  Nd  Nd13  1  0.811004  0.316792  0.878560  1
  Nd  Nd14  1  0.961947  0.812880  0.598386  1
  Nd  Nd15  1  0.462054  0.685314  0.600958  1
  Nd  Nd16  1  0.040935  0.188169  0.399973  1
  Nd  Nd17  1  0.693312  0.811800  0.384248  1
  Nd  Nd18  1  0.639669  0.992641  0.748418  1
  Nd  Nd19  1  0.542348  0.313144  0.102340  1
  Si  Si20  1  0.478138  0.603109  0.245626  1
  Si  Si21  1  0.251260  0.378868  0.247177  1
  Si  Si22  1  0.517340  0.400736  0.750956  1
  Si  Si23  1  0.632632  0.026035  0.959232  1
  Si  Si24  1  0.017438  0.100701  0.749205  1
  Si  Si25  1  0.745810  0.621647  0.751070  1
  Si  Si26  1  0.749980  0.119910  0.247706  1
  Si  Si27  1  0.365136  0.970262  0.460413  1
  Si  Si28  1  0.981315  0.902420  0.248330  1
  Si  Si29  1  0.365043  0.974713  0.041191  1
  Si  Si30  1  0.633757  0.024570  0.542231  1
  Si  Si31  1  0.135108  0.473439  0.959297  1
  Si  Si32  1  0.145403  0.474641  0.541244  1
  Si  Si33  1  0.866297  0.525760  0.039612  1
  Si  Si34  1  0.247947  0.878433  0.750985  1
  Ir  Ir35  1  0.865265  0.515101  0.454892  1
