# generated using pymatgen
data_Er8TiSi16Tc11
_symmetry_space_group_name_H-M   'P 1'
_cell_length_a   6.78757928
_cell_length_b   6.80178000
_cell_length_c   12.63977389
_cell_angle_alpha   90.12359075
_cell_angle_beta   90.30373393
_cell_angle_gamma   90.12392517
_symmetry_Int_Tables_number   1
_chemical_formula_structural   Er8TiSi16Tc11
_chemical_formula_sum   'Er8 Ti1 Si16 Tc11'
_cell_volume   583.53735360
_cell_formula_units_Z   1
loop_
 _symmetry_equiv_pos_site_id
 _symmetry_equiv_pos_as_xyz
  1  'x, y, z'
loop_
 _atom_site_type_symbol
 _atom_site_label
 _atom_site_symmetry_multiplicity
 _atom_site_fract_x
 _atom_site_fract_y
 _atom_site_fract_z
 _atom_site_occupancy
  Er  Er0  1  0.335357  0.995127  0.467930  1
  Er  Er1  1  0.500211  0.835787  0.720576  1
  Er  Er2  1  0.495649  0.159767  0.219140  1
  Er  Er3  1  0.837659  0.499900  0.279107  1
  Er  Er4  1  0.160283  0.493302  0.781936  1
  Er  Er5  1  0.660577  0.001454  0.970512  1
  Er  Er6  1  0.998879  0.339515  0.529994  1
  Er  Er7  1  0.002369  0.659096  0.030602  1
  Ti  Ti8  1  0.995732  0.830248  0.621442  1
  Si  Si9  1  0.200539  0.120651  0.685025  1
  Si  Si10  1  0.383408  0.690844  0.937857  1
  Si  Si11  1  0.616839  0.309438  0.438348  1
  Si  Si12  1  0.690394  0.383939  0.063719  1
  Si  Si13  1  0.308805  0.619012  0.562154  1
  Si  Si14  1  0.808670  0.882956  0.187783  1
  Si  Si15  1  0.119297  0.194892  0.313657  1
  Si  Si16  1  0.883852  0.802296  0.815476  1
  Si  Si17  1  0.270293  0.979249  0.062154  1
  Si  Si18  1  0.527289  0.777813  0.314129  1
  Si  Si19  1  0.474179  0.218415  0.814551  1
  Si  Si20  1  0.780897  0.524299  0.687864  1
  Si  Si21  1  0.225193  0.476779  0.185987  1
  Si  Si22  1  0.708365  0.041352  0.564450  1
  Si  Si23  1  0.978239  0.267951  0.937542  1
  Si  Si24  1  0.031493  0.721267  0.429209  1
  Tc  Tc25  1  0.330320  0.333136  0.001366  1
  Tc  Tc26  1  0.168152  0.831194  0.248346  1
  Tc  Tc27  1  0.835500  0.162281  0.749372  1
  Tc  Tc28  1  0.672833  0.667049  0.501369  1
  Tc  Tc29  1  0.186506  0.974299  0.869472  1
  Tc  Tc30  1  0.521653  0.682998  0.122905  1
  Tc  Tc31  1  0.491512  0.324155  0.625214  1
  Tc  Tc32  1  0.676175  0.510412  0.878217  1
  Tc  Tc33  1  0.323197  0.481183  0.375706  1
  Tc  Tc34  1  0.825652  0.024549  0.375616  1
  Tc  Tc35  1  0.974033  0.183395  0.131273  1
