# generated using pymatgen
data_Dy6Co17P12Os
_symmetry_space_group_name_H-M   'P 1'
_cell_length_a   3.70608100
_cell_length_b   10.50914300
_cell_length_c   12.22900400
_cell_angle_alpha   90.00000000
_cell_angle_beta   90.00000000
_cell_angle_gamma   90.00000000
_symmetry_Int_Tables_number   1
_chemical_formula_structural   Dy6Co17P12Os
_chemical_formula_sum   'Dy6 Co17 P12 Os1'
_cell_volume   476.29200953
_cell_formula_units_Z   1
loop_
 _symmetry_equiv_pos_site_id
 _symmetry_equiv_pos_as_xyz
  1  'x, y, z'
loop_
 _atom_site_type_symbol
 _atom_site_label
 _atom_site_symmetry_multiplicity
 _atom_site_fract_x
 _atom_site_fract_y
 _atom_site_fract_z
 _atom_site_occupancy
  Dy  Dy0  1  0.000000  0.500000  0.524463  1
  Dy  Dy1  1  0.500000  0.000000  0.478166  1
  Dy  Dy2  1  0.500000  0.817303  0.206899  1
  Dy  Dy3  1  0.500000  0.182697  0.206899  1
  Dy  Dy4  1  0.000000  0.683283  0.794161  1
  Dy  Dy5  1  0.000000  0.316717  0.794161  1
  Co  Co6  1  0.000000  0.000000  0.840282  1
  Co  Co7  1  0.500000  0.500000  0.703553  1
  Co  Co8  1  0.000000  0.000000  0.295641  1
  Co  Co9  1  0.000000  0.500000  0.987881  1
  Co  Co10  1  0.500000  0.000000  0.014524  1
  Co  Co11  1  0.500000  0.332871  0.991393  1
  Co  Co12  1  0.500000  0.667129  0.991393  1
  Co  Co13  1  0.000000  0.166916  0.005943  1
  Co  Co14  1  0.000000  0.833084  0.005943  1
  Co  Co15  1  0.500000  0.297417  0.430012  1
  Co  Co16  1  0.500000  0.702583  0.430012  1
  Co  Co17  1  0.000000  0.203162  0.568695  1
  Co  Co18  1  0.000000  0.796838  0.568695  1
  Co  Co19  1  0.500000  0.879272  0.709374  1
  Co  Co20  1  0.500000  0.120728  0.709374  1
  Co  Co21  1  0.000000  0.620165  0.290817  1
  Co  Co22  1  0.000000  0.379835  0.290817  1
  P  P23  1  0.500000  0.500000  0.881069  1
  P  P24  1  0.000000  0.000000  0.117036  1
  P  P25  1  0.500000  0.500000  0.350509  1
  P  P26  1  0.000000  0.000000  0.655920  1
  P  P27  1  0.500000  0.310836  0.616194  1
  P  P28  1  0.500000  0.689164  0.616194  1
  P  P29  1  0.000000  0.188420  0.384153  1
  P  P30  1  0.000000  0.811580  0.384153  1
  P  P31  1  0.500000  0.849325  0.892410  1
  P  P32  1  0.500000  0.150675  0.892410  1
  P  P33  1  0.000000  0.655267  0.106030  1
  P  P34  1  0.000000  0.344733  0.106030  1
  Os  Os35  1  0.500000  0.500000  0.158794  1
