# generated using pymatgen
data_Ta13Nb11O58
_symmetry_space_group_name_H-M   'P 1'
_cell_length_a   10.75310900
_cell_length_b   10.75310978
_cell_length_c   29.50085700
_cell_angle_alpha   90.00000000
_cell_angle_beta   90.00000000
_cell_angle_gamma   159.30068807
_symmetry_Int_Tables_number   1
_chemical_formula_structural   Ta13Nb11O58
_chemical_formula_sum   'Ta13 Nb11 O58'
_cell_volume   1205.72278668
_cell_formula_units_Z   1
loop_
 _symmetry_equiv_pos_site_id
 _symmetry_equiv_pos_as_xyz
  1  'x, y, z'
loop_
 _atom_site_type_symbol
 _atom_site_label
 _atom_site_symmetry_multiplicity
 _atom_site_fract_x
 _atom_site_fract_y
 _atom_site_fract_z
 _atom_site_occupancy
  Ta  Ta0  1  0.535017  0.464983  0.184605  1
  Ta  Ta1  1  0.464954  0.535046  0.815249  1
  Ta  Ta2  1  0.464948  0.535052  0.684570  1
  Ta  Ta3  1  0.535080  0.464920  0.315323  1
  Ta  Ta4  1  0.352025  0.647975  0.184795  1
  Ta  Ta5  1  0.647993  0.352007  0.815015  1
  Ta  Ta6  1  0.647973  0.352027  0.684608  1
  Ta  Ta7  1  0.352054  0.647946  0.315260  1
  Ta  Ta8  1  0.168627  0.831373  0.184060  1
  Ta  Ta9  1  0.831348  0.168652  0.815630  1
  Ta  Ta10  1  0.831341  0.168659  0.684197  1
  Ta  Ta11  1  0.168647  0.831353  0.315671  1
  Ta  Ta12  1  0.168023  0.831977  0.050753  1
  Nb  Nb13  1  0.831665  0.168335  0.948814  1
  Nb  Nb14  1  0.831596  0.168404  0.551136  1
  Nb  Nb15  1  0.168416  0.831584  0.448802  1
  Nb  Nb16  1  0.351325  0.648675  0.048816  1
  Nb  Nb17  1  0.648522  0.351478  0.951396  1
  Nb  Nb18  1  0.648423  0.351577  0.548782  1
  Nb  Nb19  1  0.351628  0.648372  0.451210  1
  Nb  Nb20  1  0.536367  0.463633  0.051419  1
  Nb  Nb21  1  0.463324  0.536676  0.948594  1
  Nb  Nb22  1  0.463298  0.536702  0.551330  1
  Nb  Nb23  1  0.536766  0.463234  0.448631  1
  O  O24  1  0.458699  0.541301  0.749979  1
  O  O25  1  0.541331  0.458669  0.249981  1
  O  O26  1  0.447188  0.552812  0.184048  1
  O  O27  1  0.552749  0.447251  0.815908  1
  O  O28  1  0.552729  0.447271  0.684074  1
  O  O29  1  0.447263  0.552737  0.315911  1
  O  O30  1  0.650088  0.349912  0.749943  1
  O  O31  1  0.349905  0.650095  0.250002  1
  O  O32  1  0.851359  0.148641  0.175896  1
  O  O33  1  0.148544  0.851456  0.824184  1
  O  O34  1  0.148580  0.851420  0.675746  1
  O  O35  1  0.851381  0.148619  0.324189  1
  O  O36  1  0.256229  0.743771  0.180459  1
  O  O37  1  0.743678  0.256322  0.819266  1
  O  O38  1  0.743679  0.256321  0.680721  1
  O  O39  1  0.256288  0.743712  0.319184  1
  O  O40  1  0.834682  0.165318  0.749985  1
  O  O41  1  0.165241  0.834759  0.249695  1
  O  O42  1  0.060271  0.939729  0.181321  1
  O  O43  1  0.939686  0.060314  0.818589  1
  O  O44  1  0.939697  0.060303  0.681398  1
  O  O45  1  0.060351  0.939649  0.318562  1
  O  O46  1  0.643373  0.356627  0.180689  1
  O  O47  1  0.356620  0.643380  0.818925  1
  O  O48  1  0.644503  0.355497  0.462904  1
  O  O49  1  0.355447  0.644553  0.537056  1
  O  O50  1  0.355532  0.644468  0.962972  1
  O  O51  1  0.645773  0.354227  0.038103  1
  O  O52  1  0.060173  0.939827  0.455911  1
  O  O53  1  0.939805  0.060195  0.544167  1
  O  O54  1  0.939921  0.060079  0.955996  1
  O  O55  1  0.061843  0.938157  0.044252  1
  O  O56  1  0.451085  0.548915  0.468416  1
  O  O57  1  0.548968  0.451032  0.531649  1
  O  O58  1  0.549128  0.450872  0.968729  1
  O  O59  1  0.450879  0.549121  0.031898  1
  O  O60  1  0.533657  0.466343  0.386203  1
  O  O61  1  0.466379  0.533621  0.613745  1
  O  O62  1  0.466545  0.533455  0.886278  1
  O  O63  1  0.533164  0.466836  0.113802  1
  O  O64  1  0.849322  0.150678  0.471396  1
  O  O65  1  0.150708  0.849292  0.528587  1
  O  O66  1  0.151110  0.848890  0.972948  1
  O  O67  1  0.848971  0.151029  0.028672  1
  O  O68  1  0.255861  0.744139  0.456726  1
  O  O69  1  0.744104  0.255896  0.543319  1
  O  O70  1  0.744067  0.255933  0.956625  1
  O  O71  1  0.254879  0.745121  0.042902  1
  O  O72  1  0.357893  0.642107  0.390341  1
  O  O73  1  0.642107  0.357893  0.609639  1
  O  O74  1  0.641981  0.358019  0.890689  1
  O  O75  1  0.357683  0.642317  0.109639  1
  O  O76  1  0.163948  0.836052  0.386176  1
  O  O77  1  0.836051  0.163949  0.613702  1
  O  O78  1  0.836073  0.163927  0.886314  1
  O  O79  1  0.163441  0.836559  0.113071  1
  O  O80  1  0.643426  0.356574  0.318793  1
  O  O81  1  0.356605  0.643395  0.681058  1
