# generated using pymatgen
data_Li30Si7Sb
_symmetry_space_group_name_H-M   'P 1'
_cell_length_a   9.22403581
_cell_length_b   9.22403528
_cell_length_c   9.23279300
_cell_angle_alpha   109.49045042
_cell_angle_beta   109.49044925
_cell_angle_gamma   109.45198634
_symmetry_Int_Tables_number   1
_chemical_formula_structural   Li30Si7Sb
_chemical_formula_sum   'Li30 Si7 Sb1'
_cell_volume   604.57476385
_cell_formula_units_Z   1
loop_
 _symmetry_equiv_pos_site_id
 _symmetry_equiv_pos_as_xyz
  1  'x, y, z'
loop_
 _atom_site_type_symbol
 _atom_site_label
 _atom_site_symmetry_multiplicity
 _atom_site_fract_x
 _atom_site_fract_y
 _atom_site_fract_z
 _atom_site_occupancy
  Li  Li0  1  0.335514  0.804417  0.729481  1
  Li  Li1  1  0.121524  0.748947  0.873243  1
  Li  Li2  1  0.730501  0.355982  0.817657  1
  Li  Li3  1  0.625480  0.769499  0.587156  1
  Li  Li4  1  0.029972  0.912458  0.690149  1
  Li  Li5  1  0.086104  0.274692  0.115611  1
  Li  Li6  1  0.916225  0.694113  0.033786  1
  Li  Li7  1  0.274875  0.115890  0.085127  1
  Li  Li8  1  0.188590  0.413896  0.529508  1
  Li  Li9  1  0.777888  0.583775  0.617561  1
  Li  Li10  1  0.695583  0.031098  0.925064  1
  Li  Li11  1  0.532753  0.195584  0.404781  1
  Li  Li12  1  0.627424  0.378476  0.251719  1
  Li  Li13  1  0.468902  0.164486  0.893967  1
  Li  Li14  1  0.885833  0.128321  0.756329  1
  Li  Li15  1  0.972371  0.384268  0.660102  1
  Li  Li16  1  0.411898  0.527629  0.187731  1
  Li  Li17  1  0.115732  0.088102  0.275832  1
  Li  Li18  1  0.304416  0.837169  0.209197  1
  Li  Li19  1  0.751053  0.872576  0.124296  1
  Li  Li20  1  0.882486  0.470028  0.160177  1
  Li  Li21  1  0.587542  0.617514  0.777692  1
  Li  Li22  1  0.384110  0.658985  0.969236  1
  Li  Li23  1  0.805887  0.722112  0.339673  1
  Li  Li24  1  0.662831  0.967247  0.372027  1
  Li  Li25  1  0.144018  0.874520  0.461675  1
  Li  Li26  1  0.225308  0.311410  0.840918  1
  Li  Li27  1  0.371679  0.257510  0.628008  1
  Li  Li28  1  0.841015  0.225125  0.310252  1
  Li  Li29  1  0.242490  0.614167  0.370498  1
  Si  Si30  1  0.585313  0.501974  0.001305  1
  Si  Si31  1  0.500000  0.000000  0.084528  1
  Si  Si32  1  0.001301  0.085274  0.501288  1
  Si  Si33  1  0.998026  0.583340  0.499331  1
  Si  Si34  1  0.083972  0.498699  0.999986  1
  Si  Si35  1  0.414726  0.416028  0.416014  1
  Si  Si36  1  0.916660  0.914687  0.915991  1
  Sb  Sb37  1  0.500000  0.000000  0.583100  1
