# generated using pymatgen
data_Pr8Tm12Si15Au
_symmetry_space_group_name_H-M   'P 1'
_cell_length_a   7.44330890
_cell_length_b   7.79151167
_cell_length_c   14.80635900
_cell_angle_alpha   90.00000000
_cell_angle_beta   90.00000000
_cell_angle_gamma   90.63087778
_symmetry_Int_Tables_number   1
_chemical_formula_structural   Pr8Tm12Si15Au
_chemical_formula_sum   'Pr8 Tm12 Si15 Au1'
_cell_volume   858.63723089
_cell_formula_units_Z   1
loop_
 _symmetry_equiv_pos_site_id
 _symmetry_equiv_pos_as_xyz
  1  'x, y, z'
loop_
 _atom_site_type_symbol
 _atom_site_label
 _atom_site_symmetry_multiplicity
 _atom_site_fract_x
 _atom_site_fract_y
 _atom_site_fract_z
 _atom_site_occupancy
  Pr  Pr0  1  0.016982  0.180187  0.400469  1
  Pr  Pr1  1  0.516187  0.323508  0.400460  1
  Pr  Pr2  1  0.489209  0.667954  0.907863  1
  Pr  Pr3  1  0.489209  0.667954  0.592137  1
  Pr  Pr4  1  0.982287  0.823530  0.593806  1
  Pr  Pr5  1  0.982287  0.823530  0.906194  1
  Pr  Pr6  1  0.516187  0.323508  0.099540  1
  Pr  Pr7  1  0.016982  0.180187  0.099531  1
  Tm  Tm8  1  0.325257  0.182958  0.621992  1
  Tm  Tm9  1  0.674712  0.824958  0.374792  1
  Tm  Tm10  1  0.654397  0.981915  0.750000  1
  Tm  Tm11  1  0.175398  0.675968  0.376497  1
  Tm  Tm12  1  0.826949  0.320481  0.878530  1
  Tm  Tm13  1  0.826949  0.320481  0.621470  1
  Tm  Tm14  1  0.839098  0.493583  0.250000  1
  Tm  Tm15  1  0.339138  0.008216  0.250000  1
  Tm  Tm16  1  0.325257  0.182958  0.878008  1
  Tm  Tm17  1  0.175398  0.675968  0.123503  1
  Tm  Tm18  1  0.674712  0.824958  0.125208  1
  Tm  Tm19  1  0.164543  0.510014  0.750000  1
  Si  Si20  1  0.466820  0.616999  0.250000  1
  Si  Si21  1  0.027505  0.122389  0.750000  1
  Si  Si22  1  0.538239  0.384391  0.750000  1
  Si  Si23  1  0.151157  0.468682  0.539159  1
  Si  Si24  1  0.971294  0.881257  0.250000  1
  Si  Si25  1  0.717851  0.123782  0.250000  1
  Si  Si26  1  0.845740  0.534318  0.040435  1
  Si  Si27  1  0.350253  0.966330  0.038356  1
  Si  Si28  1  0.151157  0.468682  0.960841  1
  Si  Si29  1  0.648640  0.033393  0.537767  1
  Si  Si30  1  0.350253  0.966330  0.461644  1
  Si  Si31  1  0.845740  0.534318  0.459565  1
  Si  Si32  1  0.778411  0.615282  0.750000  1
  Si  Si33  1  0.220589  0.379800  0.250000  1
  Si  Si34  1  0.648640  0.033393  0.962233  1
  Au  Au35  1  0.276572  0.877843  0.750000  1
