# generated using pymatgen
data_Tb5InSb2
_symmetry_space_group_name_H-M   'P 1'
_cell_length_a   9.02972121
_cell_length_b   9.02635361
_cell_length_c   6.49336300
_cell_angle_alpha   90.00000000
_cell_angle_beta   90.00000000
_cell_angle_gamma   119.98765893
_symmetry_Int_Tables_number   1
_chemical_formula_structural   Tb5InSb2
_chemical_formula_sum   'Tb10 In2 Sb4'
_cell_volume   458.39618323
_cell_formula_units_Z   2
loop_
 _symmetry_equiv_pos_site_id
 _symmetry_equiv_pos_as_xyz
  1  'x, y, z'
loop_
 _atom_site_type_symbol
 _atom_site_label
 _atom_site_symmetry_multiplicity
 _atom_site_fract_x
 _atom_site_fract_y
 _atom_site_fract_z
 _atom_site_occupancy
  Tb  Tb0  1  0.001720  0.758824  0.750000  1
  Tb  Tb1  1  0.001720  0.242896  0.250000  1
  Tb  Tb2  1  0.757553  0.758642  0.250000  1
  Tb  Tb3  1  0.757553  0.998911  0.750000  1
  Tb  Tb4  1  0.241586  0.238492  0.750000  1
  Tb  Tb5  1  0.241586  0.003095  0.250000  1
  Tb  Tb6  1  0.334537  0.667269  0.500000  1
  Tb  Tb7  1  0.663589  0.331794  0.000000  1
  Tb  Tb8  1  0.663589  0.331794  0.500000  1
  Tb  Tb9  1  0.334537  0.667269  0.000000  1
  In  In10  1  0.394212  0.998366  0.750000  1
  In  In11  1  0.394212  0.395846  0.250000  1
  Sb  Sb12  1  0.999442  0.608035  0.250000  1
  Sb  Sb13  1  0.999442  0.391408  0.750000  1
  Sb  Sb14  1  0.607361  0.607091  0.750000  1
  Sb  Sb15  1  0.607361  0.000270  0.250000  1
