# generated using pymatgen
data_Yb3Hg(Ir2O7)2
_symmetry_space_group_name_H-M   'P 1'
_cell_length_a   7.14226353
_cell_length_b   7.28281158
_cell_length_c   7.28281200
_cell_angle_alpha   59.99999809
_cell_angle_beta   59.34687977
_cell_angle_gamma   59.34687633
_symmetry_Int_Tables_number   1
_chemical_formula_structural   Yb3Hg(Ir2O7)2
_chemical_formula_sum   'Yb3 Hg1 Ir4 O14'
_cell_volume   265.19199905
_cell_formula_units_Z   1
loop_
 _symmetry_equiv_pos_site_id
 _symmetry_equiv_pos_as_xyz
  1  'x, y, z'
loop_
 _atom_site_type_symbol
 _atom_site_label
 _atom_site_symmetry_multiplicity
 _atom_site_fract_x
 _atom_site_fract_y
 _atom_site_fract_z
 _atom_site_occupancy
  Yb  Yb0  1  0.125000  0.625000  0.125000  1
  Yb  Yb1  1  0.125000  0.125000  0.625000  1
  Yb  Yb2  1  0.125000  0.125000  0.125000  1
  Hg  Hg3  1  0.625000  0.125000  0.125000  1
  Ir  Ir4  1  0.125000  0.625000  0.625000  1
  Ir  Ir5  1  0.625000  0.125000  0.625000  1
  Ir  Ir6  1  0.625000  0.625000  0.125000  1
  Ir  Ir7  1  0.625000  0.625000  0.625000  1
  O  O8  1  0.702192  0.692887  0.302460  1
  O  O9  1  0.292196  0.296053  0.705876  1
  O  O10  1  0.702192  0.302460  0.692887  1
  O  O11  1  0.292196  0.705876  0.296053  1
  O  O12  1  0.292196  0.705876  0.705876  1
  O  O13  1  0.702192  0.302460  0.302460  1
  O  O14  1  0.547808  0.557113  0.947540  1
  O  O15  1  0.957804  0.953947  0.544124  1
  O  O16  1  0.547808  0.947540  0.557113  1
  O  O17  1  0.957804  0.544124  0.953947  1
  O  O18  1  0.957804  0.544124  0.544124  1
  O  O19  1  0.547808  0.947540  0.947540  1
  O  O20  1  0.269379  0.243541  0.243541  1
  O  O21  1  0.980621  0.006459  0.006459  1
