# generated using pymatgen
data_SrAc5(SnIr)6
_symmetry_space_group_name_H-M   'P 1'
_cell_length_a   7.69907500
_cell_length_b   7.72134385
_cell_length_c   8.63163700
_cell_angle_alpha   90.00005936
_cell_angle_beta   89.99989581
_cell_angle_gamma   120.09440067
_symmetry_Int_Tables_number   1
_chemical_formula_structural   SrAc5(SnIr)6
_chemical_formula_sum   'Sr1 Ac5 Sn6 Ir6'
_cell_volume   443.95743821
_cell_formula_units_Z   1
loop_
 _symmetry_equiv_pos_site_id
 _symmetry_equiv_pos_as_xyz
  1  'x, y, z'
loop_
 _atom_site_type_symbol
 _atom_site_label
 _atom_site_symmetry_multiplicity
 _atom_site_fract_x
 _atom_site_fract_y
 _atom_site_fract_z
 _atom_site_occupancy
  Sr  Sr0  1  0.999937  0.412642  0.249999  1
  Ac  Ac1  1  0.418619  0.001008  0.249980  1
  Ac  Ac2  1  0.583478  0.583447  0.750013  1
  Ac  Ac3  1  0.581358  0.582425  0.249988  1
  Ac  Ac4  1  0.999996  0.418044  0.750011  1
  Ac  Ac5  1  0.416545  0.999972  0.749998  1
  Sn  Sn6  1  0.239331  0.242226  0.498733  1
  Sn  Sn7  1  0.239333  0.242222  0.001270  1
  Sn  Sn8  1  0.760719  0.002924  0.001264  1
  Sn  Sn9  1  0.000000  0.753842  0.497283  1
  Sn  Sn10  1  0.760713  0.002923  0.498738  1
  Sn  Sn11  1  0.999995  0.753838  0.002718  1
  Ir  Ir12  1  0.661778  0.333670  0.502334  1
  Ir  Ir13  1  0.661777  0.333668  0.997668  1
  Ir  Ir14  1  0.338191  0.671858  0.997671  1
  Ir  Ir15  1  0.338191  0.671858  0.502330  1
  Ir  Ir16  1  0.000025  0.000140  0.750001  1
  Ir  Ir17  1  0.000017  0.993294  0.250002  1
