# generated using pymatgen
data_YbY2Al7Cu2
_symmetry_space_group_name_H-M   'P 1'
_cell_length_a   9.08766141
_cell_length_b   9.08766220
_cell_length_c   9.08766200
_cell_angle_alpha   35.41805285
_cell_angle_beta   35.41804591
_cell_angle_gamma   35.41804858
_symmetry_Int_Tables_number   1
_chemical_formula_structural   YbY2Al7Cu2
_chemical_formula_sum   'Yb1 Y2 Al7 Cu2'
_cell_volume   225.22961829
_cell_formula_units_Z   1
loop_
 _symmetry_equiv_pos_site_id
 _symmetry_equiv_pos_as_xyz
  1  'x, y, z'
loop_
 _atom_site_type_symbol
 _atom_site_label
 _atom_site_symmetry_multiplicity
 _atom_site_fract_x
 _atom_site_fract_y
 _atom_site_fract_z
 _atom_site_occupancy
  Yb  Yb0  1  0.000000  0.000000  0.000000  1
  Y  Y1  1  0.857994  0.857994  0.857994  1
  Y  Y2  1  0.142006  0.142006  0.142006  1
  Al  Al3  1  0.417666  0.417666  0.927851  1
  Al  Al4  1  0.927851  0.417666  0.417666  1
  Al  Al5  1  0.417666  0.927851  0.417666  1
  Al  Al6  1  0.500000  0.500000  0.500000  1
  Al  Al7  1  0.582334  0.072149  0.582334  1
  Al  Al8  1  0.072149  0.582334  0.582334  1
  Al  Al9  1  0.582334  0.582334  0.072149  1
  Cu  Cu10  1  0.664783  0.664783  0.664783  1
  Cu  Cu11  1  0.335217  0.335217  0.335217  1
