# generated using pymatgen
data_Tb5Er5In8
_symmetry_space_group_name_H-M   'P 1'
_cell_length_a   9.27907101
_cell_length_b   9.27907184
_cell_length_c   6.67447600
_cell_angle_alpha   90.00000000
_cell_angle_beta   90.00000000
_cell_angle_gamma   119.92231159
_symmetry_Int_Tables_number   1
_chemical_formula_structural   Tb5Er5In8
_chemical_formula_sum   'Tb5 Er5 In8'
_cell_volume   498.07677752
_cell_formula_units_Z   1
loop_
 _symmetry_equiv_pos_site_id
 _symmetry_equiv_pos_as_xyz
  1  'x, y, z'
loop_
 _atom_site_type_symbol
 _atom_site_label
 _atom_site_symmetry_multiplicity
 _atom_site_fract_x
 _atom_site_fract_y
 _atom_site_fract_z
 _atom_site_occupancy
  Tb  Tb0  1  0.289371  0.999815  0.750000  1
  Tb  Tb1  1  0.710306  0.999622  0.250000  1
  Tb  Tb2  1  0.999815  0.289371  0.750000  1
  Tb  Tb3  1  0.999622  0.710306  0.250000  1
  Tb  Tb4  1  0.711166  0.711166  0.750000  1
  Er  Er5  1  0.333475  0.666023  0.499742  1
  Er  Er6  1  0.666023  0.333475  0.499742  1
  Er  Er7  1  0.666023  0.333475  0.000258  1
  Er  Er8  1  0.333475  0.666023  0.000258  1
  Er  Er9  1  0.289510  0.289510  0.250000  1
  In  In10  1  0.000809  0.000809  0.499176  1
  In  In11  1  0.000809  0.000809  0.000824  1
  In  In12  1  0.627530  0.999831  0.750000  1
  In  In13  1  0.372118  0.001238  0.250000  1
  In  In14  1  0.999831  0.627530  0.750000  1
  In  In15  1  0.001238  0.372118  0.250000  1
  In  In16  1  0.372612  0.372612  0.750000  1
  In  In17  1  0.626268  0.626268  0.250000  1
