# generated using pymatgen
data_Ho8Re13B12
_symmetry_space_group_name_H-M   'P 1'
_cell_length_a   7.78348761
_cell_length_b   7.78348776
_cell_length_c   7.78348717
_cell_angle_alpha   86.46381725
_cell_angle_beta   86.46381777
_cell_angle_gamma   86.46382029
_symmetry_Int_Tables_number   1
_chemical_formula_structural   Ho8Re13B12
_chemical_formula_sum   'Ho8 Re13 B12'
_cell_volume   468.95723338
_cell_formula_units_Z   1
loop_
 _symmetry_equiv_pos_site_id
 _symmetry_equiv_pos_as_xyz
  1  'x, y, z'
loop_
 _atom_site_type_symbol
 _atom_site_label
 _atom_site_symmetry_multiplicity
 _atom_site_fract_x
 _atom_site_fract_y
 _atom_site_fract_z
 _atom_site_occupancy
  Ho  Ho0  1  0.641471  0.641471  0.641471  1
  Ho  Ho1  1  0.358529  0.358529  0.358529  1
  Ho  Ho2  1  0.188793  0.188793  0.687277  1
  Ho  Ho3  1  0.687277  0.188793  0.188793  1
  Ho  Ho4  1  0.188793  0.687277  0.188793  1
  Ho  Ho5  1  0.811207  0.811207  0.312723  1
  Ho  Ho6  1  0.312723  0.811207  0.811207  1
  Ho  Ho7  1  0.811207  0.312723  0.811207  1
  Re  Re8  1  0.000000  0.000000  0.000000  1
  Re  Re9  1  0.596773  0.063346  0.596773  1
  Re  Re10  1  0.596773  0.596773  0.063346  1
  Re  Re11  1  0.063346  0.596773  0.596773  1
  Re  Re12  1  0.403227  0.936654  0.403227  1
  Re  Re13  1  0.403227  0.403227  0.936654  1
  Re  Re14  1  0.936654  0.403227  0.403227  1
  Re  Re15  1  0.923352  0.923352  0.670384  1
  Re  Re16  1  0.670384  0.923352  0.923352  1
  Re  Re17  1  0.923352  0.670384  0.923352  1
  Re  Re18  1  0.076648  0.076648  0.329616  1
  Re  Re19  1  0.329616  0.076648  0.076648  1
  Re  Re20  1  0.076648  0.329616  0.076648  1
  B  B21  1  0.152409  0.847591  0.500000  1
  B  B22  1  0.500000  0.152409  0.847591  1
  B  B23  1  0.847591  0.500000  0.152409  1
  B  B24  1  0.500000  0.847591  0.152409  1
  B  B25  1  0.152409  0.500000  0.847591  1
  B  B26  1  0.847591  0.152409  0.500000  1
  B  B27  1  0.671005  0.500000  0.328995  1
  B  B28  1  0.328995  0.671005  0.500000  1
  B  B29  1  0.500000  0.328995  0.671005  1
  B  B30  1  0.328995  0.500000  0.671005  1
  B  B31  1  0.671005  0.328995  0.500000  1
  B  B32  1  0.500000  0.671005  0.328995  1
