# generated using pymatgen
data_Hf5Zr3(Ni4P3)4
_symmetry_space_group_name_H-M   'P 1'
_cell_length_a   12.21174300
_cell_length_b   12.21174218
_cell_length_c   3.67550400
_cell_angle_alpha   90.00000000
_cell_angle_beta   90.00000000
_cell_angle_gamma   119.99999952
_symmetry_Int_Tables_number   1
_chemical_formula_structural   Hf5Zr3(Ni4P3)4
_chemical_formula_sum   'Hf5 Zr3 Ni16 P12'
_cell_volume   474.68205727
_cell_formula_units_Z   1
loop_
 _symmetry_equiv_pos_site_id
 _symmetry_equiv_pos_as_xyz
  1  'x, y, z'
loop_
 _atom_site_type_symbol
 _atom_site_label
 _atom_site_symmetry_multiplicity
 _atom_site_fract_x
 _atom_site_fract_y
 _atom_site_fract_z
 _atom_site_occupancy
  Hf  Hf0  1  0.445126  0.445126  0.000000  1
  Hf  Hf1  1  0.554874  0.000000  0.000000  1
  Hf  Hf2  1  0.333333  0.666667  0.000000  1
  Hf  Hf3  1  0.666667  0.333333  0.000000  1
  Hf  Hf4  1  0.000000  0.554874  0.000000  1
  Zr  Zr5  1  0.822623  0.822623  0.500000  1
  Zr  Zr6  1  0.000000  0.177377  0.500000  1
  Zr  Zr7  1  0.177377  0.000000  0.500000  1
  Ni  Ni8  1  0.628605  0.819309  0.000000  1
  Ni  Ni9  1  0.371395  0.190704  0.000000  1
  Ni  Ni10  1  0.000000  0.724965  0.500000  1
  Ni  Ni11  1  0.275035  0.275035  0.500000  1
  Ni  Ni12  1  0.873564  0.354282  0.500000  1
  Ni  Ni13  1  0.724965  0.000000  0.500000  1
  Ni  Ni14  1  0.819309  0.628605  0.000000  1
  Ni  Ni15  1  0.180691  0.809296  0.000000  1
  Ni  Ni16  1  0.354282  0.873564  0.500000  1
  Ni  Ni17  1  0.126436  0.480719  0.500000  1
  Ni  Ni18  1  0.645718  0.519281  0.500000  1
  Ni  Ni19  1  0.000000  0.000000  0.000000  1
  Ni  Ni20  1  0.519281  0.645718  0.500000  1
  Ni  Ni21  1  0.480719  0.126436  0.500000  1
  Ni  Ni22  1  0.190704  0.371395  0.000000  1
  Ni  Ni23  1  0.809296  0.180691  0.000000  1
  P  P24  1  0.000000  0.349621  0.000000  1
  P  P25  1  0.827440  0.514614  0.500000  1
  P  P26  1  0.687173  0.172560  0.500000  1
  P  P27  1  0.176332  0.176332  0.000000  1
  P  P28  1  0.650379  0.650379  0.000000  1
  P  P29  1  0.823668  0.000000  0.000000  1
  P  P30  1  0.514614  0.827440  0.500000  1
  P  P31  1  0.172560  0.687173  0.500000  1
  P  P32  1  0.349621  0.000000  0.000000  1
  P  P33  1  0.485386  0.312827  0.500000  1
  P  P34  1  0.000000  0.823668  0.000000  1
  P  P35  1  0.312827  0.485386  0.500000  1
