# generated using pymatgen
data_Tb2Y7Lu3Ga20
_symmetry_space_group_name_H-M   'P 1'
_cell_length_a   6.09025260
_cell_length_b   9.60377117
_cell_length_c   11.53177526
_cell_angle_alpha   90.00433468
_cell_angle_beta   90.01111656
_cell_angle_gamma   89.97899327
_symmetry_Int_Tables_number   1
_chemical_formula_structural   Tb2Y7Lu3Ga20
_chemical_formula_sum   'Tb2 Y7 Lu3 Ga20'
_cell_volume   674.48646791
_cell_formula_units_Z   1
loop_
 _symmetry_equiv_pos_site_id
 _symmetry_equiv_pos_as_xyz
  1  'x, y, z'
loop_
 _atom_site_type_symbol
 _atom_site_label
 _atom_site_symmetry_multiplicity
 _atom_site_fract_x
 _atom_site_fract_y
 _atom_site_fract_z
 _atom_site_occupancy
  Tb  Tb0  1  0.891273  0.509102  0.351401  1
  Tb  Tb1  1  0.608685  0.991085  0.850441  1
  Y  Y2  1  0.849307  0.749952  0.075617  1
  Y  Y3  1  0.109432  0.010322  0.648552  1
  Y  Y4  1  0.389695  0.490484  0.148716  1
  Y  Y5  1  0.109377  0.489670  0.648714  1
  Y  Y6  1  0.389759  0.009510  0.148888  1
  Y  Y7  1  0.891203  0.990989  0.351287  1
  Y  Y8  1  0.608770  0.508825  0.850365  1
  Lu  Lu9  1  0.651904  0.750041  0.574688  1
  Lu  Lu10  1  0.150726  0.249931  0.924704  1
  Lu  Lu11  1  0.349267  0.250080  0.424885  1
  Ga  Ga12  1  0.875007  0.055523  0.089322  1
  Ga  Ga13  1  0.624358  0.446638  0.588963  1
  Ga  Ga14  1  0.123824  0.552042  0.909892  1
  Ga  Ga15  1  0.375869  0.947641  0.411364  1
  Ga  Ga16  1  0.123650  0.947916  0.909885  1
  Ga  Ga17  1  0.376061  0.552418  0.411352  1
  Ga  Ga18  1  0.875029  0.444446  0.089368  1
  Ga  Ga19  1  0.624342  0.053377  0.588969  1
  Ga  Ga20  1  0.174278  0.749993  0.253597  1
  Ga  Ga21  1  0.330129  0.750005  0.750794  1
  Ga  Ga22  1  0.830000  0.249966  0.747798  1
  Ga  Ga23  1  0.669969  0.250053  0.248116  1
  Ga  Ga24  1  0.372562  0.749988  0.002148  1
  Ga  Ga25  1  0.124910  0.750002  0.504473  1
  Ga  Ga26  1  0.621908  0.250025  0.996141  1
  Ga  Ga27  1  0.876086  0.249969  0.496399  1
  Ga  Ga28  1  0.601427  0.750046  0.302151  1
  Ga  Ga29  1  0.899562  0.749958  0.797822  1
  Ga  Ga30  1  0.399632  0.249949  0.701377  1
  Ga  Ga31  1  0.102003  0.250052  0.201817  1
