# generated using pymatgen
data_Ba12Na2CuAg5Te28
_symmetry_space_group_name_H-M   'P 1'
_cell_length_a   14.60073043
_cell_length_b   14.58954373
_cell_length_c   9.23282900
_cell_angle_alpha   90.00000000
_cell_angle_beta   90.00000000
_cell_angle_gamma   119.97465770
_symmetry_Int_Tables_number   1
_chemical_formula_structural   Ba12Na2CuAg5Te28
_chemical_formula_sum   'Ba12 Na2 Cu1 Ag5 Te28'
_cell_volume   1703.69780537
_cell_formula_units_Z   1
loop_
 _symmetry_equiv_pos_site_id
 _symmetry_equiv_pos_as_xyz
  1  'x, y, z'
loop_
 _atom_site_type_symbol
 _atom_site_label
 _atom_site_symmetry_multiplicity
 _atom_site_fract_x
 _atom_site_fract_y
 _atom_site_fract_z
 _atom_site_occupancy
  Ba  Ba0  1  0.242691  0.787890  0.250000  1
  Ba  Ba1  1  0.452059  0.242901  0.750000  1
  Ba  Ba2  1  0.547941  0.790841  0.750000  1
  Ba  Ba3  1  0.787304  0.545381  0.750000  1
  Ba  Ba4  1  0.757309  0.545200  0.250000  1
  Ba  Ba5  1  0.242980  0.454501  0.750000  1
  Ba  Ba6  1  0.791098  0.243469  0.250000  1
  Ba  Ba7  1  0.757020  0.211522  0.750000  1
  Ba  Ba8  1  0.208902  0.452370  0.250000  1
  Ba  Ba9  1  0.212696  0.758076  0.750000  1
  Ba  Ba10  1  0.545302  0.756752  0.250000  1
  Ba  Ba11  1  0.454698  0.211451  0.250000  1
  Na  Na12  1  0.000000  0.002294  0.499133  1
  Na  Na13  1  0.000000  0.002294  0.000867  1
  Cu  Cu14  1  0.000000  0.197207  0.750000  1
  Ag  Ag15  1  0.805183  0.998418  0.250000  1
  Ag  Ag16  1  0.807441  0.811376  0.750000  1
  Ag  Ag17  1  0.000000  0.805181  0.250000  1
  Ag  Ag18  1  0.192559  0.003935  0.750000  1
  Ag  Ag19  1  0.194817  0.193236  0.250000  1
  Te  Te20  1  0.184428  0.999095  0.250000  1
  Te  Te21  1  0.333549  0.666622  0.999962  1
  Te  Te22  1  0.000000  0.321914  0.527748  1
  Te  Te23  1  0.828208  0.011631  0.750000  1
  Te  Te24  1  0.669972  0.670465  0.979218  1
  Te  Te25  1  0.330028  0.000493  0.979218  1
  Te  Te26  1  0.000000  0.180553  0.250000  1
  Te  Te27  1  0.000000  0.668780  0.481273  1
  Te  Te28  1  0.000000  0.668780  0.018727  1
  Te  Te29  1  0.000000  0.465288  0.750000  1
  Te  Te30  1  0.327911  0.329718  0.019524  1
  Te  Te31  1  0.815572  0.814668  0.250000  1
  Te  Te32  1  0.469597  0.001141  0.750000  1
  Te  Te33  1  0.672089  0.001807  0.019524  1
  Te  Te34  1  0.666451  0.333072  0.500038  1
  Te  Te35  1  0.666451  0.333072  0.999962  1
  Te  Te36  1  0.672089  0.001807  0.480476  1
  Te  Te37  1  0.530403  0.531545  0.750000  1
  Te  Te38  1  0.468381  0.468119  0.250000  1
  Te  Te39  1  0.330028  0.000493  0.520782  1
  Te  Te40  1  0.669972  0.670465  0.520782  1
  Te  Te41  1  0.000000  0.321914  0.972252  1
  Te  Te42  1  0.333549  0.666622  0.500038  1
  Te  Te43  1  0.327911  0.329718  0.480476  1
  Te  Te44  1  0.000000  0.529794  0.250000  1
  Te  Te45  1  0.531619  0.999738  0.250000  1
  Te  Te46  1  0.000000  0.814972  0.750000  1
  Te  Te47  1  0.171792  0.183423  0.750000  1
