# generated using pymatgen
data_Y2P7IrRu11
_symmetry_space_group_name_H-M   'P 1'
_cell_length_a   9.37784403
_cell_length_b   9.43695403
_cell_length_c   3.95661800
_cell_angle_alpha   90.00000000
_cell_angle_beta   90.00000000
_cell_angle_gamma   119.65465393
_symmetry_Int_Tables_number   1
_chemical_formula_structural   Y2P7IrRu11
_chemical_formula_sum   'Y2 P7 Ir1 Ru11'
_cell_volume   304.29192062
_cell_formula_units_Z   1
loop_
 _symmetry_equiv_pos_site_id
 _symmetry_equiv_pos_as_xyz
  1  'x, y, z'
loop_
 _atom_site_type_symbol
 _atom_site_label
 _atom_site_symmetry_multiplicity
 _atom_site_fract_x
 _atom_site_fract_y
 _atom_site_fract_z
 _atom_site_occupancy
  Y  Y0  1  0.667971  0.334657  0.500000  1
  Y  Y1  1  0.331539  0.663468  0.000000  1
  P  P2  1  0.599844  0.712368  0.500000  1
  P  P3  1  0.999272  0.999932  0.000000  1
  P  P4  1  0.278664  0.880785  0.500000  1
  P  P5  1  0.116088  0.399042  0.500000  1
  P  P6  1  0.886650  0.577283  0.000000  1
  P  P7  1  0.426211  0.310779  0.000000  1
  P  P8  1  0.695382  0.119823  0.000000  1
  Ir  Ir9  1  0.551513  0.942857  0.500000  1
  Ru  Ru10  1  0.390741  0.440849  0.500000  1
  Ru  Ru11  1  0.912362  0.123460  0.500000  1
  Ru  Ru12  1  0.208981  0.085523  0.500000  1
  Ru  Ru13  1  0.877816  0.794364  0.500000  1
  Ru  Ru14  1  0.726999  0.893701  0.000000  1
  Ru  Ru15  1  0.109742  0.837467  0.000000  1
  Ru  Ru16  1  0.163348  0.270128  0.000000  1
  Ru  Ru17  1  0.429107  0.068349  0.000000  1
  Ru  Ru18  1  0.935517  0.360835  0.000000  1
  Ru  Ru19  1  0.641515  0.576229  0.000000  1
  Ru  Ru20  1  0.050737  0.608101  0.500000  1
