# generated using pymatgen
data_Li26Si7Sb
_symmetry_space_group_name_H-M   'P 1'
_cell_length_a   7.95079853
_cell_length_b   15.14019281
_cell_length_c   4.46332400
_cell_angle_alpha   90.00000000
_cell_angle_beta   90.00000000
_cell_angle_gamma   90.17408209
_symmetry_Int_Tables_number   1
_chemical_formula_structural   Li26Si7Sb
_chemical_formula_sum   'Li26 Si7 Sb1'
_cell_volume   537.27738946
_cell_formula_units_Z   1
loop_
 _symmetry_equiv_pos_site_id
 _symmetry_equiv_pos_as_xyz
  1  'x, y, z'
loop_
 _atom_site_type_symbol
 _atom_site_label
 _atom_site_symmetry_multiplicity
 _atom_site_fract_x
 _atom_site_fract_y
 _atom_site_fract_z
 _atom_site_occupancy
  Li  Li0  1  0.492319  0.990261  0.000000  1
  Li  Li1  1  0.136557  0.024108  0.000000  1
  Li  Li2  1  0.784036  0.153701  0.000000  1
  Li  Li3  1  0.086987  0.195657  0.000000  1
  Li  Li4  1  0.596749  0.312584  0.000000  1
  Li  Li5  1  0.263166  0.357351  0.000000  1
  Li  Li6  1  0.648522  0.474795  0.000000  1
  Li  Li7  1  0.994015  0.500930  0.000000  1
  Li  Li8  1  0.352788  0.528948  0.000000  1
  Li  Li9  1  0.728516  0.650020  0.000000  1
  Li  Li10  1  0.404950  0.696945  0.000000  1
  Li  Li11  1  0.906479  0.804545  0.000000  1
  Li  Li12  1  0.228412  0.849480  0.000000  1
  Li  Li13  1  0.845146  0.973864  0.000000  1
  Li  Li14  1  0.255803  0.086084  0.500000  1
  Li  Li15  1  0.608870  0.101679  0.500000  1
  Li  Li16  1  0.911653  0.246484  0.500000  1
  Li  Li17  1  0.392196  0.262760  0.500000  1
  Li  Li18  1  0.090647  0.396653  0.500000  1
  Li  Li19  1  0.756679  0.403454  0.500000  1
  Li  Li20  1  0.240925  0.593936  0.500000  1
  Li  Li21  1  0.906451  0.607528  0.500000  1
  Li  Li22  1  0.603238  0.743702  0.500000  1
  Li  Li23  1  0.096737  0.754076  0.500000  1
  Li  Li24  1  0.407143  0.887031  0.500000  1
  Li  Li25  1  0.741996  0.905905  0.500000  1
  Si  Si26  1  0.916424  0.339621  0.000000  1
  Si  Si27  1  0.084872  0.659668  0.000000  1
  Si  Si28  1  0.588425  0.838124  0.000000  1
  Si  Si29  1  0.930375  0.070648  0.500000  1
  Si  Si30  1  0.424584  0.431238  0.500000  1
  Si  Si31  1  0.577130  0.568086  0.500000  1
  Si  Si32  1  0.078257  0.931190  0.500000  1
  Sb  Sb33  1  0.418960  0.158950  0.000000  1
