# generated using pymatgen
data_Dy3LuCSe3
_symmetry_space_group_name_H-M   'P 1'
_cell_length_a   6.88102215
_cell_length_b   6.88102307
_cell_length_c   6.88456400
_cell_angle_alpha   79.89079356
_cell_angle_beta   79.89078374
_cell_angle_gamma   32.72722696
_symmetry_Int_Tables_number   1
_chemical_formula_structural   Dy3LuCSe3
_chemical_formula_sum   'Dy3 Lu1 C1 Se3'
_cell_volume   173.26044920
_cell_formula_units_Z   1
loop_
 _symmetry_equiv_pos_site_id
 _symmetry_equiv_pos_as_xyz
  1  'x, y, z'
loop_
 _atom_site_type_symbol
 _atom_site_label
 _atom_site_symmetry_multiplicity
 _atom_site_fract_x
 _atom_site_fract_y
 _atom_site_fract_z
 _atom_site_occupancy
  Dy  Dy0  1  0.229494  0.229494  0.225596  1
  Dy  Dy1  1  0.511739  0.511739  0.454772  1
  Dy  Dy2  1  0.738354  0.738354  0.794271  1
  Lu  Lu3  1  0.021197  0.021197  0.026260  1
  C  C4  1  0.622687  0.622687  0.122301  1
  Se  Se5  1  0.866739  0.866739  0.374599  1
  Se  Se6  1  0.123522  0.123522  0.628832  1
  Se  Se7  1  0.386267  0.386267  0.873369  1
