# generated using pymatgen
data_SrSm6PtBr12
_symmetry_space_group_name_H-M   'P 1'
_cell_length_a   9.46704309
_cell_length_b   9.46884741
_cell_length_c   9.47030534
_cell_angle_alpha   106.17960682
_cell_angle_beta   106.19760179
_cell_angle_gamma   106.14672192
_symmetry_Int_Tables_number   1
_chemical_formula_structural   SrSm6PtBr12
_chemical_formula_sum   'Sr1 Sm6 Pt1 Br12'
_cell_volume   722.32995270
_cell_formula_units_Z   1
loop_
 _symmetry_equiv_pos_site_id
 _symmetry_equiv_pos_as_xyz
  1  'x, y, z'
loop_
 _atom_site_type_symbol
 _atom_site_label
 _atom_site_symmetry_multiplicity
 _atom_site_fract_x
 _atom_site_fract_y
 _atom_site_fract_z
 _atom_site_occupancy
  Sr  Sr0  1  0.500000  0.500000  0.500000  1
  Sm  Sm1  1  0.102651  0.313219  0.020213  1
  Sm  Sm2  1  0.313341  0.020306  0.103041  1
  Sm  Sm3  1  0.020165  0.102824  0.313198  1
  Sm  Sm4  1  0.979834  0.897176  0.686802  1
  Sm  Sm5  1  0.686659  0.979693  0.896958  1
  Sm  Sm6  1  0.897349  0.686781  0.979787  1
  Pt  Pt7  1  0.000000  0.000000  0.000000  1
  Br  Br8  1  0.218769  0.678669  0.071837  1
  Br  Br9  1  0.446816  0.365637  0.146702  1
  Br  Br10  1  0.678550  0.071784  0.218433  1
  Br  Br11  1  0.928212  0.781497  0.321253  1
  Br  Br12  1  0.146645  0.446952  0.365542  1
  Br  Br13  1  0.365480  0.146594  0.446934  1
  Br  Br14  1  0.634520  0.853406  0.553066  1
  Br  Br15  1  0.853354  0.553048  0.634458  1
  Br  Br16  1  0.071789  0.218504  0.678748  1
  Br  Br17  1  0.321451  0.928217  0.781567  1
  Br  Br18  1  0.553183  0.634362  0.853298  1
  Br  Br19  1  0.781231  0.321332  0.928163  1
