# generated using pymatgen
data_Y3P4Pd7
_symmetry_space_group_name_H-M   'P 1'
_cell_length_a   7.95721489
_cell_length_b   7.95721522
_cell_length_c   9.42997520
_cell_angle_alpha   55.80769598
_cell_angle_beta   55.80769544
_cell_angle_gamma   29.21088672
_symmetry_Int_Tables_number   1
_chemical_formula_structural   Y3P4Pd7
_chemical_formula_sum   'Y3 P4 Pd7'
_cell_volume   237.21802712
_cell_formula_units_Z   1
loop_
 _symmetry_equiv_pos_site_id
 _symmetry_equiv_pos_as_xyz
  1  'x, y, z'
loop_
 _atom_site_type_symbol
 _atom_site_label
 _atom_site_symmetry_multiplicity
 _atom_site_fract_x
 _atom_site_fract_y
 _atom_site_fract_z
 _atom_site_occupancy
  Y  Y0  1  0.500000  0.500000  0.500000  1
  Y  Y1  1  0.820051  0.820051  0.176716  1
  Y  Y2  1  0.179949  0.179949  0.823284  1
  P  P3  1  0.393801  0.393801  0.320025  1
  P  P4  1  0.606199  0.606199  0.679975  1
  P  P5  1  0.840650  0.840650  0.753323  1
  P  P6  1  0.159350  0.159350  0.246677  1
  Pd  Pd7  1  0.668290  0.668290  0.078828  1
  Pd  Pd8  1  0.009599  0.009599  0.216410  1
  Pd  Pd9  1  0.990401  0.990401  0.783590  1
  Pd  Pd10  1  0.500000  0.500000  0.000000  1
  Pd  Pd11  1  0.194929  0.194929  0.469903  1
  Pd  Pd12  1  0.805071  0.805071  0.530097  1
  Pd  Pd13  1  0.331710  0.331710  0.921172  1
