# generated using pymatgen
data_Er20Ir5Ru5Au2
_symmetry_space_group_name_H-M   'P 1'
_cell_length_a   10.80690504
_cell_length_b   10.80690537
_cell_length_c   6.41832100
_cell_angle_alpha   89.96858518
_cell_angle_beta   89.96858554
_cell_angle_gamma   89.33044906
_symmetry_Int_Tables_number   1
_chemical_formula_structural   Er20Ir5Ru5Au2
_chemical_formula_sum   'Er20 Ir5 Ru5 Au2'
_cell_volume   749.53917194
_cell_formula_units_Z   1
loop_
 _symmetry_equiv_pos_site_id
 _symmetry_equiv_pos_as_xyz
  1  'x, y, z'
loop_
 _atom_site_type_symbol
 _atom_site_label
 _atom_site_symmetry_multiplicity
 _atom_site_fract_x
 _atom_site_fract_y
 _atom_site_fract_z
 _atom_site_occupancy
  Er  Er0  1  0.296161  0.093419  0.381717  1
  Er  Er1  1  0.297246  0.916084  0.864866  1
  Er  Er2  1  0.706337  0.078649  0.876983  1
  Er  Er3  1  0.708667  0.913490  0.377130  1
  Er  Er4  1  0.586722  0.791979  0.878140  1
  Er  Er5  1  0.585444  0.202957  0.364467  1
  Er  Er6  1  0.422069  0.794706  0.377415  1
  Er  Er7  1  0.406727  0.204203  0.881595  1
  Er  Er8  1  0.208021  0.413278  0.621860  1
  Er  Er9  1  0.205294  0.577931  0.122585  1
  Er  Er10  1  0.797043  0.414556  0.135533  1
  Er  Er11  1  0.795797  0.593273  0.618405  1
  Er  Er12  1  0.906581  0.703839  0.118283  1
  Er  Er13  1  0.921351  0.293663  0.623017  1
  Er  Er14  1  0.083916  0.702754  0.635134  1
  Er  Er15  1  0.086510  0.291333  0.122870  1
  Er  Er16  1  0.996022  0.004399  0.501574  1
  Er  Er17  1  0.995601  0.003978  0.998426  1
  Er  Er18  1  0.496345  0.503222  0.002378  1
  Er  Er19  1  0.496778  0.503655  0.497622  1
  Ir  Ir20  1  0.848728  0.847908  0.749884  1
  Ir  Ir21  1  0.152092  0.151272  0.750116  1
  Ir  Ir22  1  0.651266  0.650765  0.249672  1
  Ir  Ir23  1  0.349235  0.348734  0.250328  1
  Ir  Ir24  1  0.345405  0.654595  0.750000  1
  Ru  Ru25  1  0.845477  0.154523  0.250000  1
  Ru  Ru26  1  0.499531  0.000410  0.123561  1
  Ru  Ru27  1  0.499839  0.000854  0.623809  1
  Ru  Ru28  1  0.999146  0.500161  0.876191  1
  Ru  Ru29  1  0.999590  0.500469  0.376439  1
  Au  Au30  1  0.155829  0.844171  0.250000  1
  Au  Au31  1  0.655232  0.344768  0.750000  1
