# generated using pymatgen
data_Nd6Y10Cd4PdRu3
_symmetry_space_group_name_H-M   'P 1'
_cell_length_a   9.72405788
_cell_length_b   9.82479210
_cell_length_c   9.82479200
_cell_angle_alpha   60.00000035
_cell_angle_beta   59.65672240
_cell_angle_gamma   59.65672409
_symmetry_Int_Tables_number   1
_chemical_formula_structural   Nd6Y10Cd4PdRu3
_chemical_formula_sum   'Nd6 Y10 Cd4 Pd1 Ru3'
_cell_volume   660.24676979
_cell_formula_units_Z   1
loop_
 _symmetry_equiv_pos_site_id
 _symmetry_equiv_pos_as_xyz
  1  'x, y, z'
loop_
 _atom_site_type_symbol
 _atom_site_label
 _atom_site_symmetry_multiplicity
 _atom_site_fract_x
 _atom_site_fract_y
 _atom_site_fract_z
 _atom_site_occupancy
  Nd  Nd0  1  0.935235  0.562342  0.562342  1
  Nd  Nd1  1  0.556313  0.939915  0.939915  1
  Nd  Nd2  1  0.556313  0.939915  0.563857  1
  Nd  Nd3  1  0.935235  0.562342  0.940081  1
  Nd  Nd4  1  0.556313  0.563857  0.939915  1
  Nd  Nd5  1  0.935235  0.940081  0.562342  1
  Y  Y6  1  0.343114  0.350583  0.350583  1
  Y  Y7  1  0.343114  0.350583  0.955720  1
  Y  Y8  1  0.343114  0.955720  0.350583  1
  Y  Y9  1  0.968278  0.343907  0.343907  1
  Y  Y10  1  0.818355  0.187713  0.187713  1
  Y  Y11  1  0.185266  0.813370  0.813370  1
  Y  Y12  1  0.185266  0.813370  0.187994  1
  Y  Y13  1  0.818355  0.187713  0.806220  1
  Y  Y14  1  0.185266  0.187994  0.813370  1
  Y  Y15  1  0.818355  0.806220  0.187713  1
  Cd  Cd16  1  0.579887  0.578354  0.578354  1
  Cd  Cd17  1  0.579887  0.578354  0.263404  1
  Cd  Cd18  1  0.579887  0.263404  0.578354  1
  Cd  Cd19  1  0.260107  0.579965  0.579965  1
  Pd  Pd20  1  0.575436  0.141521  0.141521  1
  Ru  Ru21  1  0.147225  0.137356  0.137356  1
  Ru  Ru22  1  0.147225  0.137356  0.578062  1
  Ru  Ru23  1  0.147225  0.578062  0.137356  1
