# generated using pymatgen
data_NdHo2(AgGe)3
_symmetry_space_group_name_H-M   'P 1'
_cell_length_a   7.25337273
_cell_length_b   7.25337288
_cell_length_c   4.22389500
_cell_angle_alpha   90.00000000
_cell_angle_beta   90.00000000
_cell_angle_gamma   120.36579060
_symmetry_Int_Tables_number   1
_chemical_formula_structural   NdHo2(AgGe)3
_chemical_formula_sum   'Nd1 Ho2 Ag3 Ge3'
_cell_volume   191.73929542
_cell_formula_units_Z   1
loop_
 _symmetry_equiv_pos_site_id
 _symmetry_equiv_pos_as_xyz
  1  'x, y, z'
loop_
 _atom_site_type_symbol
 _atom_site_label
 _atom_site_symmetry_multiplicity
 _atom_site_fract_x
 _atom_site_fract_y
 _atom_site_fract_z
 _atom_site_occupancy
  Nd  Nd0  1  0.415115  0.415115  0.000000  1
  Ho  Ho1  1  0.586969  0.000923  0.000000  1
  Ho  Ho2  1  0.000923  0.586969  0.000000  1
  Ag  Ag3  1  0.251712  0.998215  0.500000  1
  Ag  Ag4  1  0.998215  0.251712  0.500000  1
  Ag  Ag5  1  0.749897  0.749897  0.500000  1
  Ge  Ge6  1  0.331346  0.670258  0.500000  1
  Ge  Ge7  1  0.670258  0.331346  0.500000  1
  Ge  Ge8  1  0.995565  0.995565  0.000000  1
