# generated using pymatgen
data_Ti16Ir3Pd5O4
_symmetry_space_group_name_H-M   'P 1'
_cell_length_a   8.29012665
_cell_length_b   8.28772033
_cell_length_c   8.28772100
_cell_angle_alpha   60.00000131
_cell_angle_beta   60.00960269
_cell_angle_gamma   60.00961403
_symmetry_Int_Tables_number   1
_chemical_formula_structural   Ti16Ir3Pd5O4
_chemical_formula_sum   'Ti16 Ir3 Pd5 O4'
_cell_volume   402.69796870
_cell_formula_units_Z   1
loop_
 _symmetry_equiv_pos_site_id
 _symmetry_equiv_pos_as_xyz
  1  'x, y, z'
loop_
 _atom_site_type_symbol
 _atom_site_label
 _atom_site_symmetry_multiplicity
 _atom_site_fract_x
 _atom_site_fract_y
 _atom_site_fract_z
 _atom_site_occupancy
  Ti  Ti0  1  0.115555  0.628148  0.628148  1
  Ti  Ti1  1  0.629300  0.118716  0.625991  1
  Ti  Ti2  1  0.629300  0.625991  0.118716  1
  Ti  Ti3  1  0.629300  0.625991  0.625991  1
  Ti  Ti4  1  0.819559  0.819466  0.180488  1
  Ti  Ti5  1  0.176848  0.183555  0.819799  1
  Ti  Ti6  1  0.819559  0.180488  0.819466  1
  Ti  Ti7  1  0.176848  0.819799  0.183555  1
  Ti  Ti8  1  0.176848  0.819799  0.819799  1
  Ti  Ti9  1  0.819559  0.180488  0.180488  1
  Ti  Ti10  1  0.429908  0.429411  0.070340  1
  Ti  Ti11  1  0.067883  0.067955  0.432081  1
  Ti  Ti12  1  0.429908  0.070340  0.429411  1
  Ti  Ti13  1  0.067883  0.432081  0.067955  1
  Ti  Ti14  1  0.067883  0.432081  0.432081  1
  Ti  Ti15  1  0.429908  0.070340  0.070340  1
  Ir  Ir16  1  0.844566  0.467687  0.843874  1
  Ir  Ir17  1  0.844566  0.843874  0.467687  1
  Ir  Ir18  1  0.844566  0.843874  0.843874  1
  Pd  Pd19  1  0.766765  0.411078  0.411078  1
  Pd  Pd20  1  0.410955  0.765194  0.411926  1
  Pd  Pd21  1  0.410955  0.411926  0.765194  1
  Pd  Pd22  1  0.410955  0.411926  0.411926  1
  Pd  Pd23  1  0.476587  0.841137  0.841137  1
  O  O24  1  0.623004  0.125666  0.125666  1
  O  O25  1  0.127012  0.622181  0.125404  1
  O  O26  1  0.127012  0.125404  0.622181  1
  O  O27  1  0.127012  0.125404  0.125404  1
