# generated using pymatgen
data_CeEr3Pa2(Co3P2)6
_symmetry_space_group_name_H-M   'P 1'
_cell_length_a   3.72489000
_cell_length_b   10.50080242
_cell_length_c   12.19234248
_cell_angle_alpha   90.03228274
_cell_angle_beta   90.00000000
_cell_angle_gamma   90.00000000
_symmetry_Int_Tables_number   1
_chemical_formula_structural   CeEr3Pa2(Co3P2)6
_chemical_formula_sum   'Ce1 Er3 Pa2 Co18 P12'
_cell_volume   476.89527941
_cell_formula_units_Z   1
loop_
 _symmetry_equiv_pos_site_id
 _symmetry_equiv_pos_as_xyz
  1  'x, y, z'
loop_
 _atom_site_type_symbol
 _atom_site_label
 _atom_site_symmetry_multiplicity
 _atom_site_fract_x
 _atom_site_fract_y
 _atom_site_fract_z
 _atom_site_occupancy
  Ce  Ce0  1  0.250000  0.933872  0.792483  1
  Er  Er1  1  0.250000  0.562665  0.795206  1
  Er  Er2  1  0.750000  0.064418  0.204966  1
  Er  Er3  1  0.750000  0.435807  0.207071  1
  Pa  Pa4  1  0.750000  0.250043  0.471047  1
  Pa  Pa5  1  0.250000  0.749010  0.526753  1
  Co  Co6  1  0.250000  0.251090  0.841241  1
  Co  Co7  1  0.750000  0.749439  0.157308  1
  Co  Co8  1  0.250000  0.250761  0.304048  1
  Co  Co9  1  0.750000  0.752259  0.697604  1
  Co  Co10  1  0.750000  0.250869  0.019207  1
  Co  Co11  1  0.250000  0.748356  0.984710  1
  Co  Co12  1  0.250000  0.415327  0.008041  1
  Co  Co13  1  0.250000  0.085112  0.007227  1
  Co  Co14  1  0.750000  0.581749  0.994079  1
  Co  Co15  1  0.750000  0.915427  0.994106  1
  Co  Co16  1  0.250000  0.449282  0.569305  1
  Co  Co17  1  0.250000  0.053148  0.567225  1
  Co  Co18  1  0.750000  0.552936  0.431915  1
  Co  Co19  1  0.750000  0.947155  0.427718  1
  Co  Co20  1  0.250000  0.869460  0.286468  1
  Co  Co21  1  0.250000  0.630180  0.288539  1
  Co  Co22  1  0.750000  0.130885  0.711126  1
  Co  Co23  1  0.750000  0.370288  0.712104  1
  P  P24  1  0.250000  0.250396  0.123506  1
  P  P25  1  0.750000  0.746529  0.881192  1
  P  P26  1  0.250000  0.250704  0.656473  1
  P  P27  1  0.750000  0.750125  0.341763  1
  P  P28  1  0.250000  0.443934  0.383514  1
  P  P29  1  0.250000  0.056618  0.381030  1
  P  P30  1  0.750000  0.557438  0.618206  1
  P  P31  1  0.750000  0.944763  0.611199  1
  P  P32  1  0.250000  0.902769  0.104621  1
  P  P33  1  0.250000  0.596128  0.106248  1
  P  P34  1  0.750000  0.100253  0.897364  1
  P  P35  1  0.750000  0.400805  0.895385  1
