# generated using pymatgen
data_Er5Lu7(OsRh)2
_symmetry_space_group_name_H-M   'P 1'
_cell_length_a   7.22072732
_cell_length_b   8.95181862
_cell_length_c   6.26924122
_cell_angle_alpha   90.21411331
_cell_angle_beta   89.96593286
_cell_angle_gamma   89.99906781
_symmetry_Int_Tables_number   1
_chemical_formula_structural   Er5Lu7(OsRh)2
_chemical_formula_sum   'Er5 Lu7 Os2 Rh2'
_cell_volume   405.23233335
_cell_formula_units_Z   1
loop_
 _symmetry_equiv_pos_site_id
 _symmetry_equiv_pos_as_xyz
  1  'x, y, z'
loop_
 _atom_site_type_symbol
 _atom_site_label
 _atom_site_symmetry_multiplicity
 _atom_site_fract_x
 _atom_site_fract_y
 _atom_site_fract_z
 _atom_site_occupancy
  Er  Er0  1  0.677240  0.057657  0.333217  1
  Er  Er1  1  0.176251  0.442478  0.167310  1
  Er  Er2  1  0.538092  0.250316  0.873176  1
  Er  Er3  1  0.037760  0.249699  0.626811  1
  Er  Er4  1  0.464963  0.749863  0.122813  1
  Lu  Lu5  1  0.322219  0.566124  0.674190  1
  Lu  Lu6  1  0.822636  0.933606  0.824756  1
  Lu  Lu7  1  0.321686  0.933875  0.674320  1
  Lu  Lu8  1  0.822085  0.566437  0.824600  1
  Lu  Lu9  1  0.676351  0.442577  0.333652  1
  Lu  Lu10  1  0.175273  0.057253  0.166929  1
  Lu  Lu11  1  0.964822  0.750143  0.377055  1
  Os  Os12  1  0.113718  0.751064  0.964548  1
  Os  Os13  1  0.615256  0.748922  0.536260  1
  Rh  Rh14  1  0.885939  0.249818  0.041957  1
  Rh  Rh15  1  0.385706  0.250167  0.458408  1
