# generated using pymatgen
data_Eu6NbO12
_symmetry_space_group_name_H-M   'P 1'
_cell_length_a   6.62463729
_cell_length_b   6.62463765
_cell_length_c   6.62463737
_cell_angle_alpha   98.51030684
_cell_angle_beta   98.51030463
_cell_angle_gamma   98.51029468
_symmetry_Int_Tables_number   1
_chemical_formula_structural   Eu6NbO12
_chemical_formula_sum   'Eu6 Nb1 O12'
_cell_volume   280.03841172
_cell_formula_units_Z   1
loop_
 _symmetry_equiv_pos_site_id
 _symmetry_equiv_pos_as_xyz
  1  'x, y, z'
loop_
 _atom_site_type_symbol
 _atom_site_label
 _atom_site_symmetry_multiplicity
 _atom_site_fract_x
 _atom_site_fract_y
 _atom_site_fract_z
 _atom_site_occupancy
  Eu  Eu0  1  0.137135  0.298335  0.605499  1
  Eu  Eu1  1  0.394501  0.862865  0.701665  1
  Eu  Eu2  1  0.701665  0.394501  0.862865  1
  Eu  Eu3  1  0.298335  0.605499  0.137135  1
  Eu  Eu4  1  0.605499  0.137135  0.298335  1
  Eu  Eu5  1  0.862865  0.701665  0.394501  1
  Nb  Nb6  1  0.000000  0.000000  0.000000  1
  O  O7  1  0.070225  0.299710  0.960468  1
  O  O8  1  0.039532  0.929775  0.700290  1
  O  O9  1  0.407490  0.565477  0.823288  1
  O  O10  1  0.176712  0.592510  0.434523  1
  O  O11  1  0.700290  0.039532  0.929775  1
  O  O12  1  0.434523  0.176712  0.592510  1
  O  O13  1  0.565477  0.823288  0.407490  1
  O  O14  1  0.299710  0.960468  0.070225  1
  O  O15  1  0.823288  0.407490  0.565477  1
  O  O16  1  0.592510  0.434523  0.176712  1
  O  O17  1  0.960468  0.070225  0.299710  1
  O  O18  1  0.929775  0.700290  0.039532  1
