# generated using pymatgen
data_LaTh7Zn8(IrRh3)2
_symmetry_space_group_name_H-M   'P 1'
_cell_length_a   3.94794900
_cell_length_b   7.53342319
_cell_length_c   16.63382498
_cell_angle_alpha   89.64044432
_cell_angle_beta   90.00000000
_cell_angle_gamma   90.00000000
_symmetry_Int_Tables_number   1
_chemical_formula_structural   LaTh7Zn8(IrRh3)2
_chemical_formula_sum   'La1 Th7 Zn8 Ir2 Rh6'
_cell_volume   494.70633821
_cell_formula_units_Z   1
loop_
 _symmetry_equiv_pos_site_id
 _symmetry_equiv_pos_as_xyz
  1  'x, y, z'
loop_
 _atom_site_type_symbol
 _atom_site_label
 _atom_site_symmetry_multiplicity
 _atom_site_fract_x
 _atom_site_fract_y
 _atom_site_fract_z
 _atom_site_occupancy
  La  La0  1  0.750000  0.941102  0.285678  1
  Th  Th1  1  0.750000  0.327559  0.440111  1
  Th  Th2  1  0.250000  0.063874  0.715765  1
  Th  Th3  1  0.250000  0.560445  0.785238  1
  Th  Th4  1  0.250000  0.675570  0.560730  1
  Th  Th5  1  0.750000  0.822280  0.060199  1
  Th  Th6  1  0.250000  0.172225  0.939417  1
  Th  Th7  1  0.750000  0.437838  0.214912  1
  Zn  Zn8  1  0.250000  0.110712  0.152853  1
  Zn  Zn9  1  0.250000  0.997415  0.440859  1
  Zn  Zn10  1  0.750000  0.886996  0.846836  1
  Zn  Zn11  1  0.750000  0.006464  0.560016  1
  Zn  Zn12  1  0.250000  0.490320  0.057789  1
  Zn  Zn13  1  0.750000  0.389838  0.653150  1
  Zn  Zn14  1  0.750000  0.503226  0.940717  1
  Zn  Zn15  1  0.250000  0.614971  0.348025  1
  Ir  Ir16  1  0.750000  0.260550  0.814415  1
  Ir  Ir17  1  0.250000  0.255961  0.315503  1
  Rh  Rh18  1  0.250000  0.754634  0.937154  1
  Rh  Rh19  1  0.250000  0.257423  0.562836  1
  Rh  Rh20  1  0.250000  0.728240  0.179529  1
  Rh  Rh21  1  0.750000  0.742501  0.440953  1
  Rh  Rh22  1  0.750000  0.238718  0.061708  1
  Rh  Rh23  1  0.750000  0.761137  0.685605  1
