# generated using pymatgen
data_Mg4PaIn3Rh8
_symmetry_space_group_name_H-M   'P 1'
_cell_length_a   6.41535700
_cell_length_b   6.41704200
_cell_length_c   6.47896000
_cell_angle_alpha   90.00000000
_cell_angle_beta   90.00314598
_cell_angle_gamma   90.00000000
_symmetry_Int_Tables_number   1
_chemical_formula_structural   Mg4PaIn3Rh8
_chemical_formula_sum   'Mg4 Pa1 In3 Rh8'
_cell_volume   266.72333271
_cell_formula_units_Z   1
loop_
 _symmetry_equiv_pos_site_id
 _symmetry_equiv_pos_as_xyz
  1  'x, y, z'
loop_
 _atom_site_type_symbol
 _atom_site_label
 _atom_site_symmetry_multiplicity
 _atom_site_fract_x
 _atom_site_fract_y
 _atom_site_fract_z
 _atom_site_occupancy
  Mg  Mg0  1  0.749983  0.250000  0.999999  1
  Mg  Mg1  1  0.250001  0.750001  0.999988  1
  Mg  Mg2  1  0.250009  0.750001  0.500007  1
  Mg  Mg3  1  0.749978  0.250000  0.500014  1
  Pa  Pa4  1  0.250003  0.250000  0.000005  1
  In  In5  1  0.750009  0.750001  0.000003  1
  In  In6  1  0.749913  0.750001  0.500007  1
  In  In7  1  0.250001  0.250000  0.499995  1
  Rh  Rh8  1  0.002253  0.002253  0.245929  1
  Rh  Rh9  1  0.002253  0.497748  0.245929  1
  Rh  Rh10  1  0.497779  0.002215  0.245957  1
  Rh  Rh11  1  0.497779  0.497784  0.245957  1
  Rh  Rh12  1  0.497780  0.002223  0.754030  1
  Rh  Rh13  1  0.497780  0.497778  0.754030  1
  Rh  Rh14  1  0.002242  0.002259  0.754077  1
  Rh  Rh15  1  0.002242  0.497740  0.754077  1
