# generated using pymatgen
data_Cr3Ni(AuO2)4
_symmetry_space_group_name_H-M   'P 1'
_cell_length_a   5.33642754
_cell_length_b   6.19198689
_cell_length_c   7.10254700
_cell_angle_alpha   64.15837067
_cell_angle_beta   75.52456015
_cell_angle_gamma   89.99941418
_symmetry_Int_Tables_number   1
_chemical_formula_structural   Cr3Ni(AuO2)4
_chemical_formula_sum   'Cr3 Ni1 Au4 O8'
_cell_volume   202.91179873
_cell_formula_units_Z   1
loop_
 _symmetry_equiv_pos_site_id
 _symmetry_equiv_pos_as_xyz
  1  'x, y, z'
loop_
 _atom_site_type_symbol
 _atom_site_label
 _atom_site_symmetry_multiplicity
 _atom_site_fract_x
 _atom_site_fract_y
 _atom_site_fract_z
 _atom_site_occupancy
  Cr  Cr0  1  0.999975  0.501026  0.000037  1
  Cr  Cr1  1  0.499877  0.250146  0.999927  1
  Cr  Cr2  1  0.999942  0.998936  0.000033  1
  Ni  Ni3  1  0.499968  0.749880  0.999972  1
  Au  Au4  1  0.006975  0.999537  0.500800  1
  Au  Au5  1  0.993129  0.500395  0.499293  1
  Au  Au6  1  0.500071  0.750052  0.499883  1
  Au  Au7  1  0.500059  0.249961  0.500043  1
  O  O8  1  0.897188  0.832069  0.835785  1
  O  O9  1  0.887558  0.331287  0.837373  1
  O  O10  1  0.384474  0.576068  0.835854  1
  O  O11  1  0.384540  0.088080  0.835937  1
  O  O12  1  0.112366  0.168675  0.162692  1
  O  O13  1  0.102886  0.667891  0.164264  1
  O  O14  1  0.615442  0.924151  0.163993  1
  O  O15  1  0.615553  0.411842  0.164116  1
