# generated using pymatgen
data_LaTh5H8I15
_symmetry_space_group_name_H-M   'P 1'
_cell_length_a   10.57205099
_cell_length_b   10.57205224
_cell_length_c   10.57205100
_cell_angle_alpha   109.38734920
_cell_angle_beta   109.38735160
_cell_angle_gamma   109.63909323
_symmetry_Int_Tables_number   1
_chemical_formula_structural   LaTh5H8I15
_chemical_formula_sum   'La1 Th5 H8 I15'
_cell_volume   909.60555242
_cell_formula_units_Z   1
loop_
 _symmetry_equiv_pos_site_id
 _symmetry_equiv_pos_as_xyz
  1  'x, y, z'
loop_
 _atom_site_type_symbol
 _atom_site_label
 _atom_site_symmetry_multiplicity
 _atom_site_fract_x
 _atom_site_fract_y
 _atom_site_fract_z
 _atom_site_occupancy
  La  La0  1  0.233904  0.233905  0.999980  1
  Th  Th1  1  0.770528  0.770525  0.000016  1
  Th  Th2  1  0.230817  0.001701  0.229122  1
  Th  Th3  1  0.001699  0.230827  0.229132  1
  Th  Th4  1  0.772581  0.001697  0.770876  1
  Th  Th5  1  0.001694  0.772569  0.770867  1
  H  H6  1  0.174806  0.995752  0.000005  1
  H  H7  1  0.823952  0.999817  0.999994  1
  H  H8  1  0.995752  0.174804  0.999999  1
  H  H9  1  0.999818  0.823954  0.000001  1
  H  H10  1  0.999823  0.999819  0.175868  1
  H  H11  1  0.174807  0.174802  0.179051  1
  H  H12  1  0.995748  0.995749  0.820947  1
  H  H13  1  0.823952  0.823955  0.824136  1
  I  I14  1  0.742251  0.255096  0.000002  1
  I  I15  1  0.509591  0.509592  0.999998  1
  I  I16  1  0.255096  0.742251  0.000003  1
  I  I17  1  0.744322  0.000367  0.256044  1
  I  I18  1  0.000366  0.744322  0.256044  1
  I  I19  1  0.516645  0.254799  0.261853  1
  I  I20  1  0.254790  0.516636  0.261848  1
  I  I21  1  0.742247  0.742247  0.487153  1
  I  I22  1  0.499693  0.999694  0.499999  1
  I  I23  1  0.999694  0.499692  0.499998  1
  I  I24  1  0.255097  0.255098  0.512846  1
  I  I25  1  0.254790  0.992942  0.738156  1
  I  I26  1  0.992947  0.254797  0.738156  1
  I  I27  1  0.744318  0.488276  0.743957  1
  I  I28  1  0.488276  0.744321  0.743955  1
