# generated using pymatgen
data_PmAlAg4
_symmetry_space_group_name_H-M   'P 1'
_cell_length_a   5.74185900
_cell_length_b   5.49255349
_cell_length_c   4.59873000
_cell_angle_alpha   90.00000000
_cell_angle_beta   90.00000000
_cell_angle_gamma   58.48669187
_symmetry_Int_Tables_number   1
_chemical_formula_structural   PmAlAg4
_chemical_formula_sum   'Pm1 Al1 Ag4'
_cell_volume   123.64275841
_cell_formula_units_Z   1
loop_
 _symmetry_equiv_pos_site_id
 _symmetry_equiv_pos_as_xyz
  1  'x, y, z'
loop_
 _atom_site_type_symbol
 _atom_site_label
 _atom_site_symmetry_multiplicity
 _atom_site_fract_x
 _atom_site_fract_y
 _atom_site_fract_z
 _atom_site_occupancy
  Pm  Pm0  1  0.000000  0.000001  0.000000  1
  Al  Al1  1  0.500203  0.000001  0.499999  1
  Ag  Ag2  1  0.342816  0.314436  0.000000  1
  Ag  Ag3  1  0.657251  0.685567  0.000000  1
  Ag  Ag4  1  0.999984  0.499755  0.499999  1
  Ag  Ag5  1  0.499740  0.500245  0.499999  1
