# generated using pymatgen
data_TbNd2Sm(Sn5Rh3)2
_symmetry_space_group_name_H-M   'P 1'
_cell_length_a   13.56597967
_cell_length_b   13.56598079
_cell_length_c   7.22941303
_cell_angle_alpha   89.92525303
_cell_angle_beta   90.07474668
_cell_angle_gamma   160.80395591
_symmetry_Int_Tables_number   1
_chemical_formula_structural   TbNd2Sm(Sn5Rh3)2
_chemical_formula_sum   'Tb1 Nd2 Sm1 Sn10 Rh6'
_cell_volume   437.46038553
_cell_formula_units_Z   1
loop_
 _symmetry_equiv_pos_site_id
 _symmetry_equiv_pos_as_xyz
  1  'x, y, z'
loop_
 _atom_site_type_symbol
 _atom_site_label
 _atom_site_symmetry_multiplicity
 _atom_site_fract_x
 _atom_site_fract_y
 _atom_site_fract_z
 _atom_site_occupancy
  Tb  Tb0  1  0.524165  0.475835  0.239749  1
  Nd  Nd1  1  0.172272  0.827728  0.753469  1
  Nd  Nd2  1  0.827702  0.172298  0.253461  1
  Sm  Sm3  1  0.476298  0.523702  0.739430  1
  Sn  Sn4  1  0.879308  0.120692  0.732359  1
  Sn  Sn5  1  0.120409  0.879591  0.232850  1
  Sn  Sn6  1  0.704319  0.295681  0.047269  1
  Sn  Sn7  1  0.295375  0.704625  0.547247  1
  Sn  Sn8  1  0.596064  0.403936  0.611085  1
  Sn  Sn9  1  0.404304  0.595696  0.111702  1
  Sn  Sn10  1  0.952808  0.047192  0.400516  1
  Sn  Sn11  1  0.047631  0.952369  0.902163  1
  Sn  Sn12  1  0.290484  0.709516  0.975087  1
  Sn  Sn13  1  0.709409  0.290591  0.474911  1
  Rh  Rh14  1  0.050785  0.949215  0.516687  1
  Rh  Rh15  1  0.949386  0.050614  0.018908  1
  Rh  Rh16  1  0.777373  0.222627  0.763366  1
  Rh  Rh17  1  0.222438  0.777562  0.263229  1
  Rh  Rh18  1  0.395254  0.604746  0.485425  1
  Rh  Rh19  1  0.604215  0.395785  0.987087  1
