# generated using pymatgen
data_DyLu7Hf6O24
_symmetry_space_group_name_H-M   'P 1'
_cell_length_a   6.27850491
_cell_length_b   6.36170330
_cell_length_c   12.65753635
_cell_angle_alpha   99.24778290
_cell_angle_beta   99.37691446
_cell_angle_gamma   99.39131540
_symmetry_Int_Tables_number   1
_chemical_formula_structural   DyLu7Hf6O24
_chemical_formula_sum   'Dy1 Lu7 Hf6 O24'
_cell_volume   482.93091544
_cell_formula_units_Z   1
loop_
 _symmetry_equiv_pos_site_id
 _symmetry_equiv_pos_as_xyz
  1  'x, y, z'
loop_
 _atom_site_type_symbol
 _atom_site_label
 _atom_site_symmetry_multiplicity
 _atom_site_fract_x
 _atom_site_fract_y
 _atom_site_fract_z
 _atom_site_occupancy
  Dy  Dy0  1  0.298399  0.611284  0.818559  1
  Lu  Lu1  1  0.390104  0.863621  0.593821  1
  Lu  Lu2  1  0.859348  0.689238  0.948070  1
  Lu  Lu3  1  0.311967  0.609822  0.317337  1
  Lu  Lu4  1  0.139879  0.309662  0.054028  1
  Lu  Lu5  1  0.700830  0.390766  0.182615  1
  Lu  Lu6  1  0.690741  0.387473  0.681246  1
  Lu  Lu7  1  0.610815  0.135027  0.403100  1
  Hf  Hf8  1  0.006694  0.006181  0.252345  1
  Hf  Hf9  1  0.391308  0.857818  0.095869  1
  Hf  Hf10  1  0.990639  0.992849  0.746829  1
  Hf  Hf11  1  0.853540  0.673889  0.446341  1
  Hf  Hf12  1  0.147292  0.326057  0.551699  1
  Hf  Hf13  1  0.608384  0.145508  0.909180  1
  O  O14  1  0.318088  0.968440  0.798801  1
  O  O15  1  0.071223  0.920704  0.093748  1
  O  O16  1  0.321413  0.943049  0.286008  1
  O  O17  1  0.035452  0.885120  0.589429  1
  O  O18  1  0.572434  0.832811  0.965746  1
  O  O19  1  0.587730  0.819223  0.460403  1
  O  O20  1  0.183944  0.592523  0.972287  1
  O  O21  1  0.922258  0.681511  0.779510  1
  O  O22  1  0.428944  0.583841  0.159171  1
  O  O23  1  0.173611  0.574876  0.462567  1
  O  O24  1  0.920355  0.694086  0.290221  1
  O  O25  1  0.579300  0.415619  0.841750  1
  O  O26  1  0.412143  0.567875  0.654935  1
  O  O27  1  0.076316  0.319365  0.221835  1
  O  O28  1  0.814010  0.409786  0.033146  1
  O  O29  1  0.589752  0.429766  0.342013  1
  O  O30  1  0.073913  0.302983  0.705607  1
  O  O31  1  0.825482  0.423482  0.534552  1
  O  O32  1  0.430098  0.170681  0.039104  1
  O  O33  1  0.411433  0.178452  0.536743  1
  O  O34  1  0.926930  0.085670  0.905917  1
  O  O35  1  0.682251  0.041039  0.204607  1
  O  O36  1  0.965400  0.107127  0.411129  1
  O  O37  1  0.677578  0.052776  0.709731  1
