# generated using pymatgen
data_Ta3NbRe24Mo
_symmetry_space_group_name_H-M   'P 1'
_cell_length_a   8.39802644
_cell_length_b   8.39802711
_cell_length_c   8.39802508
_cell_angle_alpha   109.42541064
_cell_angle_beta   109.42541491
_cell_angle_gamma   109.42541018
_symmetry_Int_Tables_number   1
_chemical_formula_structural   Ta3NbRe24Mo
_chemical_formula_sum   'Ta3 Nb1 Re24 Mo1'
_cell_volume   456.71384804
_cell_formula_units_Z   1
loop_
 _symmetry_equiv_pos_site_id
 _symmetry_equiv_pos_as_xyz
  1  'x, y, z'
loop_
 _atom_site_type_symbol
 _atom_site_label
 _atom_site_symmetry_multiplicity
 _atom_site_fract_x
 _atom_site_fract_y
 _atom_site_fract_z
 _atom_site_occupancy
  Ta  Ta0  1  0.999690  0.999690  0.636717  1
  Ta  Ta1  1  0.636717  0.999690  0.999690  1
  Ta  Ta2  1  0.999690  0.636717  0.999690  1
  Nb  Nb3  1  0.004745  0.004745  0.004745  1
  Re  Re4  1  0.317263  0.317263  0.715906  1
  Re  Re5  1  0.399236  0.682621  0.999727  1
  Re  Re6  1  0.682621  0.399236  0.999727  1
  Re  Re7  1  0.597529  0.283615  0.597529  1
  Re  Re8  1  0.399236  0.999727  0.682621  1
  Re  Re9  1  0.999727  0.399236  0.682621  1
  Re  Re10  1  0.283615  0.597529  0.597529  1
  Re  Re11  1  0.715906  0.317263  0.317263  1
  Re  Re12  1  0.317263  0.715906  0.317263  1
  Re  Re13  1  0.682621  0.999727  0.399236  1
  Re  Re14  1  0.999727  0.682621  0.399236  1
  Re  Re15  1  0.597529  0.597529  0.283615  1
  Re  Re16  1  0.806395  0.806395  0.184570  1
  Re  Re17  1  0.377382  0.194643  0.000191  1
  Re  Re18  1  0.194643  0.377382  0.000191  1
  Re  Re19  1  0.623678  0.817423  0.623678  1
  Re  Re20  1  0.377382  0.000191  0.194643  1
  Re  Re21  1  0.000191  0.377382  0.194643  1
  Re  Re22  1  0.817423  0.623678  0.623678  1
  Re  Re23  1  0.184570  0.806395  0.806395  1
  Re  Re24  1  0.806395  0.184570  0.806395  1
  Re  Re25  1  0.194643  0.000191  0.377382  1
  Re  Re26  1  0.000191  0.194643  0.377382  1
  Re  Re27  1  0.623678  0.623678  0.817423  1
  Mo  Mo28  1  0.360315  0.360315  0.360315  1
