# generated using pymatgen
data_HoMg(NbSe2)8
_symmetry_space_group_name_H-M   'P 1'
_cell_length_a   7.02052600
_cell_length_b   7.02052612
_cell_length_c   13.95766400
_cell_angle_alpha   90.00000000
_cell_angle_beta   90.00000000
_cell_angle_gamma   119.99999944
_symmetry_Int_Tables_number   1
_chemical_formula_structural   HoMg(NbSe2)8
_chemical_formula_sum   'Ho1 Mg1 Nb8 Se16'
_cell_volume   595.77556196
_cell_formula_units_Z   1
loop_
 _symmetry_equiv_pos_site_id
 _symmetry_equiv_pos_as_xyz
  1  'x, y, z'
loop_
 _atom_site_type_symbol
 _atom_site_label
 _atom_site_symmetry_multiplicity
 _atom_site_fract_x
 _atom_site_fract_y
 _atom_site_fract_z
 _atom_site_occupancy
  Ho  Ho0  1  0.000000  0.000000  0.500000  1
  Mg  Mg1  1  0.000000  0.000000  0.000000  1
  Nb  Nb2  1  0.000000  0.000000  0.241544  1
  Nb  Nb3  1  0.000000  0.000000  0.758456  1
  Nb  Nb4  1  0.507087  0.014175  0.240097  1
  Nb  Nb5  1  0.985825  0.492913  0.240097  1
  Nb  Nb6  1  0.507087  0.492913  0.240097  1
  Nb  Nb7  1  0.492913  0.985825  0.759903  1
  Nb  Nb8  1  0.014175  0.507087  0.759903  1
  Nb  Nb9  1  0.492913  0.507087  0.759903  1
  Se  Se10  1  0.333333  0.666667  0.882918  1
  Se  Se11  1  0.666667  0.333333  0.117082  1
  Se  Se12  1  0.666667  0.333333  0.364017  1
  Se  Se13  1  0.333333  0.666667  0.635983  1
  Se  Se14  1  0.169205  0.830795  0.359831  1
  Se  Se15  1  0.169205  0.338410  0.359831  1
  Se  Se16  1  0.661590  0.830795  0.359831  1
  Se  Se17  1  0.830795  0.169205  0.640169  1
  Se  Se18  1  0.830795  0.661590  0.640169  1
  Se  Se19  1  0.338410  0.169205  0.640169  1
  Se  Se20  1  0.830997  0.169003  0.877437  1
  Se  Se21  1  0.830997  0.661994  0.877437  1
  Se  Se22  1  0.338006  0.169003  0.877437  1
  Se  Se23  1  0.169003  0.830997  0.122563  1
  Se  Se24  1  0.169003  0.338006  0.122563  1
  Se  Se25  1  0.661994  0.830997  0.122563  1
