# generated using pymatgen
data_MnSb6Ru
_symmetry_space_group_name_H-M   'P 1'
_cell_length_a   8.17020230
_cell_length_b   8.16958869
_cell_length_c   9.43024689
_cell_angle_alpha   54.60758017
_cell_angle_beta   54.58964161
_cell_angle_gamma   70.26169904
_symmetry_Int_Tables_number   1
_chemical_formula_structural   MnSb6Ru
_chemical_formula_sum   'Mn2 Sb12 Ru2'
_cell_volume   418.20598800
_cell_formula_units_Z   2
loop_
 _symmetry_equiv_pos_site_id
 _symmetry_equiv_pos_as_xyz
  1  'x, y, z'
loop_
 _atom_site_type_symbol
 _atom_site_label
 _atom_site_symmetry_multiplicity
 _atom_site_fract_x
 _atom_site_fract_y
 _atom_site_fract_z
 _atom_site_occupancy
  Mn  Mn0  1  0.000000  0.500000  0.500000  1
  Mn  Mn1  1  0.500000  0.000000  0.500000  1
  Sb  Sb2  1  0.155933  0.155928  0.175896  1
  Sb  Sb3  1  0.844067  0.844072  0.824104  1
  Sb  Sb4  1  0.846573  0.846514  0.500441  1
  Sb  Sb5  1  0.153427  0.153486  0.499559  1
  Sb  Sb6  1  0.815129  0.504668  0.336849  1
  Sb  Sb7  1  0.184871  0.495332  0.663151  1
  Sb  Sb8  1  0.504669  0.815118  0.336837  1
  Sb  Sb9  1  0.495331  0.184882  0.663163  1
  Sb  Sb10  1  0.656215  0.336131  0.848959  1
  Sb  Sb11  1  0.343785  0.663869  0.151041  1
  Sb  Sb12  1  0.663882  0.343816  0.151015  1
  Sb  Sb13  1  0.336118  0.656184  0.848985  1
  Ru  Ru14  1  0.000000  0.500000  0.000000  1
  Ru  Ru15  1  0.500000  0.000000  0.000000  1
