# generated using pymatgen
data_Dy8Sc12Si15Pb
_symmetry_space_group_name_H-M   'P 1'
_cell_length_a   7.13752100
_cell_length_b   7.41155393
_cell_length_c   14.13277000
_cell_angle_alpha   90.00000000
_cell_angle_beta   90.00000000
_cell_angle_gamma   90.02867281
_symmetry_Int_Tables_number   1
_chemical_formula_structural   Dy8Sc12Si15Pb
_chemical_formula_sum   'Dy8 Sc12 Si15 Pb1'
_cell_volume   747.62516081
_cell_formula_units_Z   1
loop_
 _symmetry_equiv_pos_site_id
 _symmetry_equiv_pos_as_xyz
  1  'x, y, z'
loop_
 _atom_site_type_symbol
 _atom_site_label
 _atom_site_symmetry_multiplicity
 _atom_site_fract_x
 _atom_site_fract_y
 _atom_site_fract_z
 _atom_site_occupancy
  Dy  Dy0  1  0.012253  0.177575  0.099462  1
  Dy  Dy1  1  0.996998  0.835370  0.913177  1
  Dy  Dy2  1  0.480437  0.677081  0.907434  1
  Dy  Dy3  1  0.996998  0.835370  0.586823  1
  Dy  Dy4  1  0.512487  0.323649  0.098077  1
  Dy  Dy5  1  0.012253  0.177575  0.400538  1
  Dy  Dy6  1  0.512487  0.323649  0.401923  1
  Dy  Dy7  1  0.480437  0.677081  0.592566  1
  Sc  Sc8  1  0.174813  0.497816  0.750000  1
  Sc  Sc9  1  0.838211  0.497621  0.250000  1
  Sc  Sc10  1  0.339192  0.001878  0.250000  1
  Sc  Sc11  1  0.654141  0.011463  0.750000  1
  Sc  Sc12  1  0.327616  0.174002  0.623033  1
  Sc  Sc13  1  0.669518  0.823972  0.374025  1
  Sc  Sc14  1  0.168716  0.674902  0.373400  1
  Sc  Sc15  1  0.669518  0.823972  0.125975  1
  Sc  Sc16  1  0.833121  0.314604  0.622063  1
  Sc  Sc17  1  0.327616  0.174002  0.876967  1
  Sc  Sc18  1  0.833121  0.314604  0.877937  1
  Sc  Sc19  1  0.168716  0.674902  0.126600  1
  Si  Si20  1  0.032708  0.115172  0.750000  1
  Si  Si21  1  0.966232  0.882347  0.250000  1
  Si  Si22  1  0.466910  0.616490  0.250000  1
  Si  Si23  1  0.529664  0.367579  0.750000  1
  Si  Si24  1  0.283615  0.872287  0.750000  1
  Si  Si25  1  0.714098  0.126866  0.250000  1
  Si  Si26  1  0.215572  0.372895  0.250000  1
  Si  Si27  1  0.156422  0.463961  0.538505  1
  Si  Si28  1  0.841030  0.535266  0.460230  1
  Si  Si29  1  0.340551  0.964840  0.457792  1
  Si  Si30  1  0.841030  0.535266  0.039770  1
  Si  Si31  1  0.655384  0.033130  0.538308  1
  Si  Si32  1  0.156422  0.463961  0.961495  1
  Si  Si33  1  0.655384  0.033130  0.961692  1
  Si  Si34  1  0.340551  0.964840  0.042208  1
  Pb  Pb35  1  0.795777  0.640878  0.750000  1
