# generated using pymatgen
data_Dy3Ti(P3Rh4)2
_symmetry_space_group_name_H-M   'P 1'
_cell_length_a   3.91015900
_cell_length_b   11.20530500
_cell_length_c   12.85739200
_cell_angle_alpha   90.00000000
_cell_angle_beta   90.00000000
_cell_angle_gamma   90.00000000
_symmetry_Int_Tables_number   1
_chemical_formula_structural   Dy3Ti(P3Rh4)2
_chemical_formula_sum   'Dy6 Ti2 P12 Rh16'
_cell_volume   563.34051285
_cell_formula_units_Z   2
loop_
 _symmetry_equiv_pos_site_id
 _symmetry_equiv_pos_as_xyz
  1  'x, y, z'
loop_
 _atom_site_type_symbol
 _atom_site_label
 _atom_site_symmetry_multiplicity
 _atom_site_fract_x
 _atom_site_fract_y
 _atom_site_fract_z
 _atom_site_occupancy
  Dy  Dy0  1  0.000000  0.500000  0.520480  1
  Dy  Dy1  1  0.500000  0.000000  0.479520  1
  Dy  Dy2  1  0.500000  0.818205  0.201272  1
  Dy  Dy3  1  0.500000  0.181795  0.201272  1
  Dy  Dy4  1  0.000000  0.681795  0.798728  1
  Dy  Dy5  1  0.000000  0.318205  0.798728  1
  Ti  Ti6  1  0.500000  0.500000  0.157311  1
  Ti  Ti7  1  0.000000  0.000000  0.842689  1
  P  P8  1  0.500000  0.500000  0.878504  1
  P  P9  1  0.000000  0.000000  0.121496  1
  P  P10  1  0.500000  0.500000  0.351023  1
  P  P11  1  0.000000  0.000000  0.648977  1
  P  P12  1  0.500000  0.313395  0.616808  1
  P  P13  1  0.500000  0.686605  0.616808  1
  P  P14  1  0.000000  0.186605  0.383192  1
  P  P15  1  0.000000  0.813395  0.383192  1
  P  P16  1  0.500000  0.845378  0.888459  1
  P  P17  1  0.500000  0.154622  0.888459  1
  P  P18  1  0.000000  0.654622  0.111541  1
  P  P19  1  0.000000  0.345378  0.111541  1
  Rh  Rh20  1  0.500000  0.500000  0.699621  1
  Rh  Rh21  1  0.000000  0.000000  0.300379  1
  Rh  Rh22  1  0.000000  0.500000  0.985438  1
  Rh  Rh23  1  0.500000  0.000000  0.014562  1
  Rh  Rh24  1  0.500000  0.332005  0.991224  1
  Rh  Rh25  1  0.500000  0.667995  0.991224  1
  Rh  Rh26  1  0.000000  0.167995  0.008776  1
  Rh  Rh27  1  0.000000  0.832005  0.008776  1
  Rh  Rh28  1  0.500000  0.291659  0.431122  1
  Rh  Rh29  1  0.500000  0.708341  0.431122  1
  Rh  Rh30  1  0.000000  0.208341  0.568878  1
  Rh  Rh31  1  0.000000  0.791659  0.568878  1
  Rh  Rh32  1  0.500000  0.874668  0.708221  1
  Rh  Rh33  1  0.500000  0.125332  0.708221  1
  Rh  Rh34  1  0.000000  0.625332  0.291779  1
  Rh  Rh35  1  0.000000  0.374668  0.291779  1
