# generated using pymatgen
data_SmEr2Pa(ReB6)2
_symmetry_space_group_name_H-M   'P 1'
_cell_length_a   3.70566500
_cell_length_b   9.17120742
_cell_length_c   11.56006808
_cell_angle_alpha   90.31484576
_cell_angle_beta   90.00000000
_cell_angle_gamma   90.00000000
_symmetry_Int_Tables_number   1
_chemical_formula_structural   SmEr2Pa(ReB6)2
_chemical_formula_sum   'Sm2 Er4 Pa2 Re4 B24'
_cell_volume   392.86786454
_cell_formula_units_Z   2
loop_
 _symmetry_equiv_pos_site_id
 _symmetry_equiv_pos_as_xyz
  1  'x, y, z'
loop_
 _atom_site_type_symbol
 _atom_site_label
 _atom_site_symmetry_multiplicity
 _atom_site_fract_x
 _atom_site_fract_y
 _atom_site_fract_z
 _atom_site_occupancy
  Sm  Sm0  1  0.000000  0.823530  0.085968  1
  Sm  Sm1  1  0.000000  0.176470  0.914032  1
  Er  Er2  1  0.000000  0.944874  0.373127  1
  Er  Er3  1  0.000000  0.055126  0.626873  1
  Er  Er4  1  0.000000  0.444041  0.127237  1
  Er  Er5  1  0.000000  0.555959  0.872763  1
  Pa  Pa6  1  0.000000  0.321550  0.413406  1
  Pa  Pa7  1  0.000000  0.678450  0.586594  1
  Re  Re8  1  0.000000  0.634957  0.325154  1
  Re  Re9  1  0.000000  0.365043  0.674846  1
  Re  Re10  1  0.000000  0.141948  0.183532  1
  Re  Re11  1  0.000000  0.858052  0.816468  1
  B  B12  1  0.500000  0.553610  0.433188  1
  B  B13  1  0.500000  0.446390  0.566812  1
  B  B14  1  0.500000  0.054586  0.069112  1
  B  B15  1  0.500000  0.945414  0.930888  1
  B  B16  1  0.500000  0.748463  0.419943  1
  B  B17  1  0.500000  0.251537  0.580057  1
  B  B18  1  0.500000  0.249302  0.082269  1
  B  B19  1  0.500000  0.750698  0.917731  1
  B  B20  1  0.500000  0.791048  0.267121  1
  B  B21  1  0.500000  0.208952  0.732879  1
  B  B22  1  0.500000  0.292808  0.235014  1
  B  B23  1  0.500000  0.707192  0.764986  1
  B  B24  1  0.500000  0.630277  0.186404  1
  B  B25  1  0.500000  0.369723  0.813596  1
  B  B26  1  0.500000  0.132526  0.315270  1
  B  B27  1  0.500000  0.867474  0.684730  1
  B  B28  1  0.500000  0.983533  0.214050  1
  B  B29  1  0.500000  0.016467  0.785950  1
  B  B30  1  0.500000  0.482823  0.287221  1
  B  B31  1  0.500000  0.517177  0.712779  1
  B  B32  1  0.500000  0.601144  0.028299  1
  B  B33  1  0.500000  0.398856  0.971701  1
  B  B34  1  0.500000  0.109904  0.469898  1
  B  B35  1  0.500000  0.890096  0.530102  1
