# generated using pymatgen
data_Eu5(BN3)2
_symmetry_space_group_name_H-M   'P 1'
_cell_length_a   6.48083536
_cell_length_b   6.48083449
_cell_length_c   9.17191988
_cell_angle_alpha   75.62957114
_cell_angle_beta   75.62957495
_cell_angle_gamma   32.88357367
_symmetry_Int_Tables_number   1
_chemical_formula_structural   Eu5(BN3)2
_chemical_formula_sum   'Eu5 B2 N6'
_cell_volume   202.03121109
_cell_formula_units_Z   1
loop_
 _symmetry_equiv_pos_site_id
 _symmetry_equiv_pos_as_xyz
  1  'x, y, z'
loop_
 _atom_site_type_symbol
 _atom_site_label
 _atom_site_symmetry_multiplicity
 _atom_site_fract_x
 _atom_site_fract_y
 _atom_site_fract_z
 _atom_site_occupancy
  Eu  Eu0  1  0.626278  0.626278  0.638958  1
  Eu  Eu1  1  0.298333  0.298333  0.838480  1
  Eu  Eu2  1  0.000000  0.000000  0.000000  1
  Eu  Eu3  1  0.701667  0.701667  0.161520  1
  Eu  Eu4  1  0.373722  0.373722  0.361042  1
  B  B5  1  0.083673  0.083673  0.362713  1
  B  B6  1  0.916327  0.916327  0.637287  1
  N  N7  1  0.022995  0.022995  0.260387  1
  N  N8  1  0.344289  0.344289  0.082843  1
  N  N9  1  0.833332  0.833332  0.568617  1
  N  N10  1  0.977005  0.977005  0.739613  1
  N  N11  1  0.655711  0.655711  0.917157  1
  N  N12  1  0.166668  0.166668  0.431383  1
