# generated using pymatgen
data_EuDyCo9TcP6
_symmetry_space_group_name_H-M   'P 1'
_cell_length_a   3.67920500
_cell_length_b   10.35494200
_cell_length_c   11.81250700
_cell_angle_alpha   90.00000000
_cell_angle_beta   90.00000000
_cell_angle_gamma   90.00000000
_symmetry_Int_Tables_number   1
_chemical_formula_structural   EuDyCo9TcP6
_chemical_formula_sum   'Eu2 Dy2 Co18 Tc2 P12'
_cell_volume   450.03235281
_cell_formula_units_Z   2
loop_
 _symmetry_equiv_pos_site_id
 _symmetry_equiv_pos_as_xyz
  1  'x, y, z'
loop_
 _atom_site_type_symbol
 _atom_site_label
 _atom_site_symmetry_multiplicity
 _atom_site_fract_x
 _atom_site_fract_y
 _atom_site_fract_z
 _atom_site_occupancy
  Eu  Eu0  1  0.250000  0.583025  0.703512  1
  Eu  Eu1  1  0.250000  0.916975  0.203512  1
  Dy  Dy2  1  0.750000  0.415996  0.295845  1
  Dy  Dy3  1  0.750000  0.084004  0.795845  1
  Co  Co4  1  0.750000  0.286589  0.011721  1
  Co  Co5  1  0.750000  0.213411  0.511721  1
  Co  Co6  1  0.250000  0.403674  0.486898  1
  Co  Co7  1  0.250000  0.096326  0.986898  1
  Co  Co8  1  0.750000  0.590804  0.508017  1
  Co  Co9  1  0.750000  0.909196  0.008017  1
  Co  Co10  1  0.250000  0.221257  0.175516  1
  Co  Co11  1  0.250000  0.278743  0.675516  1
  Co  Co12  1  0.750000  0.781351  0.823857  1
  Co  Co13  1  0.750000  0.718649  0.323857  1
  Co  Co14  1  0.250000  0.887759  0.701053  1
  Co  Co15  1  0.250000  0.612241  0.201053  1
  Co  Co16  1  0.750000  0.121109  0.302612  1
  Co  Co17  1  0.750000  0.378891  0.802612  1
  Co  Co18  1  0.250000  0.462605  0.934030  1
  Co  Co19  1  0.250000  0.037395  0.434030  1
  Co  Co20  1  0.750000  0.531464  0.068409  1
  Co  Co21  1  0.750000  0.968536  0.568409  1
  Tc  Tc22  1  0.250000  0.708560  0.988220  1
  Tc  Tc23  1  0.250000  0.791440  0.488220  1
  P  P24  1  0.250000  0.417342  0.112910  1
  P  P25  1  0.250000  0.082658  0.612910  1
  P  P26  1  0.750000  0.578417  0.887343  1
  P  P27  1  0.750000  0.921583  0.387343  1
  P  P28  1  0.250000  0.269903  0.867397  1
  P  P29  1  0.250000  0.230097  0.367397  1
  P  P30  1  0.750000  0.727240  0.133414  1
  P  P31  1  0.750000  0.772760  0.633414  1
  P  P32  1  0.250000  0.596557  0.391361  1
  P  P33  1  0.250000  0.903443  0.891361  1
  P  P34  1  0.750000  0.396268  0.607883  1
  P  P35  1  0.750000  0.103732  0.107883  1
