# generated using pymatgen
data_BBr35
_symmetry_space_group_name_H-M   'P 1'
_cell_length_a   15.58242756
_cell_length_b   11.11527419
_cell_length_c   10.52208600
_cell_angle_alpha   88.81408432
_cell_angle_beta   66.02770569
_cell_angle_gamma   92.31545236
_symmetry_Int_Tables_number   1
_chemical_formula_structural   BBr35
_chemical_formula_sum   'B1 Br35'
_cell_volume   1662.52021473
_cell_formula_units_Z   1
loop_
 _symmetry_equiv_pos_site_id
 _symmetry_equiv_pos_as_xyz
  1  'x, y, z'
loop_
 _atom_site_type_symbol
 _atom_site_label
 _atom_site_symmetry_multiplicity
 _atom_site_fract_x
 _atom_site_fract_y
 _atom_site_fract_z
 _atom_site_occupancy
  B  B0  1  0.173815  0.449894  0.603737  1
  Br  Br1  1  0.505682  0.274127  0.539583  1
  Br  Br2  1  0.770125  0.585750  0.562706  1
  Br  Br3  1  0.473516  0.686875  0.719397  1
  Br  Br4  1  0.060329  0.909907  0.828105  1
  Br  Br5  1  0.886890  0.155590  0.045500  1
  Br  Br6  1  0.643932  0.320960  0.299037  1
  Br  Br7  1  0.612599  0.324046  0.821371  1
  Br  Br8  1  0.333037  0.775212  0.690857  1
  Br  Br9  1  0.395973  0.552786  0.108584  1
  Br  Br10  1  0.646980  0.116952  0.783025  1
  Br  Br11  1  0.932385  0.560919  0.388039  1
  Br  Br12  1  0.065671  0.972571  0.594167  1
  Br  Br13  1  0.918952  0.119807  0.269920  1
  Br  Br14  1  0.855464  0.196390  0.835817  1
  Br  Br15  1  0.642268  0.050944  0.234948  1
  Br  Br16  1  0.040016  0.831682  0.075562  1
  Br  Br17  1  0.351923  0.995128  0.735046  1
  Br  Br18  1  0.924891  0.335728  0.329851  1
  Br  Br19  1  0.881067  0.922871  0.669539  1
  Br  Br20  1  0.922479  0.646162  0.808462  1
  Br  Br21  1  0.322437  0.979768  0.195960  1
  Br  Br22  1  0.354896  0.346795  0.141497  1
  Br  Br23  1  0.605193  0.598994  0.770912  1
  Br  Br24  1  0.129660  0.411753  0.455984  1
  Br  Br25  1  0.710197  0.882004  0.762618  1
  Br  Br26  1  0.879132  0.432659  0.826248  1
  Br  Br27  1  0.492857  0.017902  0.225684  1
  Br  Br28  1  0.127586  0.328629  0.761832  1
  Br  Br29  1  0.681421  0.778010  0.284567  1
  Br  Br30  1  0.861423  0.804755  0.181458  1
  Br  Br31  1  0.373081  0.221266  0.771058  1
  Br  Br32  1  0.315549  0.481894  0.528290  1
  Br  Br33  1  0.657263  0.547627  0.280988  1
  Br  Br34  1  0.135275  0.621453  0.676090  1
  Br  Br35  1  0.316036  0.762190  0.193562  1
