# generated using pymatgen
data_CePr5Nd2(ZnRh)8
_symmetry_space_group_name_H-M   'P 1'
_cell_length_a   4.02849200
_cell_length_b   7.37107145
_cell_length_c   16.64944643
_cell_angle_alpha   89.64456664
_cell_angle_beta   90.00000000
_cell_angle_gamma   90.00000000
_symmetry_Int_Tables_number   1
_chemical_formula_structural   CePr5Nd2(ZnRh)8
_chemical_formula_sum   'Ce1 Pr5 Nd2 Zn8 Rh8'
_cell_volume   494.38418377
_cell_formula_units_Z   1
loop_
 _symmetry_equiv_pos_site_id
 _symmetry_equiv_pos_as_xyz
  1  'x, y, z'
loop_
 _atom_site_type_symbol
 _atom_site_label
 _atom_site_symmetry_multiplicity
 _atom_site_fract_x
 _atom_site_fract_y
 _atom_site_fract_z
 _atom_site_occupancy
  Ce  Ce0  1  0.750000  0.448195  0.216033  1
  Pr  Pr1  1  0.750000  0.951017  0.282144  1
  Pr  Pr2  1  0.750000  0.827070  0.060302  1
  Pr  Pr3  1  0.250000  0.547169  0.783589  1
  Pr  Pr4  1  0.750000  0.333284  0.439133  1
  Pr  Pr5  1  0.250000  0.670390  0.560523  1
  Nd  Nd6  1  0.250000  0.047746  0.716484  1
  Nd  Nd7  1  0.250000  0.169484  0.940413  1
  Zn  Zn8  1  0.250000  0.002073  0.439012  1
  Zn  Zn9  1  0.750000  0.500360  0.940291  1
  Zn  Zn10  1  0.750000  0.003385  0.560348  1
  Zn  Zn11  1  0.250000  0.625756  0.349913  1
  Zn  Zn12  1  0.750000  0.374210  0.650943  1
  Zn  Zn13  1  0.750000  0.877767  0.849505  1
  Zn  Zn14  1  0.250000  0.497123  0.059053  1
  Zn  Zn15  1  0.250000  0.123465  0.151229  1
  Rh  Rh16  1  0.250000  0.244430  0.565604  1
  Rh  Rh17  1  0.750000  0.262282  0.070533  1
  Rh  Rh18  1  0.250000  0.259309  0.304926  1
  Rh  Rh19  1  0.750000  0.252673  0.815133  1
  Rh  Rh20  1  0.250000  0.747440  0.934617  1
  Rh  Rh21  1  0.750000  0.755828  0.686691  1
  Rh  Rh22  1  0.750000  0.762086  0.434676  1
  Rh  Rh23  1  0.250000  0.717458  0.188904  1
