# generated using pymatgen
data_Dy4Tl2Cu4Se9
_symmetry_space_group_name_H-M   'P 1'
_cell_length_a   4.13722358
_cell_length_b   7.50432654
_cell_length_c   15.89234000
_cell_angle_alpha   93.39663931
_cell_angle_beta   97.47907536
_cell_angle_gamma   106.00109605
_symmetry_Int_Tables_number   1
_chemical_formula_structural   Dy4Tl2Cu4Se9
_chemical_formula_sum   'Dy4 Tl2 Cu4 Se9'
_cell_volume   467.91082017
_cell_formula_units_Z   1
loop_
 _symmetry_equiv_pos_site_id
 _symmetry_equiv_pos_as_xyz
  1  'x, y, z'
loop_
 _atom_site_type_symbol
 _atom_site_label
 _atom_site_symmetry_multiplicity
 _atom_site_fract_x
 _atom_site_fract_y
 _atom_site_fract_z
 _atom_site_occupancy
  Dy  Dy0  1  0.401083  0.746110  0.056055  1
  Dy  Dy1  1  0.628957  0.860587  0.397329  1
  Dy  Dy2  1  0.371042  0.139413  0.602671  1
  Dy  Dy3  1  0.598918  0.253891  0.943944  1
  Tl  Tl4  1  0.259016  0.287625  0.230407  1
  Tl  Tl5  1  0.740983  0.712374  0.769593  1
  Cu  Cu6  1  0.984866  0.740459  0.229271  1
  Cu  Cu7  1  0.894975  0.321329  0.468619  1
  Cu  Cu8  1  0.105025  0.678671  0.531381  1
  Cu  Cu9  1  0.015134  0.259540  0.770729  1
  Se  Se10  1  0.000000  0.000000  0.000000  1
  Se  Se11  1  0.803364  0.503069  0.103658  1
  Se  Se12  1  0.574850  0.926627  0.223075  1
  Se  Se13  1  0.980641  0.587921  0.373360  1
  Se  Se14  1  0.286316  0.151099  0.421532  1
  Se  Se15  1  0.713683  0.848900  0.578468  1
  Se  Se16  1  0.019358  0.412078  0.626639  1
  Se  Se17  1  0.425149  0.073372  0.776926  1
  Se  Se18  1  0.196635  0.496930  0.896342  1
