# generated using pymatgen
data_Sr3Ga2Pd7
_symmetry_space_group_name_H-M   'P 1'
_cell_length_a   9.16656875
_cell_length_b   9.16656914
_cell_length_c   9.16656753
_cell_angle_alpha   36.34106031
_cell_angle_beta   36.34105708
_cell_angle_gamma   36.34105361
_symmetry_Int_Tables_number   1
_chemical_formula_structural   Sr3Ga2Pd7
_chemical_formula_sum   'Sr3 Ga2 Pd7'
_cell_volume   242.06692009
_cell_formula_units_Z   1
loop_
 _symmetry_equiv_pos_site_id
 _symmetry_equiv_pos_as_xyz
  1  'x, y, z'
loop_
 _atom_site_type_symbol
 _atom_site_label
 _atom_site_symmetry_multiplicity
 _atom_site_fract_x
 _atom_site_fract_y
 _atom_site_fract_z
 _atom_site_occupancy
  Sr  Sr0  1  0.359067  0.359067  0.359067  1
  Sr  Sr1  1  0.500000  0.500000  0.500000  1
  Sr  Sr2  1  0.640933  0.640933  0.640933  1
  Ga  Ga3  1  0.167639  0.167639  0.167639  1
  Ga  Ga4  1  0.832361  0.832361  0.832361  1
  Pd  Pd5  1  0.000000  0.000000  0.000000  1
  Pd  Pd6  1  0.578320  0.075426  0.075426  1
  Pd  Pd7  1  0.075426  0.578320  0.075426  1
  Pd  Pd8  1  0.924574  0.924574  0.421680  1
  Pd  Pd9  1  0.075426  0.075426  0.578320  1
  Pd  Pd10  1  0.924574  0.421680  0.924574  1
  Pd  Pd11  1  0.421680  0.924574  0.924574  1
