# generated using pymatgen
data_SrLaY2(Ir2O7)2
_symmetry_space_group_name_H-M   'P 1'
_cell_length_a   7.37064520
_cell_length_b   7.37766634
_cell_length_c   7.37064411
_cell_angle_alpha   59.77753252
_cell_angle_beta   59.63366812
_cell_angle_gamma   59.77753411
_symmetry_Int_Tables_number   1
_chemical_formula_structural   SrLaY2(Ir2O7)2
_chemical_formula_sum   'Sr1 La1 Y2 Ir4 O14'
_cell_volume   281.66811390
_cell_formula_units_Z   1
loop_
 _symmetry_equiv_pos_site_id
 _symmetry_equiv_pos_as_xyz
  1  'x, y, z'
loop_
 _atom_site_type_symbol
 _atom_site_label
 _atom_site_symmetry_multiplicity
 _atom_site_fract_x
 _atom_site_fract_y
 _atom_site_fract_z
 _atom_site_occupancy
  Sr  Sr0  1  0.125000  0.625000  0.125000  1
  La  La1  1  0.125000  0.125000  0.125000  1
  Y  Y2  1  0.625000  0.125000  0.125000  1
  Y  Y3  1  0.125000  0.125000  0.625000  1
  Ir  Ir4  1  0.125000  0.625000  0.625000  1
  Ir  Ir5  1  0.625000  0.125000  0.625000  1
  Ir  Ir6  1  0.625000  0.625000  0.125000  1
  Ir  Ir7  1  0.625000  0.625000  0.625000  1
  O  O8  1  0.689561  0.718321  0.296845  1
  O  O9  1  0.294865  0.292502  0.695607  1
  O  O10  1  0.706274  0.292962  0.706274  1
  O  O11  1  0.297453  0.704877  0.297453  1
  O  O12  1  0.296845  0.718321  0.689561  1
  O  O13  1  0.695607  0.292502  0.294865  1
  O  O14  1  0.560439  0.531679  0.953155  1
  O  O15  1  0.955135  0.957498  0.554393  1
  O  O16  1  0.543726  0.957038  0.543726  1
  O  O17  1  0.952547  0.545123  0.952547  1
  O  O18  1  0.953155  0.531679  0.560439  1
  O  O19  1  0.554393  0.957498  0.955135  1
  O  O20  1  0.261216  0.231339  0.261216  1
  O  O21  1  0.988784  0.018661  0.988784  1
