# generated using pymatgen
data_Nd4ReNiRu6
_symmetry_space_group_name_H-M   'P 1'
_cell_length_a   5.33689739
_cell_length_b   5.56524638
_cell_length_c   9.09535900
_cell_angle_alpha   90.00000000
_cell_angle_beta   90.00000000
_cell_angle_gamma   123.72372738
_symmetry_Int_Tables_number   1
_chemical_formula_structural   Nd4ReNiRu6
_chemical_formula_sum   'Nd4 Re1 Ni1 Ru6'
_cell_volume   224.68416900
_cell_formula_units_Z   1
loop_
 _symmetry_equiv_pos_site_id
 _symmetry_equiv_pos_as_xyz
  1  'x, y, z'
loop_
 _atom_site_type_symbol
 _atom_site_label
 _atom_site_symmetry_multiplicity
 _atom_site_fract_x
 _atom_site_fract_y
 _atom_site_fract_z
 _atom_site_occupancy
  Nd  Nd0  1  0.325107  0.660275  0.432063  1
  Nd  Nd1  1  0.662833  0.330147  0.561238  1
  Nd  Nd2  1  0.662833  0.330147  0.938762  1
  Nd  Nd3  1  0.325107  0.660275  0.067937  1
  Re  Re4  1  0.683423  0.840693  0.750000  1
  Ni  Ni5  1  0.831829  0.157161  0.250000  1
  Ru  Ru6  1  0.981238  0.988548  0.499051  1
  Ru  Ru7  1  0.981238  0.988548  0.000949  1
  Ru  Ru8  1  0.828514  0.677999  0.250000  1
  Ru  Ru9  1  0.343338  0.179532  0.250000  1
  Ru  Ru10  1  0.184214  0.836763  0.750000  1
  Ru  Ru11  1  0.190324  0.349913  0.750000  1
