# generated using pymatgen
data_YLuMn2F14
_symmetry_space_group_name_H-M   'P 1'
_cell_length_a   5.38929255
_cell_length_b   8.64269797
_cell_length_c   11.62835344
_cell_angle_alpha   62.48758633
_cell_angle_beta   90.11012851
_cell_angle_gamma   89.96196801
_symmetry_Int_Tables_number   1
_chemical_formula_structural   YLuMn2F14
_chemical_formula_sum   'Y2 Lu2 Mn4 F28'
_cell_volume   480.37210565
_cell_formula_units_Z   2
loop_
 _symmetry_equiv_pos_site_id
 _symmetry_equiv_pos_as_xyz
  1  'x, y, z'
loop_
 _atom_site_type_symbol
 _atom_site_label
 _atom_site_symmetry_multiplicity
 _atom_site_fract_x
 _atom_site_fract_y
 _atom_site_fract_z
 _atom_site_occupancy
  Y  Y0  1  0.761545  0.186121  0.236227  1
  Y  Y1  1  0.238455  0.813879  0.763773  1
  Lu  Lu2  1  0.262885  0.809349  0.263912  1
  Lu  Lu3  1  0.737115  0.190651  0.736088  1
  Mn  Mn4  1  0.759551  0.727530  0.044194  1
  Mn  Mn5  1  0.240449  0.272470  0.955806  1
  Mn  Mn6  1  0.259472  0.276387  0.457797  1
  Mn  Mn7  1  0.740528  0.723613  0.542203  1
  F  F8  1  0.932877  0.705015  0.419525  1
  F  F9  1  0.067123  0.294985  0.580475  1
  F  F10  1  0.431082  0.293955  0.078178  1
  F  F11  1  0.568918  0.706045  0.921822  1
  F  F12  1  0.478017  0.729236  0.134028  1
  F  F13  1  0.521983  0.270764  0.865972  1
  F  F14  1  0.978705  0.273918  0.368344  1
  F  F15  1  0.021295  0.726082  0.631656  1
  F  F16  1  0.951734  0.743931  0.171355  1
  F  F17  1  0.048266  0.256069  0.828645  1
  F  F18  1  0.446565  0.260736  0.329978  1
  F  F19  1  0.553435  0.739264  0.670022  1
  F  F20  1  0.772106  0.487942  0.138876  1
  F  F21  1  0.227894  0.512058  0.861124  1
  F  F22  1  0.272721  0.516789  0.362070  1
  F  F23  1  0.727279  0.483211  0.637930  1
  F  F24  1  0.953282  0.281024  0.039077  1
  F  F25  1  0.046718  0.718976  0.960923  1
  F  F26  1  0.450863  0.719039  0.457064  1
  F  F27  1  0.549137  0.280961  0.542936  1
  F  F28  1  0.740243  0.961872  0.453398  1
  F  F29  1  0.259757  0.038128  0.546602  1
  F  F30  1  0.239675  0.034287  0.047964  1
  F  F31  1  0.760325  0.965713  0.952036  1
  F  F32  1  0.589490  0.963276  0.228279  1
  F  F33  1  0.410510  0.036724  0.771721  1
  F  F34  1  0.099063  0.025110  0.272391  1
  F  F35  1  0.900937  0.974890  0.727609  1
