# generated using pymatgen
data_Nd6Si5GeRh12
_symmetry_space_group_name_H-M   'P 1'
_cell_length_a   5.67619600
_cell_length_b   5.67619606
_cell_length_c   15.22908900
_cell_angle_alpha   90.00000000
_cell_angle_beta   90.00000000
_cell_angle_gamma   119.99999966
_symmetry_Int_Tables_number   1
_chemical_formula_structural   Nd6Si5GeRh12
_chemical_formula_sum   'Nd6 Si5 Ge1 Rh12'
_cell_volume   424.93189394
_cell_formula_units_Z   1
loop_
 _symmetry_equiv_pos_site_id
 _symmetry_equiv_pos_as_xyz
  1  'x, y, z'
loop_
 _atom_site_type_symbol
 _atom_site_label
 _atom_site_symmetry_multiplicity
 _atom_site_fract_x
 _atom_site_fract_y
 _atom_site_fract_z
 _atom_site_occupancy
  Nd  Nd0  1  0.666667  0.333333  0.037478  1
  Nd  Nd1  1  0.666667  0.333333  0.250526  1
  Nd  Nd2  1  0.666667  0.333333  0.462943  1
  Nd  Nd3  1  0.333333  0.666667  0.537057  1
  Nd  Nd4  1  0.333333  0.666667  0.749474  1
  Nd  Nd5  1  0.333333  0.666667  0.962522  1
  Si  Si6  1  0.000000  0.000000  0.251750  1
  Si  Si7  1  0.333333  0.666667  0.251804  1
  Si  Si8  1  0.000000  0.000000  0.500000  1
  Si  Si9  1  0.000000  0.000000  0.748250  1
  Si  Si10  1  0.666667  0.333333  0.748196  1
  Ge  Ge11  1  0.000000  0.000000  0.000000  1
  Rh  Rh12  1  0.165977  0.331954  0.136808  1
  Rh  Rh13  1  0.165977  0.834023  0.136808  1
  Rh  Rh14  1  0.668046  0.834023  0.136808  1
  Rh  Rh15  1  0.165117  0.330233  0.367628  1
  Rh  Rh16  1  0.165117  0.834883  0.367628  1
  Rh  Rh17  1  0.669767  0.834883  0.367628  1
  Rh  Rh18  1  0.330233  0.165117  0.632372  1
  Rh  Rh19  1  0.834883  0.165117  0.632372  1
  Rh  Rh20  1  0.834883  0.669767  0.632372  1
  Rh  Rh21  1  0.331954  0.165977  0.863192  1
  Rh  Rh22  1  0.834023  0.165977  0.863192  1
  Rh  Rh23  1  0.834023  0.668046  0.863192  1
