# generated using pymatgen
data_Ce5Zr2PaO16
_symmetry_space_group_name_H-M   'P 1'
_cell_length_a   7.67618329
_cell_length_b   7.67618432
_cell_length_c   5.42618600
_cell_angle_alpha   90.00000000
_cell_angle_beta   90.00000000
_cell_angle_gamma   89.96722474
_symmetry_Int_Tables_number   1
_chemical_formula_structural   Ce5Zr2PaO16
_chemical_formula_sum   'Ce5 Zr2 Pa1 O16'
_cell_volume   319.73143442
_cell_formula_units_Z   1
loop_
 _symmetry_equiv_pos_site_id
 _symmetry_equiv_pos_as_xyz
  1  'x, y, z'
loop_
 _atom_site_type_symbol
 _atom_site_label
 _atom_site_symmetry_multiplicity
 _atom_site_fract_x
 _atom_site_fract_y
 _atom_site_fract_z
 _atom_site_occupancy
  Ce  Ce0  1  0.500000  0.000000  0.991712  1
  Ce  Ce1  1  0.249384  0.249384  0.500000  1
  Ce  Ce2  1  0.000000  0.500000  0.008288  1
  Ce  Ce3  1  0.750616  0.750616  0.500000  1
  Ce  Ce4  1  0.500000  0.500000  0.000000  1
  Zr  Zr5  1  0.742373  0.257627  0.500000  1
  Zr  Zr6  1  0.257627  0.742373  0.500000  1
  Pa  Pa7  1  0.000000  0.000000  0.000000  1
  O  O8  1  0.971524  0.242532  0.281894  1
  O  O9  1  0.755960  0.973881  0.211664  1
  O  O10  1  0.757468  0.028476  0.718106  1
  O  O11  1  0.026119  0.244040  0.788336  1
  O  O12  1  0.526513  0.245449  0.270507  1
  O  O13  1  0.244040  0.026119  0.211664  1
  O  O14  1  0.242532  0.971524  0.718106  1
  O  O15  1  0.483966  0.250174  0.760046  1
  O  O16  1  0.028476  0.757468  0.281894  1
  O  O17  1  0.749826  0.516034  0.239954  1
  O  O18  1  0.754551  0.473487  0.729493  1
  O  O19  1  0.973881  0.755960  0.788336  1
  O  O20  1  0.473487  0.754551  0.270507  1
  O  O21  1  0.250174  0.483966  0.239954  1
  O  O22  1  0.245449  0.526513  0.729493  1
  O  O23  1  0.516034  0.749826  0.760046  1
