# generated using pymatgen
data_Tb5Bi3O14
_symmetry_space_group_name_H-M   'P 1'
_cell_length_a   6.61622436
_cell_length_b   6.63277163
_cell_length_c   7.77600758
_cell_angle_alpha   106.76645701
_cell_angle_beta   89.64514796
_cell_angle_gamma   98.57324803
_symmetry_Int_Tables_number   1
_chemical_formula_structural   Tb5Bi3O14
_chemical_formula_sum   'Tb5 Bi3 O14'
_cell_volume   322.83972340
_cell_formula_units_Z   1
loop_
 _symmetry_equiv_pos_site_id
 _symmetry_equiv_pos_as_xyz
  1  'x, y, z'
loop_
 _atom_site_type_symbol
 _atom_site_label
 _atom_site_symmetry_multiplicity
 _atom_site_fract_x
 _atom_site_fract_y
 _atom_site_fract_z
 _atom_site_occupancy
  Tb  Tb0  1  0.460684  0.006724  0.253211  1
  Tb  Tb1  1  0.538515  0.998976  0.750702  1
  Tb  Tb2  1  0.271315  0.534927  0.882294  1
  Tb  Tb3  1  0.737451  0.461136  0.113369  1
  Tb  Tb4  1  0.742336  0.477740  0.617677  1
  Bi  Bi5  1  0.993985  0.999757  0.500727  1
  Bi  Bi6  1  0.999286  0.996328  0.997689  1
  Bi  Bi7  1  0.281866  0.532181  0.389034  1
  O  O8  1  0.451933  0.651257  0.166035  1
  O  O9  1  0.556567  0.354021  0.834946  1
  O  O10  1  0.301445  0.919629  0.950432  1
  O  O11  1  0.699167  0.077482  0.050593  1
  O  O12  1  0.296866  0.931253  0.516799  1
  O  O13  1  0.698975  0.086075  0.491933  1
  O  O14  1  0.550169  0.362635  0.343813  1
  O  O15  1  0.460230  0.638818  0.657066  1
  O  O16  1  0.926875  0.662537  0.951835  1
  O  O17  1  0.069996  0.324810  0.027707  1
  O  O18  1  0.066838  0.341226  0.627887  1
  O  O19  1  0.903441  0.664905  0.381132  1
  O  O20  1  0.872084  0.900836  0.725939  1
  O  O21  1  0.119975  0.076747  0.269180  1
