# generated using pymatgen
data_Ho3Zn3Ge2Pd
_symmetry_space_group_name_H-M   'P 1'
_cell_length_a   6.88598300
_cell_length_b   6.88598257
_cell_length_c   4.30142200
_cell_angle_alpha   90.00000000
_cell_angle_beta   90.00000000
_cell_angle_gamma   119.99999726
_symmetry_Int_Tables_number   1
_chemical_formula_structural   Ho3Zn3Ge2Pd
_chemical_formula_sum   'Ho3 Zn3 Ge2 Pd1'
_cell_volume   176.63410452
_cell_formula_units_Z   1
loop_
 _symmetry_equiv_pos_site_id
 _symmetry_equiv_pos_as_xyz
  1  'x, y, z'
loop_
 _atom_site_type_symbol
 _atom_site_label
 _atom_site_symmetry_multiplicity
 _atom_site_fract_x
 _atom_site_fract_y
 _atom_site_fract_z
 _atom_site_occupancy
  Ho  Ho0  1  0.415043  0.415043  0.000000  1
  Ho  Ho1  1  0.584957  0.000000  0.000000  1
  Ho  Ho2  1  0.000000  0.584957  0.000000  1
  Zn  Zn3  1  0.764637  0.764637  0.500000  1
  Zn  Zn4  1  0.235363  0.000000  0.500000  1
  Zn  Zn5  1  0.000000  0.235363  0.500000  1
  Ge  Ge6  1  0.666667  0.333333  0.500000  1
  Ge  Ge7  1  0.333333  0.666667  0.500000  1
  Pd  Pd8  1  0.000000  0.000000  0.000000  1
