# generated using pymatgen
data_Tb3Ce(Tm3Si4)2
_symmetry_space_group_name_H-M   'P 1'
_cell_length_a   7.68012100
_cell_length_b   7.67622102
_cell_length_c   14.05101500
_cell_angle_alpha   90.00000000
_cell_angle_beta   90.00000000
_cell_angle_gamma   90.00449336
_symmetry_Int_Tables_number   1
_chemical_formula_structural   Tb3Ce(Tm3Si4)2
_chemical_formula_sum   'Tb6 Ce2 Tm12 Si16'
_cell_volume   828.36783936
_cell_formula_units_Z   2
loop_
 _symmetry_equiv_pos_site_id
 _symmetry_equiv_pos_as_xyz
  1  'x, y, z'
loop_
 _atom_site_type_symbol
 _atom_site_label
 _atom_site_symmetry_multiplicity
 _atom_site_fract_x
 _atom_site_fract_y
 _atom_site_fract_z
 _atom_site_occupancy
  Tb  Tb0  1  0.145285  0.495033  0.460808  1
  Tb  Tb1  1  0.504596  0.857383  0.040293  1
  Tb  Tb2  1  0.854715  0.504967  0.960808  1
  Tb  Tb3  1  0.495404  0.142617  0.540293  1
  Tb  Tb4  1  0.355974  0.994791  0.790616  1
  Tb  Tb5  1  0.644026  0.005209  0.290616  1
  Ce  Ce6  1  0.993552  0.354331  0.208856  1
  Ce  Ce7  1  0.006448  0.645669  0.708856  1
  Tm  Tm8  1  0.179929  0.179535  0.000458  1
  Tm  Tm9  1  0.820071  0.820465  0.500458  1
  Tm  Tm10  1  0.318871  0.680858  0.250046  1
  Tm  Tm11  1  0.681129  0.319142  0.750046  1
  Tm  Tm12  1  0.142663  0.008168  0.376892  1
  Tm  Tm13  1  0.857337  0.991832  0.876892  1
  Tm  Tm14  1  0.495054  0.642061  0.625897  1
  Tm  Tm15  1  0.358718  0.505563  0.873620  1
  Tm  Tm16  1  0.504946  0.357939  0.125897  1
  Tm  Tm17  1  0.641282  0.494437  0.373620  1
  Tm  Tm18  1  0.007318  0.142245  0.623615  1
  Tm  Tm19  1  0.992682  0.857755  0.123615  1
  Si  Si20  1  0.350449  0.295809  0.315438  1
  Si  Si21  1  0.649551  0.704191  0.815438  1
  Si  Si22  1  0.205776  0.851345  0.564557  1
  Si  Si23  1  0.150735  0.795517  0.934830  1
  Si  Si24  1  0.794224  0.148655  0.064557  1
  Si  Si25  1  0.849265  0.204483  0.434830  1
  Si  Si26  1  0.296182  0.349691  0.683996  1
  Si  Si27  1  0.703818  0.650309  0.183996  1
  Si  Si28  1  0.294828  0.057156  0.188238  1
  Si  Si29  1  0.705172  0.942844  0.688238  1
  Si  Si30  1  0.443588  0.795131  0.437416  1
  Si  Si31  1  0.206217  0.559586  0.061632  1
  Si  Si32  1  0.556412  0.204869  0.937416  1
  Si  Si33  1  0.793783  0.440414  0.561632  1
  Si  Si34  1  0.058289  0.293757  0.812790  1
  Si  Si35  1  0.941711  0.706243  0.312790  1
