# generated using pymatgen
data_La3PrZn2(CoO6)2
_symmetry_space_group_name_H-M   'P 1'
_cell_length_a   5.52080367
_cell_length_b   5.57178557
_cell_length_c   7.80172818
_cell_angle_alpha   90.00200699
_cell_angle_beta   90.23177283
_cell_angle_gamma   90.08602745
_symmetry_Int_Tables_number   1
_chemical_formula_structural   La3PrZn2(CoO6)2
_chemical_formula_sum   'La3 Pr1 Zn2 Co2 O12'
_cell_volume   239.98465289
_cell_formula_units_Z   1
loop_
 _symmetry_equiv_pos_site_id
 _symmetry_equiv_pos_as_xyz
  1  'x, y, z'
loop_
 _atom_site_type_symbol
 _atom_site_label
 _atom_site_symmetry_multiplicity
 _atom_site_fract_x
 _atom_site_fract_y
 _atom_site_fract_z
 _atom_site_occupancy
  La  La0  1  0.009263  0.958449  0.749903  1
  La  La1  1  0.490223  0.458144  0.750165  1
  La  La2  1  0.509774  0.542111  0.249828  1
  Pr  Pr3  1  0.989047  0.045344  0.250066  1
  Zn  Zn4  1  0.499946  0.999808  0.499676  1
  Zn  Zn5  1  0.999958  0.500464  0.000155  1
  Co  Co6  1  0.000249  0.500215  0.499614  1
  Co  Co7  1  0.499721  0.999814  0.000563  1
  O  O8  1  0.728378  0.293331  0.456666  1
  O  O9  1  0.774839  0.795698  0.043498  1
  O  O10  1  0.200974  0.227145  0.541538  1
  O  O11  1  0.299268  0.727577  0.957410  1
  O  O12  1  0.273754  0.704714  0.542256  1
  O  O13  1  0.225833  0.204922  0.958741  1
  O  O14  1  0.799837  0.773898  0.456306  1
  O  O15  1  0.703014  0.270449  0.043657  1
  O  O16  1  0.077802  0.482429  0.260668  1
  O  O17  1  0.418703  0.984827  0.239242  1
  O  O18  1  0.577852  0.015415  0.760871  1
  O  O19  1  0.921566  0.515245  0.739178  1
