# generated using pymatgen
data_Er4Hf2Pb5
_symmetry_space_group_name_H-M   'P 1'
_cell_length_a   6.25113756
_cell_length_b   9.35700747
_cell_length_c   11.47365151
_cell_angle_alpha   114.06423831
_cell_angle_beta   105.80788940
_cell_angle_gamma   90.00000163
_symmetry_Int_Tables_number   1
_chemical_formula_structural   Er4Hf2Pb5
_chemical_formula_sum   'Er8 Hf4 Pb10'
_cell_volume   584.88169237
_cell_formula_units_Z   2
loop_
 _symmetry_equiv_pos_site_id
 _symmetry_equiv_pos_as_xyz
  1  'x, y, z'
loop_
 _atom_site_type_symbol
 _atom_site_label
 _atom_site_symmetry_multiplicity
 _atom_site_fract_x
 _atom_site_fract_y
 _atom_site_fract_z
 _atom_site_occupancy
  Er  Er0  1  0.439025  0.670723  0.878051  1
  Er  Er1  1  0.560975  0.329277  0.121949  1
  Er  Er2  1  0.939025  0.207328  0.878051  1
  Er  Er3  1  0.060975  0.792672  0.121949  1
  Er  Er4  1  0.146601  0.257880  0.293202  1
  Er  Er5  1  0.853399  0.742120  0.706798  1
  Er  Er6  1  0.646601  0.035322  0.293202  1
  Er  Er7  1  0.353399  0.964678  0.706798  1
  Hf  Hf8  1  0.555784  0.305784  0.611568  1
  Hf  Hf9  1  0.444216  0.694216  0.388432  1
  Hf  Hf10  1  0.944216  0.694216  0.388432  1
  Hf  Hf11  1  0.055784  0.305784  0.611568  1
  Pb  Pb12  1  0.290308  0.590426  0.580615  1
  Pb  Pb13  1  0.709692  0.409574  0.419385  1
  Pb  Pb14  1  0.790308  0.990189  0.580615  1
  Pb  Pb15  1  0.209692  0.009811  0.419385  1
  Pb  Pb16  1  0.250000  0.000000  0.000000  1
  Pb  Pb17  1  0.750000  0.000000  0.000000  1
  Pb  Pb18  1  0.076645  0.473332  0.153291  1
  Pb  Pb19  1  0.923355  0.526668  0.846709  1
  Pb  Pb20  1  0.576645  0.679959  0.153291  1
  Pb  Pb21  1  0.423355  0.320041  0.846709  1
