# generated using pymatgen
data_VPd2Cl13
_symmetry_space_group_name_H-M   'P 1'
_cell_length_a   10.94050300
_cell_length_b   9.18262491
_cell_length_c   9.92313434
_cell_angle_alpha   79.36278506
_cell_angle_beta   90.00000000
_cell_angle_gamma   90.00000000
_symmetry_Int_Tables_number   1
_chemical_formula_structural   VPd2Cl13
_chemical_formula_sum   'V2 Pd4 Cl26'
_cell_volume   979.77211159
_cell_formula_units_Z   2
loop_
 _symmetry_equiv_pos_site_id
 _symmetry_equiv_pos_as_xyz
  1  'x, y, z'
loop_
 _atom_site_type_symbol
 _atom_site_label
 _atom_site_symmetry_multiplicity
 _atom_site_fract_x
 _atom_site_fract_y
 _atom_site_fract_z
 _atom_site_occupancy
  V  V0  1  0.250000  0.264095  0.506551  1
  V  V1  1  0.750000  0.735905  0.493449  1
  Pd  Pd2  1  0.250000  0.835289  0.103926  1
  Pd  Pd3  1  0.750000  0.164711  0.896074  1
  Pd  Pd4  1  0.250000  0.674200  0.851324  1
  Pd  Pd5  1  0.750000  0.325800  0.148676  1
  Cl  Cl6  1  0.592068  0.806399  0.582301  1
  Cl  Cl7  1  0.092068  0.193601  0.417699  1
  Cl  Cl8  1  0.750000  0.426068  0.905757  1
  Cl  Cl9  1  0.250000  0.573932  0.094243  1
  Cl  Cl10  1  0.895847  0.155365  0.079574  1
  Cl  Cl11  1  0.395847  0.844635  0.920426  1
  Cl  Cl12  1  0.104153  0.844635  0.920426  1
  Cl  Cl13  1  0.604153  0.155365  0.079574  1
  Cl  Cl14  1  0.750000  0.208885  0.374915  1
  Cl  Cl15  1  0.250000  0.791115  0.625085  1
  Cl  Cl16  1  0.899862  0.485613  0.193662  1
  Cl  Cl17  1  0.399862  0.514387  0.806338  1
  Cl  Cl18  1  0.100138  0.514387  0.806338  1
  Cl  Cl19  1  0.600138  0.485613  0.193662  1
  Cl  Cl20  1  0.750000  0.911472  0.913585  1
  Cl  Cl21  1  0.250000  0.088528  0.086415  1
  Cl  Cl22  1  0.898485  0.189702  0.729029  1
  Cl  Cl23  1  0.398485  0.810298  0.270971  1
  Cl  Cl24  1  0.101515  0.810298  0.270971  1
  Cl  Cl25  1  0.601515  0.189702  0.729029  1
  Cl  Cl26  1  0.750000  0.813610  0.282687  1
  Cl  Cl27  1  0.250000  0.186390  0.717313  1
  Cl  Cl28  1  0.750000  0.505184  0.525354  1
  Cl  Cl29  1  0.250000  0.494816  0.474646  1
  Cl  Cl30  1  0.907932  0.806399  0.582301  1
  Cl  Cl31  1  0.407932  0.193601  0.417699  1
