# generated using pymatgen
data_Li3LaNd2Si3
_symmetry_space_group_name_H-M   'P 1'
_cell_length_a   7.25836900
_cell_length_b   7.30973265
_cell_length_c   4.37939700
_cell_angle_alpha   90.00000000
_cell_angle_beta   90.00000000
_cell_angle_gamma   119.76783249
_symmetry_Int_Tables_number   1
_chemical_formula_structural   Li3LaNd2Si3
_chemical_formula_sum   'Li3 La1 Nd2 Si3'
_cell_volume   201.69575535
_cell_formula_units_Z   1
loop_
 _symmetry_equiv_pos_site_id
 _symmetry_equiv_pos_as_xyz
  1  'x, y, z'
loop_
 _atom_site_type_symbol
 _atom_site_label
 _atom_site_symmetry_multiplicity
 _atom_site_fract_x
 _atom_site_fract_y
 _atom_site_fract_z
 _atom_site_occupancy
  Li  Li0  1  0.769124  0.000000  0.500000  1
  Li  Li1  1  0.231288  0.233158  0.500000  1
  Li  Li2  1  0.998131  0.766842  0.500000  1
  La  La3  1  0.421596  0.000000  0.000000  1
  Nd  Nd4  1  0.000733  0.418659  0.000000  1
  Nd  Nd5  1  0.582074  0.581341  0.000000  1
  Si  Si6  1  0.995670  0.000000  0.000000  1
  Si  Si7  1  0.669845  0.338303  0.500000  1
  Si  Si8  1  0.331542  0.661697  0.500000  1
