# generated using pymatgen
data_Hf2BPtRh5
_symmetry_space_group_name_H-M   'P 1'
_cell_length_a   5.74088813
_cell_length_b   5.71525968
_cell_length_c   5.71525972
_cell_angle_alpha   60.29689726
_cell_angle_beta   59.85155213
_cell_angle_gamma   59.85155756
_symmetry_Int_Tables_number   1
_chemical_formula_structural   Hf2BPtRh5
_chemical_formula_sum   'Hf2 B1 Pt1 Rh5'
_cell_volume   132.59236086
_cell_formula_units_Z   1
loop_
 _symmetry_equiv_pos_site_id
 _symmetry_equiv_pos_as_xyz
  1  'x, y, z'
loop_
 _atom_site_type_symbol
 _atom_site_label
 _atom_site_symmetry_multiplicity
 _atom_site_fract_x
 _atom_site_fract_y
 _atom_site_fract_z
 _atom_site_occupancy
  Hf  Hf0  1  0.250650  0.249352  0.249352  1
  Hf  Hf1  1  0.750649  0.749351  0.749351  1
  B  B2  1  0.494792  0.505208  0.505208  1
  Pt  Pt3  1  0.758437  0.241563  0.241563  1
  Rh  Rh4  1  0.245608  0.754392  0.243359  1
  Rh  Rh5  1  0.756641  0.754392  0.243359  1
  Rh  Rh6  1  0.245608  0.243359  0.754392  1
  Rh  Rh7  1  0.756641  0.243359  0.754392  1
  Rh  Rh8  1  0.240975  0.759025  0.759025  1
