# generated using pymatgen
data_YLu2Hf(Al8Pt3)3
_symmetry_space_group_name_H-M   'P 1'
_cell_length_a   7.51074310
_cell_length_b   7.52070192
_cell_length_c   13.07369235
_cell_angle_alpha   84.54883839
_cell_angle_beta   79.02798298
_cell_angle_gamma   59.89853771
_symmetry_Int_Tables_number   1
_chemical_formula_structural   YLu2Hf(Al8Pt3)3
_chemical_formula_sum   'Y1 Lu2 Hf1 Al24 Pt9'
_cell_volume   627.20994092
_cell_formula_units_Z   1
loop_
 _symmetry_equiv_pos_site_id
 _symmetry_equiv_pos_as_xyz
  1  'x, y, z'
loop_
 _atom_site_type_symbol
 _atom_site_label
 _atom_site_symmetry_multiplicity
 _atom_site_fract_x
 _atom_site_fract_y
 _atom_site_fract_z
 _atom_site_occupancy
  Y  Y0  1  0.606802  0.831916  0.190988  1
  Lu  Lu1  1  0.734307  0.498799  0.806676  1
  Lu  Lu2  1  0.266337  0.500921  0.192768  1
  Hf  Hf3  1  0.393651  0.168328  0.808001  1
  Al  Al4  1  0.681583  0.836253  0.940007  1
  Al  Al5  1  0.316224  0.167352  0.053689  1
  Al  Al6  1  0.146297  0.832694  0.562978  1
  Al  Al7  1  0.852853  0.167146  0.438379  1
  Al  Al8  1  0.479779  0.166823  0.560780  1
  Al  Al9  1  0.519323  0.833756  0.441584  1
  Al  Al10  1  0.217243  0.165756  0.329524  1
  Al  Al11  1  0.778962  0.836478  0.675145  1
  Al  Al12  1  0.435504  0.504493  0.675704  1
  Al  Al13  1  0.562541  0.493617  0.328347  1
  Al  Al14  1  0.110059  0.159816  0.674473  1
  Al  Al15  1  0.890829  0.839600  0.329607  1
  Al  Al16  1  0.355570  0.495804  0.940665  1
  Al  Al17  1  0.647241  0.499811  0.054980  1
  Al  Al18  1  0.019246  0.169313  0.947875  1
  Al  Al19  1  0.985634  0.832252  0.046457  1
  Al  Al20  1  0.186706  0.499308  0.441549  1
  Al  Al21  1  0.813738  0.500279  0.559181  1
  Al  Al22  1  0.733176  0.165280  0.183354  1
  Al  Al23  1  0.267030  0.840524  0.816771  1
  Al  Al24  1  0.065271  0.626218  0.815476  1
  Al  Al25  1  0.940684  0.367952  0.184106  1
  Al  Al26  1  0.849744  0.043121  0.815950  1
  Al  Al27  1  0.144463  0.957374  0.183563  1
  Pt  Pt28  1  0.119512  0.489659  0.640472  1
  Pt  Pt29  1  0.880023  0.508560  0.361035  1
  Pt  Pt30  1  0.657321  0.172011  0.998677  1
  Pt  Pt31  1  0.344040  0.827574  0.999108  1
  Pt  Pt32  1  0.536878  0.167292  0.361564  1
  Pt  Pt33  1  0.463827  0.832559  0.640206  1
  Pt  Pt34  1  0.777038  0.176963  0.638637  1
  Pt  Pt35  1  0.220789  0.824070  0.363054  1
  Pt  Pt36  1  0.999775  0.500325  0.998671  1
