# generated using pymatgen
data_Dy4Hf3Sc3(Si5Ir2)4
_symmetry_space_group_name_H-M   'P 1'
_cell_length_a   12.46607825
_cell_length_b   12.46607809
_cell_length_c   4.14926000
_cell_angle_alpha   90.00000000
_cell_angle_beta   90.00000000
_cell_angle_gamma   89.98115125
_symmetry_Int_Tables_number   1
_chemical_formula_structural   Dy4Hf3Sc3(Si5Ir2)4
_chemical_formula_sum   'Dy4 Hf3 Sc3 Si20 Ir8'
_cell_volume   644.80785243
_cell_formula_units_Z   1
loop_
 _symmetry_equiv_pos_site_id
 _symmetry_equiv_pos_as_xyz
  1  'x, y, z'
loop_
 _atom_site_type_symbol
 _atom_site_label
 _atom_site_symmetry_multiplicity
 _atom_site_fract_x
 _atom_site_fract_y
 _atom_site_fract_z
 _atom_site_occupancy
  Dy  Dy0  1  0.884826  0.383760  0.500000  1
  Dy  Dy1  1  0.116240  0.615174  0.500000  1
  Dy  Dy2  1  0.383386  0.116614  0.500000  1
  Dy  Dy3  1  0.613501  0.886499  0.500000  1
  Hf  Hf4  1  0.674043  0.174759  0.500000  1
  Hf  Hf5  1  0.325241  0.825957  0.500000  1
  Hf  Hf6  1  0.174610  0.325390  0.500000  1
  Sc  Sc7  1  0.500303  0.500826  0.000000  1
  Sc  Sc8  1  0.999174  0.999697  0.000000  1
  Sc  Sc9  1  0.825630  0.674370  0.500000  1
  Si  Si10  1  0.566906  0.067691  0.000000  1
  Si  Si11  1  0.432309  0.933094  0.000000  1
  Si  Si12  1  0.066880  0.433120  0.000000  1
  Si  Si13  1  0.932028  0.567972  0.000000  1
  Si  Si14  1  0.664827  0.700220  0.000000  1
  Si  Si15  1  0.335061  0.300275  0.000000  1
  Si  Si16  1  0.165184  0.799973  0.000000  1
  Si  Si17  1  0.835506  0.199680  0.000000  1
  Si  Si18  1  0.300320  0.664494  0.000000  1
  Si  Si19  1  0.700027  0.334816  0.000000  1
  Si  Si20  1  0.199725  0.164939  0.000000  1
  Si  Si21  1  0.799780  0.835173  0.000000  1
  Si  Si22  1  0.652005  0.505205  0.500000  1
  Si  Si23  1  0.348795  0.489666  0.500000  1
  Si  Si24  1  0.150578  0.990826  0.500000  1
  Si  Si25  1  0.847617  0.007221  0.500000  1
  Si  Si26  1  0.492779  0.652383  0.500000  1
  Si  Si27  1  0.509174  0.349422  0.500000  1
  Si  Si28  1  0.010334  0.151205  0.500000  1
  Si  Si29  1  0.994795  0.847995  0.500000  1
  Ir  Ir30  1  0.743538  0.520748  0.000000  1
  Ir  Ir31  1  0.255881  0.478688  0.000000  1
  Ir  Ir32  1  0.243658  0.978881  0.000000  1
  Ir  Ir33  1  0.755699  0.022043  0.000000  1
  Ir  Ir34  1  0.477957  0.744301  0.000000  1
  Ir  Ir35  1  0.521119  0.256342  0.000000  1
  Ir  Ir36  1  0.021312  0.244119  0.000000  1
  Ir  Ir37  1  0.979252  0.756462  0.000000  1
