# generated using pymatgen
data_Ho4Er16Fe3CoBi8
_symmetry_space_group_name_H-M   'P 1'
_cell_length_a   7.90324441
_cell_length_b   8.88101900
_cell_length_c   12.35210881
_cell_angle_alpha   90.00000000
_cell_angle_beta   90.03916637
_cell_angle_gamma   90.00000000
_symmetry_Int_Tables_number   1
_chemical_formula_structural   Ho4Er16Fe3CoBi8
_chemical_formula_sum   'Ho4 Er16 Fe3 Co1 Bi8'
_cell_volume   866.98027976
_cell_formula_units_Z   1
loop_
 _symmetry_equiv_pos_site_id
 _symmetry_equiv_pos_as_xyz
  1  'x, y, z'
loop_
 _atom_site_type_symbol
 _atom_site_label
 _atom_site_symmetry_multiplicity
 _atom_site_fract_x
 _atom_site_fract_y
 _atom_site_fract_z
 _atom_site_occupancy
  Ho  Ho0  1  0.654458  0.750000  0.701287  1
  Ho  Ho1  1  0.847231  0.750000  0.198140  1
  Ho  Ho2  1  0.119237  0.750000  0.814247  1
  Ho  Ho3  1  0.382044  0.750000  0.316122  1
  Er  Er4  1  0.345067  0.250000  0.300164  1
  Er  Er5  1  0.154793  0.250000  0.797633  1
  Er  Er6  1  0.883074  0.250000  0.185901  1
  Er  Er7  1  0.619771  0.250000  0.685988  1
  Er  Er8  1  0.555343  0.750000  0.995281  1
  Er  Er9  1  0.440848  0.250000  0.005091  1
  Er  Er10  1  0.053677  0.250000  0.504185  1
  Er  Er11  1  0.941410  0.750000  0.495177  1
  Er  Er12  1  0.827942  0.463295  0.936391  1
  Er  Er13  1  0.172830  0.536383  0.063305  1
  Er  Er14  1  0.328269  0.532409  0.563635  1
  Er  Er15  1  0.172830  0.963617  0.063305  1
  Er  Er16  1  0.674451  0.458374  0.435359  1
  Er  Er17  1  0.827942  0.036705  0.936391  1
  Er  Er18  1  0.674451  0.041626  0.435359  1
  Er  Er19  1  0.328269  0.967591  0.563635  1
  Fe  Fe20  1  0.930117  0.750000  0.990536  1
  Fe  Fe21  1  0.069446  0.250000  0.007438  1
  Fe  Fe22  1  0.430490  0.250000  0.508932  1
  Co  Co23  1  0.565229  0.750000  0.494419  1
  Bi  Bi24  1  0.932593  0.006128  0.673016  1
  Bi  Bi25  1  0.067432  0.992322  0.327052  1
  Bi  Bi26  1  0.432951  0.993725  0.827253  1
  Bi  Bi27  1  0.067432  0.507678  0.327052  1
  Bi  Bi28  1  0.567414  0.006928  0.173718  1
  Bi  Bi29  1  0.932593  0.493872  0.673016  1
  Bi  Bi30  1  0.567414  0.493072  0.173718  1
  Bi  Bi31  1  0.432951  0.506275  0.827253  1
