# generated using pymatgen
data_Nb6Ga3PtN2
_symmetry_space_group_name_H-M   'P 1'
_cell_length_a   7.04369998
_cell_length_b   7.06968654
_cell_length_c   7.07430900
_cell_angle_alpha   90.00000000
_cell_angle_beta   90.00000000
_cell_angle_gamma   90.36767933
_symmetry_Int_Tables_number   1
_chemical_formula_structural   Nb6Ga3PtN2
_chemical_formula_sum   'Nb12 Ga6 Pt2 N4'
_cell_volume   352.27034982
_cell_formula_units_Z   2
loop_
 _symmetry_equiv_pos_site_id
 _symmetry_equiv_pos_as_xyz
  1  'x, y, z'
loop_
 _atom_site_type_symbol
 _atom_site_label
 _atom_site_symmetry_multiplicity
 _atom_site_fract_x
 _atom_site_fract_y
 _atom_site_fract_z
 _atom_site_occupancy
  Nb  Nb0  1  0.790804  0.957662  0.377616  1
  Nb  Nb1  1  0.709196  0.042338  0.877616  1
  Nb  Nb2  1  0.208522  0.452257  0.123858  1
  Nb  Nb3  1  0.291478  0.547743  0.623858  1
  Nb  Nb4  1  0.955382  0.381035  0.790463  1
  Nb  Nb5  1  0.042995  0.871418  0.709530  1
  Nb  Nb6  1  0.457005  0.128582  0.209530  1
  Nb  Nb7  1  0.544618  0.618965  0.290463  1
  Nb  Nb8  1  0.380014  0.789166  0.955343  1
  Nb  Nb9  1  0.873975  0.708610  0.043533  1
  Nb  Nb10  1  0.119986  0.210834  0.455343  1
  Nb  Nb11  1  0.626025  0.291390  0.543533  1
  Ga  Ga12  1  0.823055  0.319925  0.177024  1
  Ga  Ga13  1  0.676945  0.680075  0.677024  1
  Ga  Ga14  1  0.564153  0.424538  0.928529  1
  Ga  Ga15  1  0.424127  0.934035  0.568870  1
  Ga  Ga16  1  0.935847  0.575462  0.428529  1
  Ga  Ga17  1  0.075873  0.065965  0.068870  1
  Pt  Pt18  1  0.183450  0.822098  0.316634  1
  Pt  Pt19  1  0.316550  0.177902  0.816634  1
  N  N20  1  0.877760  0.122769  0.629383  1
  N  N21  1  0.622240  0.877231  0.129383  1
  N  N22  1  0.127981  0.625357  0.879216  1
  N  N23  1  0.372019  0.374643  0.379216  1
