# generated using pymatgen
data_AcLaZn2I
_symmetry_space_group_name_H-M   'P 1'
_cell_length_a   4.49195700
_cell_length_b   4.49195699
_cell_length_c   17.25868800
_cell_angle_alpha   90.00000000
_cell_angle_beta   90.00000000
_cell_angle_gamma   120.00002215
_symmetry_Int_Tables_number   1
_chemical_formula_structural   AcLaZn2I
_chemical_formula_sum   'Ac2 La2 Zn4 I2'
_cell_volume   301.58482995
_cell_formula_units_Z   2
loop_
 _symmetry_equiv_pos_site_id
 _symmetry_equiv_pos_as_xyz
  1  'x, y, z'
loop_
 _atom_site_type_symbol
 _atom_site_label
 _atom_site_symmetry_multiplicity
 _atom_site_fract_x
 _atom_site_fract_y
 _atom_site_fract_z
 _atom_site_occupancy
  Ac  Ac0  1  0.000000  0.000000  0.386485  1
  Ac  Ac1  1  0.000000  0.000000  0.886485  1
  La  La2  1  0.000000  0.000000  0.610775  1
  La  La3  1  0.000000  0.000000  0.110775  1
  Zn  Zn4  1  0.666667  0.333333  0.499967  1
  Zn  Zn5  1  0.333333  0.666667  0.999967  1
  Zn  Zn6  1  0.333333  0.666667  0.508349  1
  Zn  Zn7  1  0.666667  0.333333  0.008349  1
  I  I8  1  0.333333  0.666667  0.244424  1
  I  I9  1  0.666667  0.333333  0.744424  1
