# generated using pymatgen
data_TbHo2Tm(Al8Pt3)3
_symmetry_space_group_name_H-M   'P 1'
_cell_length_a   7.52159608
_cell_length_b   7.54497716
_cell_length_c   13.16752505
_cell_angle_alpha   84.58304197
_cell_angle_beta   79.13738605
_cell_angle_gamma   59.97095510
_symmetry_Int_Tables_number   1
_chemical_formula_structural   TbHo2Tm(Al8Pt3)3
_chemical_formula_sum   'Tb1 Ho2 Tm1 Al24 Pt9'
_cell_volume   635.36493084
_cell_formula_units_Z   1
loop_
 _symmetry_equiv_pos_site_id
 _symmetry_equiv_pos_as_xyz
  1  'x, y, z'
loop_
 _atom_site_type_symbol
 _atom_site_label
 _atom_site_symmetry_multiplicity
 _atom_site_fract_x
 _atom_site_fract_y
 _atom_site_fract_z
 _atom_site_occupancy
  Tb  Tb0  1  0.733708  0.498692  0.807809  1
  Ho  Ho1  1  0.393688  0.168560  0.807740  1
  Ho  Ho2  1  0.606405  0.831496  0.192289  1
  Tm  Tm3  1  0.265802  0.501279  0.193007  1
  Al  Al4  1  0.684208  0.834163  0.944482  1
  Al  Al5  1  0.315624  0.166615  0.055871  1
  Al  Al6  1  0.146556  0.832469  0.561533  1
  Al  Al7  1  0.853481  0.167500  0.438378  1
  Al  Al8  1  0.479512  0.166863  0.558650  1
  Al  Al9  1  0.520441  0.833193  0.441278  1
  Al  Al10  1  0.217413  0.165455  0.329265  1
  Al  Al11  1  0.782781  0.835058  0.670318  1
  Al  Al12  1  0.437100  0.506293  0.670480  1
  Al  Al13  1  0.562400  0.493715  0.329142  1
  Al  Al14  1  0.109873  0.159589  0.669354  1
  Al  Al15  1  0.890886  0.839809  0.330182  1
  Al  Al16  1  0.352674  0.499267  0.944807  1
  Al  Al17  1  0.646343  0.500739  0.055964  1
  Al  Al18  1  0.015926  0.167413  0.952780  1
  Al  Al19  1  0.984622  0.831947  0.047622  1
  Al  Al20  1  0.186866  0.499159  0.441237  1
  Al  Al21  1  0.813266  0.500837  0.558496  1
  Al  Al22  1  0.733811  0.164408  0.183415  1
  Al  Al23  1  0.265446  0.836238  0.816579  1
  Al  Al24  1  0.061849  0.631303  0.815460  1
  Al  Al25  1  0.938917  0.368769  0.184525  1
  Al  Al26  1  0.855449  0.041294  0.816043  1
  Al  Al27  1  0.144684  0.957759  0.183945  1
  Pt  Pt28  1  0.120240  0.491580  0.638874  1
  Pt  Pt29  1  0.880427  0.508466  0.360780  1
  Pt  Pt30  1  0.656965  0.171372  0.000041  1
  Pt  Pt31  1  0.342815  0.828667  0.000213  1
  Pt  Pt32  1  0.537458  0.166889  0.360794  1
  Pt  Pt33  1  0.462106  0.833653  0.638847  1
  Pt  Pt34  1  0.778400  0.175092  0.637291  1
  Pt  Pt35  1  0.221809  0.824336  0.362361  1
  Pt  Pt36  1  0.000048  0.500066  0.000146  1
