# generated using pymatgen
data_YbPrURu3
_symmetry_space_group_name_H-M   'P 1'
_cell_length_a   5.19393624
_cell_length_b   5.19393693
_cell_length_c   5.19393600
_cell_angle_alpha   68.76664423
_cell_angle_beta   68.76664126
_cell_angle_gamma   68.76664508
_symmetry_Int_Tables_number   1
_chemical_formula_structural   YbPrURu3
_chemical_formula_sum   'Yb1 Pr1 U1 Ru3'
_cell_volume   117.35657767
_cell_formula_units_Z   1
loop_
 _symmetry_equiv_pos_site_id
 _symmetry_equiv_pos_as_xyz
  1  'x, y, z'
loop_
 _atom_site_type_symbol
 _atom_site_label
 _atom_site_symmetry_multiplicity
 _atom_site_fract_x
 _atom_site_fract_y
 _atom_site_fract_z
 _atom_site_occupancy
  Yb  Yb0  1  0.753353  0.753353  0.753353  1
  Pr  Pr1  1  0.506063  0.506063  0.506063  1
  U  U2  1  0.123355  0.123355  0.123355  1
  Ru  Ru3  1  0.121780  0.121780  0.623667  1
  Ru  Ru4  1  0.121780  0.623667  0.121780  1
  Ru  Ru5  1  0.623667  0.121780  0.121780  1
