# generated using pymatgen
data_Y2Ho2TcB12Os
_symmetry_space_group_name_H-M   'P 1'
_cell_length_a   3.66544800
_cell_length_b   9.14670391
_cell_length_c   11.53779202
_cell_angle_alpha   89.92310284
_cell_angle_beta   90.00000000
_cell_angle_gamma   90.00000000
_symmetry_Int_Tables_number   1
_chemical_formula_structural   Y2Ho2TcB12Os
_chemical_formula_sum   'Y4 Ho4 Tc2 B24 Os2'
_cell_volume   386.82452252
_cell_formula_units_Z   2
loop_
 _symmetry_equiv_pos_site_id
 _symmetry_equiv_pos_as_xyz
  1  'x, y, z'
loop_
 _atom_site_type_symbol
 _atom_site_label
 _atom_site_symmetry_multiplicity
 _atom_site_fract_x
 _atom_site_fract_y
 _atom_site_fract_z
 _atom_site_occupancy
  Y  Y0  1  0.000000  0.324596  0.415376  1
  Y  Y1  1  0.000000  0.675404  0.584624  1
  Y  Y2  1  0.000000  0.820703  0.087324  1
  Y  Y3  1  0.000000  0.179297  0.912676  1
  Ho  Ho4  1  0.000000  0.941593  0.370898  1
  Ho  Ho5  1  0.000000  0.058407  0.629102  1
  Ho  Ho6  1  0.000000  0.443499  0.130002  1
  Ho  Ho7  1  0.000000  0.556501  0.869998  1
  Tc  Tc8  1  0.000000  0.638413  0.320146  1
  Tc  Tc9  1  0.000000  0.361587  0.679854  1
  B  B10  1  0.500000  0.553210  0.432802  1
  B  B11  1  0.500000  0.446790  0.567198  1
  B  B12  1  0.500000  0.053775  0.067129  1
  B  B13  1  0.500000  0.946225  0.932871  1
  B  B14  1  0.500000  0.748366  0.418623  1
  B  B15  1  0.500000  0.251634  0.581377  1
  B  B16  1  0.500000  0.248753  0.081563  1
  B  B17  1  0.500000  0.751247  0.918437  1
  B  B18  1  0.500000  0.791133  0.265482  1
  B  B19  1  0.500000  0.208867  0.734518  1
  B  B20  1  0.500000  0.290395  0.234159  1
  B  B21  1  0.500000  0.709605  0.765841  1
  B  B22  1  0.500000  0.630935  0.185386  1
  B  B23  1  0.500000  0.369065  0.814614  1
  B  B24  1  0.500000  0.130435  0.313853  1
  B  B25  1  0.500000  0.869565  0.686147  1
  B  B26  1  0.500000  0.982831  0.212091  1
  B  B27  1  0.500000  0.017169  0.787909  1
  B  B28  1  0.500000  0.482709  0.287517  1
  B  B29  1  0.500000  0.517291  0.712483  1
  B  B30  1  0.500000  0.602965  0.028350  1
  B  B31  1  0.500000  0.397035  0.971650  1
  B  B32  1  0.500000  0.102977  0.471160  1
  B  B33  1  0.500000  0.897023  0.528840  1
  Os  Os34  1  0.000000  0.137391  0.178336  1
  Os  Os35  1  0.000000  0.862609  0.821664  1
