# generated using pymatgen
data_Y2Hf3Si4
_symmetry_space_group_name_H-M   'P 1'
_cell_length_a   7.28236600
_cell_length_b   7.28236600
_cell_length_c   13.37782200
_cell_angle_alpha   90.00000000
_cell_angle_beta   90.00000000
_cell_angle_gamma   90.00000000
_symmetry_Int_Tables_number   1
_chemical_formula_structural   Y2Hf3Si4
_chemical_formula_sum   'Y8 Hf12 Si16'
_cell_volume   709.46408843
_cell_formula_units_Z   4
loop_
 _symmetry_equiv_pos_site_id
 _symmetry_equiv_pos_as_xyz
  1  'x, y, z'
loop_
 _atom_site_type_symbol
 _atom_site_label
 _atom_site_symmetry_multiplicity
 _atom_site_fract_x
 _atom_site_fract_y
 _atom_site_fract_z
 _atom_site_occupancy
  Y  Y0  1  0.495489  0.153911  0.534754  1
  Y  Y1  1  0.504511  0.846089  0.034754  1
  Y  Y2  1  0.653911  0.004511  0.284754  1
  Y  Y3  1  0.346089  0.995489  0.784754  1
  Y  Y4  1  0.846089  0.504511  0.965246  1
  Y  Y5  1  0.153911  0.495489  0.465246  1
  Y  Y6  1  0.004511  0.653911  0.715246  1
  Y  Y7  1  0.995489  0.346089  0.215246  1
  Hf  Hf8  1  0.676170  0.323830  0.750000  1
  Hf  Hf9  1  0.323830  0.676170  0.250000  1
  Hf  Hf10  1  0.823830  0.823830  0.500000  1
  Hf  Hf11  1  0.176170  0.176170  0.000000  1
  Hf  Hf12  1  0.495720  0.352672  0.125095  1
  Hf  Hf13  1  0.504280  0.647328  0.625095  1
  Hf  Hf14  1  0.852672  0.004280  0.875095  1
  Hf  Hf15  1  0.147328  0.995720  0.375095  1
  Hf  Hf16  1  0.647328  0.504280  0.374905  1
  Hf  Hf17  1  0.352672  0.495720  0.874905  1
  Hf  Hf18  1  0.004280  0.852672  0.124905  1
  Hf  Hf19  1  0.995720  0.147328  0.624905  1
  Si  Si20  1  0.795560  0.139878  0.067496  1
  Si  Si21  1  0.204440  0.860122  0.567496  1
  Si  Si22  1  0.639878  0.704440  0.817496  1
  Si  Si23  1  0.360122  0.295560  0.317496  1
  Si  Si24  1  0.860122  0.204440  0.432504  1
  Si  Si25  1  0.139878  0.795560  0.932504  1
  Si  Si26  1  0.704440  0.639878  0.182504  1
  Si  Si27  1  0.295560  0.360122  0.682504  1
  Si  Si28  1  0.551053  0.206472  0.936119  1
  Si  Si29  1  0.448947  0.793528  0.436119  1
  Si  Si30  1  0.706472  0.948947  0.686119  1
  Si  Si31  1  0.293528  0.051053  0.186119  1
  Si  Si32  1  0.793528  0.448947  0.563881  1
  Si  Si33  1  0.206472  0.551053  0.063881  1
  Si  Si34  1  0.948947  0.706472  0.313881  1
  Si  Si35  1  0.051053  0.293528  0.813881  1
