# generated using pymatgen
data_Eu2Ho2LuSi4
_symmetry_space_group_name_H-M   'P 1'
_cell_length_a   7.47275600
_cell_length_b   7.78576300
_cell_length_c   14.80038200
_cell_angle_alpha   90.00000000
_cell_angle_beta   90.00000000
_cell_angle_gamma   90.00000000
_symmetry_Int_Tables_number   1
_chemical_formula_structural   Eu2Ho2LuSi4
_chemical_formula_sum   'Eu8 Ho8 Lu4 Si16'
_cell_volume   861.10261134
_cell_formula_units_Z   4
loop_
 _symmetry_equiv_pos_site_id
 _symmetry_equiv_pos_as_xyz
  1  'x, y, z'
loop_
 _atom_site_type_symbol
 _atom_site_label
 _atom_site_symmetry_multiplicity
 _atom_site_fract_x
 _atom_site_fract_y
 _atom_site_fract_z
 _atom_site_occupancy
  Eu  Eu0  1  0.976930  0.822164  0.097000  1
  Eu  Eu1  1  0.476930  0.677836  0.403000  1
  Eu  Eu2  1  0.523070  0.322164  0.903000  1
  Eu  Eu3  1  0.023070  0.177836  0.597000  1
  Eu  Eu4  1  0.023070  0.177836  0.903000  1
  Eu  Eu5  1  0.523070  0.322164  0.597000  1
  Eu  Eu6  1  0.476930  0.677836  0.097000  1
  Eu  Eu7  1  0.976930  0.822164  0.403000  1
  Ho  Ho8  1  0.682660  0.823187  0.877739  1
  Ho  Ho9  1  0.182660  0.676813  0.622261  1
  Ho  Ho10  1  0.817340  0.323187  0.122261  1
  Ho  Ho11  1  0.317340  0.176813  0.377739  1
  Ho  Ho12  1  0.317340  0.176813  0.122261  1
  Ho  Ho13  1  0.817340  0.323187  0.377739  1
  Ho  Ho14  1  0.182660  0.676813  0.877739  1
  Ho  Ho15  1  0.682660  0.823187  0.622261  1
  Lu  Lu16  1  0.649866  0.985235  0.250000  1
  Lu  Lu17  1  0.149866  0.514765  0.250000  1
  Lu  Lu18  1  0.850134  0.485235  0.750000  1
  Lu  Lu19  1  0.350134  0.014765  0.750000  1
  Si  Si20  1  0.766282  0.615991  0.250000  1
  Si  Si21  1  0.266282  0.884009  0.250000  1
  Si  Si22  1  0.733718  0.115991  0.750000  1
  Si  Si23  1  0.233718  0.384009  0.750000  1
  Si  Si24  1  0.023481  0.112227  0.250000  1
  Si  Si25  1  0.523481  0.387773  0.250000  1
  Si  Si26  1  0.476519  0.612227  0.750000  1
  Si  Si27  1  0.976519  0.887773  0.750000  1
  Si  Si28  1  0.857678  0.531595  0.959293  1
  Si  Si29  1  0.357678  0.968405  0.540707  1
  Si  Si30  1  0.642322  0.031595  0.040707  1
  Si  Si31  1  0.142322  0.468405  0.459293  1
  Si  Si32  1  0.142322  0.468405  0.040707  1
  Si  Si33  1  0.642322  0.031595  0.459293  1
  Si  Si34  1  0.357678  0.968405  0.959293  1
  Si  Si35  1  0.857678  0.531595  0.540707  1
