# generated using pymatgen
data_Cd2In5B4Rh13
_symmetry_space_group_name_H-M   'P 1'
_cell_length_a   4.16053400
_cell_length_b   4.16053400
_cell_length_c   20.55801300
_cell_angle_alpha   90.00000000
_cell_angle_beta   90.00000000
_cell_angle_gamma   90.00000000
_symmetry_Int_Tables_number   1
_chemical_formula_structural   Cd2In5B4Rh13
_chemical_formula_sum   'Cd2 In5 B4 Rh13'
_cell_volume   355.86009242
_cell_formula_units_Z   1
loop_
 _symmetry_equiv_pos_site_id
 _symmetry_equiv_pos_as_xyz
  1  'x, y, z'
loop_
 _atom_site_type_symbol
 _atom_site_label
 _atom_site_symmetry_multiplicity
 _atom_site_fract_x
 _atom_site_fract_y
 _atom_site_fract_z
 _atom_site_occupancy
  Cd  Cd0  1  0.500000  0.000000  0.000000  1
  Cd  Cd1  1  0.000000  0.500000  0.000000  1
  In  In2  1  0.000000  0.000000  0.884952  1
  In  In3  1  0.000000  0.000000  0.115048  1
  In  In4  1  0.000000  0.000000  0.303635  1
  In  In5  1  0.000000  0.000000  0.500000  1
  In  In6  1  0.000000  0.000000  0.696365  1
  B  B7  1  0.500000  0.500000  0.193689  1
  B  B8  1  0.500000  0.500000  0.398902  1
  B  B9  1  0.500000  0.500000  0.601098  1
  B  B10  1  0.500000  0.500000  0.806311  1
  Rh  Rh11  1  0.500000  0.500000  0.906157  1
  Rh  Rh12  1  0.500000  0.500000  0.093843  1
  Rh  Rh13  1  0.500000  0.500000  0.299216  1
  Rh  Rh14  1  0.500000  0.500000  0.500000  1
  Rh  Rh15  1  0.500000  0.500000  0.700784  1
  Rh  Rh16  1  0.500000  0.000000  0.203430  1
  Rh  Rh17  1  0.500000  0.000000  0.400664  1
  Rh  Rh18  1  0.500000  0.000000  0.599336  1
  Rh  Rh19  1  0.500000  0.000000  0.796570  1
  Rh  Rh20  1  0.000000  0.500000  0.203430  1
  Rh  Rh21  1  0.000000  0.500000  0.400664  1
  Rh  Rh22  1  0.000000  0.500000  0.599336  1
  Rh  Rh23  1  0.000000  0.500000  0.796570  1
