# generated using pymatgen
data_TbThZn14Co3
_symmetry_space_group_name_H-M   'P 1'
_cell_length_a   6.70955120
_cell_length_b   6.70955091
_cell_length_c   6.70955039
_cell_angle_alpha   82.72608236
_cell_angle_beta   97.27380367
_cell_angle_gamma   97.27385846
_symmetry_Int_Tables_number   1
_chemical_formula_structural   TbThZn14Co3
_chemical_formula_sum   'Tb1 Th1 Zn14 Co3'
_cell_volume   295.32615132
_cell_formula_units_Z   1
loop_
 _symmetry_equiv_pos_site_id
 _symmetry_equiv_pos_as_xyz
  1  'x, y, z'
loop_
 _atom_site_type_symbol
 _atom_site_label
 _atom_site_symmetry_multiplicity
 _atom_site_fract_x
 _atom_site_fract_y
 _atom_site_fract_z
 _atom_site_occupancy
  Tb  Tb0  1  0.335545  0.664454  0.664454  1
  Th  Th1  1  0.666210  0.333789  0.333790  1
  Zn  Zn2  1  0.289182  0.291860  0.998923  1
  Zn  Zn3  1  0.708140  0.710818  0.998923  1
  Zn  Zn4  1  0.898392  0.101606  0.101607  1
  Zn  Zn5  1  0.344861  0.655140  0.143360  1
  Zn  Zn6  1  0.001077  0.710818  0.291859  1
  Zn  Zn7  1  0.289182  0.998923  0.291860  1
  Zn  Zn8  1  0.652396  0.848919  0.347603  1
  Zn  Zn9  1  0.151081  0.347604  0.347605  1
  Zn  Zn10  1  0.856640  0.655140  0.655139  1
  Zn  Zn11  1  0.344860  0.143359  0.655140  1
  Zn  Zn12  1  0.001077  0.291860  0.710817  1
  Zn  Zn13  1  0.708140  0.998923  0.710818  1
  Zn  Zn14  1  0.652396  0.347604  0.848919  1
  Zn  Zn15  1  0.106737  0.893263  0.893262  1
  Co  Co16  1  0.501610  0.003764  0.003764  1
  Co  Co17  1  0.996236  0.498389  0.003764  1
  Co  Co18  1  0.996236  0.003764  0.498390  1
