# generated using pymatgen
data_TbY2In3Pd2Au
_symmetry_space_group_name_H-M   'P 1'
_cell_length_a   7.87349102
_cell_length_b   7.87565667
_cell_length_c   3.77881400
_cell_angle_alpha   90.00000000
_cell_angle_beta   90.00000000
_cell_angle_gamma   119.99950975
_symmetry_Int_Tables_number   1
_chemical_formula_structural   TbY2In3Pd2Au
_chemical_formula_sum   'Tb1 Y2 In3 Pd2 Au1'
_cell_volume   202.92820078
_cell_formula_units_Z   1
loop_
 _symmetry_equiv_pos_site_id
 _symmetry_equiv_pos_as_xyz
  1  'x, y, z'
loop_
 _atom_site_type_symbol
 _atom_site_label
 _atom_site_symmetry_multiplicity
 _atom_site_fract_x
 _atom_site_fract_y
 _atom_site_fract_z
 _atom_site_occupancy
  Tb  Tb0  1  0.008856  0.598235  0.500000  1
  Y  Y1  1  0.589610  0.991246  0.500000  1
  Y  Y2  1  0.401672  0.410453  0.500000  1
  In  In3  1  0.737631  0.740803  0.000000  1
  In  In4  1  0.259288  0.997041  0.000000  1
  In  In5  1  0.003073  0.262050  0.000000  1
  Pd  Pd6  1  0.999984  0.000015  0.500000  1
  Pd  Pd7  1  0.333171  0.666718  0.000000  1
  Au  Au8  1  0.666712  0.333440  0.000000  1
