# generated using pymatgen
data_Sr2UAs3
_symmetry_space_group_name_H-M   'P 1'
_cell_length_a   7.56554046
_cell_length_b   7.56554019
_cell_length_c   7.56554057
_cell_angle_alpha   146.71554140
_cell_angle_beta   133.04306259
_cell_angle_gamma   58.76804095
_symmetry_Int_Tables_number   1
_chemical_formula_structural   Sr2UAs3
_chemical_formula_sum   'Sr2 U1 As3'
_cell_volume   172.21137051
_cell_formula_units_Z   1
loop_
 _symmetry_equiv_pos_site_id
 _symmetry_equiv_pos_as_xyz
  1  'x, y, z'
loop_
 _atom_site_type_symbol
 _atom_site_label
 _atom_site_symmetry_multiplicity
 _atom_site_fract_x
 _atom_site_fract_y
 _atom_site_fract_z
 _atom_site_occupancy
  Sr  Sr0  1  0.670515  0.670515  0.000000  1
  Sr  Sr1  1  0.329485  0.329485  0.000000  1
  U  U2  1  0.000000  0.000000  0.000000  1
  As  As3  1  0.500000  0.000000  0.500000  1
  As  As4  1  0.139732  0.639732  0.500000  1
  As  As5  1  0.860268  0.360268  0.500000  1
