# generated using pymatgen
data_Pr6IrI10
_symmetry_space_group_name_H-M   'P 1'
_cell_length_a   8.05164033
_cell_length_b   10.05163298
_cell_length_c   10.10185542
_cell_angle_alpha   107.50174424
_cell_angle_beta   105.15640102
_cell_angle_gamma   97.04384030
_symmetry_Int_Tables_number   1
_chemical_formula_structural   Pr6IrI10
_chemical_formula_sum   'Pr6 Ir1 I10'
_cell_volume   734.38880578
_cell_formula_units_Z   1
loop_
 _symmetry_equiv_pos_site_id
 _symmetry_equiv_pos_as_xyz
  1  'x, y, z'
loop_
 _atom_site_type_symbol
 _atom_site_label
 _atom_site_symmetry_multiplicity
 _atom_site_fract_x
 _atom_site_fract_y
 _atom_site_fract_z
 _atom_site_occupancy
  Pr  Pr0  1  0.644801  0.828949  0.870880  1
  Pr  Pr1  1  0.355199  0.171051  0.129120  1
  Pr  Pr2  1  0.029791  0.911161  0.707687  1
  Pr  Pr3  1  0.970209  0.088839  0.292313  1
  Pr  Pr4  1  0.115475  0.760367  0.041158  1
  Pr  Pr5  1  0.884525  0.239633  0.958842  1
  Ir  Ir6  1  0.000000  0.000000  0.000000  1
  I  I7  1  0.642543  0.726365  0.544207  1
  I  I8  1  0.357457  0.273635  0.455793  1
  I  I9  1  0.212760  0.648718  0.739416  1
  I  I10  1  0.787240  0.351282  0.260584  1
  I  I11  1  0.453492  0.091860  0.816977  1
  I  I12  1  0.546508  0.908140  0.183023  1
  I  I13  1  0.261035  0.461903  0.088235  1
  I  I14  1  0.738965  0.538097  0.911765  1
  I  I15  1  0.086348  0.818397  0.369209  1
  I  I16  1  0.913652  0.181603  0.630791  1
