# generated using pymatgen
data_PaH5Ru
_symmetry_space_group_name_H-M   'P 1'
_cell_length_a   4.51679200
_cell_length_b   4.53781300
_cell_length_c   11.35599500
_cell_angle_alpha   90.00000000
_cell_angle_beta   90.00000000
_cell_angle_gamma   90.00000000
_symmetry_Int_Tables_number   1
_chemical_formula_structural   PaH5Ru
_chemical_formula_sum   'Pa4 H20 Ru4'
_cell_volume   232.75653279
_cell_formula_units_Z   4
loop_
 _symmetry_equiv_pos_site_id
 _symmetry_equiv_pos_as_xyz
  1  'x, y, z'
loop_
 _atom_site_type_symbol
 _atom_site_label
 _atom_site_symmetry_multiplicity
 _atom_site_fract_x
 _atom_site_fract_y
 _atom_site_fract_z
 _atom_site_occupancy
  Pa  Pa0  1  0.748612  0.250762  0.142325  1
  Pa  Pa1  1  0.248612  0.249238  0.857675  1
  Pa  Pa2  1  0.251388  0.750762  0.357675  1
  Pa  Pa3  1  0.751388  0.749238  0.642325  1
  H  H4  1  0.008779  0.491760  0.003917  1
  H  H5  1  0.306897  0.975394  0.684971  1
  H  H6  1  0.007186  0.006101  0.003984  1
  H  H7  1  0.689414  0.019217  0.814669  1
  H  H8  1  0.397741  0.250692  0.319840  1
  H  H9  1  0.810586  0.980783  0.314669  1
  H  H10  1  0.507186  0.493899  0.996016  1
  H  H11  1  0.310586  0.519217  0.685331  1
  H  H12  1  0.806897  0.524606  0.315029  1
  H  H13  1  0.491221  0.508240  0.503917  1
  H  H14  1  0.992814  0.506101  0.496016  1
  H  H15  1  0.991221  0.991760  0.496083  1
  H  H16  1  0.602259  0.750692  0.180160  1
  H  H17  1  0.897741  0.249308  0.680160  1
  H  H18  1  0.102259  0.749308  0.819840  1
  H  H19  1  0.193103  0.024606  0.184971  1
  H  H20  1  0.508779  0.008240  0.996083  1
  H  H21  1  0.693103  0.475394  0.815029  1
  H  H22  1  0.492814  0.993899  0.503984  1
  H  H23  1  0.189414  0.480783  0.185331  1
  Ru  Ru24  1  0.192708  0.248559  0.587063  1
  Ru  Ru25  1  0.307292  0.751441  0.087063  1
  Ru  Ru26  1  0.807292  0.748559  0.912937  1
  Ru  Ru27  1  0.692708  0.251441  0.412937  1
