# generated using pymatgen
data_Ti(TcI3)2
_symmetry_space_group_name_H-M   'P 1'
_cell_length_a   10.59758186
_cell_length_b   10.59758187
_cell_length_c   12.79969300
_cell_angle_alpha   90.00000000
_cell_angle_beta   90.00000000
_cell_angle_gamma   105.83692039
_symmetry_Int_Tables_number   1
_chemical_formula_structural   Ti(TcI3)2
_chemical_formula_sum   'Ti4 Tc8 I24'
_cell_volume   1382.95261472
_cell_formula_units_Z   4
loop_
 _symmetry_equiv_pos_site_id
 _symmetry_equiv_pos_as_xyz
  1  'x, y, z'
loop_
 _atom_site_type_symbol
 _atom_site_label
 _atom_site_symmetry_multiplicity
 _atom_site_fract_x
 _atom_site_fract_y
 _atom_site_fract_z
 _atom_site_occupancy
  Ti  Ti0  1  0.610785  0.389215  0.500000  1
  Ti  Ti1  1  0.889215  0.110785  0.000000  1
  Ti  Ti2  1  0.389215  0.610785  0.500000  1
  Ti  Ti3  1  0.110785  0.889215  0.000000  1
  Tc  Tc4  1  0.633299  0.633299  0.429265  1
  Tc  Tc5  1  0.366701  0.366701  0.570735  1
  Tc  Tc6  1  0.866701  0.866701  0.929265  1
  Tc  Tc7  1  0.133299  0.133299  0.070735  1
  Tc  Tc8  1  0.570872  0.570872  0.633323  1
  Tc  Tc9  1  0.429128  0.429128  0.366677  1
  Tc  Tc10  1  0.929128  0.929128  0.133323  1
  Tc  Tc11  1  0.070872  0.070872  0.866677  1
  I  I12  1  0.820780  0.599992  0.565131  1
  I  I13  1  0.400008  0.179220  0.434869  1
  I  I14  1  0.679220  0.900008  0.065131  1
  I  I15  1  0.099992  0.320780  0.934869  1
  I  I16  1  0.179220  0.400008  0.434869  1
  I  I17  1  0.599992  0.820780  0.565131  1
  I  I18  1  0.320780  0.099992  0.934869  1
  I  I19  1  0.900008  0.679220  0.065131  1
  I  I20  1  0.675112  0.454447  0.289312  1
  I  I21  1  0.545553  0.324888  0.710688  1
  I  I22  1  0.824888  0.045553  0.789312  1
  I  I23  1  0.954447  0.175112  0.210688  1
  I  I24  1  0.324888  0.545553  0.710688  1
  I  I25  1  0.454447  0.675112  0.289312  1
  I  I26  1  0.175112  0.954447  0.210688  1
  I  I27  1  0.045553  0.824888  0.789312  1
  I  I28  1  0.658069  0.658069  0.841953  1
  I  I29  1  0.341931  0.341931  0.158047  1
  I  I30  1  0.841931  0.841931  0.341953  1
  I  I31  1  0.158069  0.158069  0.658047  1
  I  I32  1  0.778306  0.221694  0.500000  1
  I  I33  1  0.721694  0.278306  0.000000  1
  I  I34  1  0.221694  0.778306  0.500000  1
  I  I35  1  0.278306  0.721694  0.000000  1
