# generated using pymatgen
data_Tm2Be23Cu3
_symmetry_space_group_name_H-M   'P 1'
_cell_length_a   7.24552300
_cell_length_b   7.24552318
_cell_length_c   7.30903136
_cell_angle_alpha   119.71298735
_cell_angle_beta   90.00000000
_cell_angle_gamma   120.00000372
_symmetry_Int_Tables_number   1
_chemical_formula_structural   Tm2Be23Cu3
_chemical_formula_sum   'Tm2 Be23 Cu3'
_cell_volume   272.49264683
_cell_formula_units_Z   1
loop_
 _symmetry_equiv_pos_site_id
 _symmetry_equiv_pos_as_xyz
  1  'x, y, z'
loop_
 _atom_site_type_symbol
 _atom_site_label
 _atom_site_symmetry_multiplicity
 _atom_site_fract_x
 _atom_site_fract_y
 _atom_site_fract_z
 _atom_site_occupancy
  Tm  Tm0  1  0.752449  0.504897  0.257346  1
  Tm  Tm1  1  0.248970  0.497939  0.746909  1
  Be  Be2  1  0.999497  0.998994  0.998491  1
  Be  Be3  1  0.434903  0.004552  0.220641  1
  Be  Be4  1  0.216089  0.650991  0.220641  1
  Be  Be5  1  0.569649  0.785739  0.220642  1
  Be  Be6  1  0.936942  0.005075  0.297058  1
  Be  Be7  1  0.291984  0.228926  0.297058  1
  Be  Be8  1  0.068132  0.360115  0.297058  1
  Be  Be9  1  0.210551  0.999701  0.437535  1
  Be  Be10  1  0.437835  0.648385  0.437535  1
  Be  Be11  1  0.789150  0.226985  0.437535  1
  Be  Be12  1  0.500475  0.000950  0.501425  1
  Be  Be13  1  0.790270  0.001135  0.565551  1
  Be  Be14  1  0.564417  0.354687  0.565552  1
  Be  Be15  1  0.210865  0.775283  0.565552  1
  Be  Be16  1  0.934718  0.641722  0.702268  1
  Be  Be17  1  0.060546  0.995265  0.702269  1
  Be  Be18  1  0.707004  0.767551  0.702269  1
  Be  Be19  1  0.563863  0.996577  0.780506  1
  Be  Be20  1  0.432713  0.216642  0.780506  1
  Be  Be21  1  0.783929  0.347792  0.780506  1
  Be  Be22  1  0.298886  0.995121  0.935153  1
  Be  Be23  1  0.696234  0.636268  0.935153  1
  Be  Be24  1  0.940033  0.238918  0.935154  1
  Cu  Cu25  1  0.304357  0.359975  0.059894  1
  Cu  Cu26  1  0.699919  0.004276  0.059895  1
  Cu  Cu27  1  0.055619  0.755539  0.059895  1
