# generated using pymatgen
data_TbDy(Tm2Os)2
_symmetry_space_group_name_H-M   'P 1'
_cell_length_a   7.37778931
_cell_length_b   8.92142100
_cell_length_c   6.27560428
_cell_angle_alpha   90.00000000
_cell_angle_beta   89.99252874
_cell_angle_gamma   90.00000000
_symmetry_Int_Tables_number   1
_chemical_formula_structural   TbDy(Tm2Os)2
_chemical_formula_sum   'Tb2 Dy2 Tm8 Os4'
_cell_volume   413.06255749
_cell_formula_units_Z   2
loop_
 _symmetry_equiv_pos_site_id
 _symmetry_equiv_pos_as_xyz
  1  'x, y, z'
loop_
 _atom_site_type_symbol
 _atom_site_label
 _atom_site_symmetry_multiplicity
 _atom_site_fract_x
 _atom_site_fract_y
 _atom_site_fract_z
 _atom_site_occupancy
  Tb  Tb0  1  0.460149  0.750000  0.128974  1
  Tb  Tb1  1  0.539851  0.250000  0.871026  1
  Dy  Dy2  1  0.039033  0.250000  0.628734  1
  Dy  Dy3  1  0.960967  0.750000  0.371266  1
  Tm  Tm4  1  0.174922  0.063108  0.165329  1
  Tm  Tm5  1  0.825078  0.936892  0.834671  1
  Tm  Tm6  1  0.326285  0.937156  0.666464  1
  Tm  Tm7  1  0.825078  0.563108  0.834671  1
  Tm  Tm8  1  0.673715  0.062844  0.333536  1
  Tm  Tm9  1  0.174922  0.436892  0.165329  1
  Tm  Tm10  1  0.673715  0.437156  0.333536  1
  Tm  Tm11  1  0.326285  0.562844  0.666464  1
  Os  Os12  1  0.382168  0.250000  0.458582  1
  Os  Os13  1  0.617832  0.750000  0.541418  1
  Os  Os14  1  0.116943  0.750000  0.958116  1
  Os  Os15  1  0.883057  0.250000  0.041884  1
