# generated using pymatgen
data_Er2Zr5PtF30
_symmetry_space_group_name_H-M   'P 1'
_cell_length_a   8.16797702
_cell_length_b   8.16797766
_cell_length_c   8.16403609
_cell_angle_alpha   79.67417518
_cell_angle_beta   79.67416746
_cell_angle_gamma   100.02816139
_symmetry_Int_Tables_number   1
_chemical_formula_structural   Er2Zr5PtF30
_chemical_formula_sum   'Er2 Zr5 Pt1 F30'
_cell_volume   515.06104867
_cell_formula_units_Z   1
loop_
 _symmetry_equiv_pos_site_id
 _symmetry_equiv_pos_as_xyz
  1  'x, y, z'
loop_
 _atom_site_type_symbol
 _atom_site_label
 _atom_site_symmetry_multiplicity
 _atom_site_fract_x
 _atom_site_fract_y
 _atom_site_fract_z
 _atom_site_occupancy
  Er  Er0  1  0.177406  0.822594  0.250000  1
  Er  Er1  1  0.822290  0.177710  0.750000  1
  Zr  Zr2  1  0.248070  0.751930  0.750000  1
  Zr  Zr3  1  0.748081  0.678226  0.673767  1
  Zr  Zr4  1  0.321774  0.251919  0.826233  1
  Zr  Zr5  1  0.252837  0.322929  0.327549  1
  Zr  Zr6  1  0.677071  0.747163  0.172451  1
  Pt  Pt7  1  0.749686  0.250314  0.250000  1
  F  F8  1  0.313153  0.348912  0.056605  1
  F  F9  1  0.935411  0.809887  0.152900  1
  F  F10  1  0.842210  0.457887  0.685784  1
  F  F11  1  0.459058  0.841265  0.183627  1
  F  F12  1  0.813841  0.937263  0.654151  1
  F  F13  1  0.350228  0.318387  0.553215  1
  F  F14  1  0.681613  0.649772  0.946784  1
  F  F15  1  0.062737  0.186159  0.845849  1
  F  F16  1  0.158735  0.540942  0.316373  1
  F  F17  1  0.542113  0.157790  0.814216  1
  F  F18  1  0.190113  0.064589  0.347100  1
  F  F19  1  0.651088  0.686847  0.443395  1
  F  F20  1  0.775088  0.286111  0.000344  1
  F  F21  1  0.999537  0.275550  0.210878  1
  F  F22  1  0.786758  0.502036  0.222092  1
  F  F23  1  0.507239  0.776692  0.721934  1
  F  F24  1  0.276537  0.009367  0.719269  1
  F  F25  1  0.279129  0.774431  0.494968  1
  F  F26  1  0.225569  0.720871  0.005032  1
  F  F27  1  0.990633  0.723463  0.780731  1
  F  F28  1  0.223308  0.492761  0.778066  1
  F  F29  1  0.497964  0.213242  0.277908  1
  F  F30  1  0.724450  0.000463  0.289122  1
  F  F31  1  0.713889  0.224912  0.499656  1
  F  F32  1  0.471365  0.528635  0.250000  1
  F  F33  1  0.747800  0.957281  0.972331  1
  F  F34  1  0.042719  0.252200  0.527669  1
  F  F35  1  0.252638  0.043912  0.029458  1
  F  F36  1  0.956088  0.747362  0.470542  1
  F  F37  1  0.531774  0.468226  0.750000  1
