# generated using pymatgen
data_La3Pr3RuBr10
_symmetry_space_group_name_H-M   'P 1'
_cell_length_a   7.84787960
_cell_length_b   9.78379223
_cell_length_c   9.56424046
_cell_angle_alpha   108.25553970
_cell_angle_beta   95.76650406
_cell_angle_gamma   107.25396518
_symmetry_Int_Tables_number   1
_chemical_formula_structural   La3Pr3RuBr10
_chemical_formula_sum   'La3 Pr3 Ru1 Br10'
_cell_volume   650.69946324
_cell_formula_units_Z   1
loop_
 _symmetry_equiv_pos_site_id
 _symmetry_equiv_pos_as_xyz
  1  'x, y, z'
loop_
 _atom_site_type_symbol
 _atom_site_label
 _atom_site_symmetry_multiplicity
 _atom_site_fract_x
 _atom_site_fract_y
 _atom_site_fract_z
 _atom_site_occupancy
  La  La0  1  0.127251  0.052437  0.770210  1
  La  La1  1  0.626340  0.850074  0.805992  1
  La  La2  1  0.872791  0.949052  0.229959  1
  Pr  Pr3  1  0.028662  0.694510  0.902219  1
  Pr  Pr4  1  0.369028  0.145515  0.189078  1
  Pr  Pr5  1  0.973095  0.306832  0.100538  1
  Ru  Ru6  1  0.999246  0.999915  0.999532  1
  Br  Br7  1  0.203952  0.747695  0.652182  1
  Br  Br8  1  0.649200  0.540517  0.728864  1
  Br  Br9  1  0.244771  0.081054  0.450471  1
  Br  Br10  1  0.792342  0.252582  0.347007  1
  Br  Br11  1  0.550713  0.171807  0.921575  1
  Br  Br12  1  0.758203  0.920277  0.546947  1
  Br  Br13  1  0.909435  0.629809  0.167825  1
  Br  Br14  1  0.353998  0.456730  0.272864  1
  Br  Br15  1  0.092194  0.372297  0.834921  1
  Br  Br16  1  0.448777  0.828897  0.079816  1
