# generated using pymatgen
data_Gd3Zn3C
_symmetry_space_group_name_H-M   'P 1'
_cell_length_a   9.24361900
_cell_length_b   9.24361873
_cell_length_c   9.24361900
_cell_angle_alpha   119.99999739
_cell_angle_beta   90.00000000
_cell_angle_gamma   119.99999739
_symmetry_Int_Tables_number   1
_chemical_formula_structural   Gd3Zn3C
_chemical_formula_sum   'Gd12 Zn12 C4'
_cell_volume   558.48451159
_cell_formula_units_Z   4
loop_
 _symmetry_equiv_pos_site_id
 _symmetry_equiv_pos_as_xyz
  1  'x, y, z'
loop_
 _atom_site_type_symbol
 _atom_site_label
 _atom_site_symmetry_multiplicity
 _atom_site_fract_x
 _atom_site_fract_y
 _atom_site_fract_z
 _atom_site_occupancy
  Gd  Gd0  1  0.697486  0.000000  0.302514  1
  Gd  Gd1  1  0.302514  0.000000  0.302514  1
  Gd  Gd2  1  0.302514  0.605028  0.302514  1
  Gd  Gd3  1  0.052514  0.105027  0.552513  1
  Gd  Gd4  1  0.052514  0.499999  0.552513  1
  Gd  Gd5  1  0.447485  0.499999  0.552513  1
  Gd  Gd6  1  0.697485  0.000000  0.697485  1
  Gd  Gd7  1  0.302514  0.000000  0.697486  1
  Gd  Gd8  1  0.697486  0.394973  0.697486  1
  Gd  Gd9  1  0.052515  0.499999  0.947484  1
  Gd  Gd10  1  0.447485  0.499999  0.947484  1
  Gd  Gd11  1  0.447485  0.894970  0.947484  1
  Zn  Zn12  1  0.674049  0.348098  0.022146  1
  Zn  Zn13  1  0.375001  0.250000  0.125000  1
  Zn  Zn14  1  0.874998  0.250000  0.125000  1
  Zn  Zn15  1  0.874998  0.749998  0.125000  1
  Zn  Zn16  1  0.075951  0.151902  0.227852  1
  Zn  Zn17  1  0.674049  0.348098  0.325951  1
  Zn  Zn18  1  0.674049  0.651903  0.325951  1
  Zn  Zn19  1  0.977854  0.651903  0.325951  1
  Zn  Zn20  1  0.874998  0.749998  0.624998  1
  Zn  Zn21  1  0.075951  0.151902  0.924049  1
  Zn  Zn22  1  0.075951  0.848099  0.924049  1
  Zn  Zn23  1  0.772148  0.848099  0.924049  1
  C  C24  1  0.374999  0.749998  0.124999  1
  C  C25  1  0.374999  0.250000  0.624999  1
  C  C26  1  0.374999  0.749998  0.624999  1
  C  C27  1  0.875001  0.250000  0.625000  1
