# generated using pymatgen
data_LaGd2Mg3Ir2Pd
_symmetry_space_group_name_H-M   'P 1'
_cell_length_a   7.48971647
_cell_length_b   7.49429761
_cell_length_c   4.04685600
_cell_angle_alpha   90.00000000
_cell_angle_beta   90.00000000
_cell_angle_gamma   120.02023578
_symmetry_Int_Tables_number   1
_chemical_formula_structural   LaGd2Mg3Ir2Pd
_chemical_formula_sum   'La1 Gd2 Mg3 Ir2 Pd1'
_cell_volume   196.67814468
_cell_formula_units_Z   1
loop_
 _symmetry_equiv_pos_site_id
 _symmetry_equiv_pos_as_xyz
  1  'x, y, z'
loop_
 _atom_site_type_symbol
 _atom_site_label
 _atom_site_symmetry_multiplicity
 _atom_site_fract_x
 _atom_site_fract_y
 _atom_site_fract_z
 _atom_site_occupancy
  La  La0  1  0.000000  0.578554  0.500000  1
  Gd  Gd1  1  0.421430  0.421431  0.500000  1
  Gd  Gd2  1  0.578570  0.000002  0.500000  1
  Mg  Mg3  1  0.757864  0.757868  0.000000  1
  Mg  Mg4  1  0.242136  0.000004  0.000000  1
  Mg  Mg5  1  0.000000  0.242131  0.000000  1
  Ir  Ir6  1  0.666674  0.333340  0.000000  1
  Ir  Ir7  1  0.333326  0.666668  0.000000  1
  Pd  Pd8  1  0.000000  0.000003  0.500000  1
