# generated using pymatgen
data_AgTeF5
_symmetry_space_group_name_H-M   'P 1'
_cell_length_a   6.26613800
_cell_length_b   7.61202200
_cell_length_c   10.75918100
_cell_angle_alpha   90.00000000
_cell_angle_beta   90.00000000
_cell_angle_gamma   90.00000000
_symmetry_Int_Tables_number   1
_chemical_formula_structural   AgTeF5
_chemical_formula_sum   'Ag4 Te4 F20'
_cell_volume   513.19120350
_cell_formula_units_Z   4
loop_
 _symmetry_equiv_pos_site_id
 _symmetry_equiv_pos_as_xyz
  1  'x, y, z'
loop_
 _atom_site_type_symbol
 _atom_site_label
 _atom_site_symmetry_multiplicity
 _atom_site_fract_x
 _atom_site_fract_y
 _atom_site_fract_z
 _atom_site_occupancy
  Ag  Ag0  1  0.250000  0.320153  0.998070  1
  Ag  Ag1  1  0.750000  0.679847  0.001930  1
  Ag  Ag2  1  0.750000  0.820153  0.501930  1
  Ag  Ag3  1  0.250000  0.179847  0.498070  1
  Te  Te4  1  0.250000  0.853876  0.765688  1
  Te  Te5  1  0.750000  0.146124  0.234312  1
  Te  Te6  1  0.750000  0.353876  0.734312  1
  Te  Te7  1  0.250000  0.646124  0.265688  1
  F  F8  1  0.027241  0.852012  0.897185  1
  F  F9  1  0.030069  0.943259  0.640631  1
  F  F10  1  0.469931  0.556741  0.140631  1
  F  F11  1  0.969931  0.443259  0.859369  1
  F  F12  1  0.250000  0.400314  0.305487  1
  F  F13  1  0.750000  0.599686  0.694513  1
  F  F14  1  0.750000  0.900314  0.194513  1
  F  F15  1  0.250000  0.099686  0.805487  1
  F  F16  1  0.027241  0.647988  0.397185  1
  F  F17  1  0.527241  0.352012  0.602815  1
  F  F18  1  0.972759  0.147988  0.102815  1
  F  F19  1  0.469931  0.943259  0.640631  1
  F  F20  1  0.972759  0.352012  0.602815  1
  F  F21  1  0.472759  0.647988  0.397185  1
  F  F22  1  0.472759  0.852012  0.897185  1
  F  F23  1  0.527241  0.147988  0.102815  1
  F  F24  1  0.030069  0.556741  0.140631  1
  F  F25  1  0.530069  0.443259  0.859369  1
  F  F26  1  0.969931  0.056741  0.359369  1
  F  F27  1  0.530069  0.056741  0.359369  1
