# generated using pymatgen
data_Y5Tm15(GaBi2)4
_symmetry_space_group_name_H-M   'P 1'
_cell_length_a   8.05164782
_cell_length_b   9.23777500
_cell_length_c   12.05045800
_cell_angle_alpha   90.00000000
_cell_angle_beta   90.02593082
_cell_angle_gamma   90.00000000
_symmetry_Int_Tables_number   1
_chemical_formula_structural   Y5Tm15(GaBi2)4
_chemical_formula_sum   'Y5 Tm15 Ga4 Bi8'
_cell_volume   896.30467127
_cell_formula_units_Z   1
loop_
 _symmetry_equiv_pos_site_id
 _symmetry_equiv_pos_as_xyz
  1  'x, y, z'
loop_
 _atom_site_type_symbol
 _atom_site_label
 _atom_site_symmetry_multiplicity
 _atom_site_fract_x
 _atom_site_fract_y
 _atom_site_fract_z
 _atom_site_occupancy
  Y  Y0  1  0.668733  0.750000  0.715299  1
  Y  Y1  1  0.330822  0.250000  0.284555  1
  Y  Y2  1  0.169068  0.250000  0.784530  1
  Y  Y3  1  0.830532  0.750000  0.215757  1
  Y  Y4  1  0.144322  0.750000  0.794128  1
  Tm  Tm5  1  0.855709  0.250000  0.205580  1
  Tm  Tm6  1  0.644437  0.250000  0.705439  1
  Tm  Tm7  1  0.355910  0.750000  0.294454  1
  Tm  Tm8  1  0.538748  0.750000  0.002840  1
  Tm  Tm9  1  0.461303  0.250000  0.997306  1
  Tm  Tm10  1  0.038618  0.250000  0.497102  1
  Tm  Tm11  1  0.961030  0.750000  0.502338  1
  Tm  Tm12  1  0.819313  0.445980  0.936942  1
  Tm  Tm13  1  0.180704  0.553937  0.063690  1
  Tm  Tm14  1  0.319591  0.553810  0.562627  1
  Tm  Tm15  1  0.180704  0.946063  0.063690  1
  Tm  Tm16  1  0.680708  0.445732  0.436884  1
  Tm  Tm17  1  0.819313  0.054020  0.936942  1
  Tm  Tm18  1  0.680708  0.054268  0.436884  1
  Tm  Tm19  1  0.319591  0.946190  0.562627  1
  Ga  Ga20  1  0.907511  0.750000  0.975146  1
  Ga  Ga21  1  0.091430  0.250000  0.026273  1
  Ga  Ga22  1  0.408680  0.250000  0.526056  1
  Ga  Ga23  1  0.591535  0.750000  0.473679  1
  Bi  Bi24  1  0.935003  0.009467  0.673163  1
  Bi  Bi25  1  0.064463  0.991254  0.326327  1
  Bi  Bi26  1  0.436653  0.991878  0.826322  1
  Bi  Bi27  1  0.064463  0.508746  0.326327  1
  Bi  Bi28  1  0.564374  0.008894  0.173806  1
  Bi  Bi29  1  0.935003  0.490533  0.673163  1
  Bi  Bi30  1  0.564374  0.491106  0.173806  1
  Bi  Bi31  1  0.436653  0.508122  0.826322  1
