# generated using pymatgen
data_Er2Be23Au3
_symmetry_space_group_name_H-M   'P 1'
_cell_length_a   7.38411900
_cell_length_b   7.38401406
_cell_length_c   7.55884096
_cell_angle_alpha   119.23615636
_cell_angle_beta   89.99859880
_cell_angle_gamma   120.00061968
_symmetry_Int_Tables_number   1
_chemical_formula_structural   Er2Be23Au3
_chemical_formula_sum   'Er2 Be23 Au3'
_cell_volume   294.74831473
_cell_formula_units_Z   1
loop_
 _symmetry_equiv_pos_site_id
 _symmetry_equiv_pos_as_xyz
  1  'x, y, z'
loop_
 _atom_site_type_symbol
 _atom_site_label
 _atom_site_symmetry_multiplicity
 _atom_site_fract_x
 _atom_site_fract_y
 _atom_site_fract_z
 _atom_site_occupancy
  Er  Er0  1  0.758585  0.517185  0.275784  1
  Er  Er1  1  0.245003  0.490009  0.734996  1
  Be  Be2  1  0.996993  0.994005  0.991021  1
  Be  Be3  1  0.577052  0.800448  0.236760  1
  Be  Be4  1  0.436289  0.013332  0.236770  1
  Be  Be5  1  0.223443  0.659738  0.236786  1
  Be  Be6  1  0.941758  0.015117  0.308478  1
  Be  Be7  1  0.293377  0.235129  0.308463  1
  Be  Be8  1  0.073337  0.366737  0.308467  1
  Be  Be9  1  0.788312  0.227494  0.441214  1
  Be  Be10  1  0.213745  0.002040  0.441213  1
  Be  Be11  1  0.439183  0.652896  0.441209  1
  Be  Be12  1  0.500950  0.001906  0.502868  1
  Be  Be13  1  0.789814  0.003219  0.565903  1
  Be  Be14  1  0.562678  0.352493  0.565871  1
  Be  Be15  1  0.213369  0.776081  0.565893  1
  Be  Be16  1  0.055571  0.989819  0.695028  1
  Be  Be17  1  0.934245  0.639431  0.695027  1
  Be  Be18  1  0.705199  0.760775  0.695017  1
  Be  Be19  1  0.561630  0.990264  0.765351  1
  Be  Be20  1  0.428626  0.203731  0.765347  1
  Be  Be21  1  0.775091  0.336713  0.765331  1
  Be  Be22  1  0.943292  0.252030  0.930565  1
  Be  Be23  1  0.678538  0.621813  0.930538  1
  Be  Be24  1  0.308777  0.987337  0.930600  1
  Au  Au25  1  0.692512  0.009085  0.055162  1
  Au  Au26  1  0.046056  0.738553  0.055184  1
  Au  Au27  1  0.316573  0.362626  0.055153  1
