# generated using pymatgen
data_TmAlFe3B
_symmetry_space_group_name_H-M   'P 1'
_cell_length_a   5.15381700
_cell_length_b   5.15516829
_cell_length_c   6.83065600
_cell_angle_alpha   90.00000000
_cell_angle_beta   90.00000000
_cell_angle_gamma   119.99132301
_symmetry_Int_Tables_number   1
_chemical_formula_structural   TmAlFe3B
_chemical_formula_sum   'Tm2 Al2 Fe6 B2'
_cell_volume   157.18201527
_cell_formula_units_Z   2
loop_
 _symmetry_equiv_pos_site_id
 _symmetry_equiv_pos_as_xyz
  1  'x, y, z'
loop_
 _atom_site_type_symbol
 _atom_site_label
 _atom_site_symmetry_multiplicity
 _atom_site_fract_x
 _atom_site_fract_y
 _atom_site_fract_z
 _atom_site_occupancy
  Tm  Tm0  1  0.999986  0.000000  0.000000  1
  Tm  Tm1  1  0.999991  0.000000  0.500000  1
  Al  Al2  1  0.333297  0.666626  0.000000  1
  Al  Al3  1  0.666671  0.333374  0.000000  1
  Fe  Fe4  1  0.499983  0.000000  0.294385  1
  Fe  Fe5  1  0.499981  0.500000  0.294468  1
  Fe  Fe6  1  0.999981  0.500000  0.294468  1
  Fe  Fe7  1  0.499983  0.000000  0.705615  1
  Fe  Fe8  1  0.499981  0.500000  0.705532  1
  Fe  Fe9  1  0.999981  0.500000  0.705532  1
  B  B10  1  0.333295  0.666623  0.500000  1
  B  B11  1  0.666671  0.333377  0.500000  1
