# generated using pymatgen
data_Tb(HoTe2)2
_symmetry_space_group_name_H-M   'P 1'
_cell_length_a   4.33626500
_cell_length_b   7.50074977
_cell_length_c   7.50306030
_cell_angle_alpha   71.59081118
_cell_angle_beta   90.00000000
_cell_angle_gamma   90.00000000
_symmetry_Int_Tables_number   1
_chemical_formula_structural   Tb(HoTe2)2
_chemical_formula_sum   'Tb1 Ho2 Te4'
_cell_volume   231.55023248
_cell_formula_units_Z   1
loop_
 _symmetry_equiv_pos_site_id
 _symmetry_equiv_pos_as_xyz
  1  'x, y, z'
loop_
 _atom_site_type_symbol
 _atom_site_label
 _atom_site_symmetry_multiplicity
 _atom_site_fract_x
 _atom_site_fract_y
 _atom_site_fract_z
 _atom_site_occupancy
  Tb  Tb0  1  0.000000  0.500000  0.500000  1
  Ho  Ho1  1  0.000000  0.000000  0.000000  1
  Ho  Ho2  1  0.500000  0.500000  0.000000  1
  Te  Te3  1  0.500000  0.757543  0.254924  1
  Te  Te4  1  0.000000  0.249731  0.248952  1
  Te  Te5  1  0.500000  0.242457  0.745076  1
  Te  Te6  1  0.000000  0.750269  0.751048  1
