# generated using pymatgen
data_KRbTl2(NO3)8
_symmetry_space_group_name_H-M   'P 1'
_cell_length_a   8.29377431
_cell_length_b   8.06588619
_cell_length_c   8.40875700
_cell_angle_alpha   88.07080190
_cell_angle_beta   88.69405474
_cell_angle_gamma   88.52813179
_symmetry_Int_Tables_number   1
_chemical_formula_structural   KRbTl2(NO3)8
_chemical_formula_sum   'K1 Rb1 Tl2 N8 O24'
_cell_volume   561.87789619
_cell_formula_units_Z   1
loop_
 _symmetry_equiv_pos_site_id
 _symmetry_equiv_pos_as_xyz
  1  'x, y, z'
loop_
 _atom_site_type_symbol
 _atom_site_label
 _atom_site_symmetry_multiplicity
 _atom_site_fract_x
 _atom_site_fract_y
 _atom_site_fract_z
 _atom_site_occupancy
  K  K0  1  0.500000  0.000000  0.500000  1
  Rb  Rb1  1  0.000000  0.000000  0.000000  1
  Tl  Tl2  1  0.000000  0.500000  0.500000  1
  Tl  Tl3  1  0.500000  0.500000  0.000000  1
  N  N4  1  0.330956  0.361402  0.312630  1
  N  N5  1  0.349236  0.195907  0.871419  1
  N  N6  1  0.171336  0.813720  0.374460  1
  N  N7  1  0.840112  0.367437  0.193267  1
  N  N8  1  0.669044  0.638598  0.687370  1
  N  N9  1  0.159888  0.632563  0.806733  1
  N  N10  1  0.828664  0.186280  0.625540  1
  N  N11  1  0.650764  0.804093  0.128581  1
  O  O12  1  0.746378  0.340476  0.078257  1
  O  O13  1  0.197883  0.936795  0.286039  1
  O  O14  1  0.257977  0.765649  0.486298  1
  O  O15  1  0.258738  0.234804  0.984406  1
  O  O16  1  0.240554  0.332731  0.435879  1
  O  O17  1  0.452080  0.270814  0.287156  1
  O  O18  1  0.294248  0.482885  0.218309  1
  O  O19  1  0.187432  0.505305  0.722619  1
  O  O20  1  0.960122  0.269688  0.655789  1
  O  O21  1  0.672402  0.920399  0.217749  1
  O  O22  1  0.044367  0.729709  0.778589  1
  O  O23  1  0.518943  0.716062  0.158675  1
  O  O24  1  0.802117  0.063205  0.713961  1
  O  O25  1  0.742023  0.234351  0.513702  1
  O  O26  1  0.741262  0.765196  0.015594  1
  O  O27  1  0.253622  0.659524  0.921743  1
  O  O28  1  0.759446  0.667269  0.564121  1
  O  O29  1  0.547920  0.729186  0.712844  1
  O  O30  1  0.705752  0.517115  0.781691  1
  O  O31  1  0.812568  0.494695  0.277381  1
  O  O32  1  0.039878  0.730312  0.344211  1
  O  O33  1  0.327598  0.079601  0.782251  1
  O  O34  1  0.955633  0.270291  0.221411  1
  O  O35  1  0.481057  0.283938  0.841325  1
