# generated using pymatgen
data_Er4Hf3PdF28
_symmetry_space_group_name_H-M   'P 1'
_cell_length_a   5.62593934
_cell_length_b   8.93340538
_cell_length_c   12.03564798
_cell_angle_alpha   62.51738089
_cell_angle_beta   89.88208931
_cell_angle_gamma   89.98390829
_symmetry_Int_Tables_number   1
_chemical_formula_structural   Er4Hf3PdF28
_chemical_formula_sum   'Er4 Hf3 Pd1 F28'
_cell_volume   536.63377277
_cell_formula_units_Z   1
loop_
 _symmetry_equiv_pos_site_id
 _symmetry_equiv_pos_as_xyz
  1  'x, y, z'
loop_
 _atom_site_type_symbol
 _atom_site_label
 _atom_site_symmetry_multiplicity
 _atom_site_fract_x
 _atom_site_fract_y
 _atom_site_fract_z
 _atom_site_occupancy
  Er  Er0  1  0.758054  0.816345  0.765367  1
  Er  Er1  1  0.259510  0.184176  0.732598  1
  Er  Er2  1  0.241512  0.183529  0.239306  1
  Er  Er3  1  0.743559  0.813555  0.267104  1
  Hf  Hf4  1  0.757460  0.272896  0.956850  1
  Hf  Hf5  1  0.256217  0.725470  0.543829  1
  Hf  Hf6  1  0.244315  0.724983  0.045388  1
  Pd  Pd7  1  0.739178  0.272223  0.455897  1
  F  F8  1  0.459733  0.708678  0.918814  1
  F  F9  1  0.934105  0.296260  0.580675  1
  F  F10  1  0.539537  0.289686  0.082104  1
  F  F11  1  0.041304  0.710131  0.417823  1
  F  F12  1  0.445399  0.278005  0.541911  1
  F  F13  1  0.946946  0.724968  0.950927  1
  F  F14  1  0.554524  0.721492  0.452321  1
  F  F15  1  0.053633  0.273953  0.051324  1
  F  F16  1  0.777101  0.524920  0.859919  1
  F  F17  1  0.269006  0.473007  0.639062  1
  F  F18  1  0.222638  0.473225  0.142800  1
  F  F19  1  0.723661  0.517710  0.358421  1
  F  F20  1  0.758291  0.021713  0.058624  1
  F  F21  1  0.259185  0.976870  0.443667  1
  F  F22  1  0.243747  0.976135  0.941104  1
  F  F23  1  0.744425  0.026897  0.548423  1
  F  F24  1  0.978463  0.733314  0.645811  1
  F  F25  1  0.482817  0.268170  0.851983  1
  F  F26  1  0.024045  0.274676  0.362407  1
  F  F27  1  0.520898  0.731292  0.147527  1
  F  F28  1  0.038724  0.747838  0.173942  1
  F  F29  1  0.549649  0.256627  0.324752  1
  F  F30  1  0.966382  0.251959  0.827330  1
  F  F31  1  0.464603  0.746849  0.672982  1
  F  F32  1  0.423703  0.972291  0.235348  1
  F  F33  1  0.923324  0.027893  0.268128  1
  F  F34  1  0.577298  0.029115  0.764679  1
  F  F35  1  0.077058  0.973149  0.730851  1
