# generated using pymatgen
data_Tb17Sm(HoPb8)2
_symmetry_space_group_name_H-M   'P 1'
_cell_length_a   8.24616888
_cell_length_b   8.31990271
_cell_length_c   15.72543364
_cell_angle_alpha   90.00654194
_cell_angle_beta   89.74450736
_cell_angle_gamma   89.92631174
_symmetry_Int_Tables_number   1
_chemical_formula_structural   Tb17Sm(HoPb8)2
_chemical_formula_sum   'Tb17 Sm1 Ho2 Pb16'
_cell_volume   1078.86827501
_cell_formula_units_Z   1
loop_
 _symmetry_equiv_pos_site_id
 _symmetry_equiv_pos_as_xyz
  1  'x, y, z'
loop_
 _atom_site_type_symbol
 _atom_site_label
 _atom_site_symmetry_multiplicity
 _atom_site_fract_x
 _atom_site_fract_y
 _atom_site_fract_z
 _atom_site_occupancy
  Tb  Tb0  1  0.623942  0.158595  0.621269  1
  Tb  Tb1  1  0.122044  0.341398  0.880077  1
  Tb  Tb2  1  0.378357  0.842269  0.121171  1
  Tb  Tb3  1  0.875536  0.658043  0.378175  1
  Tb  Tb4  1  0.375685  0.841495  0.378595  1
  Tb  Tb5  1  0.877954  0.658226  0.121143  1
  Tb  Tb6  1  0.621638  0.158370  0.879416  1
  Tb  Tb7  1  0.123302  0.341430  0.621126  1
  Tb  Tb8  1  0.464634  0.675137  0.599558  1
  Tb  Tb9  1  0.962988  0.824108  0.899480  1
  Tb  Tb10  1  0.536441  0.324503  0.100517  1
  Tb  Tb11  1  0.035043  0.176416  0.400111  1
  Tb  Tb12  1  0.534782  0.323821  0.400235  1
  Tb  Tb13  1  0.036801  0.175602  0.100352  1
  Tb  Tb14  1  0.463639  0.675474  0.900462  1
  Tb  Tb15  1  0.790325  0.495899  0.750580  1
  Tb  Tb16  1  0.290588  0.004536  0.750731  1
  Sm  Sm17  1  0.967524  0.823027  0.598192  1
  Ho  Ho18  1  0.209369  0.504054  0.249892  1
  Ho  Ho19  1  0.709423  0.995687  0.249311  1
  Pb  Pb20  1  0.715661  0.967395  0.455534  1
  Pb  Pb21  1  0.219314  0.534427  0.043356  1
  Pb  Pb22  1  0.280529  0.032457  0.957878  1
  Pb  Pb23  1  0.781428  0.464569  0.542064  1
  Pb  Pb24  1  0.286192  0.036887  0.542099  1
  Pb  Pb25  1  0.780445  0.466487  0.958081  1
  Pb  Pb26  1  0.719723  0.966331  0.042493  1
  Pb  Pb27  1  0.216991  0.533692  0.456991  1
  Pb  Pb28  1  0.426482  0.374336  0.750371  1
  Pb  Pb29  1  0.926683  0.126412  0.750233  1
  Pb  Pb30  1  0.572388  0.625737  0.249793  1
  Pb  Pb31  1  0.072993  0.874518  0.249842  1
  Pb  Pb32  1  0.650764  0.846278  0.749920  1
  Pb  Pb33  1  0.153336  0.652611  0.750667  1
  Pb  Pb34  1  0.348365  0.154722  0.250342  1
  Pb  Pb35  1  0.848687  0.345051  0.249942  1
