# generated using pymatgen
data_Sc12Zn(NiI8)2
_symmetry_space_group_name_H-M   'P 1'
_cell_length_a   9.30100969
_cell_length_b   12.02913557
_cell_length_c   12.64337700
_cell_angle_alpha   117.18126912
_cell_angle_beta   101.33595392
_cell_angle_gamma   100.80801291
_symmetry_Int_Tables_number   1
_chemical_formula_structural   Sc12Zn(NiI8)2
_chemical_formula_sum   'Sc12 Zn1 Ni2 I16'
_cell_volume   1169.79265975
_cell_formula_units_Z   1
loop_
 _symmetry_equiv_pos_site_id
 _symmetry_equiv_pos_as_xyz
  1  'x, y, z'
loop_
 _atom_site_type_symbol
 _atom_site_label
 _atom_site_symmetry_multiplicity
 _atom_site_fract_x
 _atom_site_fract_y
 _atom_site_fract_z
 _atom_site_occupancy
  Sc  Sc0  1  0.093980  0.275290  0.361724  1
  Sc  Sc1  1  0.906020  0.724710  0.638276  1
  Sc  Sc2  1  0.777839  0.534518  0.333191  1
  Sc  Sc3  1  0.222161  0.465482  0.666809  1
  Sc  Sc4  1  0.276807  0.724709  0.637682  1
  Sc  Sc5  1  0.723193  0.275291  0.362318  1
  Sc  Sc6  1  0.148789  0.534298  0.332915  1
  Sc  Sc7  1  0.851211  0.465702  0.667085  1
  Sc  Sc8  1  0.410509  0.366275  0.285652  1
  Sc  Sc9  1  0.589491  0.633725  0.714348  1
  Sc  Sc10  1  0.461100  0.318654  0.520304  1
  Sc  Sc11  1  0.538900  0.681346  0.479696  1
  Zn  Zn12  1  0.000000  0.500000  0.500000  1
  Ni  Ni13  1  0.344891  0.499910  0.499491  1
  Ni  Ni14  1  0.655110  0.500090  0.500509  1
  I  I15  1  0.396140  0.737002  0.879135  1
  I  I16  1  0.603860  0.262998  0.120865  1
  I  I17  1  0.184552  0.954476  0.777929  1
  I  I18  1  0.815448  0.045524  0.222071  1
  I  I19  1  0.338754  0.101827  0.255230  1
  I  I20  1  0.661246  0.898173  0.744770  1
  I  I21  1  0.560707  0.439226  0.795978  1
  I  I22  1  0.439293  0.560774  0.204022  1
  I  I23  1  0.307842  0.821617  0.462846  1
  I  I24  1  0.692158  0.178383  0.537154  1
  I  I25  1  0.170087  0.177586  0.535218  1
  I  I26  1  0.829913  0.822414  0.464782  1
  I  I27  1  0.926489  0.571781  0.164359  1
  I  I28  1  0.073511  0.428219  0.835641  1
  I  I29  1  0.920101  0.736093  0.879596  1
  I  I30  1  0.079899  0.263907  0.120404  1
