# generated using pymatgen
data_Ba2P2IrPt
_symmetry_space_group_name_H-M   'P 1'
_cell_length_a   6.57849700
_cell_length_b   6.58943405
_cell_length_c   6.58287213
_cell_angle_alpha   90.35210146
_cell_angle_beta   90.00000000
_cell_angle_gamma   90.00000000
_symmetry_Int_Tables_number   1
_chemical_formula_structural   Ba2P2IrPt
_chemical_formula_sum   'Ba4 P4 Ir2 Pt2'
_cell_volume   285.35271915
_cell_formula_units_Z   2
loop_
 _symmetry_equiv_pos_site_id
 _symmetry_equiv_pos_as_xyz
  1  'x, y, z'
loop_
 _atom_site_type_symbol
 _atom_site_label
 _atom_site_symmetry_multiplicity
 _atom_site_fract_x
 _atom_site_fract_y
 _atom_site_fract_z
 _atom_site_occupancy
  Ba  Ba0  1  0.618926  0.382824  0.878760  1
  Ba  Ba1  1  0.381787  0.879619  0.616965  1
  Ba  Ba2  1  0.118926  0.117176  0.121240  1
  Ba  Ba3  1  0.881787  0.620381  0.383035  1
  P  P4  1  0.158353  0.335886  0.650811  1
  P  P5  1  0.658353  0.164114  0.349189  1
  P  P6  1  0.341287  0.653522  0.165017  1
  P  P7  1  0.841287  0.846478  0.834983  1
  Ir  Ir8  1  0.402881  0.402728  0.403980  1
  Ir  Ir9  1  0.902881  0.097272  0.596020  1
  Pt  Pt10  1  0.596766  0.904148  0.097980  1
  Pt  Pt11  1  0.096766  0.595852  0.902020  1
