# generated using pymatgen
data_Pr20SiIr4Au7
_symmetry_space_group_name_H-M   'P 1'
_cell_length_a   8.29917591
_cell_length_b   8.96322700
_cell_length_c   12.39564060
_cell_angle_alpha   90.71470945
_cell_angle_beta   90.22268034
_cell_angle_gamma   89.75545146
_symmetry_Int_Tables_number   1
_chemical_formula_structural   Pr20SiIr4Au7
_chemical_formula_sum   'Pr20 Si1 Ir4 Au7'
_cell_volume   921.99253488
_cell_formula_units_Z   1
loop_
 _symmetry_equiv_pos_site_id
 _symmetry_equiv_pos_as_xyz
  1  'x, y, z'
loop_
 _atom_site_type_symbol
 _atom_site_label
 _atom_site_symmetry_multiplicity
 _atom_site_fract_x
 _atom_site_fract_y
 _atom_site_fract_z
 _atom_site_occupancy
  Pr  Pr0  1  0.662248  0.745796  0.723190  1
  Pr  Pr1  1  0.334486  0.253320  0.276702  1
  Pr  Pr2  1  0.172073  0.257292  0.782495  1
  Pr  Pr3  1  0.835637  0.746131  0.220359  1
  Pr  Pr4  1  0.137684  0.743571  0.807331  1
  Pr  Pr5  1  0.869029  0.248876  0.192644  1
  Pr  Pr6  1  0.625608  0.257250  0.695317  1
  Pr  Pr7  1  0.370488  0.748918  0.306449  1
  Pr  Pr8  1  0.543264  0.744894  0.005014  1
  Pr  Pr9  1  0.453287  0.247961  0.996159  1
  Pr  Pr10  1  0.050819  0.253019  0.492851  1
  Pr  Pr11  1  0.952511  0.752250  0.506604  1
  Pr  Pr12  1  0.813489  0.460227  0.915903  1
  Pr  Pr13  1  0.178532  0.536568  0.071981  1
  Pr  Pr14  1  0.327465  0.543430  0.586463  1
  Pr  Pr15  1  0.172035  0.958082  0.081072  1
  Pr  Pr16  1  0.675312  0.462764  0.420918  1
  Pr  Pr17  1  0.826378  0.036178  0.911797  1
  Pr  Pr18  1  0.672478  0.041829  0.417421  1
  Pr  Pr19  1  0.328765  0.964905  0.586437  1
  Si  Si20  1  0.436529  0.508082  0.831752  1
  Ir  Ir21  1  0.924126  0.747987  0.992413  1
  Ir  Ir22  1  0.069864  0.246451  0.006020  1
  Ir  Ir23  1  0.423441  0.253580  0.504841  1
  Ir  Ir24  1  0.577145  0.754044  0.494739  1
  Au  Au25  1  0.942166  0.017163  0.668844  1
  Au  Au26  1  0.061504  0.984496  0.329480  1
  Au  Au27  1  0.436244  0.986447  0.832435  1
  Au  Au28  1  0.064884  0.515834  0.327957  1
  Au  Au29  1  0.561919  0.011184  0.171890  1
  Au  Au30  1  0.935599  0.486299  0.670649  1
  Au  Au31  1  0.564989  0.485172  0.171869  1
