# generated using pymatgen
data_K16DyPaSb8
_symmetry_space_group_name_H-M   'P 1'
_cell_length_a   11.76873124
_cell_length_b   11.76873074
_cell_length_c   11.76873100
_cell_angle_alpha   59.99999646
_cell_angle_beta   59.99999785
_cell_angle_gamma   59.99999717
_symmetry_Int_Tables_number   1
_chemical_formula_structural   K16DyPaSb8
_chemical_formula_sum   'K16 Dy1 Pa1 Sb8'
_cell_volume   1152.58743809
_cell_formula_units_Z   1
loop_
 _symmetry_equiv_pos_site_id
 _symmetry_equiv_pos_as_xyz
  1  'x, y, z'
loop_
 _atom_site_type_symbol
 _atom_site_label
 _atom_site_symmetry_multiplicity
 _atom_site_fract_x
 _atom_site_fract_y
 _atom_site_fract_z
 _atom_site_occupancy
  K  K0  1  0.622559  0.132323  0.622559  1
  K  K1  1  0.622559  0.622559  0.132323  1
  K  K2  1  0.132323  0.622559  0.622559  1
  K  K3  1  0.622559  0.622559  0.622559  1
  K  K4  1  0.035357  0.035357  0.464643  1
  K  K5  1  0.774468  0.225532  0.225532  1
  K  K6  1  0.225532  0.774468  0.774468  1
  K  K7  1  0.774468  0.774468  0.225532  1
  K  K8  1  0.774468  0.225532  0.774468  1
  K  K9  1  0.225532  0.774468  0.225532  1
  K  K10  1  0.464643  0.035357  0.464643  1
  K  K11  1  0.464643  0.035357  0.035357  1
  K  K12  1  0.035357  0.464643  0.464643  1
  K  K13  1  0.035357  0.464643  0.035357  1
  K  K14  1  0.225532  0.225532  0.774468  1
  K  K15  1  0.464643  0.464643  0.035357  1
  Dy  Dy16  1  0.500000  0.500000  0.500000  1
  Pa  Pa17  1  0.750000  0.750000  0.750000  1
  Sb  Sb18  1  0.393993  0.818022  0.393993  1
  Sb  Sb19  1  0.853026  0.853026  0.440923  1
  Sb  Sb20  1  0.440923  0.853026  0.853026  1
  Sb  Sb21  1  0.853026  0.853026  0.853026  1
  Sb  Sb22  1  0.818022  0.393993  0.393993  1
  Sb  Sb23  1  0.393993  0.393993  0.393993  1
  Sb  Sb24  1  0.393993  0.393993  0.818022  1
  Sb  Sb25  1  0.853026  0.440923  0.853026  1
