# generated using pymatgen
data_Cs2TiHgTe4
_symmetry_space_group_name_H-M   'P 1'
_cell_length_a   15.75184321
_cell_length_b   14.03675535
_cell_length_c   8.52791387
_cell_angle_alpha   84.81513837
_cell_angle_beta   62.55728606
_cell_angle_gamma   32.59434783
_symmetry_Int_Tables_number   1
_chemical_formula_structural   Cs2TiHgTe4
_chemical_formula_sum   'Cs4 Ti2 Hg2 Te8'
_cell_volume   705.01237214
_cell_formula_units_Z   2
loop_
 _symmetry_equiv_pos_site_id
 _symmetry_equiv_pos_as_xyz
  1  'x, y, z'
loop_
 _atom_site_type_symbol
 _atom_site_label
 _atom_site_symmetry_multiplicity
 _atom_site_fract_x
 _atom_site_fract_y
 _atom_site_fract_z
 _atom_site_occupancy
  Cs  Cs0  1  0.068214  0.068214  0.431786  1
  Cs  Cs1  1  0.817816  0.817816  0.182184  1
  Cs  Cs2  1  0.182324  0.182324  0.817676  1
  Cs  Cs3  1  0.432114  0.432114  0.067886  1
  Ti  Ti4  1  0.250284  0.250284  0.249716  1
  Ti  Ti5  1  0.999552  0.999552  0.000448  1
  Hg  Hg6  1  0.750159  0.750159  0.749841  1
  Hg  Hg7  1  0.499637  0.499637  0.500363  1
  Te  Te8  1  0.377639  0.735765  0.820291  1
  Te  Te9  1  0.065097  0.820136  0.736411  1
  Te  Te10  1  0.820136  0.065097  0.378357  1
  Te  Te11  1  0.735765  0.377639  0.066307  1
  Te  Te12  1  0.871595  0.515751  0.428641  1
  Te  Te13  1  0.185038  0.428881  0.514160  1
  Te  Te14  1  0.428881  0.185038  0.871920  1
  Te  Te15  1  0.515751  0.871595  0.184011  1
