# generated using pymatgen
data_Pr4ZnCoSi6
_symmetry_space_group_name_H-M   'P 1'
_cell_length_a   8.17677500
_cell_length_b   8.17677536
_cell_length_c   4.33017000
_cell_angle_alpha   90.00000000
_cell_angle_beta   90.00000000
_cell_angle_gamma   120.00000258
_symmetry_Int_Tables_number   1
_chemical_formula_structural   Pr4ZnCoSi6
_chemical_formula_sum   'Pr4 Zn1 Co1 Si6'
_cell_volume   250.72617852
_cell_formula_units_Z   1
loop_
 _symmetry_equiv_pos_site_id
 _symmetry_equiv_pos_as_xyz
  1  'x, y, z'
loop_
 _atom_site_type_symbol
 _atom_site_label
 _atom_site_symmetry_multiplicity
 _atom_site_fract_x
 _atom_site_fract_y
 _atom_site_fract_z
 _atom_site_occupancy
  Pr  Pr0  1  0.505056  0.494944  0.000000  1
  Pr  Pr1  1  0.989888  0.494944  0.000000  1
  Pr  Pr2  1  0.505056  0.010112  0.000000  1
  Pr  Pr3  1  0.000000  0.000000  0.000000  1
  Zn  Zn4  1  0.333333  0.666667  0.500000  1
  Co  Co5  1  0.666667  0.333333  0.500000  1
  Si  Si6  1  0.825274  0.650549  0.500000  1
  Si  Si7  1  0.162836  0.837164  0.500000  1
  Si  Si8  1  0.674327  0.837164  0.500000  1
  Si  Si9  1  0.162836  0.325673  0.500000  1
  Si  Si10  1  0.825274  0.174726  0.500000  1
  Si  Si11  1  0.349451  0.174726  0.500000  1
