# generated using pymatgen
data_Yb2Al16VPt8
_symmetry_space_group_name_H-M   'P 1'
_cell_length_a   11.24095770
_cell_length_b   11.24095789
_cell_length_c   11.24095772
_cell_angle_alpha   158.69949773
_cell_angle_beta   117.11870217
_cell_angle_gamma   67.19950985
_symmetry_Int_Tables_number   1
_chemical_formula_structural   Yb2Al16VPt8
_chemical_formula_sum   'Yb2 Al16 V1 Pt8'
_cell_volume   456.20348330
_cell_formula_units_Z   1
loop_
 _symmetry_equiv_pos_site_id
 _symmetry_equiv_pos_as_xyz
  1  'x, y, z'
loop_
 _atom_site_type_symbol
 _atom_site_label
 _atom_site_symmetry_multiplicity
 _atom_site_fract_x
 _atom_site_fract_y
 _atom_site_fract_z
 _atom_site_occupancy
  Yb  Yb0  1  0.229914  0.230849  0.999065  1
  Yb  Yb1  1  0.768216  0.769151  0.999065  1
  Al  Al2  1  0.273154  0.391957  0.881198  1
  Al  Al3  1  0.087450  0.923153  0.164296  1
  Al  Al4  1  0.504620  0.202371  0.302250  1
  Al  Al5  1  0.241143  0.076847  0.164296  1
  Al  Al6  1  0.910933  0.416044  0.494888  1
  Al  Al7  1  0.723555  0.598296  0.125257  1
  Al  Al8  1  0.900782  0.208658  0.692124  1
  Al  Al9  1  0.483467  0.791342  0.692124  1
  Al  Al10  1  0.387056  0.000000  0.387056  1
  Al  Al11  1  0.629925  0.000000  0.629925  1
  Al  Al12  1  0.489241  0.608043  0.881198  1
  Al  Al13  1  0.099879  0.797629  0.302250  1
  Al  Al14  1  0.912141  0.088944  0.823198  1
  Al  Al15  1  0.734254  0.911056  0.823198  1
  Al  Al16  1  0.526961  0.401704  0.125257  1
  Al  Al17  1  0.078844  0.583956  0.494888  1
  V  V18  1  0.794086  0.500000  0.294086  1
  Pt  Pt19  1  0.023389  0.342746  0.680642  1
  Pt  Pt20  1  0.625495  0.123526  0.501969  1
  Pt  Pt21  1  0.252100  0.500000  0.752100  1
  Pt  Pt22  1  0.378443  0.876474  0.501969  1
  Pt  Pt23  1  0.983993  0.000000  0.983993  1
  Pt  Pt24  1  0.647534  0.336002  0.311532  1
  Pt  Pt25  1  0.337896  0.657254  0.680642  1
  Pt  Pt26  1  0.975530  0.663998  0.311532  1
