# generated using pymatgen
data_Dy(FeTc2)4
_symmetry_space_group_name_H-M   'P 1'
_cell_length_a   6.71467802
_cell_length_b   6.71467828
_cell_length_c   6.71467890
_cell_angle_alpha   97.28929286
_cell_angle_beta   97.28930096
_cell_angle_gamma   138.26583036
_symmetry_Int_Tables_number   1
_chemical_formula_structural   Dy(FeTc2)4
_chemical_formula_sum   'Dy1 Fe4 Tc8'
_cell_volume   188.31086326
_cell_formula_units_Z   1
loop_
 _symmetry_equiv_pos_site_id
 _symmetry_equiv_pos_as_xyz
  1  'x, y, z'
loop_
 _atom_site_type_symbol
 _atom_site_label
 _atom_site_symmetry_multiplicity
 _atom_site_fract_x
 _atom_site_fract_y
 _atom_site_fract_z
 _atom_site_occupancy
  Dy  Dy0  1  0.000000  0.000000  0.000000  1
  Fe  Fe1  1  0.500000  0.000000  0.000000  1
  Fe  Fe2  1  0.500000  0.500000  0.500000  1
  Fe  Fe3  1  0.000000  0.000000  0.500000  1
  Fe  Fe4  1  0.000000  0.500000  0.000000  1
  Tc  Tc5  1  0.000000  0.643300  0.643300  1
  Tc  Tc6  1  0.356700  0.000000  0.356700  1
  Tc  Tc7  1  0.643300  0.000000  0.643300  1
  Tc  Tc8  1  0.000000  0.356700  0.356700  1
  Tc  Tc9  1  0.500000  0.716031  0.216031  1
  Tc  Tc10  1  0.500000  0.283969  0.783969  1
  Tc  Tc11  1  0.716031  0.500000  0.216031  1
  Tc  Tc12  1  0.283969  0.500000  0.783969  1
