# generated using pymatgen
data_PrNd4BiPb2
_symmetry_space_group_name_H-M   'P 1'
_cell_length_a   6.75679400
_cell_length_b   9.46773882
_cell_length_c   9.47804617
_cell_angle_alpha   120.05861066
_cell_angle_beta   89.99998547
_cell_angle_gamma   90.00005047
_symmetry_Int_Tables_number   1
_chemical_formula_structural   PrNd4BiPb2
_chemical_formula_sum   'Pr2 Nd8 Bi2 Pb4'
_cell_volume   524.78281082
_cell_formula_units_Z   2
loop_
 _symmetry_equiv_pos_site_id
 _symmetry_equiv_pos_as_xyz
  1  'x, y, z'
loop_
 _atom_site_type_symbol
 _atom_site_label
 _atom_site_symmetry_multiplicity
 _atom_site_fract_x
 _atom_site_fract_y
 _atom_site_fract_z
 _atom_site_occupancy
  Pr  Pr0  1  0.250000  0.758595  0.999882  1
  Pr  Pr1  1  0.250001  0.241858  0.237977  1
  Nd  Nd2  1  0.501415  0.333341  0.668428  1
  Nd  Nd3  1  0.501420  0.665031  0.331651  1
  Nd  Nd4  1  0.998577  0.665026  0.331649  1
  Nd  Nd5  1  0.998582  0.333337  0.668429  1
  Nd  Nd6  1  0.750000  0.240061  0.999825  1
  Nd  Nd7  1  0.750002  0.758530  0.758973  1
  Nd  Nd8  1  0.750001  0.999350  0.241226  1
  Nd  Nd9  1  0.250001  0.003845  0.761625  1
  Bi  Bi10  1  0.250000  0.609295  0.608358  1
  Bi  Bi11  1  0.250000  0.000358  0.392478  1
  Pb  Pb12  1  0.749998  0.607654  0.999986  1
  Pb  Pb13  1  0.750000  0.391704  0.393112  1
  Pb  Pb14  1  0.750001  0.998593  0.606930  1
  Pb  Pb15  1  0.249998  0.393424  0.999471  1
