# generated using pymatgen
data_Tm3Cd(Ir2O7)2
_symmetry_space_group_name_H-M   'P 1'
_cell_length_a   7.16638744
_cell_length_b   7.25159441
_cell_length_c   7.25159300
_cell_angle_alpha   60.00001102
_cell_angle_beta   59.60591388
_cell_angle_gamma   59.60591331
_symmetry_Int_Tables_number   1
_chemical_formula_structural   Tm3Cd(Ir2O7)2
_chemical_formula_sum   'Tm3 Cd1 Ir4 O14'
_cell_volume   264.87408978
_cell_formula_units_Z   1
loop_
 _symmetry_equiv_pos_site_id
 _symmetry_equiv_pos_as_xyz
  1  'x, y, z'
loop_
 _atom_site_type_symbol
 _atom_site_label
 _atom_site_symmetry_multiplicity
 _atom_site_fract_x
 _atom_site_fract_y
 _atom_site_fract_z
 _atom_site_occupancy
  Tm  Tm0  1  0.125000  0.625000  0.125000  1
  Tm  Tm1  1  0.125000  0.125000  0.625000  1
  Tm  Tm2  1  0.125000  0.125000  0.125000  1
  Cd  Cd3  1  0.625000  0.125000  0.125000  1
  Ir  Ir4  1  0.125000  0.625000  0.625000  1
  Ir  Ir5  1  0.625000  0.125000  0.625000  1
  Ir  Ir6  1  0.625000  0.625000  0.125000  1
  Ir  Ir7  1  0.625000  0.625000  0.625000  1
  O  O8  1  0.717243  0.695985  0.293386  1
  O  O9  1  0.285057  0.289279  0.712831  1
  O  O10  1  0.717243  0.293386  0.695985  1
  O  O11  1  0.285057  0.712831  0.289279  1
  O  O12  1  0.285057  0.712831  0.712831  1
  O  O13  1  0.717243  0.293386  0.293386  1
  O  O14  1  0.532757  0.554015  0.956614  1
  O  O15  1  0.964943  0.960721  0.537169  1
  O  O16  1  0.532757  0.956614  0.554015  1
  O  O17  1  0.964943  0.537169  0.960721  1
  O  O18  1  0.964943  0.537169  0.537169  1
  O  O19  1  0.532757  0.956614  0.956614  1
  O  O20  1  0.241764  0.252745  0.252745  1
  O  O21  1  0.008236  0.997255  0.997255  1
