# generated using pymatgen
data_Er2Sc3Ga3Sn
_symmetry_space_group_name_H-M   'P 1'
_cell_length_a   7.30024800
_cell_length_b   7.65511000
_cell_length_c   14.55464700
_cell_angle_alpha   90.00000000
_cell_angle_beta   90.00000000
_cell_angle_gamma   90.00000000
_symmetry_Int_Tables_number   1
_chemical_formula_structural   Er2Sc3Ga3Sn
_chemical_formula_sum   'Er8 Sc12 Ga12 Sn4'
_cell_volume   813.37482523
_cell_formula_units_Z   4
loop_
 _symmetry_equiv_pos_site_id
 _symmetry_equiv_pos_as_xyz
  1  'x, y, z'
loop_
 _atom_site_type_symbol
 _atom_site_label
 _atom_site_symmetry_multiplicity
 _atom_site_fract_x
 _atom_site_fract_y
 _atom_site_fract_z
 _atom_site_occupancy
  Er  Er0  1  0.012147  0.175521  0.089140  1
  Er  Er1  1  0.987853  0.824479  0.910860  1
  Er  Er2  1  0.487853  0.675521  0.910860  1
  Er  Er3  1  0.987853  0.824479  0.589140  1
  Er  Er4  1  0.512147  0.324479  0.089140  1
  Er  Er5  1  0.012147  0.175521  0.410860  1
  Er  Er6  1  0.512147  0.324479  0.410860  1
  Er  Er7  1  0.487853  0.675521  0.589140  1
  Sc  Sc8  1  0.168838  0.492329  0.750000  1
  Sc  Sc9  1  0.831162  0.507671  0.250000  1
  Sc  Sc10  1  0.331162  0.992329  0.250000  1
  Sc  Sc11  1  0.668838  0.007671  0.750000  1
  Sc  Sc12  1  0.328239  0.177723  0.619773  1
  Sc  Sc13  1  0.671761  0.822277  0.380227  1
  Sc  Sc14  1  0.171761  0.677723  0.380227  1
  Sc  Sc15  1  0.671761  0.822277  0.119773  1
  Sc  Sc16  1  0.828239  0.322277  0.619773  1
  Sc  Sc17  1  0.328239  0.177723  0.880227  1
  Sc  Sc18  1  0.828239  0.322277  0.880227  1
  Sc  Sc19  1  0.171761  0.677723  0.119773  1
  Ga  Ga20  1  0.028618  0.123820  0.750000  1
  Ga  Ga21  1  0.971382  0.876180  0.250000  1
  Ga  Ga22  1  0.471382  0.623820  0.250000  1
  Ga  Ga23  1  0.528618  0.376180  0.750000  1
  Ga  Ga24  1  0.159581  0.467051  0.541559  1
  Ga  Ga25  1  0.840419  0.532949  0.458441  1
  Ga  Ga26  1  0.340419  0.967051  0.458441  1
  Ga  Ga27  1  0.840419  0.532949  0.041559  1
  Ga  Ga28  1  0.659581  0.032949  0.541559  1
  Ga  Ga29  1  0.159581  0.467051  0.958441  1
  Ga  Ga30  1  0.659581  0.032949  0.958441  1
  Ga  Ga31  1  0.340419  0.967051  0.041559  1
  Sn  Sn32  1  0.287962  0.867435  0.750000  1
  Sn  Sn33  1  0.712038  0.132565  0.250000  1
  Sn  Sn34  1  0.212038  0.367435  0.250000  1
  Sn  Sn35  1  0.787962  0.632565  0.750000  1
