# generated using pymatgen
data_Tb2Sc3Pb4
_symmetry_space_group_name_H-M   'P 1'
_cell_length_a   7.95747200
_cell_length_b   8.02524200
_cell_length_c   15.14103700
_cell_angle_alpha   90.00000000
_cell_angle_beta   90.00000000
_cell_angle_gamma   90.00000000
_symmetry_Int_Tables_number   1
_chemical_formula_structural   Tb2Sc3Pb4
_chemical_formula_sum   'Tb8 Sc12 Pb16'
_cell_volume   966.91629050
_cell_formula_units_Z   4
loop_
 _symmetry_equiv_pos_site_id
 _symmetry_equiv_pos_as_xyz
  1  'x, y, z'
loop_
 _atom_site_type_symbol
 _atom_site_label
 _atom_site_symmetry_multiplicity
 _atom_site_fract_x
 _atom_site_fract_y
 _atom_site_fract_z
 _atom_site_occupancy
  Tb  Tb0  1  0.531532  0.323034  0.902801  1
  Tb  Tb1  1  0.031532  0.176966  0.597199  1
  Tb  Tb2  1  0.468468  0.676966  0.402801  1
  Tb  Tb3  1  0.968468  0.823034  0.097199  1
  Tb  Tb4  1  0.468468  0.676966  0.097199  1
  Tb  Tb5  1  0.968468  0.823034  0.402801  1
  Tb  Tb6  1  0.531532  0.323034  0.597199  1
  Tb  Tb7  1  0.031532  0.176966  0.902801  1
  Sc  Sc8  1  0.371658  0.842672  0.876487  1
  Sc  Sc9  1  0.871658  0.657328  0.623513  1
  Sc  Sc10  1  0.628342  0.157328  0.376487  1
  Sc  Sc11  1  0.128342  0.342672  0.123513  1
  Sc  Sc12  1  0.628342  0.157328  0.123513  1
  Sc  Sc13  1  0.128342  0.342672  0.376487  1
  Sc  Sc14  1  0.371658  0.842672  0.623513  1
  Sc  Sc15  1  0.871658  0.657328  0.876487  1
  Sc  Sc16  1  0.203555  0.507021  0.750000  1
  Sc  Sc17  1  0.703555  0.992979  0.750000  1
  Sc  Sc18  1  0.796445  0.492979  0.250000  1
  Sc  Sc19  1  0.296445  0.007021  0.250000  1
  Pb  Pb20  1  0.292179  0.040865  0.043858  1
  Pb  Pb21  1  0.792179  0.459135  0.456142  1
  Pb  Pb22  1  0.707821  0.959135  0.543858  1
  Pb  Pb23  1  0.207821  0.540865  0.956142  1
  Pb  Pb24  1  0.707821  0.959135  0.956142  1
  Pb  Pb25  1  0.207821  0.540865  0.543858  1
  Pb  Pb26  1  0.292179  0.040865  0.456142  1
  Pb  Pb27  1  0.792179  0.459135  0.043858  1
  Pb  Pb28  1  0.564964  0.633158  0.750000  1
  Pb  Pb29  1  0.064964  0.866842  0.750000  1
  Pb  Pb30  1  0.435036  0.366842  0.250000  1
  Pb  Pb31  1  0.935036  0.133158  0.250000  1
  Pb  Pb32  1  0.343982  0.150187  0.750000  1
  Pb  Pb33  1  0.843982  0.349813  0.750000  1
  Pb  Pb34  1  0.656018  0.849813  0.250000  1
  Pb  Pb35  1  0.156018  0.650187  0.250000  1
