# generated using pymatgen
data_Eu(Pd3O4)2
_symmetry_space_group_name_H-M   'P 1'
_cell_length_a   5.78236300
_cell_length_b   5.78236300
_cell_length_c   5.78236300
_cell_angle_alpha   90.00000000
_cell_angle_beta   90.00000000
_cell_angle_gamma   90.00000000
_symmetry_Int_Tables_number   1
_chemical_formula_structural   Eu(Pd3O4)2
_chemical_formula_sum   'Eu1 Pd6 O8'
_cell_volume   193.33748098
_cell_formula_units_Z   1
loop_
 _symmetry_equiv_pos_site_id
 _symmetry_equiv_pos_as_xyz
  1  'x, y, z'
loop_
 _atom_site_type_symbol
 _atom_site_label
 _atom_site_symmetry_multiplicity
 _atom_site_fract_x
 _atom_site_fract_y
 _atom_site_fract_z
 _atom_site_occupancy
  Eu  Eu0  1  0.500000  0.500000  0.500000  1
  Pd  Pd1  1  0.000000  0.500000  0.757298  1
  Pd  Pd2  1  0.500000  0.242702  0.000000  1
  Pd  Pd3  1  0.757298  0.000000  0.500000  1
  Pd  Pd4  1  0.000000  0.500000  0.242702  1
  Pd  Pd5  1  0.500000  0.757298  0.000000  1
  Pd  Pd6  1  0.242702  0.000000  0.500000  1
  O  O7  1  0.742250  0.257750  0.742250  1
  O  O8  1  0.257750  0.742250  0.257750  1
  O  O9  1  0.742250  0.742250  0.257750  1
  O  O10  1  0.257750  0.257750  0.742250  1
  O  O11  1  0.257750  0.742250  0.742250  1
  O  O12  1  0.742250  0.257750  0.257750  1
  O  O13  1  0.257750  0.257750  0.257750  1
  O  O14  1  0.742250  0.742250  0.742250  1
