# generated using pymatgen
data_Dy5Er(Lu2Sn3)2
_symmetry_space_group_name_H-M   'P 1'
_cell_length_a   8.89116300
_cell_length_b   8.88320651
_cell_length_c   6.44391400
_cell_angle_alpha   90.00000000
_cell_angle_beta   90.00000000
_cell_angle_gamma   120.02963694
_symmetry_Int_Tables_number   1
_chemical_formula_structural   Dy5Er(Lu2Sn3)2
_chemical_formula_sum   'Dy5 Er1 Lu4 Sn6'
_cell_volume   440.63493045
_cell_formula_units_Z   1
loop_
 _symmetry_equiv_pos_site_id
 _symmetry_equiv_pos_as_xyz
  1  'x, y, z'
loop_
 _atom_site_type_symbol
 _atom_site_label
 _atom_site_symmetry_multiplicity
 _atom_site_fract_x
 _atom_site_fract_y
 _atom_site_fract_z
 _atom_site_occupancy
  Dy  Dy0  1  0.000163  0.761170  0.750000  1
  Dy  Dy1  1  0.000101  0.239016  0.250000  1
  Dy  Dy2  1  0.761085  0.760984  0.250000  1
  Dy  Dy3  1  0.760619  0.000000  0.750000  1
  Dy  Dy4  1  0.238993  0.238830  0.750000  1
  Er  Er5  1  0.239177  0.000000  0.250000  1
  Lu  Lu6  1  0.333320  0.666708  0.499983  1
  Lu  Lu7  1  0.666611  0.333292  0.000017  1
  Lu  Lu8  1  0.666611  0.333292  0.499983  1
  Lu  Lu9  1  0.333320  0.666708  0.000017  1
  Sn  Sn10  1  0.396972  0.000000  0.750000  1
  Sn  Sn11  1  0.396460  0.395934  0.250000  1
  Sn  Sn12  1  0.000526  0.604066  0.250000  1
  Sn  Sn13  1  0.000148  0.396891  0.750000  1
  Sn  Sn14  1  0.603257  0.603109  0.750000  1
  Sn  Sn15  1  0.602638  0.000000  0.250000  1
