# generated using pymatgen
data_Yb2PaGa6(Co2Ni)3
_symmetry_space_group_name_H-M   'P 1'
_cell_length_a   8.87799900
_cell_length_b   8.87799817
_cell_length_c   3.91739100
_cell_angle_alpha   90.00000000
_cell_angle_beta   90.00000000
_cell_angle_gamma   119.99999936
_symmetry_Int_Tables_number   1
_chemical_formula_structural   Yb2PaGa6(Co2Ni)3
_chemical_formula_sum   'Yb2 Pa1 Ga6 Co6 Ni3'
_cell_volume   267.39771927
_cell_formula_units_Z   1
loop_
 _symmetry_equiv_pos_site_id
 _symmetry_equiv_pos_as_xyz
  1  'x, y, z'
loop_
 _atom_site_type_symbol
 _atom_site_label
 _atom_site_symmetry_multiplicity
 _atom_site_fract_x
 _atom_site_fract_y
 _atom_site_fract_z
 _atom_site_occupancy
  Yb  Yb0  1  0.666667  0.333333  0.500000  1
  Yb  Yb1  1  0.333333  0.666667  0.500000  1
  Pa  Pa2  1  0.000000  0.000000  0.000000  1
  Ga  Ga3  1  0.675677  0.675677  0.500000  1
  Ga  Ga4  1  0.324323  0.000000  0.500000  1
  Ga  Ga5  1  0.000000  0.324323  0.500000  1
  Ga  Ga6  1  0.324323  0.324323  0.500000  1
  Ga  Ga7  1  0.675677  0.000000  0.500000  1
  Ga  Ga8  1  0.000000  0.675677  0.500000  1
  Co  Co9  1  0.833104  0.166896  0.000000  1
  Co  Co10  1  0.833104  0.666206  0.000000  1
  Co  Co11  1  0.333794  0.166896  0.000000  1
  Co  Co12  1  0.166896  0.833104  0.000000  1
  Co  Co13  1  0.666206  0.833104  0.000000  1
  Co  Co14  1  0.166896  0.333794  0.000000  1
  Ni  Ni15  1  0.500000  0.500000  0.000000  1
  Ni  Ni16  1  0.500000  0.000000  0.000000  1
  Ni  Ni17  1  0.000000  0.500000  0.000000  1
