# generated using pymatgen
data_TbEr4Fe3(P3Ir4)4
_symmetry_space_group_name_H-M   'P 1'
_cell_length_a   12.56540900
_cell_length_b   12.56540890
_cell_length_c   3.91990900
_cell_angle_alpha   90.00000000
_cell_angle_beta   90.00000000
_cell_angle_gamma   120.00000289
_symmetry_Int_Tables_number   1
_chemical_formula_structural   TbEr4Fe3(P3Ir4)4
_chemical_formula_sum   'Tb1 Er4 Fe3 P12 Ir16'
_cell_volume   535.99391500
_cell_formula_units_Z   1
loop_
 _symmetry_equiv_pos_site_id
 _symmetry_equiv_pos_as_xyz
  1  'x, y, z'
loop_
 _atom_site_type_symbol
 _atom_site_label
 _atom_site_symmetry_multiplicity
 _atom_site_fract_x
 _atom_site_fract_y
 _atom_site_fract_z
 _atom_site_occupancy
  Tb  Tb0  1  0.666667  0.333333  0.000000  1
  Er  Er1  1  0.333333  0.666667  0.000000  1
  Er  Er2  1  0.818222  0.818276  0.500000  1
  Er  Er3  1  0.181724  0.999947  0.500000  1
  Er  Er4  1  0.000053  0.181778  0.500000  1
  Fe  Fe5  1  0.284818  0.284961  0.500000  1
  Fe  Fe6  1  0.715039  0.999857  0.500000  1
  Fe  Fe7  1  0.000143  0.715182  0.500000  1
  P  P8  1  0.686561  0.161982  0.500000  1
  P  P9  1  0.838018  0.524579  0.500000  1
  P  P10  1  0.475421  0.313439  0.500000  1
  P  P11  1  0.162498  0.686637  0.500000  1
  P  P12  1  0.524139  0.837502  0.500000  1
  P  P13  1  0.313363  0.475861  0.500000  1
  P  P14  1  0.643285  0.643184  0.000000  1
  P  P15  1  0.356816  0.000100  0.000000  1
  P  P16  1  0.999900  0.356715  0.000000  1
  P  P17  1  0.182364  0.182465  0.000000  1
  P  P18  1  0.817535  0.999898  0.000000  1
  P  P19  1  0.000102  0.817636  0.000000  1
  Ir  Ir20  1  0.803879  0.177943  0.000000  1
  Ir  Ir21  1  0.822057  0.625936  0.000000  1
  Ir  Ir22  1  0.374064  0.196121  0.000000  1
  Ir  Ir23  1  0.178187  0.803738  0.000000  1
  Ir  Ir24  1  0.625550  0.821813  0.000000  1
  Ir  Ir25  1  0.196262  0.374450  0.000000  1
  Ir  Ir26  1  0.459003  0.459037  0.000000  1
  Ir  Ir27  1  0.540963  0.999967  0.000000  1
  Ir  Ir28  1  0.000033  0.540997  0.000000  1
  Ir  Ir29  1  0.868397  0.359972  0.500000  1
  Ir  Ir30  1  0.640028  0.508427  0.500000  1
  Ir  Ir31  1  0.491573  0.131603  0.500000  1
  Ir  Ir32  1  0.359825  0.867118  0.500000  1
  Ir  Ir33  1  0.507294  0.640175  0.500000  1
  Ir  Ir34  1  0.132882  0.492706  0.500000  1
  Ir  Ir35  1  0.000000  0.000000  0.000000  1
