# generated using pymatgen
data_Th(AlAg2)4
_symmetry_space_group_name_H-M   'P 1'
_cell_length_a   7.16680628
_cell_length_b   7.16680711
_cell_length_c   7.16680627
_cell_angle_alpha   98.17026615
_cell_angle_beta   98.17026327
_cell_angle_gamma   135.70628736
_symmetry_Int_Tables_number   1
_chemical_formula_structural   Th(AlAg2)4
_chemical_formula_sum   'Th1 Al4 Ag8'
_cell_volume   238.09837680
_cell_formula_units_Z   1
loop_
 _symmetry_equiv_pos_site_id
 _symmetry_equiv_pos_as_xyz
  1  'x, y, z'
loop_
 _atom_site_type_symbol
 _atom_site_label
 _atom_site_symmetry_multiplicity
 _atom_site_fract_x
 _atom_site_fract_y
 _atom_site_fract_z
 _atom_site_occupancy
  Th  Th0  1  0.000000  0.000000  0.000000  1
  Al  Al1  1  0.500000  0.500000  0.500000  1
  Al  Al2  1  0.000000  0.000000  0.500000  1
  Al  Al3  1  0.000000  0.500000  0.000000  1
  Al  Al4  1  0.500000  0.000000  0.000000  1
  Ag  Ag5  1  0.282968  0.500000  0.782968  1
  Ag  Ag6  1  0.717032  0.500000  0.217032  1
  Ag  Ag7  1  0.500000  0.282968  0.782968  1
  Ag  Ag8  1  0.500000  0.717032  0.217032  1
  Ag  Ag9  1  0.345861  0.000000  0.345861  1
  Ag  Ag10  1  0.654139  0.000000  0.654139  1
  Ag  Ag11  1  0.000000  0.345861  0.345861  1
  Ag  Ag12  1  0.000000  0.654139  0.654139  1
