# generated using pymatgen
data_HoTh3(Si3Ni)2
_symmetry_space_group_name_H-M   'P 1'
_cell_length_a   4.20226100
_cell_length_b   8.01968041
_cell_length_c   8.01968067
_cell_angle_alpha   120.23748801
_cell_angle_beta   90.00000000
_cell_angle_gamma   90.00000000
_symmetry_Int_Tables_number   1
_chemical_formula_structural   HoTh3(Si3Ni)2
_chemical_formula_sum   'Ho1 Th3 Si6 Ni2'
_cell_volume   233.49818302
_cell_formula_units_Z   1
loop_
 _symmetry_equiv_pos_site_id
 _symmetry_equiv_pos_as_xyz
  1  'x, y, z'
loop_
 _atom_site_type_symbol
 _atom_site_label
 _atom_site_symmetry_multiplicity
 _atom_site_fract_x
 _atom_site_fract_y
 _atom_site_fract_z
 _atom_site_occupancy
  Ho  Ho0  1  0.500000  0.499851  0.499851  1
  Th  Th1  1  0.500000  0.000007  0.000007  1
  Th  Th2  1  0.500000  0.000018  0.500060  1
  Th  Th3  1  0.500000  0.500060  0.000018  1
  Si  Si4  1  0.000000  0.830398  0.169666  1
  Si  Si5  1  0.000000  0.825453  0.655822  1
  Si  Si6  1  0.000000  0.344214  0.174561  1
  Si  Si7  1  0.000000  0.169666  0.830398  1
  Si  Si8  1  0.000000  0.655822  0.825453  1
  Si  Si9  1  0.000000  0.174561  0.344214  1
  Ni  Ni10  1  0.000000  0.667394  0.332657  1
  Ni  Ni11  1  0.000000  0.332657  0.667394  1
