# generated using pymatgen
data_Th3In(Pd5Pt)2
_symmetry_space_group_name_H-M   'P 1'
_cell_length_a   5.89621700
_cell_length_b   5.89621583
_cell_length_c   9.65546900
_cell_angle_alpha   90.00000000
_cell_angle_beta   90.00000000
_cell_angle_gamma   120.08605592
_symmetry_Int_Tables_number   1
_chemical_formula_structural   Th3In(Pd5Pt)2
_chemical_formula_sum   'Th3 In1 Pd10 Pt2'
_cell_volume   290.45147198
_cell_formula_units_Z   1
loop_
 _symmetry_equiv_pos_site_id
 _symmetry_equiv_pos_as_xyz
  1  'x, y, z'
loop_
 _atom_site_type_symbol
 _atom_site_label
 _atom_site_symmetry_multiplicity
 _atom_site_fract_x
 _atom_site_fract_y
 _atom_site_fract_z
 _atom_site_occupancy
  Th  Th0  1  0.999885  0.000115  0.495771  1
  Th  Th1  1  0.999885  0.000115  0.004229  1
  Th  Th2  1  0.666967  0.333033  0.750000  1
  In  In3  1  0.333473  0.666527  0.250000  1
  Pd  Pd4  1  0.498562  0.501438  0.495858  1
  Pd  Pd5  1  0.498336  0.997619  0.495531  1
  Pd  Pd6  1  0.002381  0.501664  0.495531  1
  Pd  Pd7  1  0.498562  0.501438  0.004142  1
  Pd  Pd8  1  0.498336  0.997619  0.004469  1
  Pd  Pd9  1  0.002381  0.501664  0.004469  1
  Pd  Pd10  1  0.824687  0.649579  0.250000  1
  Pd  Pd11  1  0.350421  0.175313  0.250000  1
  Pd  Pd12  1  0.825561  0.174439  0.250000  1
  Pd  Pd13  1  0.173681  0.826319  0.750000  1
  Pt  Pt14  1  0.173459  0.346578  0.750000  1
  Pt  Pt15  1  0.653422  0.826541  0.750000  1
