# generated using pymatgen
data_MnAl2CrNi8
_symmetry_space_group_name_H-M   'P 1'
_cell_length_a   3.56052100
_cell_length_b   3.56052100
_cell_length_c   10.71642100
_cell_angle_alpha   90.00000000
_cell_angle_beta   90.00000000
_cell_angle_gamma   90.00000000
_symmetry_Int_Tables_number   1
_chemical_formula_structural   MnAl2CrNi8
_chemical_formula_sum   'Mn1 Al2 Cr1 Ni8'
_cell_volume   135.85538887
_cell_formula_units_Z   1
loop_
 _symmetry_equiv_pos_site_id
 _symmetry_equiv_pos_as_xyz
  1  'x, y, z'
loop_
 _atom_site_type_symbol
 _atom_site_label
 _atom_site_symmetry_multiplicity
 _atom_site_fract_x
 _atom_site_fract_y
 _atom_site_fract_z
 _atom_site_occupancy
  Mn  Mn0  1  0.500000  0.500000  0.000000  1
  Al  Al1  1  0.000000  0.000000  0.335255  1
  Al  Al2  1  0.000000  0.000000  0.664745  1
  Cr  Cr3  1  0.000000  0.000000  0.000000  1
  Ni  Ni4  1  0.500000  0.500000  0.333286  1
  Ni  Ni5  1  0.500000  0.500000  0.666714  1
  Ni  Ni6  1  0.500000  0.000000  0.165227  1
  Ni  Ni7  1  0.500000  0.000000  0.500000  1
  Ni  Ni8  1  0.500000  0.000000  0.834773  1
  Ni  Ni9  1  0.000000  0.500000  0.165227  1
  Ni  Ni10  1  0.000000  0.500000  0.500000  1
  Ni  Ni11  1  0.000000  0.500000  0.834773  1
