# generated using pymatgen
data_Ho4HfZr3Pt4
_symmetry_space_group_name_H-M   'P 1'
_cell_length_a   4.67967200
_cell_length_b   7.10063887
_cell_length_c   8.24022524
_cell_angle_alpha   89.72896606
_cell_angle_beta   90.00000000
_cell_angle_gamma   90.00000000
_symmetry_Int_Tables_number   1
_chemical_formula_structural   Ho4HfZr3Pt4
_chemical_formula_sum   'Ho4 Hf1 Zr3 Pt4'
_cell_volume   273.80858658
_cell_formula_units_Z   1
loop_
 _symmetry_equiv_pos_site_id
 _symmetry_equiv_pos_as_xyz
  1  'x, y, z'
loop_
 _atom_site_type_symbol
 _atom_site_label
 _atom_site_symmetry_multiplicity
 _atom_site_fract_x
 _atom_site_fract_y
 _atom_site_fract_z
 _atom_site_occupancy
  Ho  Ho0  1  0.250000  0.983681  0.322840  1
  Ho  Ho1  1  0.250000  0.485130  0.176861  1
  Ho  Ho2  1  0.750000  0.014668  0.679024  1
  Ho  Ho3  1  0.750000  0.515411  0.820266  1
  Hf  Hf4  1  0.750000  0.647186  0.420162  1
  Zr  Zr5  1  0.250000  0.851988  0.920787  1
  Zr  Zr6  1  0.250000  0.352667  0.578916  1
  Zr  Zr7  1  0.750000  0.148162  0.081167  1
  Pt  Pt8  1  0.250000  0.230797  0.906018  1
  Pt  Pt9  1  0.250000  0.730727  0.590910  1
  Pt  Pt10  1  0.750000  0.767635  0.096263  1
  Pt  Pt11  1  0.750000  0.271950  0.406787  1
