# generated using pymatgen
data_Np4Al7Zn
_symmetry_space_group_name_H-M   'P 1'
_cell_length_a   5.63208000
_cell_length_b   5.58535058
_cell_length_c   8.44466100
_cell_angle_alpha   90.00000000
_cell_angle_beta   90.00000000
_cell_angle_gamma   120.27713534
_symmetry_Int_Tables_number   1
_chemical_formula_structural   Np4Al7Zn
_chemical_formula_sum   'Np4 Al7 Zn1'
_cell_volume   229.41008596
_cell_formula_units_Z   1
loop_
 _symmetry_equiv_pos_site_id
 _symmetry_equiv_pos_as_xyz
  1  'x, y, z'
loop_
 _atom_site_type_symbol
 _atom_site_label
 _atom_site_symmetry_multiplicity
 _atom_site_fract_x
 _atom_site_fract_y
 _atom_site_fract_z
 _atom_site_occupancy
  Np  Np0  1  0.337973  0.675948  0.407106  1
  Np  Np1  1  0.662864  0.325728  0.908486  1
  Np  Np2  1  0.662864  0.325728  0.591514  1
  Np  Np3  1  0.337973  0.675948  0.092894  1
  Al  Al4  1  0.831605  0.181447  0.250000  1
  Al  Al5  1  0.349841  0.181447  0.250000  1
  Al  Al6  1  0.645091  0.814482  0.750000  1
  Al  Al7  1  0.001293  0.002585  0.996898  1
  Al  Al8  1  0.001293  0.002585  0.503102  1
  Al  Al9  1  0.828817  0.657637  0.250000  1
  Al  Al10  1  0.169392  0.814482  0.750000  1
  Zn  Zn11  1  0.170993  0.341987  0.750000  1
