# generated using pymatgen
data_BaNa11Li8(TiAs3)4
_symmetry_space_group_name_H-M   'P 1'
_cell_length_a   9.78817629
_cell_length_b   9.78817699
_cell_length_c   13.95203734
_cell_angle_alpha   90.03318535
_cell_angle_beta   90.03317909
_cell_angle_gamma   143.37947101
_symmetry_Int_Tables_number   1
_chemical_formula_structural   BaNa11Li8(TiAs3)4
_chemical_formula_sum   'Ba1 Na11 Li8 Ti4 As12'
_cell_volume   797.37024674
_cell_formula_units_Z   1
loop_
 _symmetry_equiv_pos_site_id
 _symmetry_equiv_pos_as_xyz
  1  'x, y, z'
loop_
 _atom_site_type_symbol
 _atom_site_label
 _atom_site_symmetry_multiplicity
 _atom_site_fract_x
 _atom_site_fract_y
 _atom_site_fract_z
 _atom_site_occupancy
  Ba  Ba0  1  0.788308  0.788308  0.188099  1
  Na  Na1  1  0.599195  0.941576  0.822750  1
  Na  Na2  1  0.280758  0.280758  0.334180  1
  Na  Na3  1  0.223445  0.223445  0.820093  1
  Na  Na4  1  0.725575  0.725575  0.678923  1
  Na  Na5  1  0.444791  0.099422  0.677496  1
  Na  Na6  1  0.905940  0.548845  0.326591  1
  Na  Na7  1  0.061035  0.405972  0.171398  1
  Na  Na8  1  0.405972  0.061035  0.171398  1
  Na  Na9  1  0.548845  0.905940  0.326591  1
  Na  Na10  1  0.099422  0.444791  0.677496  1
  Na  Na11  1  0.941576  0.599195  0.822750  1
  Li  Li12  1  0.088579  0.917154  0.993817  1
  Li  Li13  1  0.582156  0.411164  0.504362  1
  Li  Li14  1  0.917154  0.088579  0.993817  1
  Li  Li15  1  0.752443  0.246842  0.996754  1
  Li  Li16  1  0.746921  0.252659  0.500250  1
  Li  Li17  1  0.246842  0.752443  0.996754  1
  Li  Li18  1  0.252659  0.746921  0.500250  1
  Li  Li19  1  0.411164  0.582156  0.504362  1
  Ti  Ti20  1  0.087696  0.911138  0.502943  1
  Ti  Ti21  1  0.411091  0.586169  0.995037  1
  Ti  Ti22  1  0.911138  0.087696  0.502943  1
  Ti  Ti23  1  0.586169  0.411091  0.995037  1
  As  As24  1  0.064767  0.385800  0.391906  1
  As  As25  1  0.891275  0.564675  0.102579  1
  As  As26  1  0.432848  0.108076  0.891194  1
  As  As27  1  0.607479  0.934997  0.605927  1
  As  As28  1  0.934997  0.607479  0.605927  1
  As  As29  1  0.108076  0.432848  0.891194  1
  As  As30  1  0.564675  0.891275  0.102579  1
  As  As31  1  0.385800  0.064767  0.391906  1
  As  As32  1  0.224769  0.224769  0.599942  1
  As  As33  1  0.730955  0.730955  0.900614  1
  As  As34  1  0.274613  0.274613  0.096773  1
  As  As35  1  0.760870  0.760870  0.415372  1
