# generated using pymatgen
data_Rb4GeP3Pt4
_symmetry_space_group_name_H-M   'P 1'
_cell_length_a   6.84874671
_cell_length_b   6.85817622
_cell_length_c   7.87092121
_cell_angle_alpha   90.26397288
_cell_angle_beta   90.32558179
_cell_angle_gamma   109.79628495
_symmetry_Int_Tables_number   1
_chemical_formula_structural   Rb4GeP3Pt4
_chemical_formula_sum   'Rb4 Ge1 P3 Pt4'
_cell_volume   347.83442536
_cell_formula_units_Z   1
loop_
 _symmetry_equiv_pos_site_id
 _symmetry_equiv_pos_as_xyz
  1  'x, y, z'
loop_
 _atom_site_type_symbol
 _atom_site_label
 _atom_site_symmetry_multiplicity
 _atom_site_fract_x
 _atom_site_fract_y
 _atom_site_fract_z
 _atom_site_occupancy
  Rb  Rb0  1  0.186854  0.807978  0.507083  1
  Rb  Rb1  1  0.687667  0.310438  0.993031  1
  Rb  Rb2  1  0.811047  0.189912  0.489512  1
  Rb  Rb3  1  0.313875  0.691871  0.010416  1
  Ge  Ge4  1  0.164772  0.177634  0.828569  1
  P  P5  1  0.665872  0.679075  0.668804  1
  P  P6  1  0.835364  0.822584  0.171134  1
  P  P7  1  0.337681  0.324930  0.327494  1
  Pt  Pt8  1  0.378361  0.386599  0.617312  1
  Pt  Pt9  1  0.632764  0.624294  0.371784  1
  Pt  Pt10  1  0.124981  0.116595  0.135529  1
  Pt  Pt11  1  0.860761  0.868091  0.879331  1
