# generated using pymatgen
data_Sm4HoTm3(ReB6)4
_symmetry_space_group_name_H-M   'P 1'
_cell_length_a   3.69509800
_cell_length_b   9.19032402
_cell_length_c   11.61728002
_cell_angle_alpha   90.00693839
_cell_angle_beta   90.00000000
_cell_angle_gamma   90.00000000
_symmetry_Int_Tables_number   1
_chemical_formula_structural   Sm4HoTm3(ReB6)4
_chemical_formula_sum   'Sm4 Ho1 Tm3 Re4 B24'
_cell_volume   394.51292748
_cell_formula_units_Z   1
loop_
 _symmetry_equiv_pos_site_id
 _symmetry_equiv_pos_as_xyz
  1  'x, y, z'
loop_
 _atom_site_type_symbol
 _atom_site_label
 _atom_site_symmetry_multiplicity
 _atom_site_fract_x
 _atom_site_fract_y
 _atom_site_fract_z
 _atom_site_occupancy
  Sm  Sm0  1  0.000000  0.323037  0.414156  1
  Sm  Sm1  1  0.000000  0.676902  0.585970  1
  Sm  Sm2  1  0.000000  0.822890  0.085677  1
  Sm  Sm3  1  0.000000  0.177099  0.914092  1
  Ho  Ho4  1  0.000000  0.943315  0.369988  1
  Tm  Tm5  1  0.000000  0.056957  0.630721  1
  Tm  Tm6  1  0.000000  0.443177  0.130137  1
  Tm  Tm7  1  0.000000  0.556828  0.869711  1
  Re  Re8  1  0.000000  0.638966  0.319396  1
  Re  Re9  1  0.000000  0.360483  0.680625  1
  Re  Re10  1  0.000000  0.139968  0.180153  1
  Re  Re11  1  0.000000  0.860398  0.819506  1
  B  B12  1  0.500000  0.554129  0.431373  1
  B  B13  1  0.500000  0.445485  0.568743  1
  B  B14  1  0.500000  0.054541  0.068467  1
  B  B15  1  0.500000  0.945534  0.931265  1
  B  B16  1  0.500000  0.749619  0.416803  1
  B  B17  1  0.500000  0.249510  0.583223  1
  B  B18  1  0.500000  0.250671  0.083053  1
  B  B19  1  0.500000  0.749465  0.916799  1
  B  B20  1  0.500000  0.791693  0.265600  1
  B  B21  1  0.500000  0.207694  0.734253  1
  B  B22  1  0.500000  0.292669  0.234086  1
  B  B23  1  0.500000  0.707622  0.765824  1
  B  B24  1  0.500000  0.629507  0.185339  1
  B  B25  1  0.500000  0.370287  0.814496  1
  B  B26  1  0.500000  0.130393  0.314036  1
  B  B27  1  0.500000  0.870228  0.685614  1
  B  B28  1  0.500000  0.983366  0.212643  1
  B  B29  1  0.500000  0.017011  0.786929  1
  B  B30  1  0.500000  0.482735  0.286770  1
  B  B31  1  0.500000  0.517071  0.713141  1
  B  B32  1  0.500000  0.596639  0.026752  1
  B  B33  1  0.500000  0.403370  0.973150  1
  B  B34  1  0.500000  0.097547  0.473848  1
  B  B35  1  0.500000  0.903195  0.527664  1
