# generated using pymatgen
data_Lu2ThCo8P6W
_symmetry_space_group_name_H-M   'P 1'
_cell_length_a   3.75466000
_cell_length_b   10.58987100
_cell_length_c   12.29641800
_cell_angle_alpha   90.00000000
_cell_angle_beta   90.00000000
_cell_angle_gamma   90.00000000
_symmetry_Int_Tables_number   1
_chemical_formula_structural   Lu2ThCo8P6W
_chemical_formula_sum   'Lu4 Th2 Co16 P12 W2'
_cell_volume   488.92236489
_cell_formula_units_Z   2
loop_
 _symmetry_equiv_pos_site_id
 _symmetry_equiv_pos_as_xyz
  1  'x, y, z'
loop_
 _atom_site_type_symbol
 _atom_site_label
 _atom_site_symmetry_multiplicity
 _atom_site_fract_x
 _atom_site_fract_y
 _atom_site_fract_z
 _atom_site_occupancy
  Lu  Lu0  1  0.500000  0.818613  0.202127  1
  Lu  Lu1  1  0.500000  0.181387  0.202127  1
  Lu  Lu2  1  0.000000  0.681387  0.797873  1
  Lu  Lu3  1  0.000000  0.318613  0.797873  1
  Th  Th4  1  0.000000  0.500000  0.527638  1
  Th  Th5  1  0.500000  0.000000  0.472362  1
  Co  Co6  1  0.500000  0.500000  0.702943  1
  Co  Co7  1  0.000000  0.000000  0.297057  1
  Co  Co8  1  0.000000  0.500000  0.986287  1
  Co  Co9  1  0.500000  0.000000  0.013713  1
  Co  Co10  1  0.500000  0.332743  0.989687  1
  Co  Co11  1  0.500000  0.667257  0.989687  1
  Co  Co12  1  0.000000  0.167257  0.010313  1
  Co  Co13  1  0.000000  0.832743  0.010313  1
  Co  Co14  1  0.500000  0.296992  0.430184  1
  Co  Co15  1  0.500000  0.703008  0.430184  1
  Co  Co16  1  0.000000  0.203008  0.569816  1
  Co  Co17  1  0.000000  0.796992  0.569816  1
  Co  Co18  1  0.500000  0.878605  0.712100  1
  Co  Co19  1  0.500000  0.121395  0.712100  1
  Co  Co20  1  0.000000  0.621395  0.287900  1
  Co  Co21  1  0.000000  0.378605  0.287900  1
  P  P22  1  0.500000  0.500000  0.879588  1
  P  P23  1  0.000000  0.000000  0.120412  1
  P  P24  1  0.500000  0.500000  0.344474  1
  P  P25  1  0.000000  0.000000  0.655526  1
  P  P26  1  0.500000  0.306964  0.620591  1
  P  P27  1  0.500000  0.693036  0.620591  1
  P  P28  1  0.000000  0.193036  0.379409  1
  P  P29  1  0.000000  0.806964  0.379409  1
  P  P30  1  0.500000  0.843278  0.893700  1
  P  P31  1  0.500000  0.156722  0.893700  1
  P  P32  1  0.000000  0.656722  0.106300  1
  P  P33  1  0.000000  0.343278  0.106300  1
  W  W34  1  0.500000  0.500000  0.152359  1
  W  W35  1  0.000000  0.000000  0.847641  1
