# generated using pymatgen
data_Ac4PrSn3Br
_symmetry_space_group_name_H-M   'P 1'
_cell_length_a   10.02355700
_cell_length_b   10.02355589
_cell_length_c   7.15413800
_cell_angle_alpha   90.00000000
_cell_angle_beta   90.00000000
_cell_angle_gamma   120.00000038
_symmetry_Int_Tables_number   1
_chemical_formula_structural   Ac4PrSn3Br
_chemical_formula_sum   'Ac8 Pr2 Sn6 Br2'
_cell_volume   622.48891733
_cell_formula_units_Z   2
loop_
 _symmetry_equiv_pos_site_id
 _symmetry_equiv_pos_as_xyz
  1  'x, y, z'
loop_
 _atom_site_type_symbol
 _atom_site_label
 _atom_site_symmetry_multiplicity
 _atom_site_fract_x
 _atom_site_fract_y
 _atom_site_fract_z
 _atom_site_occupancy
  Ac  Ac0  1  0.272611  0.272611  0.752493  1
  Ac  Ac1  1  0.000000  0.727389  0.752493  1
  Ac  Ac2  1  0.727389  0.000000  0.752493  1
  Ac  Ac3  1  0.000000  0.272611  0.247507  1
  Ac  Ac4  1  0.333333  0.666667  0.500000  1
  Ac  Ac5  1  0.727389  0.727389  0.247507  1
  Ac  Ac6  1  0.666667  0.333333  0.500000  1
  Ac  Ac7  1  0.272611  0.000000  0.247507  1
  Pr  Pr8  1  0.333333  0.666667  0.000000  1
  Pr  Pr9  1  0.666667  0.333333  0.000000  1
  Sn  Sn10  1  0.614407  0.000000  0.244877  1
  Sn  Sn11  1  0.000000  0.385593  0.755123  1
  Sn  Sn12  1  0.385593  0.000000  0.755123  1
  Sn  Sn13  1  0.614407  0.614407  0.755123  1
  Sn  Sn14  1  0.000000  0.614407  0.244877  1
  Sn  Sn15  1  0.385593  0.385593  0.244877  1
  Br  Br16  1  0.000000  0.000000  0.000000  1
  Br  Br17  1  0.000000  0.000000  0.500000  1
