# generated using pymatgen
data_DyAlCuSi
_symmetry_space_group_name_H-M   'P 1'
_cell_length_a   9.04232504
_cell_length_b   9.04232481
_cell_length_c   3.96894100
_cell_angle_alpha   90.00000000
_cell_angle_beta   90.00000000
_cell_angle_gamma   154.10601122
_symmetry_Int_Tables_number   1
_chemical_formula_structural   DyAlCuSi
_chemical_formula_sum   'Dy2 Al2 Cu2 Si2'
_cell_volume   141.71813215
_cell_formula_units_Z   2
loop_
 _symmetry_equiv_pos_site_id
 _symmetry_equiv_pos_as_xyz
  1  'x, y, z'
loop_
 _atom_site_type_symbol
 _atom_site_label
 _atom_site_symmetry_multiplicity
 _atom_site_fract_x
 _atom_site_fract_y
 _atom_site_fract_z
 _atom_site_occupancy
  Dy  Dy0  1  0.904018  0.095982  0.750000  1
  Dy  Dy1  1  0.095982  0.904018  0.250000  1
  Al  Al2  1  0.248355  0.751645  0.750000  1
  Al  Al3  1  0.751645  0.248355  0.250000  1
  Cu  Cu4  1  0.666160  0.333840  0.750000  1
  Cu  Cu5  1  0.333840  0.666160  0.250000  1
  Si  Si6  1  0.536489  0.463511  0.750000  1
  Si  Si7  1  0.463511  0.536489  0.250000  1
