# generated using pymatgen
data_Ba4Sr6Si10O
_symmetry_space_group_name_H-M   'P 1'
_cell_length_a   11.50960165
_cell_length_b   11.53214796
_cell_length_c   11.53214600
_cell_angle_alpha   155.54981561
_cell_angle_beta   110.78419748
_cell_angle_gamma   74.63335105
_symmetry_Int_Tables_number   1
_chemical_formula_structural   Ba4Sr6Si10O
_chemical_formula_sum   'Ba4 Sr6 Si10 O1'
_cell_volume   585.61855718
_cell_formula_units_Z   1
loop_
 _symmetry_equiv_pos_site_id
 _symmetry_equiv_pos_as_xyz
  1  'x, y, z'
loop_
 _atom_site_type_symbol
 _atom_site_label
 _atom_site_symmetry_multiplicity
 _atom_site_fract_x
 _atom_site_fract_y
 _atom_site_fract_z
 _atom_site_occupancy
  Ba  Ba0  1  0.164906  0.163022  0.001884  1
  Ba  Ba1  1  0.532375  0.192829  0.339549  1
  Ba  Ba2  1  0.498913  0.999284  0.499628  1
  Ba  Ba3  1  0.142403  0.806843  0.335560  1
  Sr  Sr4  1  0.853383  0.852040  0.001344  1
  Sr  Sr5  1  0.195918  0.999233  0.196685  1
  Sr  Sr6  1  0.479818  0.813862  0.665956  1
  Sr  Sr7  1  0.848887  0.186723  0.662164  1
  Sr  Sr8  1  0.803024  0.999501  0.803524  1
  Sr  Sr9  1  0.001843  0.501777  0.500066  1
  Si  Si10  1  0.409902  0.566009  0.843893  1
  Si  Si11  1  0.275676  0.433082  0.842594  1
  Si  Si12  1  0.590268  0.434065  0.156202  1
  Si  Si13  1  0.720807  0.565167  0.155640  1
  Si  Si14  1  0.687044  0.372533  0.314511  1
  Si  Si15  1  0.638226  0.636376  0.001850  1
  Si  Si16  1  0.311376  0.627921  0.683455  1
  Si  Si17  1  0.363831  0.362563  0.001268  1
  Si  Si18  1  0.052260  0.371114  0.681145  1
  Si  Si19  1  0.939727  0.626180  0.313546  1
  O  O20  1  0.989412  0.989876  0.999536  1
