# generated using pymatgen
data_Ti6SiSb2
_symmetry_space_group_name_H-M   'P 1'
_cell_length_a   7.07497038
_cell_length_b   3.72660800
_cell_length_c   7.07497001
_cell_angle_alpha   90.00000000
_cell_angle_beta   120.00339446
_cell_angle_gamma   90.00000000
_symmetry_Int_Tables_number   1
_chemical_formula_structural   Ti6SiSb2
_chemical_formula_sum   'Ti6 Si1 Sb2'
_cell_volume   161.53949352
_cell_formula_units_Z   1
loop_
 _symmetry_equiv_pos_site_id
 _symmetry_equiv_pos_as_xyz
  1  'x, y, z'
loop_
 _atom_site_type_symbol
 _atom_site_label
 _atom_site_symmetry_multiplicity
 _atom_site_fract_x
 _atom_site_fract_y
 _atom_site_fract_z
 _atom_site_occupancy
  Ti  Ti0  1  0.763733  0.000000  0.999761  1
  Ti  Ti1  1  0.386889  0.500001  0.000075  1
  Ti  Ti2  1  0.236142  0.000000  0.236141  1
  Ti  Ti3  1  0.000075  0.500001  0.386889  1
  Ti  Ti4  1  0.613362  0.500001  0.613362  1
  Ti  Ti5  1  0.999761  0.000000  0.763734  1
  Si  Si6  1  0.999973  0.500001  0.999973  1
  Sb  Sb7  1  0.666599  0.000000  0.333517  1
  Sb  Sb8  1  0.333519  0.000000  0.666598  1
