# generated using pymatgen
data_Np4Al23GaPt9
_symmetry_space_group_name_H-M   'P 1'
_cell_length_a   7.56425096
_cell_length_b   7.57830140
_cell_length_c   13.18559956
_cell_angle_alpha   84.50943928
_cell_angle_beta   79.01323521
_cell_angle_gamma   59.92727609
_symmetry_Int_Tables_number   1
_chemical_formula_structural   Np4Al23GaPt9
_chemical_formula_sum   'Np4 Al23 Ga1 Pt9'
_cell_volume   642.11918761
_cell_formula_units_Z   1
loop_
 _symmetry_equiv_pos_site_id
 _symmetry_equiv_pos_as_xyz
  1  'x, y, z'
loop_
 _atom_site_type_symbol
 _atom_site_label
 _atom_site_symmetry_multiplicity
 _atom_site_fract_x
 _atom_site_fract_y
 _atom_site_fract_z
 _atom_site_occupancy
  Np  Np0  1  0.396219  0.165970  0.806263  1
  Np  Np1  1  0.605494  0.832402  0.192723  1
  Np  Np2  1  0.733976  0.500473  0.805155  1
  Np  Np3  1  0.265622  0.501901  0.195564  1
  Al  Al4  1  0.318494  0.166656  0.054464  1
  Al  Al5  1  0.146784  0.833717  0.560446  1
  Al  Al6  1  0.854021  0.166102  0.439914  1
  Al  Al7  1  0.480294  0.167375  0.558398  1
  Al  Al8  1  0.518820  0.833432  0.441760  1
  Al  Al9  1  0.216074  0.165645  0.329503  1
  Al  Al10  1  0.784546  0.834090  0.669271  1
  Al  Al11  1  0.436266  0.507148  0.671696  1
  Al  Al12  1  0.563745  0.492523  0.329296  1
  Al  Al13  1  0.108640  0.159196  0.670519  1
  Al  Al14  1  0.890119  0.841248  0.330121  1
  Al  Al15  1  0.355192  0.497092  0.945805  1
  Al  Al16  1  0.645632  0.502697  0.053751  1
  Al  Al17  1  0.015721  0.170255  0.951484  1
  Al  Al18  1  0.984288  0.830141  0.047185  1
  Al  Al19  1  0.186256  0.499970  0.441632  1
  Al  Al20  1  0.813481  0.499394  0.558907  1
  Al  Al21  1  0.734870  0.164878  0.182358  1
  Al  Al22  1  0.264840  0.833886  0.818193  1
  Al  Al23  1  0.060738  0.630274  0.817325  1
  Al  Al24  1  0.939063  0.369202  0.183546  1
  Al  Al25  1  0.856194  0.042733  0.818386  1
  Al  Al26  1  0.144137  0.959352  0.182329  1
  Ga  Ga27  1  0.682476  0.833007  0.940134  1
  Pt  Pt28  1  0.119779  0.493528  0.638586  1
  Pt  Pt29  1  0.879239  0.507221  0.362129  1
  Pt  Pt30  1  0.660036  0.172464  0.000659  1
  Pt  Pt31  1  0.336289  0.829893  0.000795  1
  Pt  Pt32  1  0.537996  0.167258  0.361798  1
  Pt  Pt33  1  0.461408  0.833203  0.638820  1
  Pt  Pt34  1  0.779476  0.173266  0.638139  1
  Pt  Pt35  1  0.220314  0.825534  0.362236  1
  Pt  Pt36  1  0.003459  0.496871  0.000709  1
