# generated using pymatgen
data_EuZrAs2Pt
_symmetry_space_group_name_H-M   'P 1'
_cell_length_a   4.27610400
_cell_length_b   4.27610240
_cell_length_c   14.03366800
_cell_angle_alpha   90.00000000
_cell_angle_beta   90.00000000
_cell_angle_gamma   119.99998144
_symmetry_Int_Tables_number   1
_chemical_formula_structural   EuZrAs2Pt
_chemical_formula_sum   'Eu2 Zr2 As4 Pt2'
_cell_volume   222.22773861
_cell_formula_units_Z   2
loop_
 _symmetry_equiv_pos_site_id
 _symmetry_equiv_pos_as_xyz
  1  'x, y, z'
loop_
 _atom_site_type_symbol
 _atom_site_label
 _atom_site_symmetry_multiplicity
 _atom_site_fract_x
 _atom_site_fract_y
 _atom_site_fract_z
 _atom_site_occupancy
  Eu  Eu0  1  0.666667  0.333333  0.388401  1
  Eu  Eu1  1  0.333333  0.666667  0.888401  1
  Zr  Zr2  1  0.333333  0.666667  0.617791  1
  Zr  Zr3  1  0.666667  0.333333  0.117791  1
  As  As4  1  0.333333  0.666667  0.262210  1
  As  As5  1  0.000000  0.000000  0.021504  1
  As  As6  1  0.000000  0.000000  0.521504  1
  As  As7  1  0.666667  0.333333  0.762210  1
  Pt  Pt8  1  0.000000  0.000000  0.710094  1
  Pt  Pt9  1  0.000000  0.000000  0.210094  1
