# generated using pymatgen
data_NdEr9In4(HgPd)4
_symmetry_space_group_name_H-M   'P 1'
_cell_length_a   3.61780200
_cell_length_b   7.98250435
_cell_length_c   18.33974323
_cell_angle_alpha   90.28213240
_cell_angle_beta   90.00000000
_cell_angle_gamma   90.00000000
_symmetry_Int_Tables_number   1
_chemical_formula_structural   NdEr9In4(HgPd)4
_chemical_formula_sum   'Nd1 Er9 In4 Hg4 Pd4'
_cell_volume   529.62922812
_cell_formula_units_Z   1
loop_
 _symmetry_equiv_pos_site_id
 _symmetry_equiv_pos_as_xyz
  1  'x, y, z'
loop_
 _atom_site_type_symbol
 _atom_site_label
 _atom_site_symmetry_multiplicity
 _atom_site_fract_x
 _atom_site_fract_y
 _atom_site_fract_z
 _atom_site_occupancy
  Nd  Nd0  1  0.000000  0.500000  0.500000  1
  Er  Er1  1  0.000000  0.000000  0.000000  1
  Er  Er2  1  0.000000  0.746846  0.283257  1
  Er  Er3  1  0.000000  0.253154  0.716743  1
  Er  Er4  1  0.000000  0.755146  0.787420  1
  Er  Er5  1  0.000000  0.244854  0.212580  1
  Er  Er6  1  0.000000  0.609614  0.083263  1
  Er  Er7  1  0.000000  0.390386  0.916737  1
  Er  Er8  1  0.000000  0.887548  0.585499  1
  Er  Er9  1  0.000000  0.112452  0.414501  1
  In  In10  1  0.500000  0.580472  0.653493  1
  In  In11  1  0.500000  0.419528  0.346507  1
  In  In12  1  0.500000  0.919226  0.148271  1
  In  In13  1  0.500000  0.080774  0.851729  1
  Hg  Hg14  1  0.500000  0.710911  0.935265  1
  Hg  Hg15  1  0.500000  0.289089  0.064735  1
  Hg  Hg16  1  0.500000  0.795470  0.430657  1
  Hg  Hg17  1  0.500000  0.204530  0.569343  1
  Pd  Pd18  1  0.500000  0.534622  0.196449  1
  Pd  Pd19  1  0.500000  0.465378  0.803551  1
  Pd  Pd20  1  0.500000  0.964594  0.699946  1
  Pd  Pd21  1  0.500000  0.035406  0.300054  1
