# generated using pymatgen
data_InB2Rh12Pb7
_symmetry_space_group_name_H-M   'P 1'
_cell_length_a   5.77520500
_cell_length_b   5.77520591
_cell_length_c   14.21311400
_cell_angle_alpha   90.00000000
_cell_angle_beta   90.00000000
_cell_angle_gamma   120.00000054
_symmetry_Int_Tables_number   1
_chemical_formula_structural   InB2Rh12Pb7
_chemical_formula_sum   'In1 B2 Rh12 Pb7'
_cell_volume   410.53930857
_cell_formula_units_Z   1
loop_
 _symmetry_equiv_pos_site_id
 _symmetry_equiv_pos_as_xyz
  1  'x, y, z'
loop_
 _atom_site_type_symbol
 _atom_site_label
 _atom_site_symmetry_multiplicity
 _atom_site_fract_x
 _atom_site_fract_y
 _atom_site_fract_z
 _atom_site_occupancy
  In  In0  1  0.333333  0.666667  0.420973  1
  B  B1  1  0.000000  0.000000  0.498779  1
  B  B2  1  0.000000  0.000000  0.000453  1
  Rh  Rh3  1  0.335706  0.167854  0.410350  1
  Rh  Rh4  1  0.832146  0.167854  0.410350  1
  Rh  Rh5  1  0.832146  0.664294  0.410350  1
  Rh  Rh6  1  0.166709  0.333417  0.909181  1
  Rh  Rh7  1  0.663701  0.831850  0.588944  1
  Rh  Rh8  1  0.666583  0.833291  0.909181  1
  Rh  Rh9  1  0.333569  0.166785  0.091236  1
  Rh  Rh10  1  0.168150  0.336299  0.588944  1
  Rh  Rh11  1  0.168150  0.831850  0.588944  1
  Rh  Rh12  1  0.833215  0.166785  0.091236  1
  Rh  Rh13  1  0.833215  0.666431  0.091236  1
  Rh  Rh14  1  0.166709  0.833291  0.909181  1
  Pb  Pb15  1  0.000000  0.000000  0.748027  1
  Pb  Pb16  1  0.000000  0.000000  0.252926  1
  Pb  Pb17  1  0.333333  0.666667  0.749443  1
  Pb  Pb18  1  0.666667  0.333333  0.251869  1
  Pb  Pb19  1  0.666667  0.333333  0.921976  1
  Pb  Pb20  1  0.666667  0.333333  0.577684  1
  Pb  Pb21  1  0.333333  0.666667  0.078731  1
