# generated using pymatgen
data_Zr5Pa(CoSn)6
_symmetry_space_group_name_H-M   'P 1'
_cell_length_a   7.16267800
_cell_length_b   7.09052679
_cell_length_c   7.46897100
_cell_angle_alpha   90.00000000
_cell_angle_beta   90.00000000
_cell_angle_gamma   120.35747669
_symmetry_Int_Tables_number   1
_chemical_formula_structural   Zr5Pa(CoSn)6
_chemical_formula_sum   'Zr5 Pa1 Co6 Sn6'
_cell_volume   327.31780785
_cell_formula_units_Z   1
loop_
 _symmetry_equiv_pos_site_id
 _symmetry_equiv_pos_as_xyz
  1  'x, y, z'
loop_
 _atom_site_type_symbol
 _atom_site_label
 _atom_site_symmetry_multiplicity
 _atom_site_fract_x
 _atom_site_fract_y
 _atom_site_fract_z
 _atom_site_occupancy
  Zr  Zr0  1  0.390057  0.403603  0.750000  1
  Zr  Zr1  1  0.009742  0.608353  0.750000  1
  Zr  Zr2  1  0.609829  0.011397  0.250000  1
  Zr  Zr3  1  0.401622  0.401561  0.250000  1
  Zr  Zr4  1  0.992421  0.593826  0.250000  1
  Pa  Pa5  1  0.581872  0.986363  0.750000  1
  Co  Co6  1  0.665542  0.320909  0.956287  1
  Co  Co7  1  0.665542  0.320909  0.543713  1
  Co  Co8  1  0.342297  0.675148  0.029992  1
  Co  Co9  1  0.342297  0.675148  0.470008  1
  Co  Co10  1  0.999414  0.000113  0.750000  1
  Co  Co11  1  0.994611  0.001752  0.250000  1
  Sn  Sn12  1  0.257327  0.001984  0.011053  1
  Sn  Sn13  1  0.738983  0.728441  0.497748  1
  Sn  Sn14  1  0.006066  0.270033  0.499226  1
  Sn  Sn15  1  0.006066  0.270033  0.000774  1
  Sn  Sn16  1  0.738983  0.728441  0.002252  1
  Sn  Sn17  1  0.257327  0.001984  0.488947  1
