# generated using pymatgen
data_Ho8Ti5Si16Mo5W2
_symmetry_space_group_name_H-M   'P 1'
_cell_length_a   6.92925013
_cell_length_b   6.91959528
_cell_length_c   12.80651036
_cell_angle_alpha   89.88399519
_cell_angle_beta   89.99432650
_cell_angle_gamma   90.04332948
_symmetry_Int_Tables_number   1
_chemical_formula_structural   Ho8Ti5Si16Mo5W2
_chemical_formula_sum   'Ho8 Ti5 Si16 Mo5 W2'
_cell_volume   614.04008208
_cell_formula_units_Z   1
loop_
 _symmetry_equiv_pos_site_id
 _symmetry_equiv_pos_as_xyz
  1  'x, y, z'
loop_
 _atom_site_type_symbol
 _atom_site_label
 _atom_site_symmetry_multiplicity
 _atom_site_fract_x
 _atom_site_fract_y
 _atom_site_fract_z
 _atom_site_occupancy
  Ho  Ho0  1  0.339982  0.002044  0.467529  1
  Ho  Ho1  1  0.498483  0.840112  0.718993  1
  Ho  Ho2  1  0.501089  0.160536  0.218758  1
  Ho  Ho3  1  0.839182  0.497359  0.280789  1
  Ho  Ho4  1  0.160730  0.501173  0.782467  1
  Ho  Ho5  1  0.660249  0.998851  0.968544  1
  Ho  Ho6  1  0.001868  0.338949  0.531707  1
  Ho  Ho7  1  0.997402  0.662104  0.030869  1
  Ti  Ti8  1  0.330176  0.331093  0.999634  1
  Ti  Ti9  1  0.167974  0.830389  0.249975  1
  Ti  Ti10  1  0.829293  0.170912  0.750415  1
  Ti  Ti11  1  0.669204  0.666773  0.498973  1
  Ti  Ti12  1  0.994537  0.840737  0.625964  1
  Si  Si13  1  0.203587  0.129019  0.683424  1
  Si  Si14  1  0.371643  0.702655  0.933458  1
  Si  Si15  1  0.629756  0.297799  0.433347  1
  Si  Si16  1  0.700570  0.371390  0.066883  1
  Si  Si17  1  0.300063  0.628517  0.565923  1
  Si  Si18  1  0.797559  0.871331  0.183075  1
  Si  Si19  1  0.127080  0.201449  0.317104  1
  Si  Si20  1  0.872976  0.798985  0.816465  1
  Si  Si21  1  0.290171  0.960250  0.062699  1
  Si  Si22  1  0.539342  0.789082  0.312669  1
  Si  Si23  1  0.459519  0.210732  0.812557  1
  Si  Si24  1  0.790125  0.541621  0.687670  1
  Si  Si25  1  0.209960  0.459770  0.186846  1
  Si  Si26  1  0.710338  0.041247  0.563323  1
  Si  Si27  1  0.959498  0.290417  0.937449  1
  Si  Si28  1  0.042332  0.708996  0.437323  1
  Mo  Mo29  1  0.160048  0.009074  0.875159  1
  Mo  Mo30  1  0.492330  0.659635  0.124238  1
  Mo  Mo31  1  0.507748  0.340528  0.623019  1
  Mo  Mo32  1  0.658190  0.491989  0.878042  1
  Mo  Mo33  1  0.341582  0.503998  0.374733  1
  W  W34  1  0.839424  0.990889  0.373447  1
  W  W35  1  0.005987  0.159593  0.126532  1
