# generated using pymatgen
data_CaPa(Si7Rh3)2
_symmetry_space_group_name_H-M   'P 1'
_cell_length_a   7.99891646
_cell_length_b   7.99891485
_cell_length_c   7.99891600
_cell_angle_alpha   57.08862016
_cell_angle_beta   57.08861912
_cell_angle_gamma   57.08860755
_symmetry_Int_Tables_number   1
_chemical_formula_structural   CaPa(Si7Rh3)2
_chemical_formula_sum   'Ca1 Pa1 Si14 Rh6'
_cell_volume   337.60846590
_cell_formula_units_Z   1
loop_
 _symmetry_equiv_pos_site_id
 _symmetry_equiv_pos_as_xyz
  1  'x, y, z'
loop_
 _atom_site_type_symbol
 _atom_site_label
 _atom_site_symmetry_multiplicity
 _atom_site_fract_x
 _atom_site_fract_y
 _atom_site_fract_z
 _atom_site_occupancy
  Ca  Ca0  1  0.000000  0.000000  0.000000  1
  Pa  Pa1  1  0.500000  0.500000  0.500000  1
  Si  Si2  1  0.749483  0.749483  0.749483  1
  Si  Si3  1  0.250517  0.250517  0.250517  1
  Si  Si4  1  0.853008  0.066618  0.671956  1
  Si  Si5  1  0.671956  0.853008  0.066618  1
  Si  Si6  1  0.066618  0.671956  0.853008  1
  Si  Si7  1  0.650461  0.828053  0.434816  1
  Si  Si8  1  0.434816  0.650461  0.828053  1
  Si  Si9  1  0.828053  0.434816  0.650461  1
  Si  Si10  1  0.171947  0.565184  0.349539  1
  Si  Si11  1  0.565184  0.349539  0.171947  1
  Si  Si12  1  0.349539  0.171947  0.565184  1
  Si  Si13  1  0.933382  0.328044  0.146992  1
  Si  Si14  1  0.328044  0.146992  0.933382  1
  Si  Si15  1  0.146992  0.933382  0.328044  1
  Rh  Rh16  1  0.072299  0.433679  0.746521  1
  Rh  Rh17  1  0.253479  0.927701  0.566321  1
  Rh  Rh18  1  0.566321  0.253479  0.927701  1
  Rh  Rh19  1  0.927701  0.566321  0.253479  1
  Rh  Rh20  1  0.433679  0.746521  0.072299  1
  Rh  Rh21  1  0.746521  0.072299  0.433679  1
