# generated using pymatgen
data_LaDy4(TcB3)2
_symmetry_space_group_name_H-M   'P 1'
_cell_length_a   5.53738090
_cell_length_b   5.53738269
_cell_length_c   8.68199080
_cell_angle_alpha   71.40355340
_cell_angle_beta   71.40354741
_cell_angle_gamma   59.99999409
_symmetry_Int_Tables_number   1
_chemical_formula_structural   LaDy4(TcB3)2
_chemical_formula_sum   'La1 Dy4 Tc2 B6'
_cell_volume   214.34682566
_cell_formula_units_Z   1
loop_
 _symmetry_equiv_pos_site_id
 _symmetry_equiv_pos_as_xyz
  1  'x, y, z'
loop_
 _atom_site_type_symbol
 _atom_site_label
 _atom_site_symmetry_multiplicity
 _atom_site_fract_x
 _atom_site_fract_y
 _atom_site_fract_z
 _atom_site_occupancy
  La  La0  1  0.000000  0.000000  0.000000  1
  Dy  Dy1  1  0.245857  0.245857  0.262430  1
  Dy  Dy2  1  0.754143  0.754143  0.737570  1
  Dy  Dy3  1  0.420969  0.420969  0.737092  1
  Dy  Dy4  1  0.579031  0.579031  0.262908  1
  Tc  Tc5  1  0.111832  0.111832  0.664505  1
  Tc  Tc6  1  0.888168  0.888168  0.335495  1
  B  B7  1  0.170666  0.829334  0.500000  1
  B  B8  1  0.829334  0.500000  0.500000  1
  B  B9  1  0.500000  0.170666  0.500000  1
  B  B10  1  0.170666  0.500000  0.500000  1
  B  B11  1  0.500000  0.829334  0.500000  1
  B  B12  1  0.829334  0.170666  0.500000  1
