# generated using pymatgen
data_CaTm4HfH18
_symmetry_space_group_name_H-M   'P 1'
_cell_length_a   6.17259236
_cell_length_b   6.17978597
_cell_length_c   6.43216950
_cell_angle_alpha   89.93658835
_cell_angle_beta   89.93033552
_cell_angle_gamma   119.99204212
_symmetry_Int_Tables_number   1
_chemical_formula_structural   CaTm4HfH18
_chemical_formula_sum   'Ca1 Tm4 Hf1 H18'
_cell_volume   212.50188684
_cell_formula_units_Z   1
loop_
 _symmetry_equiv_pos_site_id
 _symmetry_equiv_pos_as_xyz
  1  'x, y, z'
loop_
 _atom_site_type_symbol
 _atom_site_label
 _atom_site_symmetry_multiplicity
 _atom_site_fract_x
 _atom_site_fract_y
 _atom_site_fract_z
 _atom_site_occupancy
  Ca  Ca0  1  0.335514  0.338513  0.750120  1
  Tm  Tm1  1  0.995292  0.657919  0.749724  1
  Tm  Tm2  1  0.662816  0.663710  0.252887  1
  Tm  Tm3  1  0.001517  0.334324  0.246053  1
  Tm  Tm4  1  0.336147  0.001967  0.250892  1
  Hf  Hf5  1  0.656057  0.998410  0.750020  1
  H  H6  1  0.345182  0.947572  0.907311  1
  H  H7  1  0.647766  0.705805  0.906017  1
  H  H8  1  0.015925  0.357625  0.909151  1
  H  H9  1  0.313615  0.338738  0.403904  1
  H  H10  1  0.032330  0.683093  0.410181  1
  H  H11  1  0.661120  0.973786  0.421110  1
  H  H12  1  0.685834  0.028609  0.079327  1
  H  H13  1  0.343866  0.317097  0.096149  1
  H  H14  1  0.974434  0.664364  0.089624  1
  H  H15  1  0.686633  0.656746  0.589824  1
  H  H16  1  0.928066  0.307853  0.593226  1
  H  H17  1  0.384191  0.027274  0.594103  1
  H  H18  1  0.976973  0.994522  0.750006  1
  H  H19  1  0.999290  0.998551  0.251170  1
  H  H20  1  0.667036  0.311635  0.822999  1
  H  H21  1  0.668375  0.334649  0.305812  1
  H  H22  1  0.333444  0.667246  0.193255  1
  H  H23  1  0.348577  0.689993  0.677134  1
