# generated using pymatgen
data_Ho2PaCo2Ge7
_symmetry_space_group_name_H-M   'P 1'
_cell_length_a   12.59725284
_cell_length_b   12.59725123
_cell_length_c   4.15293300
_cell_angle_alpha   90.00000000
_cell_angle_beta   90.00000000
_cell_angle_gamma   160.44863518
_symmetry_Int_Tables_number   1
_chemical_formula_structural   Ho2PaCo2Ge7
_chemical_formula_sum   'Ho2 Pa1 Co2 Ge7'
_cell_volume   220.54626775
_cell_formula_units_Z   1
loop_
 _symmetry_equiv_pos_site_id
 _symmetry_equiv_pos_as_xyz
  1  'x, y, z'
loop_
 _atom_site_type_symbol
 _atom_site_label
 _atom_site_symmetry_multiplicity
 _atom_site_fract_x
 _atom_site_fract_y
 _atom_site_fract_z
 _atom_site_occupancy
  Ho  Ho0  1  0.815434  0.184568  0.500000  1
  Ho  Ho1  1  0.184568  0.815434  0.500000  1
  Pa  Pa2  1  0.500001  0.500001  0.000000  1
  Co  Co3  1  0.629059  0.370942  0.000000  1
  Co  Co4  1  0.370942  0.629059  0.000000  1
  Ge  Ge5  1  0.910927  0.089075  0.000000  1
  Ge  Ge6  1  0.722670  0.277332  0.000000  1
  Ge  Ge7  1  0.277332  0.722670  0.000000  1
  Ge  Ge8  1  0.089075  0.910927  0.000000  1
  Ge  Ge9  1  0.000000  0.000000  0.500000  1
  Ge  Ge10  1  0.588599  0.411402  0.500000  1
  Ge  Ge11  1  0.411402  0.588599  0.500000  1
