# generated using pymatgen
data_Pr3Cr(Co4P3)2
_symmetry_space_group_name_H-M   'P 1'
_cell_length_a   3.76873600
_cell_length_b   10.70264600
_cell_length_c   12.43379100
_cell_angle_alpha   90.00000000
_cell_angle_beta   90.00000000
_cell_angle_gamma   90.00000000
_symmetry_Int_Tables_number   1
_chemical_formula_structural   Pr3Cr(Co4P3)2
_chemical_formula_sum   'Pr6 Cr2 Co16 P12'
_cell_volume   501.52252131
_cell_formula_units_Z   2
loop_
 _symmetry_equiv_pos_site_id
 _symmetry_equiv_pos_as_xyz
  1  'x, y, z'
loop_
 _atom_site_type_symbol
 _atom_site_label
 _atom_site_symmetry_multiplicity
 _atom_site_fract_x
 _atom_site_fract_y
 _atom_site_fract_z
 _atom_site_occupancy
  Pr  Pr0  1  0.000000  0.500000  0.522161  1
  Pr  Pr1  1  0.500000  0.000000  0.477839  1
  Pr  Pr2  1  0.500000  0.818108  0.205133  1
  Pr  Pr3  1  0.500000  0.181892  0.205133  1
  Pr  Pr4  1  0.000000  0.681892  0.794867  1
  Pr  Pr5  1  0.000000  0.318108  0.794867  1
  Cr  Cr6  1  0.500000  0.500000  0.153798  1
  Cr  Cr7  1  0.000000  0.000000  0.846202  1
  Co  Co8  1  0.500000  0.500000  0.704549  1
  Co  Co9  1  0.000000  0.000000  0.295451  1
  Co  Co10  1  0.000000  0.500000  0.988616  1
  Co  Co11  1  0.500000  0.000000  0.011384  1
  Co  Co12  1  0.500000  0.332973  0.994977  1
  Co  Co13  1  0.500000  0.667027  0.994977  1
  Co  Co14  1  0.000000  0.167027  0.005023  1
  Co  Co15  1  0.000000  0.832973  0.005023  1
  Co  Co16  1  0.500000  0.296186  0.430370  1
  Co  Co17  1  0.500000  0.703814  0.430370  1
  Co  Co18  1  0.000000  0.203814  0.569630  1
  Co  Co19  1  0.000000  0.796186  0.569630  1
  Co  Co20  1  0.500000  0.882126  0.710744  1
  Co  Co21  1  0.500000  0.117874  0.710744  1
  Co  Co22  1  0.000000  0.617874  0.289256  1
  Co  Co23  1  0.000000  0.382126  0.289256  1
  P  P24  1  0.500000  0.500000  0.887712  1
  P  P25  1  0.000000  0.000000  0.112288  1
  P  P26  1  0.500000  0.500000  0.340533  1
  P  P27  1  0.000000  0.000000  0.659467  1
  P  P28  1  0.500000  0.305931  0.613966  1
  P  P29  1  0.500000  0.694069  0.613966  1
  P  P30  1  0.000000  0.194069  0.386034  1
  P  P31  1  0.000000  0.805931  0.386034  1
  P  P32  1  0.500000  0.848683  0.895321  1
  P  P33  1  0.500000  0.151317  0.895321  1
  P  P34  1  0.000000  0.651317  0.104679  1
  P  P35  1  0.000000  0.348683  0.104679  1
