# generated using pymatgen
data_SeS8Br3
_symmetry_space_group_name_H-M   'P 1'
_cell_length_a   8.41494706
_cell_length_b   9.78749001
_cell_length_c   12.30259134
_cell_angle_alpha   105.77611454
_cell_angle_beta   108.12017131
_cell_angle_gamma   103.51083134
_symmetry_Int_Tables_number   1
_chemical_formula_structural   SeS8Br3
_chemical_formula_sum   'Se2 S16 Br6'
_cell_volume   868.84063782
_cell_formula_units_Z   2
loop_
 _symmetry_equiv_pos_site_id
 _symmetry_equiv_pos_as_xyz
  1  'x, y, z'
loop_
 _atom_site_type_symbol
 _atom_site_label
 _atom_site_symmetry_multiplicity
 _atom_site_fract_x
 _atom_site_fract_y
 _atom_site_fract_z
 _atom_site_occupancy
  Se  Se0  1  0.173324  0.938968  0.126721  1
  Se  Se1  1  0.826676  0.061033  0.873279  1
  S  S2  1  0.719557  0.450001  0.097314  1
  S  S3  1  0.897019  0.336741  0.135305  1
  S  S4  1  0.152070  0.481201  0.184496  1
  S  S5  1  0.670686  0.530261  0.251893  1
  S  S6  1  0.833271  0.754110  0.353533  1
  S  S7  1  0.277756  0.570760  0.373701  1
  S  S8  1  0.262820  0.782966  0.440153  1
  S  S9  1  0.946702  0.235553  0.505611  1
  S  S10  1  0.053298  0.764446  0.494389  1
  S  S11  1  0.737181  0.217034  0.559848  1
  S  S12  1  0.722246  0.429240  0.626299  1
  S  S13  1  0.166729  0.245890  0.646467  1
  S  S14  1  0.329313  0.469739  0.748106  1
  S  S15  1  0.847930  0.518798  0.815505  1
  S  S16  1  0.102981  0.663260  0.864695  1
  S  S17  1  0.280443  0.549999  0.902687  1
  Br  Br18  1  0.836082  0.874676  0.035410  1
  Br  Br19  1  0.479837  0.932689  0.187644  1
  Br  Br20  1  0.225997  0.134925  0.309415  1
  Br  Br21  1  0.774002  0.865075  0.690586  1
  Br  Br22  1  0.520162  0.067311  0.812357  1
  Br  Br23  1  0.163917  0.125324  0.964590  1
