# generated using pymatgen
data_Pr8Nd2B2Cl15
_symmetry_space_group_name_H-M   'P 1'
_cell_length_a   9.10159985
_cell_length_b   9.97680832
_cell_length_c   10.75456352
_cell_angle_alpha   90.61778489
_cell_angle_beta   114.58635024
_cell_angle_gamma   111.20085795
_symmetry_Int_Tables_number   1
_chemical_formula_structural   Pr8Nd2B2Cl15
_chemical_formula_sum   'Pr8 Nd2 B2 Cl15'
_cell_volume   812.81097720
_cell_formula_units_Z   1
loop_
 _symmetry_equiv_pos_site_id
 _symmetry_equiv_pos_as_xyz
  1  'x, y, z'
loop_
 _atom_site_type_symbol
 _atom_site_label
 _atom_site_symmetry_multiplicity
 _atom_site_fract_x
 _atom_site_fract_y
 _atom_site_fract_z
 _atom_site_occupancy
  Pr  Pr0  1  0.812163  0.419408  0.280086  1
  Pr  Pr1  1  0.187837  0.580592  0.719914  1
  Pr  Pr2  1  0.683089  0.743580  0.817746  1
  Pr  Pr3  1  0.316911  0.256420  0.182254  1
  Pr  Pr4  1  0.527252  0.700316  0.101902  1
  Pr  Pr5  1  0.472748  0.299684  0.898098  1
  Pr  Pr6  1  0.592090  0.037449  0.334201  1
  Pr  Pr7  1  0.407910  0.962551  0.665799  1
  Nd  Nd8  1  0.733324  0.077277  0.048854  1
  Nd  Nd9  1  0.266676  0.922723  0.951146  1
  B  B10  1  0.465645  0.816764  0.874000  1
  B  B11  1  0.534355  0.183236  0.126000  1
  Cl  Cl12  1  0.000000  0.000000  0.000000  1
  Cl  Cl13  1  0.633960  0.882566  0.586046  1
  Cl  Cl14  1  0.366040  0.117434  0.413954  1
  Cl  Cl15  1  0.881151  0.298961  0.522740  1
  Cl  Cl16  1  0.118849  0.701039  0.477260  1
  Cl  Cl17  1  0.294214  0.767108  0.178861  1
  Cl  Cl18  1  0.705786  0.232892  0.821139  1
  Cl  Cl19  1  0.051751  0.341561  0.224756  1
  Cl  Cl20  1  0.167559  0.056888  0.708676  1
  Cl  Cl21  1  0.832441  0.943112  0.291324  1
  Cl  Cl22  1  0.237184  0.412113  0.946297  1
  Cl  Cl23  1  0.762816  0.587887  0.053703  1
  Cl  Cl24  1  0.408259  0.468416  0.661881  1
  Cl  Cl25  1  0.591741  0.531584  0.338119  1
  Cl  Cl26  1  0.948249  0.658439  0.775244  1
