# generated using pymatgen
data_HoHfTh2(Al3Rh)6
_symmetry_space_group_name_H-M   'P 1'
_cell_length_a   7.58895039
_cell_length_b   7.57904231
_cell_length_c   9.42791900
_cell_angle_alpha   90.00000000
_cell_angle_beta   90.00000000
_cell_angle_gamma   119.48367912
_symmetry_Int_Tables_number   1
_chemical_formula_structural   HoHfTh2(Al3Rh)6
_chemical_formula_sum   'Ho1 Hf1 Th2 Al18 Rh6'
_cell_volume   472.03981586
_cell_formula_units_Z   1
loop_
 _symmetry_equiv_pos_site_id
 _symmetry_equiv_pos_as_xyz
  1  'x, y, z'
loop_
 _atom_site_type_symbol
 _atom_site_label
 _atom_site_symmetry_multiplicity
 _atom_site_fract_x
 _atom_site_fract_y
 _atom_site_fract_z
 _atom_site_occupancy
  Ho  Ho0  1  0.671911  0.995354  0.250000  1
  Hf  Hf1  1  0.994377  0.672204  0.250000  1
  Th  Th2  1  0.006386  0.329216  0.750000  1
  Th  Th3  1  0.329335  0.006562  0.750000  1
  Al  Al4  1  0.123180  0.121707  0.250000  1
  Al  Al5  1  0.865386  0.863395  0.750000  1
  Al  Al6  1  0.998665  0.339453  0.084398  1
  Al  Al7  1  0.995674  0.664951  0.936873  1
  Al  Al8  1  0.995674  0.664951  0.563127  1
  Al  Al9  1  0.331931  0.995517  0.415517  1
  Al  Al10  1  0.998665  0.339453  0.415602  1
  Al  Al11  1  0.664390  0.993839  0.568145  1
  Al  Al12  1  0.664390  0.993839  0.931855  1
  Al  Al13  1  0.331931  0.995517  0.084483  1
  Al  Al14  1  0.337378  0.337543  0.537558  1
  Al  Al15  1  0.671573  0.668515  0.436554  1
  Al  Al16  1  0.671573  0.668515  0.063446  1
  Al  Al17  1  0.337378  0.337543  0.962442  1
  Al  Al18  1  0.336156  0.553728  0.250000  1
  Al  Al19  1  0.661572  0.457202  0.750000  1
  Al  Al20  1  0.557845  0.343444  0.250000  1
  Al  Al21  1  0.456356  0.659244  0.750000  1
  Rh  Rh22  1  0.672423  0.327097  0.001554  1
  Rh  Rh23  1  0.327214  0.672518  0.002170  1
  Rh  Rh24  1  0.327214  0.672518  0.497830  1
  Rh  Rh25  1  0.672423  0.327097  0.498446  1
  Rh  Rh26  1  0.999499  0.999540  0.001493  1
  Rh  Rh27  1  0.999499  0.999540  0.498507  1
