# generated using pymatgen
data_Hf6Ta4Al12Fe5Co2
_symmetry_space_group_name_H-M   'P 1'
_cell_length_a   8.58396959
_cell_length_b   8.58369363
_cell_length_c   8.57184001
_cell_angle_alpha   60.06228121
_cell_angle_beta   60.06689054
_cell_angle_gamma   59.93472087
_symmetry_Int_Tables_number   1
_chemical_formula_structural   Hf6Ta4Al12Fe5Co2
_chemical_formula_sum   'Hf6 Ta4 Al12 Fe5 Co2'
_cell_volume   446.81688801
_cell_formula_units_Z   1
loop_
 _symmetry_equiv_pos_site_id
 _symmetry_equiv_pos_as_xyz
  1  'x, y, z'
loop_
 _atom_site_type_symbol
 _atom_site_label
 _atom_site_symmetry_multiplicity
 _atom_site_fract_x
 _atom_site_fract_y
 _atom_site_fract_z
 _atom_site_occupancy
  Hf  Hf0  1  0.695047  0.695052  0.306742  1
  Hf  Hf1  1  0.305909  0.692501  0.307454  1
  Hf  Hf2  1  0.692554  0.305850  0.307404  1
  Hf  Hf3  1  0.304851  0.304838  0.693495  1
  Hf  Hf4  1  0.693426  0.308271  0.691586  1
  Hf  Hf5  1  0.308198  0.693506  0.691668  1
  Ta  Ta6  1  0.880610  0.880597  0.357889  1
  Ta  Ta7  1  0.879948  0.357144  0.879714  1
  Ta  Ta8  1  0.357170  0.879937  0.879718  1
  Ta  Ta9  1  0.882404  0.882409  0.878925  1
  Al  Al10  1  0.120595  0.120625  0.638594  1
  Al  Al11  1  0.120645  0.639058  0.120958  1
  Al  Al12  1  0.639062  0.120675  0.120968  1
  Al  Al13  1  0.119607  0.119681  0.121139  1
  Al  Al14  1  0.662966  0.662791  0.013180  1
  Al  Al15  1  0.662029  0.011808  0.663460  1
  Al  Al16  1  0.011837  0.661968  0.663564  1
  Al  Al17  1  0.663370  0.663382  0.662925  1
  Al  Al18  1  0.334954  0.335054  0.994811  1
  Al  Al19  1  0.334648  0.996381  0.334475  1
  Al  Al20  1  0.996354  0.334706  0.334426  1
  Al  Al21  1  0.334027  0.334060  0.334182  1
  Fe  Fe22  1  0.999992  0.999987  0.999244  1
  Fe  Fe23  1  0.995823  0.995827  0.505385  1
  Fe  Fe24  1  0.503278  0.995873  0.504525  1
  Fe  Fe25  1  0.995871  0.503282  0.504525  1
  Fe  Fe26  1  0.504192  0.504187  0.995633  1
  Co  Co27  1  0.997103  0.503490  0.996725  1
  Co  Co28  1  0.503534  0.997062  0.996687  1
