# generated using pymatgen
data_Sc8Be5Si11W12
_symmetry_space_group_name_H-M   'P 1'
_cell_length_a   6.49612698
_cell_length_b   6.63213913
_cell_length_c   12.63701179
_cell_angle_alpha   90.00926297
_cell_angle_beta   89.75516783
_cell_angle_gamma   89.97968311
_symmetry_Int_Tables_number   1
_chemical_formula_structural   Sc8Be5Si11W12
_chemical_formula_sum   'Sc8 Be5 Si11 W12'
_cell_volume   544.43812045
_cell_formula_units_Z   1
loop_
 _symmetry_equiv_pos_site_id
 _symmetry_equiv_pos_as_xyz
  1  'x, y, z'
loop_
 _atom_site_type_symbol
 _atom_site_label
 _atom_site_symmetry_multiplicity
 _atom_site_fract_x
 _atom_site_fract_y
 _atom_site_fract_z
 _atom_site_occupancy
  Sc  Sc0  1  0.501302  0.671255  0.593717  1
  Sc  Sc1  1  0.998551  0.830767  0.904290  1
  Sc  Sc2  1  0.501813  0.330662  0.096463  1
  Sc  Sc3  1  0.993589  0.162492  0.406804  1
  Sc  Sc4  1  0.502149  0.328906  0.405916  1
  Sc  Sc5  1  0.002013  0.168777  0.096365  1
  Sc  Sc6  1  0.497986  0.669144  0.904050  1
  Sc  Sc7  1  0.998798  0.833290  0.593617  1
  Be  Be8  1  0.659719  0.966066  0.460620  1
  Be  Be9  1  0.456741  0.381852  0.749146  1
  Be  Be10  1  0.956714  0.118428  0.749913  1
  Be  Be11  1  0.543616  0.617117  0.250168  1
  Be  Be12  1  0.044667  0.881590  0.250973  1
  Si  Si13  1  0.169756  0.536836  0.040326  1
  Si  Si14  1  0.330601  0.037015  0.959852  1
  Si  Si15  1  0.830304  0.464152  0.538877  1
  Si  Si16  1  0.343069  0.034139  0.538015  1
  Si  Si17  1  0.831136  0.463240  0.960023  1
  Si  Si18  1  0.669408  0.963363  0.040266  1
  Si  Si19  1  0.166345  0.535552  0.458513  1
  Si  Si20  1  0.709183  0.866649  0.748670  1
  Si  Si21  1  0.208856  0.633549  0.748335  1
  Si  Si22  1  0.290946  0.133234  0.251981  1
  Si  Si23  1  0.790668  0.366908  0.252383  1
  W  W24  1  0.662043  0.174988  0.628695  1
  W  W25  1  0.161162  0.327399  0.871118  1
  W  W26  1  0.339246  0.826840  0.128501  1
  W  W27  1  0.834338  0.681980  0.372410  1
  W  W28  1  0.343643  0.824781  0.370781  1
  W  W29  1  0.839998  0.673677  0.129089  1
  W  W30  1  0.660845  0.173278  0.871320  1
  W  W31  1  0.161043  0.323435  0.627947  1
  W  W32  1  0.834214  0.488536  0.749917  1
  W  W33  1  0.334887  0.011675  0.749791  1
  W  W34  1  0.164647  0.511529  0.250336  1
  W  W35  1  0.666003  0.986898  0.250811  1
