# generated using pymatgen
data_Ta2Nb(AlCo2)3
_symmetry_space_group_name_H-M   'P 1'
_cell_length_a   4.21872700
_cell_length_b   5.94666300
_cell_length_c   12.69264900
_cell_angle_alpha   90.00000000
_cell_angle_beta   90.00000000
_cell_angle_gamma   90.00000000
_symmetry_Int_Tables_number   1
_chemical_formula_structural   Ta2Nb(AlCo2)3
_chemical_formula_sum   'Ta4 Nb2 Al6 Co12'
_cell_volume   318.42489943
_cell_formula_units_Z   2
loop_
 _symmetry_equiv_pos_site_id
 _symmetry_equiv_pos_as_xyz
  1  'x, y, z'
loop_
 _atom_site_type_symbol
 _atom_site_label
 _atom_site_symmetry_multiplicity
 _atom_site_fract_x
 _atom_site_fract_y
 _atom_site_fract_z
 _atom_site_occupancy
  Ta  Ta0  1  0.000005  0.000000  0.999924  1
  Ta  Ta1  1  0.500149  0.500000  0.166625  1
  Ta  Ta2  1  0.000149  0.000000  0.333376  1
  Ta  Ta3  1  0.500005  0.500000  0.500076  1
  Nb  Nb4  1  0.999848  0.000000  0.666819  1
  Nb  Nb5  1  0.499850  0.500000  0.833181  1
  Al  Al6  1  0.999999  0.500000  0.000107  1
  Al  Al7  1  0.500148  0.000000  0.166792  1
  Al  Al8  1  0.000148  0.500000  0.333208  1
  Al  Al9  1  0.499999  0.000000  0.499893  1
  Al  Al10  1  0.999847  0.500000  0.666634  1
  Al  Al11  1  0.499847  0.000000  0.833366  1
  Co  Co12  1  0.500004  0.249290  0.000998  1
  Co  Co13  1  0.500004  0.750709  0.000998  1
  Co  Co14  1  0.000182  0.250069  0.166799  1
  Co  Co15  1  0.000182  0.749931  0.166799  1
  Co  Co16  1  0.500180  0.249931  0.333201  1
  Co  Co17  1  0.500180  0.750068  0.333201  1
  Co  Co18  1  0.000004  0.250709  0.499002  1
  Co  Co19  1  0.000004  0.749290  0.499002  1
  Co  Co20  1  0.499815  0.250769  0.665737  1
  Co  Co21  1  0.499815  0.749230  0.665737  1
  Co  Co22  1  0.999815  0.249231  0.834263  1
  Co  Co23  1  0.999815  0.750769  0.834263  1
