# generated using pymatgen
data_Ba2Bi4PdPt3
_symmetry_space_group_name_H-M   'P 1'
_cell_length_a   4.97359600
_cell_length_b   5.05426908
_cell_length_c   10.81470619
_cell_angle_alpha   87.91286389
_cell_angle_beta   90.00000000
_cell_angle_gamma   90.00000000
_symmetry_Int_Tables_number   1
_chemical_formula_structural   Ba2Bi4PdPt3
_chemical_formula_sum   'Ba2 Bi4 Pd1 Pt3'
_cell_volume   271.67856914
_cell_formula_units_Z   1
loop_
 _symmetry_equiv_pos_site_id
 _symmetry_equiv_pos_as_xyz
  1  'x, y, z'
loop_
 _atom_site_type_symbol
 _atom_site_label
 _atom_site_symmetry_multiplicity
 _atom_site_fract_x
 _atom_site_fract_y
 _atom_site_fract_z
 _atom_site_occupancy
  Ba  Ba0  1  0.750000  0.258651  0.241106  1
  Ba  Ba1  1  0.250000  0.740719  0.758442  1
  Bi  Bi2  1  0.750000  0.205361  0.883128  1
  Bi  Bi3  1  0.250000  0.248577  0.499417  1
  Bi  Bi4  1  0.750000  0.752505  0.500598  1
  Bi  Bi5  1  0.250000  0.793001  0.117351  1
  Pd  Pd6  1  0.750000  0.687228  0.000753  1
  Pt  Pt7  1  0.250000  0.754849  0.377367  1
  Pt  Pt8  1  0.250000  0.312871  0.999256  1
  Pt  Pt9  1  0.750000  0.246240  0.622582  1
