# generated using pymatgen
data_DyEr4GePb3
_symmetry_space_group_name_H-M   'P 1'
_cell_length_a   9.29064800
_cell_length_b   9.28386039
_cell_length_c   6.50550500
_cell_angle_alpha   90.00000000
_cell_angle_beta   90.00000000
_cell_angle_gamma   120.02419530
_symmetry_Int_Tables_number   1
_chemical_formula_structural   DyEr4GePb3
_chemical_formula_sum   'Dy2 Er8 Ge2 Pb6'
_cell_volume   485.82551286
_cell_formula_units_Z   2
loop_
 _symmetry_equiv_pos_site_id
 _symmetry_equiv_pos_as_xyz
  1  'x, y, z'
loop_
 _atom_site_type_symbol
 _atom_site_label
 _atom_site_symmetry_multiplicity
 _atom_site_fract_x
 _atom_site_fract_y
 _atom_site_fract_z
 _atom_site_occupancy
  Dy  Dy0  1  0.251821  0.000000  0.250000  1
  Dy  Dy1  1  0.748179  0.000000  0.750000  1
  Er  Er2  1  0.000047  0.251374  0.250000  1
  Er  Er3  1  0.999953  0.748626  0.750000  1
  Er  Er4  1  0.748673  0.748626  0.250000  1
  Er  Er5  1  0.251327  0.251374  0.750000  1
  Er  Er6  1  0.333271  0.666543  0.000000  1
  Er  Er7  1  0.666729  0.333457  0.000000  1
  Er  Er8  1  0.666729  0.333457  0.500000  1
  Er  Er9  1  0.333271  0.666543  0.500000  1
  Ge  Ge10  1  0.000000  0.000000  0.000000  1
  Ge  Ge11  1  0.000000  0.000000  0.500000  1
  Pb  Pb12  1  0.607351  0.000000  0.250000  1
  Pb  Pb13  1  0.392649  0.000000  0.750000  1
  Pb  Pb14  1  0.999778  0.606610  0.250000  1
  Pb  Pb15  1  0.000222  0.393390  0.750000  1
  Pb  Pb16  1  0.393169  0.393390  0.250000  1
  Pb  Pb17  1  0.606831  0.606610  0.750000  1
