# generated using pymatgen
data_Ac2B4O9
_symmetry_space_group_name_H-M   'P 1'
_cell_length_a   6.50166808
_cell_length_b   6.93920329
_cell_length_c   7.89511785
_cell_angle_alpha   101.44230055
_cell_angle_beta   96.02538425
_cell_angle_gamma   102.32964711
_symmetry_Int_Tables_number   1
_chemical_formula_structural   Ac2B4O9
_chemical_formula_sum   'Ac4 B8 O18'
_cell_volume   337.00584681
_cell_formula_units_Z   2
loop_
 _symmetry_equiv_pos_site_id
 _symmetry_equiv_pos_as_xyz
  1  'x, y, z'
loop_
 _atom_site_type_symbol
 _atom_site_label
 _atom_site_symmetry_multiplicity
 _atom_site_fract_x
 _atom_site_fract_y
 _atom_site_fract_z
 _atom_site_occupancy
  Ac  Ac0  1  0.538034  0.094171  0.279040  1
  Ac  Ac1  1  0.884563  0.678852  0.354368  1
  Ac  Ac2  1  0.115437  0.321148  0.645632  1
  Ac  Ac3  1  0.461966  0.905828  0.720960  1
  B  B4  1  0.280005  0.663800  0.020776  1
  B  B5  1  0.337858  0.337573  0.077014  1
  B  B6  1  0.993005  0.162838  0.177677  1
  B  B7  1  0.370001  0.641009  0.339599  1
  B  B8  1  0.629999  0.358991  0.660402  1
  B  B9  1  0.006995  0.837162  0.822323  1
  B  B10  1  0.662143  0.662428  0.922987  1
  B  B11  1  0.719995  0.336199  0.979224  1
  O  O12  1  0.507868  0.766872  0.010432  1
  O  O13  1  0.763674  0.554989  0.031693  1
  O  O14  1  0.181523  0.161007  0.112786  1
  O  O15  1  0.849849  0.274250  0.124271  1
  O  O16  1  0.245451  0.729311  0.202178  1
  O  O17  1  0.447241  0.467709  0.247535  1
  O  O18  1  0.942095  0.065296  0.309827  1
  O  O19  1  0.561614  0.804871  0.427218  1
  O  O20  1  0.226383  0.594807  0.465894  1
  O  O21  1  0.773618  0.405194  0.534105  1
  O  O22  1  0.438386  0.195128  0.572781  1
  O  O23  1  0.057905  0.934704  0.690173  1
  O  O24  1  0.552759  0.532291  0.752465  1
  O  O25  1  0.754550  0.270689  0.797822  1
  O  O26  1  0.150150  0.725749  0.875728  1
  O  O27  1  0.818477  0.838993  0.887214  1
  O  O28  1  0.236326  0.445010  0.968306  1
  O  O29  1  0.492133  0.233128  0.989568  1
