# generated using pymatgen
data_Tb16In4Pd3Ru
_symmetry_space_group_name_H-M   'P 1'
_cell_length_a   9.73767482
_cell_length_b   9.77141115
_cell_length_c   9.73768313
_cell_angle_alpha   60.13263036
_cell_angle_beta   60.00462211
_cell_angle_gamma   60.13264665
_symmetry_Int_Tables_number   1
_chemical_formula_structural   Tb16In4Pd3Ru
_chemical_formula_sum   'Tb16 In4 Pd3 Ru1'
_cell_volume   656.50223301
_cell_formula_units_Z   1
loop_
 _symmetry_equiv_pos_site_id
 _symmetry_equiv_pos_as_xyz
  1  'x, y, z'
loop_
 _atom_site_type_symbol
 _atom_site_label
 _atom_site_symmetry_multiplicity
 _atom_site_fract_x
 _atom_site_fract_y
 _atom_site_fract_z
 _atom_site_occupancy
  Tb  Tb0  1  0.809722  0.810893  0.189693  1
  Tb  Tb1  1  0.810993  0.195070  0.810992  1
  Tb  Tb2  1  0.182955  0.195093  0.810989  1
  Tb  Tb3  1  0.646860  0.059424  0.646860  1
  Tb  Tb4  1  0.064448  0.059533  0.438009  1
  Tb  Tb5  1  0.441320  0.435458  0.061617  1
  Tb  Tb6  1  0.651736  0.643415  0.651736  1
  Tb  Tb7  1  0.810989  0.195094  0.182955  1
  Tb  Tb8  1  0.189692  0.810893  0.809722  1
  Tb  Tb9  1  0.053139  0.643438  0.651705  1
  Tb  Tb10  1  0.438009  0.059533  0.064448  1
  Tb  Tb11  1  0.438013  0.059523  0.438013  1
  Tb  Tb12  1  0.061608  0.435457  0.061608  1
  Tb  Tb13  1  0.651705  0.643438  0.053139  1
  Tb  Tb14  1  0.189703  0.810891  0.189703  1
  Tb  Tb15  1  0.061616  0.435458  0.441320  1
  In  In16  1  0.417393  0.416329  0.417393  1
  In  In17  1  0.416857  0.416702  0.748994  1
  In  In18  1  0.416154  0.751730  0.416154  1
  In  In19  1  0.748995  0.416702  0.416857  1
  Pd  Pd20  1  0.855014  0.858609  0.855013  1
  Pd  Pd21  1  0.855046  0.858640  0.431339  1
  Pd  Pd22  1  0.431339  0.858640  0.855046  1
  Ru  Ru23  1  0.856696  0.430034  0.856695  1
