# generated using pymatgen
data_Er8NbSi16Tc11
_symmetry_space_group_name_H-M   'P 1'
_cell_length_a   6.79117042
_cell_length_b   6.81842436
_cell_length_c   12.65987525
_cell_angle_alpha   90.08774332
_cell_angle_beta   90.49544810
_cell_angle_gamma   90.21378529
_symmetry_Int_Tables_number   1
_chemical_formula_structural   Er8NbSi16Tc11
_chemical_formula_sum   'Er8 Nb1 Si16 Tc11'
_cell_volume   586.18984571
_cell_formula_units_Z   1
loop_
 _symmetry_equiv_pos_site_id
 _symmetry_equiv_pos_as_xyz
  1  'x, y, z'
loop_
 _atom_site_type_symbol
 _atom_site_label
 _atom_site_symmetry_multiplicity
 _atom_site_fract_x
 _atom_site_fract_y
 _atom_site_fract_z
 _atom_site_occupancy
  Er  Er0  1  0.336515  0.993806  0.466754  1
  Er  Er1  1  0.502496  0.834930  0.720205  1
  Er  Er2  1  0.492856  0.157643  0.217693  1
  Er  Er3  1  0.835710  0.499938  0.277853  1
  Er  Er4  1  0.160941  0.491841  0.783872  1
  Er  Er5  1  0.660025  0.000984  0.971918  1
  Er  Er6  1  0.999641  0.339799  0.529974  1
  Er  Er7  1  0.003092  0.656029  0.031655  1
  Nb  Nb8  1  0.997765  0.831629  0.622439  1
  Si  Si9  1  0.204460  0.124895  0.685521  1
  Si  Si10  1  0.383278  0.691144  0.937304  1
  Si  Si11  1  0.616992  0.310103  0.437586  1
  Si  Si12  1  0.689433  0.385033  0.063636  1
  Si  Si13  1  0.310648  0.618997  0.562339  1
  Si  Si14  1  0.809039  0.884891  0.187737  1
  Si  Si15  1  0.118178  0.196260  0.314475  1
  Si  Si16  1  0.883099  0.800561  0.817769  1
  Si  Si17  1  0.261847  0.982161  0.059754  1
  Si  Si18  1  0.524353  0.773399  0.312182  1
  Si  Si19  1  0.476874  0.217068  0.814654  1
  Si  Si20  1  0.782281  0.522582  0.688663  1
  Si  Si21  1  0.230797  0.481037  0.188197  1
  Si  Si22  1  0.706487  0.044346  0.564006  1
  Si  Si23  1  0.980925  0.261251  0.938947  1
  Si  Si24  1  0.030261  0.719831  0.427282  1
  Tc  Tc25  1  0.330027  0.331151  0.001021  1
  Tc  Tc26  1  0.167023  0.830958  0.248592  1
  Tc  Tc27  1  0.837357  0.162532  0.750499  1
  Tc  Tc28  1  0.672116  0.666119  0.499411  1
  Tc  Tc29  1  0.189627  0.971091  0.865933  1
  Tc  Tc30  1  0.522795  0.686647  0.119605  1
  Tc  Tc31  1  0.491696  0.327412  0.625712  1
  Tc  Tc32  1  0.674621  0.511363  0.877407  1
  Tc  Tc33  1  0.318360  0.478758  0.379033  1
  Tc  Tc34  1  0.826024  0.024600  0.376346  1
  Tc  Tc35  1  0.972361  0.189210  0.134027  1
