# generated using pymatgen
data_HoTm7B24(RhW)2
_symmetry_space_group_name_H-M   'P 1'
_cell_length_a   3.61679900
_cell_length_b   9.14706305
_cell_length_c   11.55435600
_cell_angle_alpha   90.44834491
_cell_angle_beta   90.00000000
_cell_angle_gamma   90.00000000
_symmetry_Int_Tables_number   1
_chemical_formula_structural   HoTm7B24(RhW)2
_chemical_formula_sum   'Ho1 Tm7 B24 Rh2 W2'
_cell_volume   382.24207931
_cell_formula_units_Z   1
loop_
 _symmetry_equiv_pos_site_id
 _symmetry_equiv_pos_as_xyz
  1  'x, y, z'
loop_
 _atom_site_type_symbol
 _atom_site_label
 _atom_site_symmetry_multiplicity
 _atom_site_fract_x
 _atom_site_fract_y
 _atom_site_fract_z
 _atom_site_occupancy
  Ho  Ho0  1  0.500000  0.319706  0.412214  1
  Tm  Tm1  1  0.500000  0.680916  0.588154  1
  Tm  Tm2  1  0.500000  0.175515  0.916752  1
  Tm  Tm3  1  0.500000  0.824375  0.083079  1
  Tm  Tm4  1  0.500000  0.444459  0.126708  1
  Tm  Tm5  1  0.500000  0.555550  0.873173  1
  Tm  Tm6  1  0.500000  0.055415  0.627599  1
  Tm  Tm7  1  0.500000  0.944267  0.372427  1
  B  B8  1  0.000000  0.106161  0.472252  1
  B  B9  1  0.000000  0.893253  0.527924  1
  B  B10  1  0.000000  0.395853  0.970371  1
  B  B11  1  0.000000  0.604210  0.029534  1
  B  B12  1  0.000000  0.132358  0.318098  1
  B  B13  1  0.000000  0.867154  0.681602  1
  B  B14  1  0.000000  0.367713  0.816229  1
  B  B15  1  0.000000  0.632381  0.183760  1
  B  B16  1  0.000000  0.051250  0.065293  1
  B  B17  1  0.000000  0.948500  0.934469  1
  B  B18  1  0.000000  0.446688  0.565782  1
  B  B19  1  0.000000  0.554150  0.434744  1
  B  B20  1  0.000000  0.483931  0.288544  1
  B  B21  1  0.000000  0.516625  0.711260  1
  B  B22  1  0.000000  0.021208  0.785953  1
  B  B23  1  0.000000  0.978516  0.214000  1
  B  B24  1  0.000000  0.251412  0.078686  1
  B  B25  1  0.000000  0.748547  0.921079  1
  B  B26  1  0.000000  0.250657  0.579420  1
  B  B27  1  0.000000  0.749327  0.421231  1
  B  B28  1  0.000000  0.296928  0.236874  1
  B  B29  1  0.000000  0.702889  0.762659  1
  B  B30  1  0.000000  0.208751  0.734755  1
  B  B31  1  0.000000  0.791201  0.265375  1
  Rh  Rh32  1  0.500000  0.361345  0.678765  1
  Rh  Rh33  1  0.500000  0.638937  0.321351  1
  W  W34  1  0.500000  0.139012  0.180783  1
  W  W35  1  0.500000  0.860843  0.819103  1
