# generated using pymatgen
data_Hf10BeSb5
_symmetry_space_group_name_H-M   'P 1'
_cell_length_a   5.50566421
_cell_length_b   8.26771015
_cell_length_c   8.26770942
_cell_angle_alpha   96.36510296
_cell_angle_beta   109.44864362
_cell_angle_gamma   70.55135180
_symmetry_Int_Tables_number   1
_chemical_formula_structural   Hf10BeSb5
_chemical_formula_sum   'Hf10 Be1 Sb5'
_cell_volume   334.61743408
_cell_formula_units_Z   1
loop_
 _symmetry_equiv_pos_site_id
 _symmetry_equiv_pos_as_xyz
  1  'x, y, z'
loop_
 _atom_site_type_symbol
 _atom_site_label
 _atom_site_symmetry_multiplicity
 _atom_site_fract_x
 _atom_site_fract_y
 _atom_site_fract_z
 _atom_site_occupancy
  Hf  Hf0  1  0.935463  0.859938  0.709464  1
  Hf  Hf1  1  0.085935  0.140062  0.290536  1
  Hf  Hf2  1  0.414065  0.290536  0.140062  1
  Hf  Hf3  1  0.564537  0.709464  0.859938  1
  Hf  Hf4  1  0.225999  0.709464  0.140062  1
  Hf  Hf5  1  0.795400  0.290536  0.859938  1
  Hf  Hf6  1  0.274001  0.140062  0.709464  1
  Hf  Hf7  1  0.704600  0.859938  0.290536  1
  Hf  Hf8  1  0.250000  0.500000  0.500000  1
  Hf  Hf9  1  0.750000  0.500000  0.500000  1
  Be  Be10  1  0.250000  0.000000  0.000000  1
  Sb  Sb11  1  0.335402  0.829197  0.500000  1
  Sb  Sb12  1  0.664598  0.170803  0.500000  1
  Sb  Sb13  1  0.835402  0.500000  0.170803  1
  Sb  Sb14  1  0.164598  0.500000  0.829197  1
  Sb  Sb15  1  0.750000  0.000000  0.000000  1
