# generated using pymatgen
data_HfZnTeO6
_symmetry_space_group_name_H-M   'P 1'
_cell_length_a   4.91739500
_cell_length_b   4.93009000
_cell_length_c   9.05886600
_cell_angle_alpha   90.00000000
_cell_angle_beta   90.00000000
_cell_angle_gamma   90.00000000
_symmetry_Int_Tables_number   1
_chemical_formula_structural   HfZnTeO6
_chemical_formula_sum   'Hf2 Zn2 Te2 O12'
_cell_volume   219.61589945
_cell_formula_units_Z   2
loop_
 _symmetry_equiv_pos_site_id
 _symmetry_equiv_pos_as_xyz
  1  'x, y, z'
loop_
 _atom_site_type_symbol
 _atom_site_label
 _atom_site_symmetry_multiplicity
 _atom_site_fract_x
 _atom_site_fract_y
 _atom_site_fract_z
 _atom_site_occupancy
  Hf  Hf0  1  0.000000  0.500000  0.889299  1
  Hf  Hf1  1  0.500000  0.000000  0.110701  1
  Zn  Zn2  1  0.500000  0.500000  0.501069  1
  Zn  Zn3  1  0.000000  0.000000  0.498931  1
  Te  Te4  1  0.000000  0.500000  0.249529  1
  Te  Te5  1  0.500000  0.000000  0.750471  1
  O  O6  1  0.200857  0.300581  0.395442  1
  O  O7  1  0.799143  0.699419  0.395442  1
  O  O8  1  0.773903  0.722271  0.754388  1
  O  O9  1  0.299143  0.800581  0.604558  1
  O  O10  1  0.809402  0.685803  0.083137  1
  O  O11  1  0.690598  0.185803  0.916863  1
  O  O12  1  0.226097  0.277729  0.754388  1
  O  O13  1  0.700857  0.199419  0.604558  1
  O  O14  1  0.273903  0.777729  0.245612  1
  O  O15  1  0.726097  0.222271  0.245612  1
  O  O16  1  0.309402  0.814197  0.916863  1
  O  O17  1  0.190598  0.314197  0.083137  1
