# generated using pymatgen
data_Pa4CoB14
_symmetry_space_group_name_H-M   'P 1'
_cell_length_a   7.23573200
_cell_length_b   7.23573200
_cell_length_c   7.60223300
_cell_angle_alpha   90.00000000
_cell_angle_beta   90.00000000
_cell_angle_gamma   90.00000000
_symmetry_Int_Tables_number   1
_chemical_formula_structural   Pa4CoB14
_chemical_formula_sum   'Pa8 Co2 B28'
_cell_volume   398.02112412
_cell_formula_units_Z   2
loop_
 _symmetry_equiv_pos_site_id
 _symmetry_equiv_pos_as_xyz
  1  'x, y, z'
loop_
 _atom_site_type_symbol
 _atom_site_label
 _atom_site_symmetry_multiplicity
 _atom_site_fract_x
 _atom_site_fract_y
 _atom_site_fract_z
 _atom_site_occupancy
  Pa  Pa0  1  0.194624  0.328078  0.000000  1
  Pa  Pa1  1  0.671922  0.194624  0.000000  1
  Pa  Pa2  1  0.328078  0.805376  0.000000  1
  Pa  Pa3  1  0.694624  0.171922  0.500000  1
  Pa  Pa4  1  0.305376  0.828078  0.500000  1
  Pa  Pa5  1  0.805376  0.671922  0.000000  1
  Pa  Pa6  1  0.828078  0.694624  0.500000  1
  Pa  Pa7  1  0.171922  0.305376  0.500000  1
  Co  Co8  1  0.000000  0.000000  0.000000  1
  Co  Co9  1  0.500000  0.500000  0.500000  1
  B  B10  1  0.174570  0.040043  0.232259  1
  B  B11  1  0.959957  0.174570  0.232259  1
  B  B12  1  0.040043  0.825430  0.232259  1
  B  B13  1  0.674570  0.459957  0.267741  1
  B  B14  1  0.325430  0.540043  0.267741  1
  B  B15  1  0.825430  0.959957  0.232259  1
  B  B16  1  0.540043  0.674570  0.267741  1
  B  B17  1  0.459957  0.325430  0.267741  1
  B  B18  1  0.825430  0.959957  0.767741  1
  B  B19  1  0.040043  0.825430  0.767741  1
  B  B20  1  0.959957  0.174570  0.767741  1
  B  B21  1  0.325430  0.540043  0.732259  1
  B  B22  1  0.674570  0.459957  0.732259  1
  B  B23  1  0.174570  0.040043  0.767741  1
  B  B24  1  0.459957  0.325430  0.732259  1
  B  B25  1  0.540043  0.674570  0.732259  1
  B  B26  1  0.090239  0.590239  0.250000  1
  B  B27  1  0.409761  0.090239  0.250000  1
  B  B28  1  0.590239  0.909761  0.250000  1
  B  B29  1  0.909761  0.409761  0.250000  1
  B  B30  1  0.909761  0.409761  0.750000  1
  B  B31  1  0.590239  0.909761  0.750000  1
  B  B32  1  0.409761  0.090239  0.750000  1
  B  B33  1  0.090239  0.590239  0.750000  1
  B  B34  1  0.000000  0.000000  0.392060  1
  B  B35  1  0.500000  0.500000  0.107940  1
  B  B36  1  0.000000  0.000000  0.607940  1
  B  B37  1  0.500000  0.500000  0.892060  1
