# generated using pymatgen
data_Tm13Th3MgCd3Ir4
_symmetry_space_group_name_H-M   'P 1'
_cell_length_a   9.65167605
_cell_length_b   9.64583272
_cell_length_c   9.64583343
_cell_angle_alpha   59.80545085
_cell_angle_beta   59.89435685
_cell_angle_gamma   59.89435230
_symmetry_Int_Tables_number   1
_chemical_formula_structural   Tm13Th3MgCd3Ir4
_chemical_formula_sum   'Tm13 Th3 Mg1 Cd3 Ir4'
_cell_volume   633.04022005
_cell_formula_units_Z   1
loop_
 _symmetry_equiv_pos_site_id
 _symmetry_equiv_pos_as_xyz
  1  'x, y, z'
loop_
 _atom_site_type_symbol
 _atom_site_label
 _atom_site_symmetry_multiplicity
 _atom_site_fract_x
 _atom_site_fract_y
 _atom_site_fract_z
 _atom_site_occupancy
  Tm  Tm0  1  0.199957  0.600760  0.600760  1
  Tm  Tm1  1  0.059885  0.440208  0.440208  1
  Tm  Tm2  1  0.434323  0.064976  0.064976  1
  Tm  Tm3  1  0.436854  0.062529  0.437661  1
  Tm  Tm4  1  0.063518  0.435975  0.062011  1
  Tm  Tm5  1  0.436854  0.437661  0.062529  1
  Tm  Tm6  1  0.063518  0.062011  0.435975  1
  Tm  Tm7  1  0.187460  0.816027  0.816027  1
  Tm  Tm8  1  0.816664  0.184722  0.184722  1
  Tm  Tm9  1  0.817814  0.185039  0.817379  1
  Tm  Tm10  1  0.186432  0.813982  0.187704  1
  Tm  Tm11  1  0.817814  0.817379  0.185039  1
  Tm  Tm12  1  0.186432  0.187704  0.813982  1
  Th  Th13  1  0.597760  0.599664  0.599664  1
  Th  Th14  1  0.598432  0.600605  0.200901  1
  Th  Th15  1  0.598432  0.200901  0.600605  1
  Mg  Mg16  1  0.830802  0.825419  0.825419  1
  Cd  Cd17  1  0.834648  0.830545  0.501041  1
  Cd  Cd18  1  0.834648  0.501041  0.830545  1
  Cd  Cd19  1  0.500095  0.831918  0.831918  1
  Ir  Ir20  1  0.391509  0.392819  0.392819  1
  Ir  Ir21  1  0.391557  0.392030  0.823974  1
  Ir  Ir22  1  0.391557  0.823974  0.392030  1
  Ir  Ir23  1  0.823033  0.392110  0.392110  1
