# generated using pymatgen
data_Ho7ScNb12Si15Sn
_symmetry_space_group_name_H-M   'P 1'
_cell_length_a   6.88367277
_cell_length_b   7.07518858
_cell_length_c   13.49100392
_cell_angle_alpha   89.92556200
_cell_angle_beta   90.25227839
_cell_angle_gamma   90.00064430
_symmetry_Int_Tables_number   1
_chemical_formula_structural   Ho7ScNb12Si15Sn
_chemical_formula_sum   'Ho7 Sc1 Nb12 Si15 Sn1'
_cell_volume   657.04925787
_cell_formula_units_Z   1
loop_
 _symmetry_equiv_pos_site_id
 _symmetry_equiv_pos_as_xyz
  1  'x, y, z'
loop_
 _atom_site_type_symbol
 _atom_site_label
 _atom_site_symmetry_multiplicity
 _atom_site_fract_x
 _atom_site_fract_y
 _atom_site_fract_z
 _atom_site_occupancy
  Ho  Ho0  1  0.496647  0.668108  0.599131  1
  Ho  Ho1  1  0.001738  0.828563  0.904644  1
  Ho  Ho2  1  0.497541  0.327695  0.093682  1
  Ho  Ho3  1  0.011197  0.180250  0.401692  1
  Ho  Ho4  1  0.496367  0.334354  0.403697  1
  Ho  Ho5  1  0.997272  0.171490  0.094297  1
  Ho  Ho6  1  0.502055  0.673472  0.904322  1
  Sc  Sc7  1  0.006738  0.820811  0.602142  1
  Nb  Nb8  1  0.656754  0.184599  0.631070  1
  Nb  Nb9  1  0.158813  0.324523  0.874662  1
  Nb  Nb10  1  0.337564  0.824788  0.124147  1
  Nb  Nb11  1  0.849156  0.660774  0.369699  1
  Nb  Nb12  1  0.331339  0.822523  0.372212  1
  Nb  Nb13  1  0.837687  0.673386  0.124356  1
  Nb  Nb14  1  0.663181  0.174232  0.874804  1
  Nb  Nb15  1  0.161251  0.327541  0.627354  1
  Nb  Nb16  1  0.835634  0.492902  0.750549  1
  Nb  Nb17  1  0.334782  0.008008  0.750257  1
  Nb  Nb18  1  0.164033  0.507865  0.248674  1
  Nb  Nb19  1  0.664031  0.990039  0.244354  1
  Si  Si20  1  0.163161  0.536628  0.039987  1
  Si  Si21  1  0.336688  0.037122  0.958806  1
  Si  Si22  1  0.837267  0.466099  0.540813  1
  Si  Si23  1  0.321034  0.035252  0.543087  1
  Si  Si24  1  0.834876  0.462967  0.959469  1
  Si  Si25  1  0.663303  0.962316  0.039365  1
  Si  Si26  1  0.165270  0.542625  0.463984  1
  Si  Si27  1  0.453779  0.379323  0.753801  1
  Si  Si28  1  0.957599  0.120419  0.749259  1
  Si  Si29  1  0.543127  0.623493  0.248991  1
  Si  Si30  1  0.041210  0.879100  0.247980  1
  Si  Si31  1  0.705934  0.872685  0.749308  1
  Si  Si32  1  0.200285  0.630088  0.750622  1
  Si  Si33  1  0.298827  0.127247  0.248448  1
  Si  Si34  1  0.794529  0.367637  0.247649  1
  Sn  Sn35  1  0.679331  0.961075  0.462686  1
