# generated using pymatgen
data_Ti6Al6Fe7Cu5
_symmetry_space_group_name_H-M   'P 1'
_cell_length_a   4.19459100
_cell_length_b   5.87495745
_cell_length_c   12.49275491
_cell_angle_alpha   90.04435810
_cell_angle_beta   89.99888046
_cell_angle_gamma   89.99987341
_symmetry_Int_Tables_number   1
_chemical_formula_structural   Ti6Al6Fe7Cu5
_chemical_formula_sum   'Ti6 Al6 Fe7 Cu5'
_cell_volume   307.85941234
_cell_formula_units_Z   1
loop_
 _symmetry_equiv_pos_site_id
 _symmetry_equiv_pos_as_xyz
  1  'x, y, z'
loop_
 _atom_site_type_symbol
 _atom_site_label
 _atom_site_symmetry_multiplicity
 _atom_site_fract_x
 _atom_site_fract_y
 _atom_site_fract_z
 _atom_site_occupancy
  Ti  Ti0  1  0.999968  0.999118  0.986318  1
  Ti  Ti1  1  0.500082  0.510680  0.174285  1
  Ti  Ti2  1  0.000050  0.986900  0.345497  1
  Ti  Ti3  1  0.499996  0.503618  0.507750  1
  Ti  Ti4  1  0.999955  0.000655  0.665903  1
  Ti  Ti5  1  0.499939  0.500004  0.822241  1
  Al  Al6  1  0.999972  0.502430  0.993785  1
  Al  Al7  1  0.500078  0.000496  0.167917  1
  Al  Al8  1  0.000065  0.500211  0.341531  1
  Al  Al9  1  0.499991  0.996915  0.505852  1
  Al  Al10  1  0.999961  0.500146  0.665785  1
  Al  Al11  1  0.499939  0.000333  0.825789  1
  Fe  Fe12  1  0.500049  0.748395  0.332224  1
  Fe  Fe13  1  0.999993  0.247002  0.500554  1
  Fe  Fe14  1  0.999994  0.751415  0.499574  1
  Fe  Fe15  1  0.499955  0.251219  0.666247  1
  Fe  Fe16  1  0.499956  0.748287  0.666222  1
  Fe  Fe17  1  0.999935  0.247069  0.833228  1
  Fe  Fe18  1  0.999936  0.752976  0.832258  1
  Cu  Cu19  1  0.499978  0.253322  0.996142  1
  Cu  Cu20  1  0.499942  0.747280  0.993420  1
  Cu  Cu21  1  0.000092  0.253159  0.165196  1
  Cu  Cu22  1  0.000108  0.749327  0.171871  1
  Cu  Cu23  1  0.500064  0.249041  0.340415  1
