# generated using pymatgen
data_Dy3ZnGa7Ag3
_symmetry_space_group_name_H-M   'P 1'
_cell_length_a   4.32983792
_cell_length_b   8.33287877
_cell_length_c   8.32026257
_cell_angle_alpha   70.28831786
_cell_angle_beta   74.91816453
_cell_angle_gamma   74.94153372
_symmetry_Int_Tables_number   1
_chemical_formula_structural   Dy3ZnGa7Ag3
_chemical_formula_sum   'Dy3 Zn1 Ga7 Ag3'
_cell_volume   267.93786411
_cell_formula_units_Z   1
loop_
 _symmetry_equiv_pos_site_id
 _symmetry_equiv_pos_as_xyz
  1  'x, y, z'
loop_
 _atom_site_type_symbol
 _atom_site_label
 _atom_site_symmetry_multiplicity
 _atom_site_fract_x
 _atom_site_fract_y
 _atom_site_fract_z
 _atom_site_occupancy
  Dy  Dy0  1  0.501211  0.498009  0.499569  1
  Dy  Dy1  1  0.798379  0.200022  0.203221  1
  Dy  Dy2  1  0.200505  0.801586  0.797403  1
  Zn  Zn3  1  0.642779  0.080120  0.634322  1
  Ga  Ga4  1  0.357209  0.924417  0.361166  1
  Ga  Ga5  1  0.643590  0.638384  0.074437  1
  Ga  Ga6  1  0.358236  0.359614  0.923914  1
  Ga  Ga7  1  0.837193  0.794515  0.531099  1
  Ga  Ga8  1  0.158130  0.209191  0.474549  1
  Ga  Ga9  1  0.841754  0.527896  0.788596  1
  Ga  Ga10  1  0.158946  0.470329  0.211779  1
  Ag  Ag11  1  0.501463  0.998647  0.998426  1
  Ag  Ag12  1  0.999753  0.803448  0.197046  1
  Ag  Ag13  1  0.000854  0.193821  0.804472  1
