# generated using pymatgen
data_MnHg4(AsBr2)2
_symmetry_space_group_name_H-M   'P 1'
_cell_length_a   13.03724300
_cell_length_b   8.12241315
_cell_length_c   8.20076322
_cell_angle_alpha   62.86077495
_cell_angle_beta   90.00000000
_cell_angle_gamma   90.00000000
_symmetry_Int_Tables_number   1
_chemical_formula_structural   MnHg4(AsBr2)2
_chemical_formula_sum   'Mn2 Hg8 As4 Br8'
_cell_volume   772.79921278
_cell_formula_units_Z   2
loop_
 _symmetry_equiv_pos_site_id
 _symmetry_equiv_pos_as_xyz
  1  'x, y, z'
loop_
 _atom_site_type_symbol
 _atom_site_label
 _atom_site_symmetry_multiplicity
 _atom_site_fract_x
 _atom_site_fract_y
 _atom_site_fract_z
 _atom_site_occupancy
  Mn  Mn0  1  0.836708  0.986407  0.013298  1
  Mn  Mn1  1  0.336708  0.013593  0.986702  1
  Hg  Hg2  1  0.792970  0.675555  0.667951  1
  Hg  Hg3  1  0.557204  0.035933  0.596470  1
  Hg  Hg4  1  0.057204  0.964067  0.403530  1
  Hg  Hg5  1  0.557698  0.527308  0.064681  1
  Hg  Hg6  1  0.292970  0.324445  0.332049  1
  Hg  Hg7  1  0.019015  0.465403  0.439920  1
  Hg  Hg8  1  0.519015  0.534597  0.560080  1
  Hg  Hg9  1  0.057698  0.472692  0.935319  1
  As  As10  1  0.482716  0.353113  0.383945  1
  As  As11  1  0.603492  0.695150  0.727606  1
  As  As12  1  0.982716  0.646887  0.616055  1
  As  As13  1  0.103492  0.304850  0.272394  1
  Br  Br14  1  0.237353  0.288388  0.762253  1
  Br  Br15  1  0.323341  0.730279  0.940896  1
  Br  Br16  1  0.022863  0.883908  0.076782  1
  Br  Br17  1  0.737353  0.711612  0.237747  1
  Br  Br18  1  0.522863  0.116092  0.923218  1
  Br  Br19  1  0.823341  0.269721  0.059104  1
  Br  Br20  1  0.805370  0.073390  0.680632  1
  Br  Br21  1  0.305370  0.926610  0.319368  1
