# generated using pymatgen
data_Dy4Lu(ReO6)2
_symmetry_space_group_name_H-M   'P 1'
_cell_length_a   6.82098454
_cell_length_b   6.82098450
_cell_length_c   7.49997276
_cell_angle_alpha   73.74208373
_cell_angle_beta   73.74208393
_cell_angle_gamma   49.13169770
_symmetry_Int_Tables_number   1
_chemical_formula_structural   Dy4Lu(ReO6)2
_chemical_formula_sum   'Dy4 Lu1 Re2 O12'
_cell_volume   251.06273120
_cell_formula_units_Z   1
loop_
 _symmetry_equiv_pos_site_id
 _symmetry_equiv_pos_as_xyz
  1  'x, y, z'
loop_
 _atom_site_type_symbol
 _atom_site_label
 _atom_site_symmetry_multiplicity
 _atom_site_fract_x
 _atom_site_fract_y
 _atom_site_fract_z
 _atom_site_occupancy
  Dy  Dy0  1  0.197319  0.197319  0.641330  1
  Dy  Dy1  1  0.184169  0.184169  0.177332  1
  Dy  Dy2  1  0.802681  0.802681  0.358670  1
  Dy  Dy3  1  0.815831  0.815831  0.822668  1
  Lu  Lu4  1  0.500000  0.500000  0.500000  1
  Re  Re5  1  0.713709  0.286291  0.000000  1
  Re  Re6  1  0.286291  0.713709  0.000000  1
  O  O7  1  0.413150  0.918410  0.913744  1
  O  O8  1  0.918410  0.413150  0.913744  1
  O  O9  1  0.900127  0.401277  0.429129  1
  O  O10  1  0.401277  0.900127  0.429129  1
  O  O11  1  0.502073  0.502073  0.208331  1
  O  O12  1  0.998764  0.998764  0.177630  1
  O  O13  1  0.001236  0.001236  0.822370  1
  O  O14  1  0.497927  0.497927  0.791669  1
  O  O15  1  0.081590  0.586850  0.086256  1
  O  O16  1  0.586850  0.081590  0.086256  1
  O  O17  1  0.099873  0.598723  0.570871  1
  O  O18  1  0.598723  0.099873  0.570871  1
