# generated using pymatgen
data_NaFePbF6
_symmetry_space_group_name_H-M   'P 1'
_cell_length_a   5.52036200
_cell_length_b   9.54671300
_cell_length_c   10.59256600
_cell_angle_alpha   90.00000000
_cell_angle_beta   90.00000000
_cell_angle_gamma   90.00000000
_symmetry_Int_Tables_number   1
_chemical_formula_structural   NaFePbF6
_chemical_formula_sum   'Na4 Fe4 Pb4 F24'
_cell_volume   558.24212215
_cell_formula_units_Z   4
loop_
 _symmetry_equiv_pos_site_id
 _symmetry_equiv_pos_as_xyz
  1  'x, y, z'
loop_
 _atom_site_type_symbol
 _atom_site_label
 _atom_site_symmetry_multiplicity
 _atom_site_fract_x
 _atom_site_fract_y
 _atom_site_fract_z
 _atom_site_occupancy
  Na  Na0  1  0.042935  0.647904  0.084764  1
  Na  Na1  1  0.542935  0.852096  0.915236  1
  Na  Na2  1  0.457065  0.352096  0.584764  1
  Na  Na3  1  0.957065  0.147904  0.415236  1
  Fe  Fe4  1  0.037144  0.999869  0.126305  1
  Fe  Fe5  1  0.537144  0.500131  0.873695  1
  Fe  Fe6  1  0.962856  0.499869  0.373695  1
  Fe  Fe7  1  0.462856  0.000131  0.626305  1
  Pb  Pb8  1  0.493145  0.817646  0.324346  1
  Pb  Pb9  1  0.506855  0.317646  0.175654  1
  Pb  Pb10  1  0.006855  0.182354  0.824346  1
  Pb  Pb11  1  0.993145  0.682354  0.675654  1
  F  F12  1  0.205217  0.621328  0.295193  1
  F  F13  1  0.140757  0.495387  0.534133  1
  F  F14  1  0.783736  0.641902  0.917223  1
  F  F15  1  0.716264  0.358098  0.417223  1
  F  F16  1  0.859243  0.995387  0.965867  1
  F  F17  1  0.782312  0.657101  0.451644  1
  F  F18  1  0.342611  0.661701  0.819132  1
  F  F19  1  0.157389  0.338299  0.319132  1
  F  F20  1  0.640757  0.004613  0.465867  1
  F  F21  1  0.359243  0.504613  0.034133  1
  F  F22  1  0.216813  0.019071  0.285824  1
  F  F23  1  0.282312  0.842899  0.548356  1
  F  F24  1  0.217688  0.157101  0.048356  1
  F  F25  1  0.783187  0.519071  0.214176  1
  F  F26  1  0.717688  0.342899  0.951644  1
  F  F27  1  0.283187  0.980929  0.785824  1
  F  F28  1  0.716813  0.480929  0.714176  1
  F  F29  1  0.794783  0.121328  0.204807  1
  F  F30  1  0.216264  0.141902  0.582777  1
  F  F31  1  0.294783  0.378672  0.795193  1
  F  F32  1  0.283736  0.858098  0.082777  1
  F  F33  1  0.705217  0.878672  0.704807  1
  F  F34  1  0.657389  0.161701  0.680868  1
  F  F35  1  0.842611  0.838299  0.180868  1
