# generated using pymatgen
data_DyTa3(Co4P3)2
_symmetry_space_group_name_H-M   'P 1'
_cell_length_a   11.96987700
_cell_length_b   11.96987763
_cell_length_c   3.63963100
_cell_angle_alpha   90.00000000
_cell_angle_beta   90.00000000
_cell_angle_gamma   120.00000102
_symmetry_Int_Tables_number   1
_chemical_formula_structural   DyTa3(Co4P3)2
_chemical_formula_sum   'Dy2 Ta6 Co16 P12'
_cell_volume   451.61398368
_cell_formula_units_Z   2
loop_
 _symmetry_equiv_pos_site_id
 _symmetry_equiv_pos_as_xyz
  1  'x, y, z'
loop_
 _atom_site_type_symbol
 _atom_site_label
 _atom_site_symmetry_multiplicity
 _atom_site_fract_x
 _atom_site_fract_y
 _atom_site_fract_z
 _atom_site_occupancy
  Dy  Dy0  1  0.333333  0.666667  0.000000  1
  Dy  Dy1  1  0.666667  0.333333  0.000000  1
  Ta  Ta2  1  0.821260  0.000000  0.500000  1
  Ta  Ta3  1  0.000000  0.821260  0.500000  1
  Ta  Ta4  1  0.178740  0.178740  0.500000  1
  Ta  Ta5  1  0.444665  0.000000  0.000000  1
  Ta  Ta6  1  0.000000  0.444665  0.000000  1
  Ta  Ta7  1  0.555335  0.555335  0.000000  1
  Co  Co8  1  0.272179  0.000000  0.500000  1
  Co  Co9  1  0.000000  0.272179  0.500000  1
  Co  Co10  1  0.727821  0.727821  0.500000  1
  Co  Co11  1  0.634947  0.811139  0.000000  1
  Co  Co12  1  0.188861  0.823809  0.000000  1
  Co  Co13  1  0.176191  0.365053  0.000000  1
  Co  Co14  1  0.365053  0.176191  0.000000  1
  Co  Co15  1  0.811139  0.634947  0.000000  1
  Co  Co16  1  0.823809  0.188861  0.000000  1
  Co  Co17  1  0.520605  0.875147  0.500000  1
  Co  Co18  1  0.124853  0.645459  0.500000  1
  Co  Co19  1  0.354541  0.479395  0.500000  1
  Co  Co20  1  0.479395  0.354541  0.500000  1
  Co  Co21  1  0.875147  0.520605  0.500000  1
  Co  Co22  1  0.645459  0.124853  0.500000  1
  Co  Co23  1  0.000000  0.000000  0.000000  1
  P  P24  1  0.172269  0.000000  0.000000  1
  P  P25  1  0.000000  0.172269  0.000000  1
  P  P26  1  0.827731  0.827731  0.000000  1
  P  P27  1  0.523016  0.690308  0.500000  1
  P  P28  1  0.309692  0.832708  0.500000  1
  P  P29  1  0.167292  0.476984  0.500000  1
  P  P30  1  0.476984  0.167292  0.500000  1
  P  P31  1  0.690308  0.523016  0.500000  1
  P  P32  1  0.832708  0.309692  0.500000  1
  P  P33  1  0.648929  0.000000  0.000000  1
  P  P34  1  0.000000  0.648929  0.000000  1
  P  P35  1  0.351071  0.351071  0.000000  1
