# generated using pymatgen
data_HoEr19(CoBi2)4
_symmetry_space_group_name_H-M   'P 1'
_cell_length_a   7.91382308
_cell_length_b   8.83112006
_cell_length_c   12.28446914
_cell_angle_alpha   89.98977049
_cell_angle_beta   90.01369627
_cell_angle_gamma   90.00868502
_symmetry_Int_Tables_number   1
_chemical_formula_structural   HoEr19(CoBi2)4
_chemical_formula_sum   'Ho1 Er19 Co4 Bi8'
_cell_volume   858.53596970
_cell_formula_units_Z   1
loop_
 _symmetry_equiv_pos_site_id
 _symmetry_equiv_pos_as_xyz
  1  'x, y, z'
loop_
 _atom_site_type_symbol
 _atom_site_label
 _atom_site_symmetry_multiplicity
 _atom_site_fract_x
 _atom_site_fract_y
 _atom_site_fract_z
 _atom_site_occupancy
  Ho  Ho0  1  0.175393  0.038368  0.937101  1
  Er  Er1  1  0.345602  0.749979  0.699590  1
  Er  Er2  1  0.654448  0.250013  0.300390  1
  Er  Er3  1  0.845439  0.250050  0.800293  1
  Er  Er4  1  0.154453  0.749977  0.199786  1
  Er  Er5  1  0.885698  0.749949  0.811083  1
  Er  Er6  1  0.114088  0.250087  0.188905  1
  Er  Er7  1  0.385880  0.249999  0.688756  1
  Er  Er8  1  0.614122  0.750000  0.311226  1
  Er  Er9  1  0.674832  0.538393  0.562794  1
  Er  Er10  1  0.325159  0.461653  0.437206  1
  Er  Er11  1  0.174900  0.461591  0.937155  1
  Er  Er12  1  0.325158  0.038355  0.437214  1
  Er  Er13  1  0.825095  0.538373  0.062847  1
  Er  Er14  1  0.674843  0.961611  0.562801  1
  Er  Er15  1  0.824925  0.961633  0.062901  1
  Er  Er16  1  0.053685  0.750008  0.498161  1
  Er  Er17  1  0.946293  0.250011  0.501831  1
  Er  Er18  1  0.553749  0.250049  0.001839  1
  Er  Er19  1  0.446511  0.749935  0.998171  1
  Co  Co20  1  0.067253  0.749866  0.991604  1
  Co  Co21  1  0.932418  0.250150  0.008469  1
  Co  Co22  1  0.567360  0.249999  0.508399  1
  Co  Co23  1  0.432639  0.750002  0.491590  1
  Bi  Bi24  1  0.571358  0.510226  0.826499  1
  Bi  Bi25  1  0.428631  0.489788  0.173493  1
  Bi  Bi26  1  0.071351  0.489779  0.673523  1
  Bi  Bi27  1  0.428608  0.010205  0.173507  1
  Bi  Bi28  1  0.928647  0.510227  0.326481  1
  Bi  Bi29  1  0.571494  0.989753  0.826451  1
  Bi  Bi30  1  0.928651  0.989754  0.326476  1
  Bi  Bi31  1  0.071317  0.010216  0.673458  1
