# generated using pymatgen
data_Ta12AlGa7(CuC)4
_symmetry_space_group_name_H-M   'P 1'
_cell_length_a   8.28184803
_cell_length_b   8.28184762
_cell_length_c   8.28185337
_cell_angle_alpha   59.97207474
_cell_angle_beta   59.97207756
_cell_angle_gamma   59.97202613
_symmetry_Int_Tables_number   1
_chemical_formula_structural   Ta12AlGa7(CuC)4
_chemical_formula_sum   'Ta12 Al1 Ga7 Cu4 C4'
_cell_volume   401.41331905
_cell_formula_units_Z   1
loop_
 _symmetry_equiv_pos_site_id
 _symmetry_equiv_pos_as_xyz
  1  'x, y, z'
loop_
 _atom_site_type_symbol
 _atom_site_label
 _atom_site_symmetry_multiplicity
 _atom_site_fract_x
 _atom_site_fract_y
 _atom_site_fract_z
 _atom_site_occupancy
  Ta  Ta0  1  0.566912  0.933266  0.566912  1
  Ta  Ta1  1  0.316293  0.683348  0.683348  1
  Ta  Ta2  1  0.683312  0.316920  0.316920  1
  Ta  Ta3  1  0.316920  0.683312  0.316920  1
  Ta  Ta4  1  0.683348  0.683348  0.316292  1
  Ta  Ta5  1  0.316920  0.316920  0.683312  1
  Ta  Ta6  1  0.566912  0.566912  0.933267  1
  Ta  Ta7  1  0.933266  0.566912  0.566912  1
  Ta  Ta8  1  0.567009  0.933278  0.933278  1
  Ta  Ta9  1  0.933278  0.933278  0.567009  1
  Ta  Ta10  1  0.683348  0.316293  0.683348  1
  Ta  Ta11  1  0.933278  0.567009  0.933278  1
  Al  Al12  1  0.916632  0.916632  0.916631  1
  Ga  Ga13  1  0.995395  0.334866  0.334867  1
  Ga  Ga14  1  0.334866  0.995395  0.334867  1
  Ga  Ga15  1  0.334866  0.334866  0.995395  1
  Ga  Ga16  1  0.915260  0.254022  0.915259  1
  Ga  Ga17  1  0.915260  0.915260  0.254022  1
  Ga  Ga18  1  0.254022  0.915260  0.915259  1
  Ga  Ga19  1  0.334787  0.334787  0.334788  1
  Cu  Cu20  1  0.125091  0.125091  0.125091  1
  Cu  Cu21  1  0.625523  0.123982  0.123982  1
  Cu  Cu22  1  0.123982  0.625523  0.123982  1
  Cu  Cu23  1  0.123982  0.123982  0.625523  1
  C  C24  1  0.625064  0.625064  0.625064  1
  C  C25  1  0.125079  0.624698  0.624698  1
  C  C26  1  0.624698  0.125079  0.624698  1
  C  C27  1  0.624698  0.624698  0.125079  1
