# generated using pymatgen
data_La2Ho(TmRu)2
_symmetry_space_group_name_H-M   'P 1'
_cell_length_a   6.47286906
_cell_length_b   7.23258716
_cell_length_c   8.73511055
_cell_angle_alpha   96.43940566
_cell_angle_beta   111.74699526
_cell_angle_gamma   90.00000032
_symmetry_Int_Tables_number   1
_chemical_formula_structural   La2Ho(TmRu)2
_chemical_formula_sum   'La4 Ho2 Tm4 Ru4'
_cell_volume   377.05563735
_cell_formula_units_Z   2
loop_
 _symmetry_equiv_pos_site_id
 _symmetry_equiv_pos_as_xyz
  1  'x, y, z'
loop_
 _atom_site_type_symbol
 _atom_site_label
 _atom_site_symmetry_multiplicity
 _atom_site_fract_x
 _atom_site_fract_y
 _atom_site_fract_z
 _atom_site_occupancy
  La  La0  1  0.782948  0.087857  0.804608  1
  La  La1  1  0.978342  0.412143  0.195392  1
  La  La2  1  0.216414  0.910374  0.196729  1
  La  La3  1  0.019684  0.589626  0.803271  1
  Ho  Ho4  1  0.203649  0.184739  0.569261  1
  Ho  Ho5  1  0.634388  0.315261  0.430739  1
  Tm  Tm6  1  0.797538  0.814888  0.429790  1
  Tm  Tm7  1  0.367748  0.685112  0.570210  1
  Tm  Tm8  1  0.426247  0.250000  0.000000  1
  Tm  Tm9  1  0.573075  0.750000  0.000000  1
  Ru  Ru10  1  0.598654  0.418934  0.776053  1
  Ru  Ru11  1  0.822601  0.081066  0.223947  1
  Ru  Ru12  1  0.402111  0.582353  0.225510  1
  Ru  Ru13  1  0.176602  0.917647  0.774490  1
