# generated using pymatgen
data_K(RhO2)6
_symmetry_space_group_name_H-M   'P 1'
_cell_length_a   8.60210533
_cell_length_b   8.60210514
_cell_length_c   8.60210501
_cell_angle_alpha   107.19799004
_cell_angle_beta   107.19799054
_cell_angle_gamma   114.12010496
_symmetry_Int_Tables_number   1
_chemical_formula_structural   K(RhO2)6
_chemical_formula_sum   'K2 Rh12 O24'
_cell_volume   487.55616548
_cell_formula_units_Z   2
loop_
 _symmetry_equiv_pos_site_id
 _symmetry_equiv_pos_as_xyz
  1  'x, y, z'
loop_
 _atom_site_type_symbol
 _atom_site_label
 _atom_site_symmetry_multiplicity
 _atom_site_fract_x
 _atom_site_fract_y
 _atom_site_fract_z
 _atom_site_occupancy
  K  K0  1  0.776916  0.776916  0.000000  1
  K  K1  1  0.223084  0.223084  0.000000  1
  Rh  Rh2  1  0.315875  0.831394  0.814516  1
  Rh  Rh3  1  0.649234  0.165237  0.814471  1
  Rh  Rh4  1  0.983121  0.498640  0.814516  1
  Rh  Rh5  1  0.016879  0.501360  0.185484  1
  Rh  Rh6  1  0.350766  0.834763  0.185529  1
  Rh  Rh7  1  0.684125  0.168606  0.185484  1
  Rh  Rh8  1  0.834763  0.649234  0.483997  1
  Rh  Rh9  1  0.168606  0.983121  0.484482  1
  Rh  Rh10  1  0.501360  0.315875  0.484482  1
  Rh  Rh11  1  0.498640  0.684125  0.515518  1
  Rh  Rh12  1  0.831394  0.016879  0.515518  1
  Rh  Rh13  1  0.165237  0.350766  0.516003  1
  O  O14  1  0.789360  0.492765  0.615562  1
  O  O15  1  0.122797  0.826203  0.615562  1
  O  O16  1  0.456253  0.157758  0.614010  1
  O  O17  1  0.877203  0.173797  0.384438  1
  O  O18  1  0.210640  0.507235  0.384438  1
  O  O19  1  0.543747  0.842242  0.385990  1
  O  O20  1  0.507235  0.122797  0.296595  1
  O  O21  1  0.842242  0.456253  0.298494  1
  O  O22  1  0.173797  0.789360  0.296595  1
  O  O23  1  0.157758  0.543747  0.701506  1
  O  O24  1  0.492765  0.877203  0.703405  1
  O  O25  1  0.826203  0.210640  0.703405  1
  O  O26  1  0.512740  0.871157  0.049796  1
  O  O27  1  0.845950  0.203109  0.049058  1
  O  O28  1  0.178639  0.537056  0.049796  1
  O  O29  1  0.154050  0.796891  0.950942  1
  O  O30  1  0.487260  0.128843  0.950204  1
  O  O31  1  0.821361  0.462944  0.950204  1
  O  O32  1  0.128843  0.178639  0.641583  1
  O  O33  1  0.462944  0.512740  0.641583  1
  O  O34  1  0.796891  0.845950  0.642841  1
  O  O35  1  0.537056  0.487260  0.358417  1
  O  O36  1  0.871157  0.821361  0.358417  1
  O  O37  1  0.203109  0.154050  0.357159  1
