# generated using pymatgen
data_Tm4ThSn3C
_symmetry_space_group_name_H-M   'P 1'
_cell_length_a   8.96863150
_cell_length_b   8.96863059
_cell_length_c   6.48071600
_cell_angle_alpha   90.00000000
_cell_angle_beta   90.00000000
_cell_angle_gamma   120.36900675
_symmetry_Int_Tables_number   1
_chemical_formula_structural   Tm4ThSn3C
_chemical_formula_sum   'Tm8 Th2 Sn6 C2'
_cell_volume   449.75814524
_cell_formula_units_Z   2
loop_
 _symmetry_equiv_pos_site_id
 _symmetry_equiv_pos_as_xyz
  1  'x, y, z'
loop_
 _atom_site_type_symbol
 _atom_site_label
 _atom_site_symmetry_multiplicity
 _atom_site_fract_x
 _atom_site_fract_y
 _atom_site_fract_z
 _atom_site_occupancy
  Tm  Tm0  1  0.333347  0.666653  0.500000  1
  Tm  Tm1  1  0.666653  0.333347  0.500000  1
  Tm  Tm2  1  0.666653  0.333347  0.000000  1
  Tm  Tm3  1  0.333347  0.666653  0.000000  1
  Tm  Tm4  1  0.215487  0.000990  0.750000  1
  Tm  Tm5  1  0.784513  0.999010  0.250000  1
  Tm  Tm6  1  0.000990  0.215487  0.750000  1
  Tm  Tm7  1  0.999010  0.784513  0.250000  1
  Th  Th8  1  0.780371  0.780371  0.750000  1
  Th  Th9  1  0.219629  0.219629  0.250000  1
  Sn  Sn10  1  0.593841  0.004497  0.750000  1
  Sn  Sn11  1  0.406159  0.995503  0.250000  1
  Sn  Sn12  1  0.004497  0.593841  0.750000  1
  Sn  Sn13  1  0.995503  0.406159  0.250000  1
  Sn  Sn14  1  0.401336  0.401336  0.750000  1
  Sn  Sn15  1  0.598664  0.598664  0.250000  1
  C  C16  1  0.000000  0.000000  0.500000  1
  C  C17  1  0.000000  0.000000  0.000000  1
