# generated using pymatgen
data_Ca2MnAl20Ir3
_symmetry_space_group_name_H-M   'P 1'
_cell_length_a   6.85852085
_cell_length_b   6.86595407
_cell_length_c   9.14313378
_cell_angle_alpha   90.09370408
_cell_angle_beta   90.10183382
_cell_angle_gamma   96.49047570
_symmetry_Int_Tables_number   1
_chemical_formula_structural   Ca2MnAl20Ir3
_chemical_formula_sum   'Ca2 Mn1 Al20 Ir3'
_cell_volume   427.79184802
_cell_formula_units_Z   1
loop_
 _symmetry_equiv_pos_site_id
 _symmetry_equiv_pos_as_xyz
  1  'x, y, z'
loop_
 _atom_site_type_symbol
 _atom_site_label
 _atom_site_symmetry_multiplicity
 _atom_site_fract_x
 _atom_site_fract_y
 _atom_site_fract_z
 _atom_site_occupancy
  Ca  Ca0  1  0.873715  0.124353  0.748835  1
  Ca  Ca1  1  0.126285  0.875647  0.251165  1
  Mn  Mn2  1  0.500000  0.000000  0.500000  1
  Al  Al3  1  0.618657  0.371772  0.548924  1
  Al  Al4  1  0.381343  0.628228  0.451076  1
  Al  Al5  1  0.379614  0.621514  0.051927  1
  Al  Al6  1  0.620386  0.378486  0.948073  1
  Al  Al7  1  0.228004  0.217961  0.496489  1
  Al  Al8  1  0.771996  0.782039  0.503511  1
  Al  Al9  1  0.777336  0.778622  0.001872  1
  Al  Al10  1  0.222664  0.221378  0.998128  1
  Al  Al11  1  0.841130  0.160209  0.103507  1
  Al  Al12  1  0.158870  0.839791  0.896493  1
  Al  Al13  1  0.164733  0.845026  0.598131  1
  Al  Al14  1  0.835267  0.154974  0.401869  1
  Al  Al15  1  0.856998  0.588260  0.749157  1
  Al  Al16  1  0.143002  0.411740  0.250843  1
  Al  Al17  1  0.416301  0.139963  0.744369  1
  Al  Al18  1  0.583699  0.860037  0.255631  1
  Al  Al19  1  0.223820  0.479118  0.749839  1
  Al  Al20  1  0.776180  0.520882  0.250161  1
  Al  Al21  1  0.520600  0.779921  0.744082  1
  Al  Al22  1  0.479400  0.220079  0.255918  1
  Ir  Ir23  1  0.000000  0.500000  0.500000  1
  Ir  Ir24  1  0.000000  0.500000  0.000000  1
  Ir  Ir25  1  0.500000  0.000000  0.000000  1
