# generated using pymatgen
data_LaNp3(Tl2Br5)4
_symmetry_space_group_name_H-M   'P 1'
_cell_length_a   8.80961623
_cell_length_b   9.39776200
_cell_length_c   14.18196300
_cell_angle_alpha   90.00000000
_cell_angle_beta   90.21535357
_cell_angle_gamma   90.00000000
_symmetry_Int_Tables_number   1
_chemical_formula_structural   LaNp3(Tl2Br5)4
_chemical_formula_sum   'La1 Np3 Tl8 Br20'
_cell_volume   1174.12601893
_cell_formula_units_Z   1
loop_
 _symmetry_equiv_pos_site_id
 _symmetry_equiv_pos_as_xyz
  1  'x, y, z'
loop_
 _atom_site_type_symbol
 _atom_site_label
 _atom_site_symmetry_multiplicity
 _atom_site_fract_x
 _atom_site_fract_y
 _atom_site_fract_z
 _atom_site_occupancy
  La  La0  1  0.572102  0.750000  0.003652  1
  Np  Np1  1  0.930874  0.750000  0.503312  1
  Np  Np2  1  0.070118  0.250000  0.495896  1
  Np  Np3  1  0.429326  0.250000  0.996549  1
  Tl  Tl4  1  0.948399  0.004694  0.827069  1
  Tl  Tl5  1  0.052847  0.996385  0.172266  1
  Tl  Tl6  1  0.447490  0.996204  0.672141  1
  Tl  Tl7  1  0.052847  0.503615  0.172266  1
  Tl  Tl8  1  0.552645  0.003823  0.328316  1
  Tl  Tl9  1  0.948399  0.495306  0.827069  1
  Tl  Tl10  1  0.552645  0.496177  0.328316  1
  Tl  Tl11  1  0.447490  0.503796  0.672141  1
  Br  Br12  1  0.118521  0.750000  0.675194  1
  Br  Br13  1  0.881443  0.250000  0.324071  1
  Br  Br14  1  0.620323  0.250000  0.824712  1
  Br  Br15  1  0.377219  0.750000  0.178129  1
  Br  Br16  1  0.839337  0.041551  0.574908  1
  Br  Br17  1  0.159875  0.958762  0.425927  1
  Br  Br18  1  0.335653  0.961374  0.924561  1
  Br  Br19  1  0.159875  0.541238  0.425927  1
  Br  Br20  1  0.661163  0.045943  0.075237  1
  Br  Br21  1  0.839337  0.458449  0.574908  1
  Br  Br22  1  0.661163  0.454057  0.075237  1
  Br  Br23  1  0.335653  0.538626  0.924561  1
  Br  Br24  1  0.587330  0.750000  0.508845  1
  Br  Br25  1  0.413384  0.250000  0.490971  1
  Br  Br26  1  0.086537  0.250000  0.990664  1
  Br  Br27  1  0.918270  0.750000  0.010186  1
  Br  Br28  1  0.659627  0.750000  0.798640  1
  Br  Br29  1  0.341224  0.250000  0.198403  1
  Br  Br30  1  0.158691  0.250000  0.697575  1
  Br  Br31  1  0.840190  0.750000  0.302350  1
