# generated using pymatgen
data_YHo5Ir2
_symmetry_space_group_name_H-M   'P 1'
_cell_length_a   6.39214900
_cell_length_b   7.23918600
_cell_length_c   9.15665800
_cell_angle_alpha   90.00000000
_cell_angle_beta   90.00000000
_cell_angle_gamma   90.00000000
_symmetry_Int_Tables_number   1
_chemical_formula_structural   YHo5Ir2
_chemical_formula_sum   'Y2 Ho10 Ir4'
_cell_volume   423.71478529
_cell_formula_units_Z   2
loop_
 _symmetry_equiv_pos_site_id
 _symmetry_equiv_pos_as_xyz
  1  'x, y, z'
loop_
 _atom_site_type_symbol
 _atom_site_label
 _atom_site_symmetry_multiplicity
 _atom_site_fract_x
 _atom_site_fract_y
 _atom_site_fract_z
 _atom_site_occupancy
  Y  Y0  1  0.873901  0.532589  0.250000  1
  Y  Y1  1  0.626099  0.032589  0.250000  1
  Ho  Ho2  1  0.327784  0.677407  0.061466  1
  Ho  Ho3  1  0.172216  0.177407  0.438534  1
  Ho  Ho4  1  0.671663  0.322723  0.562931  1
  Ho  Ho5  1  0.828337  0.822723  0.937069  1
  Ho  Ho6  1  0.671663  0.322723  0.937069  1
  Ho  Ho7  1  0.828337  0.822723  0.562931  1
  Ho  Ho8  1  0.327784  0.677407  0.438534  1
  Ho  Ho9  1  0.172216  0.177407  0.061466  1
  Ho  Ho10  1  0.129439  0.465487  0.750000  1
  Ho  Ho11  1  0.370561  0.965487  0.750000  1
  Ir  Ir12  1  0.048316  0.884821  0.250000  1
  Ir  Ir13  1  0.451684  0.384821  0.250000  1
  Ir  Ir14  1  0.956791  0.116841  0.750000  1
  Ir  Ir15  1  0.543209  0.616841  0.750000  1
