# generated using pymatgen
data_Zr10Cu2SnBi5
_symmetry_space_group_name_H-M   'P 1'
_cell_length_a   8.80639608
_cell_length_b   8.80847155
_cell_length_c   5.91157700
_cell_angle_alpha   90.00000000
_cell_angle_beta   90.00000000
_cell_angle_gamma   120.00780257
_symmetry_Int_Tables_number   1
_chemical_formula_structural   Zr10Cu2SnBi5
_chemical_formula_sum   'Zr10 Cu2 Sn1 Bi5'
_cell_volume   397.09882477
_cell_formula_units_Z   1
loop_
 _symmetry_equiv_pos_site_id
 _symmetry_equiv_pos_as_xyz
  1  'x, y, z'
loop_
 _atom_site_type_symbol
 _atom_site_label
 _atom_site_symmetry_multiplicity
 _atom_site_fract_x
 _atom_site_fract_y
 _atom_site_fract_z
 _atom_site_occupancy
  Zr  Zr0  1  0.669013  0.333515  0.501924  1
  Zr  Zr1  1  0.330987  0.664503  0.501924  1
  Zr  Zr2  1  0.330987  0.664503  0.998076  1
  Zr  Zr3  1  0.669013  0.333515  0.998076  1
  Zr  Zr4  1  0.740660  0.739931  0.250000  1
  Zr  Zr5  1  0.259340  0.999271  0.250000  1
  Zr  Zr6  1  0.000000  0.259651  0.250000  1
  Zr  Zr7  1  0.256737  0.262122  0.750000  1
  Zr  Zr8  1  0.743263  0.005386  0.750000  1
  Zr  Zr9  1  0.000000  0.737520  0.750000  1
  Cu  Cu10  1  0.000000  0.999858  0.500855  1
  Cu  Cu11  1  0.000000  0.999858  0.999145  1
  Sn  Sn12  1  0.000000  0.386990  0.750000  1
  Bi  Bi13  1  0.386806  0.385163  0.250000  1
  Bi  Bi14  1  0.613194  0.998357  0.250000  1
  Bi  Bi15  1  0.000000  0.612350  0.250000  1
  Bi  Bi16  1  0.614827  0.616167  0.750000  1
  Bi  Bi17  1  0.385173  0.001340  0.750000  1
