# generated using pymatgen
data_Rb8NdSm3F20
_symmetry_space_group_name_H-M   'P 1'
_cell_length_a   7.00012507
_cell_length_b   7.64628863
_cell_length_c   11.56105012
_cell_angle_alpha   89.99965572
_cell_angle_beta   89.96899094
_cell_angle_gamma   90.00928362
_symmetry_Int_Tables_number   1
_chemical_formula_structural   Rb8NdSm3F20
_chemical_formula_sum   'Rb8 Nd1 Sm3 F20'
_cell_volume   618.80483976
_cell_formula_units_Z   1
loop_
 _symmetry_equiv_pos_site_id
 _symmetry_equiv_pos_as_xyz
  1  'x, y, z'
loop_
 _atom_site_type_symbol
 _atom_site_label
 _atom_site_symmetry_multiplicity
 _atom_site_fract_x
 _atom_site_fract_y
 _atom_site_fract_z
 _atom_site_occupancy
  Rb  Rb0  1  0.532363  0.020779  0.170696  1
  Rb  Rb1  1  0.467818  0.521611  0.829159  1
  Rb  Rb2  1  0.967574  0.020507  0.671887  1
  Rb  Rb3  1  0.032066  0.521925  0.328278  1
  Rb  Rb4  1  0.031849  0.015579  0.328300  1
  Rb  Rb5  1  0.967757  0.517076  0.671815  1
  Rb  Rb6  1  0.467921  0.015967  0.829315  1
  Rb  Rb7  1  0.532222  0.516734  0.170667  1
  Nd  Nd8  1  0.438454  0.268219  0.501987  1
  Sm  Sm9  1  0.561941  0.768236  0.498207  1
  Sm  Sm10  1  0.060806  0.268409  0.001704  1
  Sm  Sm11  1  0.939226  0.768369  0.998460  1
  F  F12  1  0.141616  0.985844  0.073500  1
  F  F13  1  0.858281  0.485901  0.926671  1
  F  F14  1  0.357185  0.982788  0.573994  1
  F  F15  1  0.643824  0.488316  0.425444  1
  F  F16  1  0.382867  0.269058  0.013409  1
  F  F17  1  0.617040  0.768979  0.986469  1
  F  F18  1  0.111903  0.268997  0.513087  1
  F  F19  1  0.884420  0.768932  0.486948  1
  F  F20  1  0.140391  0.550721  0.074445  1
  F  F21  1  0.859643  0.050508  0.925697  1
  F  F22  1  0.358759  0.553303  0.575000  1
  F  F23  1  0.642530  0.047938  0.424496  1
  F  F24  1  0.341985  0.268540  0.310396  1
  F  F25  1  0.656382  0.768795  0.687031  1
  F  F26  1  0.156278  0.268788  0.812954  1
  F  F27  1  0.844146  0.768664  0.186887  1
  F  F28  1  0.372439  0.767014  0.338185  1
  F  F29  1  0.630427  0.267174  0.664769  1
  F  F30  1  0.127684  0.767176  0.838282  1
  F  F31  1  0.872200  0.267164  0.161863  1
