# generated using pymatgen
data_NdEuCu2(SeO)2
_symmetry_space_group_name_H-M   'P 1'
_cell_length_a   4.01713800
_cell_length_b   4.01713800
_cell_length_c   8.85052200
_cell_angle_alpha   90.00000000
_cell_angle_beta   90.00000000
_cell_angle_gamma   90.00000000
_symmetry_Int_Tables_number   1
_chemical_formula_structural   NdEuCu2(SeO)2
_chemical_formula_sum   'Nd1 Eu1 Cu2 Se2 O2'
_cell_volume   142.82439346
_cell_formula_units_Z   1
loop_
 _symmetry_equiv_pos_site_id
 _symmetry_equiv_pos_as_xyz
  1  'x, y, z'
loop_
 _atom_site_type_symbol
 _atom_site_label
 _atom_site_symmetry_multiplicity
 _atom_site_fract_x
 _atom_site_fract_y
 _atom_site_fract_z
 _atom_site_occupancy
  Nd  Nd0  1  0.749999  0.749999  0.870252  1
  Eu  Eu1  1  0.250001  0.250001  0.133486  1
  Cu  Cu2  1  0.749999  0.250001  0.499225  1
  Cu  Cu3  1  0.250001  0.749999  0.499225  1
  Se  Se4  1  0.749999  0.749999  0.331504  1
  Se  Se5  1  0.250001  0.250001  0.669305  1
  O  O6  1  0.749999  0.250001  0.998501  1
  O  O7  1  0.250001  0.749999  0.998501  1
