# generated using pymatgen
data_Lu2SiB2IrRu4
_symmetry_space_group_name_H-M   'P 1'
_cell_length_a   9.48452200
_cell_length_b   9.48452200
_cell_length_c   3.04003700
_cell_angle_alpha   90.00000000
_cell_angle_beta   90.00000000
_cell_angle_gamma   90.00000000
_symmetry_Int_Tables_number   1
_chemical_formula_structural   Lu2SiB2IrRu4
_chemical_formula_sum   'Lu4 Si2 B4 Ir2 Ru8'
_cell_volume   273.47004739
_cell_formula_units_Z   2
loop_
 _symmetry_equiv_pos_site_id
 _symmetry_equiv_pos_as_xyz
  1  'x, y, z'
loop_
 _atom_site_type_symbol
 _atom_site_label
 _atom_site_symmetry_multiplicity
 _atom_site_fract_x
 _atom_site_fract_y
 _atom_site_fract_z
 _atom_site_occupancy
  Lu  Lu0  1  0.177948  0.677948  0.000000  1
  Lu  Lu1  1  0.677948  0.822052  0.000000  1
  Lu  Lu2  1  0.322052  0.177948  0.000000  1
  Lu  Lu3  1  0.822052  0.322052  0.000000  1
  Si  Si4  1  0.000000  0.000000  0.000000  1
  Si  Si5  1  0.500000  0.500000  0.000000  1
  B  B6  1  0.374534  0.874534  0.000000  1
  B  B7  1  0.874534  0.625466  0.000000  1
  B  B8  1  0.125466  0.374534  0.000000  1
  B  B9  1  0.625466  0.125466  0.000000  1
  Ir  Ir10  1  0.000000  0.500000  0.500000  1
  Ir  Ir11  1  0.500000  0.000000  0.500000  1
  Ru  Ru12  1  0.287693  0.432651  0.500000  1
  Ru  Ru13  1  0.712308  0.567349  0.500000  1
  Ru  Ru14  1  0.567349  0.287693  0.500000  1
  Ru  Ru15  1  0.432651  0.712308  0.500000  1
  Ru  Ru16  1  0.932651  0.787692  0.500000  1
  Ru  Ru17  1  0.787692  0.067349  0.500000  1
  Ru  Ru18  1  0.212307  0.932651  0.500000  1
  Ru  Ru19  1  0.067349  0.212307  0.500000  1
