# generated using pymatgen
data_PrNd5Al24Ir3Os5
_symmetry_space_group_name_H-M   'P 1'
_cell_length_a   8.88956126
_cell_length_b   8.87600619
_cell_length_c   9.69898102
_cell_angle_alpha   90.15265990
_cell_angle_beta   89.97757319
_cell_angle_gamma   119.52589966
_symmetry_Int_Tables_number   1
_chemical_formula_structural   PrNd5Al24Ir3Os5
_chemical_formula_sum   'Pr1 Nd5 Al24 Ir3 Os5'
_cell_volume   665.89828284
_cell_formula_units_Z   1
loop_
 _symmetry_equiv_pos_site_id
 _symmetry_equiv_pos_as_xyz
  1  'x, y, z'
loop_
 _atom_site_type_symbol
 _atom_site_label
 _atom_site_symmetry_multiplicity
 _atom_site_fract_x
 _atom_site_fract_y
 _atom_site_fract_z
 _atom_site_occupancy
  Pr  Pr0  1  0.187464  0.383357  0.250297  1
  Nd  Nd1  1  0.812509  0.616428  0.749694  1
  Nd  Nd2  1  0.617810  0.812063  0.250663  1
  Nd  Nd3  1  0.382286  0.188047  0.749322  1
  Nd  Nd4  1  0.190248  0.807173  0.250645  1
  Nd  Nd5  1  0.809794  0.192951  0.749346  1
  Al  Al6  1  0.331876  0.666407  0.018380  1
  Al  Al7  1  0.668272  0.333907  0.981333  1
  Al  Al8  1  0.667556  0.332401  0.518377  1
  Al  Al9  1  0.332584  0.667892  0.481917  1
  Al  Al10  1  0.163098  0.327202  0.574318  1
  Al  Al11  1  0.836896  0.672762  0.426027  1
  Al  Al12  1  0.673307  0.837466  0.574454  1
  Al  Al13  1  0.837340  0.673255  0.074515  1
  Al  Al14  1  0.326794  0.162360  0.425689  1
  Al  Al15  1  0.162649  0.326708  0.925141  1
  Al  Al16  1  0.164576  0.835934  0.573963  1
  Al  Al17  1  0.326339  0.163536  0.074614  1
  Al  Al18  1  0.835135  0.163893  0.426183  1
  Al  Al19  1  0.673768  0.836278  0.925238  1
  Al  Al20  1  0.836969  0.165400  0.073728  1
  Al  Al21  1  0.162743  0.834429  0.926124  1
  Al  Al22  1  0.561297  0.125962  0.250679  1
  Al  Al23  1  0.438692  0.874021  0.749335  1
  Al  Al24  1  0.872859  0.438218  0.249673  1
  Al  Al25  1  0.126760  0.561859  0.750322  1
  Al  Al26  1  0.562340  0.437747  0.249579  1
  Al  Al27  1  0.438102  0.562320  0.750416  1
  Al  Al28  1  0.998152  0.000531  0.250090  1
  Al  Al29  1  0.001614  0.999025  0.749920  1
  Ir  Ir30  1  0.500055  0.000101  0.999949  1
  Ir  Ir31  1  0.500245  0.500102  0.999835  1
  Ir  Ir32  1  0.500249  0.500109  0.500163  1
  Os  Os33  1  0.999833  0.500113  0.999809  1
  Os  Os34  1  0.500058  0.000107  0.500064  1
  Os  Os35  1  0.999832  0.500127  0.500196  1
  Os  Os36  1  0.999949  0.999903  0.999922  1
  Os  Os37  1  0.999950  0.999904  0.500083  1
