# generated using pymatgen
data_Tb7YSc11Si16W
_symmetry_space_group_name_H-M   'P 1'
_cell_length_a   7.05049618
_cell_length_b   7.36583587
_cell_length_c   13.92068603
_cell_angle_alpha   89.97691263
_cell_angle_beta   90.05286647
_cell_angle_gamma   90.16625429
_symmetry_Int_Tables_number   1
_chemical_formula_structural   Tb7YSc11Si16W
_chemical_formula_sum   'Tb7 Y1 Sc11 Si16 W1'
_cell_volume   722.93676263
_cell_formula_units_Z   1
loop_
 _symmetry_equiv_pos_site_id
 _symmetry_equiv_pos_as_xyz
  1  'x, y, z'
loop_
 _atom_site_type_symbol
 _atom_site_label
 _atom_site_symmetry_multiplicity
 _atom_site_fract_x
 _atom_site_fract_y
 _atom_site_fract_z
 _atom_site_occupancy
  Tb  Tb0  1  0.992028  0.819925  0.900718  1
  Tb  Tb1  1  0.486620  0.672512  0.901135  1
  Tb  Tb2  1  0.992150  0.820044  0.599364  1
  Tb  Tb3  1  0.511229  0.324195  0.095830  1
  Tb  Tb4  1  0.012346  0.176258  0.405874  1
  Tb  Tb5  1  0.511271  0.324166  0.404076  1
  Tb  Tb6  1  0.486460  0.672797  0.599081  1
  Y  Y7  1  0.012045  0.176501  0.094095  1
  Sc  Sc8  1  0.840935  0.497212  0.249941  1
  Sc  Sc9  1  0.341180  0.003177  0.249910  1
  Sc  Sc10  1  0.658341  0.996540  0.750023  1
  Sc  Sc11  1  0.327593  0.178107  0.627605  1
  Sc  Sc12  1  0.671175  0.823811  0.374454  1
  Sc  Sc13  1  0.172208  0.674423  0.376390  1
  Sc  Sc14  1  0.670961  0.823885  0.125454  1
  Sc  Sc15  1  0.828626  0.329876  0.628034  1
  Sc  Sc16  1  0.327373  0.178181  0.872546  1
  Sc  Sc17  1  0.828784  0.329647  0.872018  1
  Sc  Sc18  1  0.171975  0.674488  0.123457  1
  Si  Si19  1  0.030922  0.125196  0.750077  1
  Si  Si20  1  0.971416  0.884373  0.249814  1
  Si  Si21  1  0.467998  0.617060  0.249851  1
  Si  Si22  1  0.521604  0.391747  0.750170  1
  Si  Si23  1  0.283631  0.862239  0.750114  1
  Si  Si24  1  0.716665  0.127895  0.249723  1
  Si  Si25  1  0.213566  0.372885  0.249841  1
  Si  Si26  1  0.795072  0.626404  0.750092  1
  Si  Si27  1  0.154323  0.466347  0.548508  1
  Si  Si28  1  0.844143  0.535432  0.462504  1
  Si  Si29  1  0.346758  0.964585  0.462685  1
  Si  Si30  1  0.843793  0.535467  0.037516  1
  Si  Si31  1  0.656832  0.034678  0.539791  1
  Si  Si32  1  0.154574  0.466231  0.951593  1
  Si  Si33  1  0.656912  0.034622  0.960211  1
  Si  Si34  1  0.346338  0.964693  0.037430  1
  W  W35  1  0.152151  0.494402  0.750075  1
