# generated using pymatgen
data_Ti6Fe5Co5B4
_symmetry_space_group_name_H-M   'P 1'
_cell_length_a   8.63397864
_cell_length_b   8.60338168
_cell_length_c   2.92455800
_cell_angle_alpha   90.00000000
_cell_angle_beta   90.00000000
_cell_angle_gamma   90.07114638
_symmetry_Int_Tables_number   1
_chemical_formula_structural   Ti6Fe5Co5B4
_chemical_formula_sum   'Ti6 Fe5 Co5 B4'
_cell_volume   217.24013514
_cell_formula_units_Z   1
loop_
 _symmetry_equiv_pos_site_id
 _symmetry_equiv_pos_as_xyz
  1  'x, y, z'
loop_
 _atom_site_type_symbol
 _atom_site_label
 _atom_site_symmetry_multiplicity
 _atom_site_fract_x
 _atom_site_fract_y
 _atom_site_fract_z
 _atom_site_occupancy
  Ti  Ti0  1  0.000124  0.000439  0.000000  1
  Ti  Ti1  1  0.500435  0.499502  0.000000  1
  Ti  Ti2  1  0.831159  0.321966  0.000000  1
  Ti  Ti3  1  0.322050  0.169467  0.000000  1
  Ti  Ti4  1  0.673744  0.831112  0.000000  1
  Ti  Ti5  1  0.172642  0.675179  0.000000  1
  Fe  Fe6  1  0.499811  0.999732  0.500000  1
  Fe  Fe7  1  0.000404  0.502446  0.500000  1
  Fe  Fe8  1  0.073520  0.219900  0.500000  1
  Fe  Fe9  1  0.218242  0.925247  0.500000  1
  Fe  Fe10  1  0.781087  0.072282  0.500000  1
  Co  Co11  1  0.925244  0.780286  0.500000  1
  Co  Co12  1  0.430621  0.718314  0.500000  1
  Co  Co13  1  0.570266  0.281226  0.500000  1
  Co  Co14  1  0.719968  0.571211  0.500000  1
  Co  Co15  1  0.281278  0.431052  0.500000  1
  B  B16  1  0.623088  0.121382  0.000000  1
  B  B17  1  0.122149  0.378065  0.000000  1
  B  B18  1  0.877687  0.623049  0.000000  1
  B  B19  1  0.376480  0.878142  0.000000  1
