# generated using pymatgen
data_Tb3P6OsRh8
_symmetry_space_group_name_H-M   'P 1'
_cell_length_a   3.95591600
_cell_length_b   11.29256700
_cell_length_c   12.68832200
_cell_angle_alpha   90.00000000
_cell_angle_beta   90.00000000
_cell_angle_gamma   90.00000000
_symmetry_Int_Tables_number   1
_chemical_formula_structural   Tb3P6OsRh8
_chemical_formula_sum   'Tb6 P12 Os2 Rh16'
_cell_volume   566.81838542
_cell_formula_units_Z   2
loop_
 _symmetry_equiv_pos_site_id
 _symmetry_equiv_pos_as_xyz
  1  'x, y, z'
loop_
 _atom_site_type_symbol
 _atom_site_label
 _atom_site_symmetry_multiplicity
 _atom_site_fract_x
 _atom_site_fract_y
 _atom_site_fract_z
 _atom_site_occupancy
  Tb  Tb0  1  0.000000  0.500000  0.519604  1
  Tb  Tb1  1  0.500000  0.000000  0.480396  1
  Tb  Tb2  1  0.500000  0.821260  0.205418  1
  Tb  Tb3  1  0.500000  0.178740  0.205418  1
  Tb  Tb4  1  0.000000  0.678740  0.794582  1
  Tb  Tb5  1  0.000000  0.321260  0.794582  1
  P  P6  1  0.500000  0.500000  0.883725  1
  P  P7  1  0.000000  0.000000  0.116275  1
  P  P8  1  0.500000  0.500000  0.348344  1
  P  P9  1  0.000000  0.000000  0.651656  1
  P  P10  1  0.500000  0.314006  0.618992  1
  P  P11  1  0.500000  0.685994  0.618992  1
  P  P12  1  0.000000  0.185994  0.381008  1
  P  P13  1  0.000000  0.814006  0.381008  1
  P  P14  1  0.500000  0.843614  0.891721  1
  P  P15  1  0.500000  0.156386  0.891721  1
  P  P16  1  0.000000  0.656386  0.108279  1
  P  P17  1  0.000000  0.343614  0.108279  1
  Os  Os18  1  0.000000  0.500000  0.991534  1
  Os  Os19  1  0.500000  0.000000  0.008466  1
  Rh  Rh20  1  0.500000  0.500000  0.161999  1
  Rh  Rh21  1  0.000000  0.000000  0.838001  1
  Rh  Rh22  1  0.500000  0.500000  0.701516  1
  Rh  Rh23  1  0.000000  0.000000  0.298484  1
  Rh  Rh24  1  0.500000  0.331377  0.992354  1
  Rh  Rh25  1  0.500000  0.668623  0.992354  1
  Rh  Rh26  1  0.000000  0.168623  0.007646  1
  Rh  Rh27  1  0.000000  0.831377  0.007646  1
  Rh  Rh28  1  0.500000  0.295631  0.431243  1
  Rh  Rh29  1  0.500000  0.704369  0.431243  1
  Rh  Rh30  1  0.000000  0.204369  0.568757  1
  Rh  Rh31  1  0.000000  0.795631  0.568757  1
  Rh  Rh32  1  0.500000  0.872116  0.711375  1
  Rh  Rh33  1  0.500000  0.127884  0.711375  1
  Rh  Rh34  1  0.000000  0.627884  0.288625  1
  Rh  Rh35  1  0.000000  0.372116  0.288625  1
