# generated using pymatgen
data_Ba2HoGaS5
_symmetry_space_group_name_H-M   'P 1'
_cell_length_a   7.13581343
_cell_length_b   8.44103381
_cell_length_c   9.15094960
_cell_angle_alpha   103.51796068
_cell_angle_beta   103.22710471
_cell_angle_gamma   107.38097292
_symmetry_Int_Tables_number   1
_chemical_formula_structural   Ba2HoGaS5
_chemical_formula_sum   'Ba4 Ho2 Ga2 S10'
_cell_volume   484.24166697
_cell_formula_units_Z   2
loop_
 _symmetry_equiv_pos_site_id
 _symmetry_equiv_pos_as_xyz
  1  'x, y, z'
loop_
 _atom_site_type_symbol
 _atom_site_label
 _atom_site_symmetry_multiplicity
 _atom_site_fract_x
 _atom_site_fract_y
 _atom_site_fract_z
 _atom_site_occupancy
  Ba  Ba0  1  0.633292  0.977530  0.288806  1
  Ba  Ba1  1  0.366708  0.022470  0.711194  1
  Ba  Ba2  1  0.341345  0.510457  0.706794  1
  Ba  Ba3  1  0.658655  0.489543  0.293206  1
  Ho  Ho4  1  0.997644  0.728715  0.998224  1
  Ho  Ho5  1  0.002356  0.271285  0.001776  1
  Ga  Ga6  1  0.805968  0.871970  0.688377  1
  Ga  Ga7  1  0.194032  0.128030  0.311623  1
  S  S8  1  0.986043  0.687860  0.688994  1
  S  S9  1  0.013957  0.312140  0.311006  1
  S  S10  1  0.982430  0.149421  0.691489  1
  S  S11  1  0.017570  0.850579  0.308511  1
  S  S12  1  0.718213  0.909174  0.924463  1
  S  S13  1  0.281787  0.090826  0.075537  1
  S  S14  1  0.713083  0.413397  0.946918  1
  S  S15  1  0.286917  0.586603  0.053082  1
  S  S16  1  0.496236  0.744555  0.496257  1
  S  S17  1  0.503764  0.255445  0.503743  1
