# generated using pymatgen
data_Tb3Pr7Pb6
_symmetry_space_group_name_H-M   'P 1'
_cell_length_a   9.37186900
_cell_length_b   9.37186957
_cell_length_c   6.87069300
_cell_angle_alpha   90.00000000
_cell_angle_beta   90.00000000
_cell_angle_gamma   120.00000153
_symmetry_Int_Tables_number   1
_chemical_formula_structural   Tb3Pr7Pb6
_chemical_formula_sum   'Tb3 Pr7 Pb6'
_cell_volume   522.61709748
_cell_formula_units_Z   1
loop_
 _symmetry_equiv_pos_site_id
 _symmetry_equiv_pos_as_xyz
  1  'x, y, z'
loop_
 _atom_site_type_symbol
 _atom_site_label
 _atom_site_symmetry_multiplicity
 _atom_site_fract_x
 _atom_site_fract_y
 _atom_site_fract_z
 _atom_site_occupancy
  Tb  Tb0  1  0.333333  0.666667  0.000000  1
  Tb  Tb1  1  0.333333  0.666667  0.500000  1
  Tb  Tb2  1  0.666667  0.333333  0.500000  1
  Pr  Pr3  1  0.666667  0.333333  0.000000  1
  Pr  Pr4  1  0.760012  0.759812  0.749325  1
  Pr  Pr5  1  0.240188  0.000200  0.749325  1
  Pr  Pr6  1  0.999800  0.239988  0.749325  1
  Pr  Pr7  1  0.240188  0.239988  0.250675  1
  Pr  Pr8  1  0.760012  0.000200  0.250675  1
  Pr  Pr9  1  0.999800  0.759812  0.250675  1
  Pb  Pb10  1  0.396107  0.399819  0.746298  1
  Pb  Pb11  1  0.600181  0.996288  0.746298  1
  Pb  Pb12  1  0.003712  0.603893  0.746298  1
  Pb  Pb13  1  0.600181  0.603893  0.253702  1
  Pb  Pb14  1  0.396107  0.996288  0.253702  1
  Pb  Pb15  1  0.003712  0.399819  0.253702  1
