# generated using pymatgen
data_YbPaZn17
_symmetry_space_group_name_H-M   'P 1'
_cell_length_a   6.79895550
_cell_length_b   6.79895537
_cell_length_c   6.79895552
_cell_angle_alpha   97.30738109
_cell_angle_beta   82.69262115
_cell_angle_gamma   97.30738188
_symmetry_Int_Tables_number   1
_chemical_formula_structural   YbPaZn17
_chemical_formula_sum   'Yb1 Pa1 Zn17'
_cell_volume   307.22779370
_cell_formula_units_Z   1
loop_
 _symmetry_equiv_pos_site_id
 _symmetry_equiv_pos_as_xyz
  1  'x, y, z'
loop_
 _atom_site_type_symbol
 _atom_site_label
 _atom_site_symmetry_multiplicity
 _atom_site_fract_x
 _atom_site_fract_y
 _atom_site_fract_z
 _atom_site_occupancy
  Yb  Yb0  1  0.663384  0.336616  0.663385  1
  Pa  Pa1  1  0.338171  0.661829  0.338172  1
  Zn  Zn2  1  0.701557  0.701371  0.999449  1
  Zn  Zn3  1  0.500300  0.999500  0.000501  1
  Zn  Zn4  1  0.000500  0.499699  0.000500  1
  Zn  Zn5  1  0.298630  0.298444  0.999449  1
  Zn  Zn6  1  0.101773  0.898226  0.101774  1
  Zn  Zn7  1  0.646655  0.353346  0.160249  1
  Zn  Zn8  1  0.999449  0.298443  0.298629  1
  Zn  Zn9  1  0.701555  0.000551  0.298630  1
  Zn  Zn10  1  0.352063  0.159909  0.352064  1
  Zn  Zn11  1  0.840092  0.647937  0.352064  1
  Zn  Zn12  1  0.000500  0.999500  0.500301  1
  Zn  Zn13  1  0.160249  0.353346  0.646654  1
  Zn  Zn14  1  0.646655  0.839751  0.646654  1
  Zn  Zn15  1  0.298630  0.000551  0.701556  1
  Zn  Zn16  1  0.999449  0.701370  0.701556  1
  Zn  Zn17  1  0.352063  0.647937  0.840092  1
  Zn  Zn18  1  0.898321  0.101678  0.898322  1
