# generated using pymatgen
data_Nd5Tc3P12Ir7(Ru2Rh)3
_symmetry_space_group_name_H-M   'P 1'
_cell_length_a   12.69881000
_cell_length_b   12.69880958
_cell_length_c   4.01515100
_cell_angle_alpha   90.00000000
_cell_angle_beta   90.00000000
_cell_angle_gamma   120.00000629
_symmetry_Int_Tables_number   1
_chemical_formula_structural   Nd5Tc3P12Ir7(Ru2Rh)3
_chemical_formula_sum   'Nd5 Tc3 P12 Ir7 Ru6 Rh3'
_cell_volume   560.73610839
_cell_formula_units_Z   1
loop_
 _symmetry_equiv_pos_site_id
 _symmetry_equiv_pos_as_xyz
  1  'x, y, z'
loop_
 _atom_site_type_symbol
 _atom_site_label
 _atom_site_symmetry_multiplicity
 _atom_site_fract_x
 _atom_site_fract_y
 _atom_site_fract_z
 _atom_site_occupancy
  Nd  Nd0  1  0.000000  0.184381  0.500000  1
  Nd  Nd1  1  0.815619  0.815619  0.500000  1
  Nd  Nd2  1  0.184381  0.000000  0.500000  1
  Nd  Nd3  1  0.666667  0.333333  0.000000  1
  Nd  Nd4  1  0.333333  0.666667  0.000000  1
  Tc  Tc5  1  0.000000  0.710261  0.500000  1
  Tc  Tc6  1  0.289739  0.289739  0.500000  1
  Tc  Tc7  1  0.710261  0.000000  0.500000  1
  P  P8  1  0.000000  0.814306  0.000000  1
  P  P9  1  0.185694  0.185694  0.000000  1
  P  P10  1  0.814306  0.000000  0.000000  1
  P  P11  1  0.692171  0.173036  0.500000  1
  P  P12  1  0.826964  0.519135  0.500000  1
  P  P13  1  0.480865  0.307829  0.500000  1
  P  P14  1  0.173036  0.692171  0.500000  1
  P  P15  1  0.519135  0.826964  0.500000  1
  P  P16  1  0.307829  0.480865  0.500000  1
  P  P17  1  0.000000  0.371627  0.000000  1
  P  P18  1  0.628373  0.628373  0.000000  1
  P  P19  1  0.371627  0.000000  0.000000  1
  Ir  Ir20  1  0.806752  0.184474  0.000000  1
  Ir  Ir21  1  0.815526  0.622279  0.000000  1
  Ir  Ir22  1  0.377721  0.193248  0.000000  1
  Ir  Ir23  1  0.184474  0.806752  0.000000  1
  Ir  Ir24  1  0.622279  0.815526  0.000000  1
  Ir  Ir25  1  0.193248  0.377721  0.000000  1
  Ir  Ir26  1  0.000000  0.000000  0.000000  1
  Ru  Ru27  1  0.875276  0.364633  0.500000  1
  Ru  Ru28  1  0.635367  0.510643  0.500000  1
  Ru  Ru29  1  0.489357  0.124724  0.500000  1
  Ru  Ru30  1  0.364633  0.875276  0.500000  1
  Ru  Ru31  1  0.510643  0.635367  0.500000  1
  Ru  Ru32  1  0.124724  0.489357  0.500000  1
  Rh  Rh33  1  0.000000  0.551033  0.000000  1
  Rh  Rh34  1  0.448967  0.448967  0.000000  1
  Rh  Rh35  1  0.551033  0.000000  0.000000  1
