# generated using pymatgen
data_SrSn6PdRu3
_symmetry_space_group_name_H-M   'P 1'
_cell_length_a   7.02410999
_cell_length_b   7.02411045
_cell_length_c   7.00424044
_cell_angle_alpha   119.73782804
_cell_angle_beta   119.73783637
_cell_angle_gamma   90.66072021
_symmetry_Int_Tables_number   1
_chemical_formula_structural   SrSn6PdRu3
_chemical_formula_sum   'Sr1 Sn6 Pd1 Ru3'
_cell_volume   244.87100846
_cell_formula_units_Z   1
loop_
 _symmetry_equiv_pos_site_id
 _symmetry_equiv_pos_as_xyz
  1  'x, y, z'
loop_
 _atom_site_type_symbol
 _atom_site_label
 _atom_site_symmetry_multiplicity
 _atom_site_fract_x
 _atom_site_fract_y
 _atom_site_fract_z
 _atom_site_occupancy
  Sr  Sr0  1  0.999139  0.999139  0.004484  1
  Sn  Sn1  1  0.986353  0.502374  0.503160  1
  Sn  Sn2  1  0.473665  0.473665  0.344635  1
  Sn  Sn3  1  0.527065  0.894862  0.013141  1
  Sn  Sn4  1  0.894862  0.527065  0.013141  1
  Sn  Sn5  1  0.116613  0.116613  0.652475  1
  Sn  Sn6  1  0.502374  0.986353  0.503160  1
  Pd  Pd7  1  0.413975  0.413975  0.655441  1
  Ru  Ru8  1  0.748999  0.748999  0.329349  1
  Ru  Ru9  1  0.251237  0.585721  0.990506  1
  Ru  Ru10  1  0.585721  0.251237  0.990506  1
