# generated using pymatgen
data_Li6HfNb5Ir12
_symmetry_space_group_name_H-M   'P 1'
_cell_length_a   4.38929400
_cell_length_b   6.17035600
_cell_length_c   13.14496700
_cell_angle_alpha   90.00000000
_cell_angle_beta   90.00010895
_cell_angle_gamma   90.00000000
_symmetry_Int_Tables_number   1
_chemical_formula_structural   Li6HfNb5Ir12
_chemical_formula_sum   'Li6 Hf1 Nb5 Ir12'
_cell_volume   356.01180009
_cell_formula_units_Z   1
loop_
 _symmetry_equiv_pos_site_id
 _symmetry_equiv_pos_as_xyz
  1  'x, y, z'
loop_
 _atom_site_type_symbol
 _atom_site_label
 _atom_site_symmetry_multiplicity
 _atom_site_fract_x
 _atom_site_fract_y
 _atom_site_fract_z
 _atom_site_occupancy
  Li  Li0  1  0.000002  0.500001  0.000137  1
  Li  Li1  1  0.499869  0.000000  0.166902  1
  Li  Li2  1  0.999876  0.500001  0.333346  1
  Li  Li3  1  0.500003  0.000000  0.499751  1
  Li  Li4  1  0.000124  0.500001  0.666513  1
  Li  Li5  1  0.500126  0.000000  0.833354  1
  Hf  Hf6  1  0.500107  0.500001  0.833337  1
  Nb  Nb7  1  0.000001  0.000000  0.999728  1
  Nb  Nb8  1  0.499881  0.500001  0.166551  1
  Nb  Nb9  1  0.999892  0.000000  0.333333  1
  Nb  Nb10  1  0.500001  0.500001  0.500116  1
  Nb  Nb11  1  0.000112  0.000000  0.666934  1
  Ir  Ir12  1  0.499999  0.246964  0.002787  1
  Ir  Ir13  1  0.499999  0.753036  0.002787  1
  Ir  Ir14  1  0.999889  0.251016  0.167195  1
  Ir  Ir15  1  0.999889  0.748984  0.167195  1
  Ir  Ir16  1  0.499889  0.248888  0.333334  1
  Ir  Ir17  1  0.499889  0.751112  0.333334  1
  Ir  Ir18  1  0.000002  0.251019  0.499471  1
  Ir  Ir19  1  0.000002  0.748981  0.499471  1
  Ir  Ir20  1  0.500110  0.246958  0.663878  1
  Ir  Ir21  1  0.500110  0.753042  0.663878  1
  Ir  Ir22  1  0.000112  0.245007  0.833333  1
  Ir  Ir23  1  0.000112  0.754993  0.833333  1
