# generated using pymatgen
data_Nb6CoSbS12
_symmetry_space_group_name_H-M   'P 1'
_cell_length_a   5.83324600
_cell_length_b   5.83324581
_cell_length_c   12.88586100
_cell_angle_alpha   90.00000000
_cell_angle_beta   90.00000000
_cell_angle_gamma   120.00000109
_symmetry_Int_Tables_number   1
_chemical_formula_structural   Nb6CoSbS12
_chemical_formula_sum   'Nb6 Co1 Sb1 S12'
_cell_volume   379.72101990
_cell_formula_units_Z   1
loop_
 _symmetry_equiv_pos_site_id
 _symmetry_equiv_pos_as_xyz
  1  'x, y, z'
loop_
 _atom_site_type_symbol
 _atom_site_label
 _atom_site_symmetry_multiplicity
 _atom_site_fract_x
 _atom_site_fract_y
 _atom_site_fract_z
 _atom_site_occupancy
  Nb  Nb0  1  0.333333  0.666667  0.020896  1
  Nb  Nb1  1  0.666667  0.333333  0.476756  1
  Nb  Nb2  1  0.333333  0.666667  0.479104  1
  Nb  Nb3  1  0.000000  0.000000  0.023282  1
  Nb  Nb4  1  0.666667  0.333333  0.023244  1
  Nb  Nb5  1  0.000000  0.000000  0.476718  1
  Co  Co6  1  0.333333  0.666667  0.250000  1
  Sb  Sb7  1  0.666667  0.333333  0.750000  1
  S  S8  1  0.000602  0.667015  0.142879  1
  S  S9  1  0.668939  0.670692  0.600405  1
  S  S10  1  0.000602  0.333587  0.357121  1
  S  S11  1  0.332985  0.333587  0.142879  1
  S  S12  1  0.329308  0.998246  0.600405  1
  S  S13  1  0.329308  0.331061  0.899595  1
  S  S14  1  0.666413  0.667015  0.357121  1
  S  S15  1  0.001754  0.670692  0.899595  1
  S  S16  1  0.668939  0.998246  0.899595  1
  S  S17  1  0.332985  0.999398  0.357121  1
  S  S18  1  0.666413  0.999398  0.142879  1
  S  S19  1  0.001754  0.331061  0.600405  1
