# generated using pymatgen
data_Pr4Ga4IrRh3
_symmetry_space_group_name_H-M   'P 1'
_cell_length_a   4.41218100
_cell_length_b   7.10387261
_cell_length_c   7.95489035
_cell_angle_alpha   89.70456776
_cell_angle_beta   90.00000000
_cell_angle_gamma   90.00000000
_symmetry_Int_Tables_number   1
_chemical_formula_structural   Pr4Ga4IrRh3
_chemical_formula_sum   'Pr4 Ga4 Ir1 Rh3'
_cell_volume   249.33136178
_cell_formula_units_Z   1
loop_
 _symmetry_equiv_pos_site_id
 _symmetry_equiv_pos_as_xyz
  1  'x, y, z'
loop_
 _atom_site_type_symbol
 _atom_site_label
 _atom_site_symmetry_multiplicity
 _atom_site_fract_x
 _atom_site_fract_y
 _atom_site_fract_z
 _atom_site_occupancy
  Pr  Pr0  1  0.250000  0.027112  0.689995  1
  Pr  Pr1  1  0.250000  0.524904  0.810393  1
  Pr  Pr2  1  0.750000  0.973455  0.310163  1
  Pr  Pr3  1  0.750000  0.473250  0.189995  1
  Ga  Ga4  1  0.250000  0.154774  0.071144  1
  Ga  Ga5  1  0.250000  0.654203  0.429090  1
  Ga  Ga6  1  0.750000  0.845676  0.928362  1
  Ga  Ga7  1  0.750000  0.345906  0.572544  1
  Ir  Ir8  1  0.750000  0.221542  0.892021  1
  Rh  Rh9  1  0.250000  0.278517  0.392960  1
  Rh  Rh10  1  0.250000  0.779153  0.107180  1
  Rh  Rh11  1  0.750000  0.721508  0.606152  1
