# generated using pymatgen
data_ThP12OsRu3
_symmetry_space_group_name_H-M   'P 1'
_cell_length_a   7.02037281
_cell_length_b   7.02037198
_cell_length_c   7.01600200
_cell_angle_alpha   109.45860876
_cell_angle_beta   109.45860638
_cell_angle_gamma   109.48382616
_symmetry_Int_Tables_number   1
_chemical_formula_structural   ThP12OsRu3
_chemical_formula_sum   'Th1 P12 Os1 Ru3'
_cell_volume   266.22921842
_cell_formula_units_Z   1
loop_
 _symmetry_equiv_pos_site_id
 _symmetry_equiv_pos_as_xyz
  1  'x, y, z'
loop_
 _atom_site_type_symbol
 _atom_site_label
 _atom_site_symmetry_multiplicity
 _atom_site_fract_x
 _atom_site_fract_y
 _atom_site_fract_z
 _atom_site_occupancy
  Th  Th0  1  0.000000  0.000000  0.000000  1
  P  P1  1  0.855641  0.643994  0.500649  1
  P  P2  1  0.144359  0.356006  0.499351  1
  P  P3  1  0.144076  0.644790  0.788835  1
  P  P4  1  0.855924  0.355210  0.211165  1
  P  P5  1  0.644790  0.500714  0.855955  1
  P  P6  1  0.355210  0.499286  0.144045  1
  P  P7  1  0.643994  0.788354  0.143345  1
  P  P8  1  0.356006  0.211646  0.856655  1
  P  P9  1  0.500714  0.855924  0.644759  1
  P  P10  1  0.499286  0.144076  0.355241  1
  P  P11  1  0.211646  0.855641  0.354992  1
  P  P12  1  0.788354  0.144359  0.645008  1
  Os  Os13  1  0.000000  0.000000  0.500000  1
  Ru  Ru14  1  0.500000  0.500000  0.500000  1
  Ru  Ru15  1  0.500000  0.000000  0.000000  1
  Ru  Ru16  1  0.000000  0.500000  0.000000  1
