# generated using pymatgen
data_Ho3HgIr2
_symmetry_space_group_name_H-M   'P 1'
_cell_length_a   3.37731500
_cell_length_b   3.37731500
_cell_length_c   11.51229100
_cell_angle_alpha   90.00000000
_cell_angle_beta   90.00000000
_cell_angle_gamma   90.00000000
_symmetry_Int_Tables_number   1
_chemical_formula_structural   Ho3HgIr2
_chemical_formula_sum   'Ho3 Hg1 Ir2'
_cell_volume   131.31214531
_cell_formula_units_Z   1
loop_
 _symmetry_equiv_pos_site_id
 _symmetry_equiv_pos_as_xyz
  1  'x, y, z'
loop_
 _atom_site_type_symbol
 _atom_site_label
 _atom_site_symmetry_multiplicity
 _atom_site_fract_x
 _atom_site_fract_y
 _atom_site_fract_z
 _atom_site_occupancy
  Ho  Ho0  1  0.000000  0.000000  0.000000  1
  Ho  Ho1  1  0.000000  0.000000  0.301818  1
  Ho  Ho2  1  0.000000  0.000000  0.698182  1
  Hg  Hg3  1  0.500001  0.500001  0.500000  1
  Ir  Ir4  1  0.500001  0.500001  0.156746  1
  Ir  Ir5  1  0.500001  0.500001  0.843255  1
