# generated using pymatgen
data_Hf2FeCo5P4
_symmetry_space_group_name_H-M   'P 1'
_cell_length_a   3.60832200
_cell_length_b   10.29554700
_cell_length_c   11.85711300
_cell_angle_alpha   90.00000000
_cell_angle_beta   90.00000000
_cell_angle_gamma   90.00000000
_symmetry_Int_Tables_number   1
_chemical_formula_structural   Hf2FeCo5P4
_chemical_formula_sum   'Hf6 Fe3 Co15 P12'
_cell_volume   440.48758305
_cell_formula_units_Z   3
loop_
 _symmetry_equiv_pos_site_id
 _symmetry_equiv_pos_as_xyz
  1  'x, y, z'
loop_
 _atom_site_type_symbol
 _atom_site_label
 _atom_site_symmetry_multiplicity
 _atom_site_fract_x
 _atom_site_fract_y
 _atom_site_fract_z
 _atom_site_occupancy
  Hf  Hf0  1  0.750000  0.250000  0.474349  1
  Hf  Hf1  1  0.250000  0.750000  0.526812  1
  Hf  Hf2  1  0.250000  0.928618  0.792990  1
  Hf  Hf3  1  0.250000  0.571382  0.792990  1
  Hf  Hf4  1  0.750000  0.073470  0.206190  1
  Hf  Hf5  1  0.750000  0.426530  0.206190  1
  Fe  Fe6  1  0.250000  0.250000  0.839758  1
  Fe  Fe7  1  0.750000  0.750000  0.161902  1
  Fe  Fe8  1  0.750000  0.250000  0.011364  1
  Co  Co9  1  0.250000  0.250000  0.296340  1
  Co  Co10  1  0.750000  0.750000  0.702253  1
  Co  Co11  1  0.250000  0.750000  0.988104  1
  Co  Co12  1  0.250000  0.419655  0.005885  1
  Co  Co13  1  0.250000  0.080345  0.005885  1
  Co  Co14  1  0.750000  0.583324  0.993728  1
  Co  Co15  1  0.750000  0.916676  0.993728  1
  Co  Co16  1  0.250000  0.449772  0.566988  1
  Co  Co17  1  0.250000  0.050228  0.566988  1
  Co  Co18  1  0.750000  0.549468  0.433021  1
  Co  Co19  1  0.750000  0.950532  0.433021  1
  Co  Co20  1  0.250000  0.875003  0.293435  1
  Co  Co21  1  0.250000  0.624997  0.293435  1
  Co  Co22  1  0.750000  0.124964  0.707307  1
  Co  Co23  1  0.750000  0.375036  0.707307  1
  P  P24  1  0.250000  0.250000  0.118060  1
  P  P25  1  0.750000  0.750000  0.879017  1
  P  P26  1  0.250000  0.250000  0.649703  1
  P  P27  1  0.750000  0.750000  0.351626  1
  P  P28  1  0.250000  0.432813  0.381965  1
  P  P29  1  0.250000  0.067187  0.381965  1
  P  P30  1  0.750000  0.566725  0.617766  1
  P  P31  1  0.750000  0.933275  0.617766  1
  P  P32  1  0.250000  0.905751  0.111967  1
  P  P33  1  0.250000  0.594249  0.111967  1
  P  P34  1  0.750000  0.093950  0.889115  1
  P  P35  1  0.750000  0.406050  0.889115  1
