# generated using pymatgen
data_Ta6Co3B4Os7
_symmetry_space_group_name_H-M   'P 1'
_cell_length_a   9.23949266
_cell_length_b   9.26217973
_cell_length_c   3.05335900
_cell_angle_alpha   90.00000000
_cell_angle_beta   90.00000000
_cell_angle_gamma   90.39989466
_symmetry_Int_Tables_number   1
_chemical_formula_structural   Ta6Co3B4Os7
_chemical_formula_sum   'Ta6 Co3 B4 Os7'
_cell_volume   261.29350874
_cell_formula_units_Z   1
loop_
 _symmetry_equiv_pos_site_id
 _symmetry_equiv_pos_as_xyz
  1  'x, y, z'
loop_
 _atom_site_type_symbol
 _atom_site_label
 _atom_site_symmetry_multiplicity
 _atom_site_fract_x
 _atom_site_fract_y
 _atom_site_fract_z
 _atom_site_occupancy
  Ta  Ta0  1  0.824283  0.679849  0.000000  1
  Ta  Ta1  1  0.174060  0.324245  0.000000  1
  Ta  Ta2  1  0.326785  0.826787  0.000000  1
  Ta  Ta3  1  0.675081  0.172021  0.000000  1
  Ta  Ta4  1  0.501198  0.501341  0.000000  1
  Ta  Ta5  1  0.989820  0.995972  0.000000  1
  Co  Co6  1  0.771429  0.936880  0.500000  1
  Co  Co7  1  0.500311  0.999688  0.500000  1
  Co  Co8  1  0.001062  0.498520  0.500000  1
  B  B9  1  0.621303  0.897834  0.000000  1
  B  B10  1  0.392211  0.102948  0.000000  1
  B  B11  1  0.105228  0.604933  0.000000  1
  B  B12  1  0.894319  0.394200  0.000000  1
  Os  Os13  1  0.570990  0.729451  0.500000  1
  Os  Os14  1  0.433496  0.274048  0.500000  1
  Os  Os15  1  0.064143  0.774338  0.500000  1
  Os  Os16  1  0.931877  0.222063  0.500000  1
  Os  Os17  1  0.275880  0.566919  0.500000  1
  Os  Os18  1  0.725358  0.434351  0.500000  1
  Os  Os19  1  0.221166  0.063613  0.500000  1
