# generated using pymatgen
data_Tm11Hg9Pt4
_symmetry_space_group_name_H-M   'P 1'
_cell_length_a   12.92328400
_cell_length_b   12.92328284
_cell_length_c   3.64571600
_cell_angle_alpha   90.00000000
_cell_angle_beta   90.00000000
_cell_angle_gamma   113.11574047
_symmetry_Int_Tables_number   1
_chemical_formula_structural   Tm11Hg9Pt4
_chemical_formula_sum   'Tm11 Hg9 Pt4'
_cell_volume   559.99121987
_cell_formula_units_Z   1
loop_
 _symmetry_equiv_pos_site_id
 _symmetry_equiv_pos_as_xyz
  1  'x, y, z'
loop_
 _atom_site_type_symbol
 _atom_site_label
 _atom_site_symmetry_multiplicity
 _atom_site_fract_x
 _atom_site_fract_y
 _atom_site_fract_z
 _atom_site_occupancy
  Tm  Tm0  1  0.500000  0.500000  0.500000  1
  Tm  Tm1  1  0.790676  0.790676  0.500000  1
  Tm  Tm2  1  0.209324  0.209324  0.500000  1
  Tm  Tm3  1  0.579985  0.917616  0.500000  1
  Tm  Tm4  1  0.420015  0.082384  0.500000  1
  Tm  Tm5  1  0.917616  0.579985  0.500000  1
  Tm  Tm6  1  0.082384  0.420015  0.500000  1
  Tm  Tm7  1  0.132230  0.867770  0.500000  1
  Tm  Tm8  1  0.867770  0.132230  0.500000  1
  Tm  Tm9  1  0.333605  0.666395  0.500000  1
  Tm  Tm10  1  0.666395  0.333605  0.500000  1
  Hg  Hg11  1  0.349203  0.866176  0.000000  1
  Hg  Hg12  1  0.650797  0.133824  0.000000  1
  Hg  Hg13  1  0.866176  0.349203  0.000000  1
  Hg  Hg14  1  0.133824  0.650797  0.000000  1
  Hg  Hg15  1  0.554500  0.709347  0.000000  1
  Hg  Hg16  1  0.445500  0.290653  0.000000  1
  Hg  Hg17  1  0.709347  0.554500  0.000000  1
  Hg  Hg18  1  0.290653  0.445500  0.000000  1
  Hg  Hg19  1  0.000000  0.000000  0.000000  1
  Pt  Pt20  1  0.754063  0.948961  0.000000  1
  Pt  Pt21  1  0.245937  0.051039  0.000000  1
  Pt  Pt22  1  0.948961  0.754063  0.000000  1
  Pt  Pt23  1  0.051039  0.245937  0.000000  1
