# generated using pymatgen
data_Tm4Lu8In2TcRu2
_symmetry_space_group_name_H-M   'P 1'
_cell_length_a   8.28738816
_cell_length_b   8.28945605
_cell_length_c   8.28738953
_cell_angle_alpha   109.44577207
_cell_angle_beta   109.43355315
_cell_angle_gamma   109.52423082
_symmetry_Int_Tables_number   1
_chemical_formula_structural   Tm4Lu8In2TcRu2
_chemical_formula_sum   'Tm4 Lu8 In2 Tc1 Ru2'
_cell_volume   438.32222129
_cell_formula_units_Z   1
loop_
 _symmetry_equiv_pos_site_id
 _symmetry_equiv_pos_as_xyz
  1  'x, y, z'
loop_
 _atom_site_type_symbol
 _atom_site_label
 _atom_site_symmetry_multiplicity
 _atom_site_fract_x
 _atom_site_fract_y
 _atom_site_fract_z
 _atom_site_occupancy
  Tm  Tm0  1  0.314567  0.314580  0.629095  1
  Tm  Tm1  1  0.685433  0.685420  0.370905  1
  Tm  Tm2  1  0.685485  0.314580  0.000013  1
  Tm  Tm3  1  0.314515  0.685420  0.999987  1
  Lu  Lu4  1  0.186240  0.427681  0.241441  1
  Lu  Lu5  1  0.813760  0.572319  0.758559  1
  Lu  Lu6  1  0.186236  0.944497  0.758262  1
  Lu  Lu7  1  0.944668  0.186132  0.758355  1
  Lu  Lu8  1  0.813764  0.055503  0.241738  1
  Lu  Lu9  1  0.055332  0.813868  0.241645  1
  Lu  Lu10  1  0.427776  0.186132  0.241463  1
  Lu  Lu11  1  0.572224  0.813868  0.758537  1
  In  In12  1  0.000000  0.500000  0.500000  1
  In  In13  1  0.500000  0.000000  0.500000  1
  Tc  Tc14  1  0.000000  0.000000  0.000000  1
  Ru  Ru15  1  0.346842  0.346711  0.999869  1
  Ru  Ru16  1  0.653158  0.653289  0.000131  1
