# generated using pymatgen
data_LuPa3(TlNi2)2
_symmetry_space_group_name_H-M   'P 1'
_cell_length_a   7.48131500
_cell_length_b   7.48131499
_cell_length_c   3.54003000
_cell_angle_alpha   90.00000000
_cell_angle_beta   90.00000000
_cell_angle_gamma   91.55525290
_symmetry_Int_Tables_number   1
_chemical_formula_structural   LuPa3(TlNi2)2
_chemical_formula_sum   'Lu1 Pa3 Tl2 Ni4'
_cell_volume   198.06275140
_cell_formula_units_Z   1
loop_
 _symmetry_equiv_pos_site_id
 _symmetry_equiv_pos_as_xyz
  1  'x, y, z'
loop_
 _atom_site_type_symbol
 _atom_site_label
 _atom_site_symmetry_multiplicity
 _atom_site_fract_x
 _atom_site_fract_y
 _atom_site_fract_z
 _atom_site_occupancy
  Lu  Lu0  1  0.829498  0.670502  0.500000  1
  Pa  Pa1  1  0.672768  0.171477  0.500000  1
  Pa  Pa2  1  0.328523  0.827232  0.500000  1
  Pa  Pa3  1  0.168479  0.331521  0.500000  1
  Tl  Tl4  1  0.510312  0.505173  0.000000  1
  Tl  Tl5  1  0.994827  0.989688  0.000000  1
  Ni  Ni6  1  0.135462  0.618947  0.000000  1
  Ni  Ni7  1  0.881053  0.364538  0.000000  1
  Ni  Ni8  1  0.609708  0.890292  0.000000  1
  Ni  Ni9  1  0.369372  0.130628  0.000000  1
