# generated using pymatgen
data_Hf4NbBiTe3
_symmetry_space_group_name_H-M   'P 1'
_cell_length_a   7.83401135
_cell_length_b   7.83401135
_cell_length_c   7.80037251
_cell_angle_alpha   93.70383372
_cell_angle_beta   93.18591225
_cell_angle_gamma   151.68353646
_symmetry_Int_Tables_number   1
_chemical_formula_structural   Hf4NbBiTe3
_chemical_formula_sum   'Hf4 Nb1 Bi1 Te3'
_cell_volume   220.11689657
_cell_formula_units_Z   1
loop_
 _symmetry_equiv_pos_site_id
 _symmetry_equiv_pos_as_xyz
  1  'x, y, z'
loop_
 _atom_site_type_symbol
 _atom_site_label
 _atom_site_symmetry_multiplicity
 _atom_site_fract_x
 _atom_site_fract_y
 _atom_site_fract_z
 _atom_site_occupancy
  Hf  Hf0  1  0.678616  0.378855  0.057471  1
  Hf  Hf1  1  0.376419  0.314979  0.691400  1
  Hf  Hf2  1  0.626531  0.681348  0.307877  1
  Hf  Hf3  1  0.316919  0.618726  0.935645  1
  Nb  Nb4  1  0.999500  0.999187  0.998687  1
  Bi  Bi5  1  0.946859  0.297910  0.244769  1
  Te  Te6  1  0.285694  0.054434  0.340129  1
  Te  Te7  1  0.714365  0.942484  0.656848  1
  Te  Te8  1  0.055096  0.712078  0.767174  1
