# generated using pymatgen
data_Rb3CaInBr6
_symmetry_space_group_name_H-M   'P 1'
_cell_length_a   9.46325348
_cell_length_b   9.46325252
_cell_length_c   9.46325329
_cell_angle_alpha   90.67312488
_cell_angle_beta   90.67312478
_cell_angle_gamma   90.67312014
_symmetry_Int_Tables_number   1
_chemical_formula_structural   Rb3CaInBr6
_chemical_formula_sum   'Rb6 Ca2 In2 Br12'
_cell_volume   847.28737527
_cell_formula_units_Z   2
loop_
 _symmetry_equiv_pos_site_id
 _symmetry_equiv_pos_as_xyz
  1  'x, y, z'
loop_
 _atom_site_type_symbol
 _atom_site_label
 _atom_site_symmetry_multiplicity
 _atom_site_fract_x
 _atom_site_fract_y
 _atom_site_fract_z
 _atom_site_occupancy
  Rb  Rb0  1  0.372803  0.127197  0.750000  1
  Rb  Rb1  1  0.127197  0.750000  0.372803  1
  Rb  Rb2  1  0.750000  0.372803  0.127197  1
  Rb  Rb3  1  0.627197  0.872803  0.250000  1
  Rb  Rb4  1  0.250000  0.627197  0.872803  1
  Rb  Rb5  1  0.872803  0.250000  0.627197  1
  Ca  Ca6  1  0.000000  0.000000  0.000000  1
  Ca  Ca7  1  0.500000  0.500000  0.500000  1
  In  In8  1  0.250000  0.250000  0.250000  1
  In  In9  1  0.750000  0.750000  0.750000  1
  Br  Br10  1  0.947523  0.076664  0.293722  1
  Br  Br11  1  0.076664  0.293722  0.947523  1
  Br  Br12  1  0.293722  0.947523  0.076664  1
  Br  Br13  1  0.576664  0.447523  0.793722  1
  Br  Br14  1  0.793722  0.576664  0.447523  1
  Br  Br15  1  0.447523  0.793722  0.576664  1
  Br  Br16  1  0.206278  0.423336  0.552477  1
  Br  Br17  1  0.423336  0.552477  0.206278  1
  Br  Br18  1  0.552477  0.206278  0.423336  1
  Br  Br19  1  0.923336  0.706278  0.052477  1
  Br  Br20  1  0.052477  0.923336  0.706278  1
  Br  Br21  1  0.706278  0.052477  0.923336  1
