# generated using pymatgen
data_Dy3Zn(Ga4Cu)2
_symmetry_space_group_name_H-M   'P 1'
_cell_length_a   8.13239263
_cell_length_b   8.11614627
_cell_length_c   8.11614624
_cell_angle_alpha   150.01098428
_cell_angle_beta   105.16653655
_cell_angle_gamma   82.64514404
_symmetry_Int_Tables_number   1
_chemical_formula_structural   Dy3Zn(Ga4Cu)2
_chemical_formula_sum   'Dy3 Zn1 Ga8 Cu2'
_cell_volume   252.97898981
_cell_formula_units_Z   1
loop_
 _symmetry_equiv_pos_site_id
 _symmetry_equiv_pos_as_xyz
  1  'x, y, z'
loop_
 _atom_site_type_symbol
 _atom_site_label
 _atom_site_symmetry_multiplicity
 _atom_site_fract_x
 _atom_site_fract_y
 _atom_site_fract_z
 _atom_site_occupancy
  Dy  Dy0  1  0.320719  0.318170  0.002549  1
  Dy  Dy1  1  0.681616  0.682128  0.999487  1
  Dy  Dy2  1  0.001937  0.001019  0.000918  1
  Zn  Zn3  1  0.704922  0.336684  0.368238  1
  Ga  Ga4  1  0.290449  0.661505  0.628944  1
  Ga  Ga5  1  0.960627  0.339513  0.621113  1
  Ga  Ga6  1  0.033708  0.661221  0.372488  1
  Ga  Ga7  1  0.411940  0.131116  0.280824  1
  Ga  Ga8  1  0.595350  0.868534  0.726816  1
  Ga  Ga9  1  0.853270  0.132918  0.720352  1
  Ga  Ga10  1  0.146749  0.868769  0.277980  1
  Ga  Ga11  1  0.503230  0.999320  0.503909  1
  Cu  Cu12  1  0.714879  0.501050  0.213829  1
  Cu  Cu13  1  0.280603  0.498052  0.782551  1
