# generated using pymatgen
data_NdSb3(SeO3)8
_symmetry_space_group_name_H-M   'P 1'
_cell_length_a   8.52701472
_cell_length_b   8.84987404
_cell_length_c   8.53675700
_cell_angle_alpha   90.75779384
_cell_angle_beta   89.75694786
_cell_angle_gamma   90.09762036
_symmetry_Int_Tables_number   1
_chemical_formula_structural   NdSb3(SeO3)8
_chemical_formula_sum   'Nd1 Sb3 Se8 O24'
_cell_volume   644.14633262
_cell_formula_units_Z   1
loop_
 _symmetry_equiv_pos_site_id
 _symmetry_equiv_pos_as_xyz
  1  'x, y, z'
loop_
 _atom_site_type_symbol
 _atom_site_label
 _atom_site_symmetry_multiplicity
 _atom_site_fract_x
 _atom_site_fract_y
 _atom_site_fract_z
 _atom_site_occupancy
  Nd  Nd0  1  0.000000  0.500000  0.000000  1
  Sb  Sb1  1  0.500000  0.500000  0.500000  1
  Sb  Sb2  1  0.000000  0.000000  0.500000  1
  Sb  Sb3  1  0.500000  0.000000  0.000000  1
  Se  Se4  1  0.359328  0.689465  0.172117  1
  Se  Se5  1  0.836835  0.307827  0.354945  1
  Se  Se6  1  0.687587  0.843451  0.683503  1
  Se  Se7  1  0.197182  0.143575  0.809829  1
  Se  Se8  1  0.640672  0.310535  0.827883  1
  Se  Se9  1  0.163165  0.692173  0.645055  1
  Se  Se10  1  0.312413  0.156549  0.316497  1
  Se  Se11  1  0.802818  0.856425  0.190171  1
  O  O12  1  0.255423  0.577586  0.050055  1
  O  O13  1  0.753671  0.431973  0.485843  1
  O  O14  1  0.767488  0.978633  0.552514  1
  O  O15  1  0.267813  0.009114  0.946984  1
  O  O16  1  0.550951  0.972434  0.768478  1
  O  O17  1  0.496208  0.569924  0.247455  1
  O  O18  1  0.965414  0.414745  0.255212  1
  O  O19  1  0.052822  0.017269  0.731363  1
  O  O20  1  0.977473  0.222946  0.489135  1
  O  O21  1  0.567555  0.748412  0.560878  1
  O  O22  1  0.489931  0.777224  0.027846  1
  O  O23  1  0.086471  0.252930  0.925608  1
  O  O24  1  0.744577  0.422414  0.949945  1
  O  O25  1  0.246329  0.568027  0.514157  1
  O  O26  1  0.232512  0.021367  0.447486  1
  O  O27  1  0.732187  0.990886  0.053016  1
  O  O28  1  0.449049  0.027566  0.231522  1
  O  O29  1  0.503792  0.430076  0.752545  1
  O  O30  1  0.034586  0.585255  0.744788  1
  O  O31  1  0.947178  0.982731  0.268637  1
  O  O32  1  0.022527  0.777054  0.510865  1
  O  O33  1  0.432445  0.251588  0.439122  1
  O  O34  1  0.510069  0.222776  0.972154  1
  O  O35  1  0.913529  0.747070  0.074392  1
