# generated using pymatgen
data_Nd6IrRhBr6
_symmetry_space_group_name_H-M   'P 1'
_cell_length_a   10.48091315
_cell_length_b   10.48091374
_cell_length_c   10.47813104
_cell_angle_alpha   109.47097824
_cell_angle_beta   109.47097969
_cell_angle_gamma   109.48245549
_symmetry_Int_Tables_number   1
_chemical_formula_structural   Nd6IrRhBr6
_chemical_formula_sum   'Nd12 Ir2 Rh2 Br12'
_cell_volume   885.93642986
_cell_formula_units_Z   2
loop_
 _symmetry_equiv_pos_site_id
 _symmetry_equiv_pos_as_xyz
  1  'x, y, z'
loop_
 _atom_site_type_symbol
 _atom_site_label
 _atom_site_symmetry_multiplicity
 _atom_site_fract_x
 _atom_site_fract_y
 _atom_site_fract_z
 _atom_site_occupancy
  Nd  Nd0  1  0.468742  0.483622  0.234951  1
  Nd  Nd1  1  0.748671  0.233793  0.265049  1
  Nd  Nd2  1  0.748760  0.014675  0.483906  1
  Nd  Nd3  1  0.235147  0.469229  0.483906  1
  Nd  Nd4  1  0.266207  0.751329  0.234951  1
  Nd  Nd5  1  0.030771  0.264853  0.016094  1
  Nd  Nd6  1  0.016378  0.031258  0.265049  1
  Nd  Nd7  1  0.485325  0.751240  0.016094  1
  Nd  Nd8  1  0.484192  0.234192  0.468383  1
  Nd  Nd9  1  0.015332  0.484668  0.750000  1
  Nd  Nd10  1  0.265808  0.015808  0.031617  1
  Nd  Nd11  1  0.234668  0.265332  0.750000  1
  Ir  Ir12  1  0.249488  0.250512  0.250000  1
  Ir  Ir13  1  0.500512  0.999488  0.250000  1
  Rh  Rh14  1  0.000938  0.250938  0.501877  1
  Rh  Rh15  1  0.249062  0.499062  0.998123  1
  Br  Br16  1  0.249595  0.754207  0.744966  1
  Br  Br17  1  0.509240  0.504629  0.755034  1
  Br  Br18  1  0.990130  0.744589  0.994965  1
  Br  Br19  1  0.745793  0.250405  0.755034  1
  Br  Br20  1  0.995371  0.990760  0.744966  1
  Br  Br21  1  0.249624  0.995164  0.505035  1
  Br  Br22  1  0.755411  0.509870  0.505035  1
  Br  Br23  1  0.504836  0.250376  0.994965  1
  Br  Br24  1  0.754689  0.745311  0.250000  1
  Br  Br25  1  0.745133  0.995133  0.990266  1
  Br  Br26  1  0.995311  0.504689  0.250000  1
  Br  Br27  1  0.504867  0.754867  0.509734  1
