# generated using pymatgen
data_Dy3Tm3Co16(P6Ru)2
_symmetry_space_group_name_H-M   'P 1'
_cell_length_a   3.69245700
_cell_length_b   10.49173916
_cell_length_c   12.21686919
_cell_angle_alpha   90.02031114
_cell_angle_beta   90.00000000
_cell_angle_gamma   90.00000000
_symmetry_Int_Tables_number   1
_chemical_formula_structural   Dy3Tm3Co16(P6Ru)2
_chemical_formula_sum   'Dy3 Tm3 Co16 P12 Ru2'
_cell_volume   473.28509554
_cell_formula_units_Z   1
loop_
 _symmetry_equiv_pos_site_id
 _symmetry_equiv_pos_as_xyz
  1  'x, y, z'
loop_
 _atom_site_type_symbol
 _atom_site_label
 _atom_site_symmetry_multiplicity
 _atom_site_fract_x
 _atom_site_fract_y
 _atom_site_fract_z
 _atom_site_occupancy
  Dy  Dy0  1  0.000000  0.499978  0.524485  1
  Dy  Dy1  1  0.500000  0.000066  0.475452  1
  Dy  Dy2  1  0.000000  0.317219  0.793208  1
  Tm  Tm3  1  0.500000  0.817388  0.206775  1
  Tm  Tm4  1  0.500000  0.182651  0.206792  1
  Tm  Tm5  1  0.000000  0.682953  0.793236  1
  Co  Co6  1  0.500000  0.500875  0.704349  1
  Co  Co7  1  0.000000  0.999948  0.295315  1
  Co  Co8  1  0.000000  0.500359  0.986257  1
  Co  Co9  1  0.500000  0.999662  0.014322  1
  Co  Co10  1  0.500000  0.332454  0.990993  1
  Co  Co11  1  0.500000  0.667945  0.990429  1
  Co  Co12  1  0.000000  0.167274  0.010063  1
  Co  Co13  1  0.000000  0.832377  0.009752  1
  Co  Co14  1  0.500000  0.297119  0.430563  1
  Co  Co15  1  0.500000  0.702958  0.430840  1
  Co  Co16  1  0.000000  0.202649  0.568628  1
  Co  Co17  1  0.000000  0.797205  0.569142  1
  Co  Co18  1  0.500000  0.878329  0.708373  1
  Co  Co19  1  0.500000  0.120682  0.707814  1
  Co  Co20  1  0.000000  0.621605  0.291677  1
  Co  Co21  1  0.000000  0.378379  0.291577  1
  P  P22  1  0.500000  0.500762  0.881693  1
  P  P23  1  0.000000  0.999890  0.118868  1
  P  P24  1  0.500000  0.499998  0.349974  1
  P  P25  1  0.000000  0.000067  0.649933  1
  P  P26  1  0.500000  0.311546  0.615977  1
  P  P27  1  0.500000  0.688519  0.616974  1
  P  P28  1  0.000000  0.188202  0.382778  1
  P  P29  1  0.000000  0.811717  0.382958  1
  P  P30  1  0.500000  0.845955  0.892952  1
  P  P31  1  0.500000  0.153287  0.893591  1
  P  P32  1  0.000000  0.654219  0.107188  1
  P  P33  1  0.000000  0.345879  0.107021  1
  Ru  Ru34  1  0.500000  0.500093  0.159101  1
  Ru  Ru35  1  0.000000  0.999791  0.840949  1
