# generated using pymatgen
data_HfTi11(Ga3Sb)3
_symmetry_space_group_name_H-M   'P 1'
_cell_length_a   5.45345400
_cell_length_b   8.35724397
_cell_length_c   9.04153077
_cell_angle_alpha   89.64991894
_cell_angle_beta   90.00000000
_cell_angle_gamma   90.00000000
_symmetry_Int_Tables_number   1
_chemical_formula_structural   HfTi11(Ga3Sb)3
_chemical_formula_sum   'Hf1 Ti11 Ga9 Sb3'
_cell_volume   412.06771794
_cell_formula_units_Z   1
loop_
 _symmetry_equiv_pos_site_id
 _symmetry_equiv_pos_as_xyz
  1  'x, y, z'
loop_
 _atom_site_type_symbol
 _atom_site_label
 _atom_site_symmetry_multiplicity
 _atom_site_fract_x
 _atom_site_fract_y
 _atom_site_fract_z
 _atom_site_occupancy
  Hf  Hf0  1  0.250000  0.135461  0.188574  1
  Ti  Ti1  1  0.003483  0.745906  0.117601  1
  Ti  Ti2  1  0.495679  0.253552  0.884508  1
  Ti  Ti3  1  0.004321  0.253552  0.884508  1
  Ti  Ti4  1  0.496517  0.745906  0.117601  1
  Ti  Ti5  1  0.750000  0.470056  0.615348  1
  Ti  Ti6  1  0.250000  0.527997  0.375489  1
  Ti  Ti7  1  0.750000  0.969541  0.390432  1
  Ti  Ti8  1  0.250000  0.030821  0.608263  1
  Ti  Ti9  1  0.750000  0.377290  0.192640  1
  Ti  Ti10  1  0.250000  0.618189  0.812453  1
  Ti  Ti11  1  0.750000  0.872861  0.806700  1
  Ga  Ga12  1  0.001329  0.747070  0.577454  1
  Ga  Ga13  1  0.504291  0.253938  0.427484  1
  Ga  Ga14  1  0.995709  0.253938  0.427484  1
  Ga  Ga15  1  0.498671  0.747070  0.577454  1
  Ga  Ga16  1  0.250000  0.454201  0.082592  1
  Ga  Ga17  1  0.750000  0.136975  0.652166  1
  Ga  Ga18  1  0.250000  0.860790  0.351617  1
  Ga  Ga19  1  0.750000  0.635885  0.351057  1
  Ga  Ga20  1  0.250000  0.366325  0.647761  1
  Sb  Sb21  1  0.750000  0.050290  0.086386  1
  Sb  Sb22  1  0.250000  0.943528  0.906763  1
  Sb  Sb23  1  0.750000  0.548854  0.917663  1
