# generated using pymatgen
data_PrTh2(InRh)3
_symmetry_space_group_name_H-M   'P 1'
_cell_length_a   7.59644200
_cell_length_b   7.75110049
_cell_length_c   4.03760700
_cell_angle_alpha   90.00000000
_cell_angle_beta   90.00000000
_cell_angle_gamma   119.34212288
_symmetry_Int_Tables_number   1
_chemical_formula_structural   PrTh2(InRh)3
_chemical_formula_sum   'Pr1 Th2 In3 Rh3'
_cell_volume   207.23795264
_cell_formula_units_Z   1
loop_
 _symmetry_equiv_pos_site_id
 _symmetry_equiv_pos_as_xyz
  1  'x, y, z'
loop_
 _atom_site_type_symbol
 _atom_site_label
 _atom_site_symmetry_multiplicity
 _atom_site_fract_x
 _atom_site_fract_y
 _atom_site_fract_z
 _atom_site_occupancy
  Pr  Pr0  1  0.588486  0.000000  0.500000  1
  Th  Th1  1  0.998715  0.585992  0.500000  1
  Th  Th2  1  0.412723  0.414008  0.500000  1
  In  In3  1  0.751202  0.762210  0.000000  1
  In  In4  1  0.988992  0.237790  0.000000  1
  In  In5  1  0.260391  0.000000  0.000000  1
  Rh  Rh6  1  0.310178  0.638708  0.000000  1
  Rh  Rh7  1  0.017841  0.000000  0.500000  1
  Rh  Rh8  1  0.671471  0.361292  0.000000  1
