# generated using pymatgen
data_Li2TmThSi4
_symmetry_space_group_name_H-M   'P 1'
_cell_length_a   3.82151400
_cell_length_b   7.67512770
_cell_length_c   10.24886069
_cell_angle_alpha   90.07539923
_cell_angle_beta   90.00000000
_cell_angle_gamma   90.00000000
_symmetry_Int_Tables_number   1
_chemical_formula_structural   Li2TmThSi4
_chemical_formula_sum   'Li4 Tm2 Th2 Si8'
_cell_volume   300.60505469
_cell_formula_units_Z   2
loop_
 _symmetry_equiv_pos_site_id
 _symmetry_equiv_pos_as_xyz
  1  'x, y, z'
loop_
 _atom_site_type_symbol
 _atom_site_label
 _atom_site_symmetry_multiplicity
 _atom_site_fract_x
 _atom_site_fract_y
 _atom_site_fract_z
 _atom_site_occupancy
  Li  Li0  1  0.250000  0.989720  0.390622  1
  Li  Li1  1  0.750000  0.010280  0.609378  1
  Li  Li2  1  0.250000  0.488943  0.101850  1
  Li  Li3  1  0.750000  0.511057  0.898150  1
  Tm  Tm4  1  0.250000  0.131286  0.863990  1
  Tm  Tm5  1  0.750000  0.868714  0.136010  1
  Th  Th6  1  0.250000  0.640721  0.637682  1
  Th  Th7  1  0.750000  0.359279  0.362318  1
  Si  Si8  1  0.750000  0.259418  0.062633  1
  Si  Si9  1  0.250000  0.740582  0.937367  1
  Si  Si10  1  0.750000  0.770818  0.427099  1
  Si  Si11  1  0.250000  0.229182  0.572901  1
  Si  Si12  1  0.750000  0.843869  0.821913  1
  Si  Si13  1  0.250000  0.156131  0.178087  1
  Si  Si14  1  0.750000  0.335677  0.688088  1
  Si  Si15  1  0.250000  0.664323  0.311912  1
