# generated using pymatgen
data_La4Pr16(Ga3Pb)3
_symmetry_space_group_name_H-M   'P 1'
_cell_length_a   8.13411700
_cell_length_b   8.13411700
_cell_length_c   14.49356900
_cell_angle_alpha   90.00000000
_cell_angle_beta   90.00000000
_cell_angle_gamma   90.00000000
_symmetry_Int_Tables_number   1
_chemical_formula_structural   La4Pr16(Ga3Pb)3
_chemical_formula_sum   'La4 Pr16 Ga9 Pb3'
_cell_volume   958.95046108
_cell_formula_units_Z   1
loop_
 _symmetry_equiv_pos_site_id
 _symmetry_equiv_pos_as_xyz
  1  'x, y, z'
loop_
 _atom_site_type_symbol
 _atom_site_label
 _atom_site_symmetry_multiplicity
 _atom_site_fract_x
 _atom_site_fract_y
 _atom_site_fract_z
 _atom_site_occupancy
  La  La0  1  0.500000  0.500000  0.766424  1
  La  La1  1  0.000000  0.000000  0.222347  1
  La  La2  1  0.000000  0.000000  0.777653  1
  La  La3  1  0.500000  0.500000  0.233576  1
  Pr  Pr4  1  0.672569  0.163889  0.103277  1
  Pr  Pr5  1  0.172072  0.673571  0.606183  1
  Pr  Pr6  1  0.327431  0.836111  0.103277  1
  Pr  Pr7  1  0.827928  0.326429  0.606183  1
  Pr  Pr8  1  0.836111  0.672569  0.103277  1
  Pr  Pr9  1  0.326429  0.172072  0.606183  1
  Pr  Pr10  1  0.163889  0.327431  0.103277  1
  Pr  Pr11  1  0.673571  0.827928  0.606183  1
  Pr  Pr12  1  0.836111  0.327431  0.896723  1
  Pr  Pr13  1  0.326429  0.827928  0.393817  1
  Pr  Pr14  1  0.163889  0.672569  0.896723  1
  Pr  Pr15  1  0.673571  0.172072  0.393817  1
  Pr  Pr16  1  0.672569  0.836111  0.896723  1
  Pr  Pr17  1  0.172072  0.326429  0.393817  1
  Pr  Pr18  1  0.327431  0.163889  0.896723  1
  Pr  Pr19  1  0.827928  0.673571  0.393817  1
  Ga  Ga20  1  0.618975  0.118848  0.746134  1
  Ga  Ga21  1  0.118848  0.618975  0.253866  1
  Ga  Ga22  1  0.881152  0.381025  0.253866  1
  Ga  Ga23  1  0.381025  0.881152  0.746134  1
  Ga  Ga24  1  0.881152  0.618975  0.746134  1
  Ga  Ga25  1  0.381025  0.118848  0.253866  1
  Ga  Ga26  1  0.118848  0.381025  0.746134  1
  Ga  Ga27  1  0.618975  0.881152  0.253866  1
  Ga  Ga28  1  0.000000  0.000000  0.000000  1
  Pb  Pb29  1  0.500000  0.500000  0.500000  1
  Pb  Pb30  1  0.500000  0.500000  0.000000  1
  Pb  Pb31  1  0.000000  0.000000  0.500000  1
