# generated using pymatgen
data_La12IrRh(AuI6)2
_symmetry_space_group_name_H-M   'P 1'
_cell_length_a   11.02230270
_cell_length_b   11.02198132
_cell_length_c   11.24022833
_cell_angle_alpha   109.41660912
_cell_angle_beta   109.41135916
_cell_angle_gamma   108.84731337
_symmetry_Int_Tables_number   1
_chemical_formula_structural   La12IrRh(AuI6)2
_chemical_formula_sum   'La12 Ir1 Rh1 Au2 I12'
_cell_volume   1060.64477761
_cell_formula_units_Z   1
loop_
 _symmetry_equiv_pos_site_id
 _symmetry_equiv_pos_as_xyz
  1  'x, y, z'
loop_
 _atom_site_type_symbol
 _atom_site_label
 _atom_site_symmetry_multiplicity
 _atom_site_fract_x
 _atom_site_fract_y
 _atom_site_fract_z
 _atom_site_occupancy
  La  La0  1  0.459795  0.469925  0.237335  1
  La  La1  1  0.734071  0.223611  0.263054  1
  La  La2  1  0.739257  0.012440  0.474123  1
  La  La3  1  0.235292  0.461048  0.472996  1
  La  La4  1  0.276402  0.765927  0.236961  1
  La  La5  1  0.038961  0.264714  0.027014  1
  La  La6  1  0.030092  0.040212  0.262672  1
  La  La7  1  0.487565  0.760735  0.025885  1
  La  La8  1  0.479706  0.231441  0.461170  1
  La  La9  1  0.016310  0.483721  0.750012  1
  La  La10  1  0.268549  0.020252  0.038797  1
  La  La11  1  0.233655  0.266336  0.749981  1
  Ir  Ir12  1  0.251457  0.248548  0.249995  1
  Rh  Rh13  1  0.499332  0.000689  0.250017  1
  Au  Au14  1  0.997958  0.248568  0.497447  1
  Au  Au15  1  0.251445  0.502057  0.002559  1
  I  I16  1  0.251558  0.755797  0.742334  1
  I  I17  1  0.513858  0.509275  0.757958  1
  I  I18  1  0.979952  0.737982  0.988973  1
  I  I19  1  0.744196  0.248442  0.757656  1
  I  I20  1  0.990724  0.986144  0.742040  1
  I  I21  1  0.249264  0.990964  0.510985  1
  I  I22  1  0.762000  0.520040  0.511025  1
  I  I23  1  0.509042  0.250740  0.989021  1
  I  I24  1  0.757849  0.742128  0.249988  1
  I  I25  1  0.741231  0.991444  0.982925  1
  I  I26  1  0.991928  0.508066  0.249998  1
  I  I27  1  0.508548  0.758753  0.517077  1
