# generated using pymatgen
data_Pa3TiBi5
_symmetry_space_group_name_H-M   'P 1'
_cell_length_a   9.48194500
_cell_length_b   9.48194454
_cell_length_c   6.31060600
_cell_angle_alpha   90.00000000
_cell_angle_beta   90.00000000
_cell_angle_gamma   119.99999813
_symmetry_Int_Tables_number   1
_chemical_formula_structural   Pa3TiBi5
_chemical_formula_sum   'Pa6 Ti2 Bi10'
_cell_volume   491.35632216
_cell_formula_units_Z   2
loop_
 _symmetry_equiv_pos_site_id
 _symmetry_equiv_pos_as_xyz
  1  'x, y, z'
loop_
 _atom_site_type_symbol
 _atom_site_label
 _atom_site_symmetry_multiplicity
 _atom_site_fract_x
 _atom_site_fract_y
 _atom_site_fract_z
 _atom_site_occupancy
  Pa  Pa0  1  0.612780  0.000000  0.250000  1
  Pa  Pa1  1  0.387220  0.000000  0.750000  1
  Pa  Pa2  1  0.387220  0.387220  0.250000  1
  Pa  Pa3  1  0.000000  0.612780  0.250000  1
  Pa  Pa4  1  0.000000  0.387220  0.750000  1
  Pa  Pa5  1  0.612780  0.612780  0.750000  1
  Ti  Ti6  1  0.000000  0.000000  0.000000  1
  Ti  Ti7  1  0.000000  0.000000  0.500000  1
  Bi  Bi8  1  0.263115  0.263115  0.750000  1
  Bi  Bi9  1  0.736885  0.736885  0.250000  1
  Bi  Bi10  1  0.333333  0.666667  0.500000  1
  Bi  Bi11  1  0.000000  0.263115  0.250000  1
  Bi  Bi12  1  0.263115  0.000000  0.250000  1
  Bi  Bi13  1  0.736885  0.000000  0.750000  1
  Bi  Bi14  1  0.666667  0.333333  0.000000  1
  Bi  Bi15  1  0.000000  0.736885  0.750000  1
  Bi  Bi16  1  0.333333  0.666667  0.000000  1
  Bi  Bi17  1  0.666667  0.333333  0.500000  1
