# generated using pymatgen
data_Ho7Th3(Al2Ru3)2
_symmetry_space_group_name_H-M   'P 1'
_cell_length_a   8.36241301
_cell_length_b   8.40526927
_cell_length_c   8.36241311
_cell_angle_alpha   109.22570907
_cell_angle_beta   108.93432143
_cell_angle_gamma   110.04640916
_symmetry_Int_Tables_number   1
_chemical_formula_structural   Ho7Th3(Al2Ru3)2
_chemical_formula_sum   'Ho7 Th3 Al4 Ru6'
_cell_volume   453.59222043
_cell_formula_units_Z   1
loop_
 _symmetry_equiv_pos_site_id
 _symmetry_equiv_pos_as_xyz
  1  'x, y, z'
loop_
 _atom_site_type_symbol
 _atom_site_label
 _atom_site_symmetry_multiplicity
 _atom_site_fract_x
 _atom_site_fract_y
 _atom_site_fract_z
 _atom_site_occupancy
  Ho  Ho0  1  0.684023  0.432968  0.250417  1
  Ho  Ho1  1  0.066071  0.750000  0.816071  1
  Ho  Ho2  1  0.817448  0.067032  0.751054  1
  Ho  Ho3  1  0.220389  0.217437  0.213914  1
  Ho  Ho4  1  0.498024  0.997513  0.279360  1
  Ho  Ho5  1  0.281847  0.502487  0.000511  1
  Ho  Ho6  1  0.996475  0.282563  0.502952  1
  Th  Th7  1  0.248481  0.686648  0.439665  1
  Th  Th8  1  0.753017  0.813352  0.061834  1
  Th  Th9  1  0.438352  0.250000  0.688352  1
  Al  Al10  1  0.600924  0.598024  0.588688  1
  Al  Al11  1  0.506519  0.008277  0.915236  1
  Al  Al12  1  0.906960  0.491723  0.998243  1
  Al  Al13  1  0.990663  0.901976  0.502899  1
  Ru  Ru14  1  0.254490  0.129429  0.864944  1
  Ru  Ru15  1  0.735515  0.370571  0.625061  1
  Ru  Ru16  1  0.882217  0.250000  0.132218  1
  Ru  Ru17  1  0.118315  0.866594  0.249802  1
  Ru  Ru18  1  0.617060  0.750000  0.367060  1
  Ru  Ru19  1  0.383208  0.633405  0.751720  1
