# generated using pymatgen
data_Ba2YbMoN4
_symmetry_space_group_name_H-M   'P 1'
_cell_length_a   10.80150495
_cell_length_b   10.48023827
_cell_length_c   8.11168788
_cell_angle_alpha   69.70908977
_cell_angle_beta   65.51184010
_cell_angle_gamma   44.77906707
_symmetry_Int_Tables_number   1
_chemical_formula_structural   Ba2YbMoN4
_chemical_formula_sum   'Ba8 Yb4 Mo4 N16'
_cell_volume   586.63709452
_cell_formula_units_Z   4
loop_
 _symmetry_equiv_pos_site_id
 _symmetry_equiv_pos_as_xyz
  1  'x, y, z'
loop_
 _atom_site_type_symbol
 _atom_site_label
 _atom_site_symmetry_multiplicity
 _atom_site_fract_x
 _atom_site_fract_y
 _atom_site_fract_z
 _atom_site_occupancy
  Ba  Ba0  1  0.572370  0.927630  0.927630  1
  Ba  Ba1  1  0.927630  0.572370  0.572370  1
  Ba  Ba2  1  0.322370  0.677630  0.677630  1
  Ba  Ba3  1  0.111185  0.111185  0.888815  1
  Ba  Ba4  1  0.138815  0.138815  0.361185  1
  Ba  Ba5  1  0.361185  0.361185  0.138815  1
  Ba  Ba6  1  0.677630  0.322370  0.322370  1
  Ba  Ba7  1  0.888815  0.888815  0.111185  1
  Yb  Yb8  1  0.338120  0.338120  0.661880  1
  Yb  Yb9  1  0.911880  0.911880  0.588120  1
  Yb  Yb10  1  0.661880  0.661880  0.338120  1
  Yb  Yb11  1  0.588120  0.588120  0.911880  1
  Mo  Mo12  1  0.493507  0.006493  0.493507  1
  Mo  Mo13  1  0.006493  0.493507  0.006493  1
  Mo  Mo14  1  0.756493  0.243507  0.756493  1
  Mo  Mo15  1  0.243507  0.756493  0.243507  1
  N  N16  1  0.011497  0.658785  0.820405  1
  N  N17  1  0.699739  0.284821  0.995967  1
  N  N18  1  0.658785  0.011497  0.509314  1
  N  N19  1  0.509314  0.820405  0.658785  1
  N  N20  1  0.238503  0.591215  0.429595  1
  N  N21  1  0.740686  0.429595  0.591215  1
  N  N22  1  0.995967  0.019472  0.699739  1
  N  N23  1  0.550261  0.965179  0.254033  1
  N  N24  1  0.429595  0.740686  0.238503  1
  N  N25  1  0.965179  0.550261  0.230528  1
  N  N26  1  0.284821  0.699739  0.019472  1
  N  N27  1  0.820405  0.509314  0.011497  1
  N  N28  1  0.230528  0.254033  0.965179  1
  N  N29  1  0.591215  0.238503  0.740686  1
  N  N30  1  0.254033  0.230528  0.550261  1
  N  N31  1  0.019472  0.995967  0.284821  1
