# generated using pymatgen
data_Cs5Rb3(CoBr4)4
_symmetry_space_group_name_H-M   'P 1'
_cell_length_a   7.78892300
_cell_length_b   10.21626568
_cell_length_c   13.66440496
_cell_angle_alpha   90.18055625
_cell_angle_beta   90.00000000
_cell_angle_gamma   90.00000000
_symmetry_Int_Tables_number   1
_chemical_formula_structural   Cs5Rb3(CoBr4)4
_chemical_formula_sum   'Cs5 Rb3 Co4 Br16'
_cell_volume   1087.32195432
_cell_formula_units_Z   1
loop_
 _symmetry_equiv_pos_site_id
 _symmetry_equiv_pos_as_xyz
  1  'x, y, z'
loop_
 _atom_site_type_symbol
 _atom_site_label
 _atom_site_symmetry_multiplicity
 _atom_site_fract_x
 _atom_site_fract_y
 _atom_site_fract_z
 _atom_site_occupancy
  Cs  Cs0  1  0.250000  0.483541  0.330234  1
  Cs  Cs1  1  0.250000  0.632632  0.904781  1
  Cs  Cs2  1  0.750000  0.368641  0.088968  1
  Cs  Cs3  1  0.750000  0.864818  0.409270  1
  Cs  Cs4  1  0.250000  0.132649  0.593150  1
  Rb  Rb5  1  0.250000  0.984127  0.169038  1
  Rb  Rb6  1  0.750000  0.016441  0.828586  1
  Rb  Rb7  1  0.750000  0.516858  0.671108  1
  Co  Co8  1  0.250000  0.734070  0.580761  1
  Co  Co9  1  0.750000  0.264179  0.423039  1
  Co  Co10  1  0.750000  0.772501  0.074762  1
  Co  Co11  1  0.250000  0.229582  0.921013  1
  Br  Br12  1  0.996417  0.816809  0.657620  1
  Br  Br13  1  0.999636  0.176061  0.344757  1
  Br  Br14  1  0.001441  0.688290  0.153581  1
  Br  Br15  1  0.500364  0.176061  0.344757  1
  Br  Br16  1  0.997915  0.313830  0.843004  1
  Br  Br17  1  0.503583  0.816809  0.657620  1
  Br  Br18  1  0.502085  0.313830  0.843004  1
  Br  Br19  1  0.498559  0.688290  0.153581  1
  Br  Br20  1  0.250000  0.500728  0.597695  1
  Br  Br21  1  0.750000  0.498631  0.411083  1
  Br  Br22  1  0.750000  0.006341  0.085524  1
  Br  Br23  1  0.250000  0.995976  0.910737  1
  Br  Br24  1  0.250000  0.312081  0.086146  1
  Br  Br25  1  0.750000  0.686941  0.909931  1
  Br  Br26  1  0.750000  0.188609  0.589289  1
  Br  Br27  1  0.250000  0.820673  0.416963  1
