# generated using pymatgen
data_Y4Al24Pt7Rh2
_symmetry_space_group_name_H-M   'P 1'
_cell_length_a   7.51720802
_cell_length_b   7.51357834
_cell_length_c   13.20598512
_cell_angle_alpha   84.53233393
_cell_angle_beta   100.91262067
_cell_angle_gamma   119.78521595
_symmetry_Int_Tables_number   1
_chemical_formula_structural   Y4Al24Pt7Rh2
_chemical_formula_sum   'Y4 Al24 Pt7 Rh2'
_cell_volume   635.64559109
_cell_formula_units_Z   1
loop_
 _symmetry_equiv_pos_site_id
 _symmetry_equiv_pos_as_xyz
  1  'x, y, z'
loop_
 _atom_site_type_symbol
 _atom_site_label
 _atom_site_symmetry_multiplicity
 _atom_site_fract_x
 _atom_site_fract_y
 _atom_site_fract_z
 _atom_site_occupancy
  Y  Y0  1  0.732436  0.999485  0.190617  1
  Y  Y1  1  0.268105  0.001849  0.809201  1
  Y  Y2  1  0.061381  0.667638  0.191087  1
  Y  Y3  1  0.937510  0.331566  0.809062  1
  Al  Al4  1  0.810627  0.870990  0.818225  1
  Al  Al5  1  0.189527  0.128606  0.181778  1
  Al  Al6  1  0.986149  0.669405  0.946608  1
  Al  Al7  1  0.020688  0.334184  0.053010  1
  Al  Al8  1  0.396474  0.663591  0.819494  1
  Al  Al9  1  0.600090  0.335677  0.182697  1
  Al  Al10  1  0.882093  0.665198  0.671956  1
  Al  Al11  1  0.118550  0.334696  0.327623  1
  Al  Al12  1  0.603311  0.459713  0.816938  1
  Al  Al13  1  0.396586  0.544252  0.180912  1
  Al  Al14  1  0.230903  0.340514  0.669734  1
  Al  Al15  1  0.769186  0.659556  0.330298  1
  Al  Al16  1  0.853198  0.333521  0.558766  1
  Al  Al17  1  0.186221  0.999447  0.558783  1
  Al  Al18  1  0.814307  0.000060  0.441225  1
  Al  Al19  1  0.348198  0.995770  0.053361  1
  Al  Al20  1  0.648387  0.997414  0.947046  1
  Al  Al21  1  0.556524  0.991651  0.672368  1
  Al  Al22  1  0.443620  0.007484  0.327966  1
  Al  Al23  1  0.521380  0.668220  0.561468  1
  Al  Al24  1  0.478772  0.331803  0.438450  1
  Al  Al25  1  0.682283  0.671497  0.042413  1
  Al  Al26  1  0.314288  0.331896  0.957593  1
  Al  Al27  1  0.147222  0.665968  0.441334  1
  Pt  Pt28  1  0.545936  0.324806  0.636945  1
  Pt  Pt29  1  0.454437  0.674557  0.362976  1
  Pt  Pt30  1  0.887377  0.007730  0.638022  1
  Pt  Pt31  1  0.112993  0.991914  0.362005  1
  Pt  Pt32  1  0.671607  0.328472  0.999992  1
  Pt  Pt33  1  0.204617  0.666884  0.638205  1
  Pt  Pt34  1  0.796065  0.332814  0.361870  1
  Rh  Rh35  1  0.328936  0.671122  0.999994  1
  Rh  Rh36  1  0.000017  0.000049  0.999978  1
