# generated using pymatgen
data_Ba2SrTa3(NO2)3
_symmetry_space_group_name_H-M   'P 1'
_cell_length_a   4.06940800
_cell_length_b   5.87319347
_cell_length_c   9.27890560
_cell_angle_alpha   71.78480770
_cell_angle_beta   90.00000000
_cell_angle_gamma   90.00000000
_symmetry_Int_Tables_number   1
_chemical_formula_structural   Ba2SrTa3(NO2)3
_chemical_formula_sum   'Ba2 Sr1 Ta3 N3 O6'
_cell_volume   210.65668656
_cell_formula_units_Z   1
loop_
 _symmetry_equiv_pos_site_id
 _symmetry_equiv_pos_as_xyz
  1  'x, y, z'
loop_
 _atom_site_type_symbol
 _atom_site_label
 _atom_site_symmetry_multiplicity
 _atom_site_fract_x
 _atom_site_fract_y
 _atom_site_fract_z
 _atom_site_occupancy
  Ba  Ba0  1  0.500000  0.832126  0.324762  1
  Ba  Ba1  1  0.500000  0.509839  0.002460  1
  Sr  Sr2  1  0.500000  0.150000  0.667436  1
  Ta  Ta3  1  0.000000  0.318678  0.348296  1
  Ta  Ta4  1  0.000000  0.022047  0.986854  1
  Ta  Ta5  1  0.000000  0.655807  0.656163  1
  N  N6  1  0.000000  0.008219  0.505081  1
  N  N7  1  0.000000  0.500574  0.501251  1
  N  N8  1  0.000000  0.331426  0.833811  1
  O  O9  1  0.500000  0.331581  0.328691  1
  O  O10  1  0.500000  0.997984  0.000590  1
  O  O11  1  0.500000  0.678157  0.672501  1
  O  O12  1  0.000000  0.662919  0.167744  1
  O  O13  1  0.000000  0.162104  0.165320  1
  O  O14  1  0.000000  0.838539  0.839037  1
