# generated using pymatgen
data_Th3Al2SnPt2Rh
_symmetry_space_group_name_H-M   'P 1'
_cell_length_a   7.37859170
_cell_length_b   7.49416956
_cell_length_c   4.16947200
_cell_angle_alpha   90.00000000
_cell_angle_beta   90.00000000
_cell_angle_gamma   120.51952120
_symmetry_Int_Tables_number   1
_chemical_formula_structural   Th3Al2SnPt2Rh
_chemical_formula_sum   'Th3 Al2 Sn1 Pt2 Rh1'
_cell_volume   198.61463671
_cell_formula_units_Z   1
loop_
 _symmetry_equiv_pos_site_id
 _symmetry_equiv_pos_as_xyz
  1  'x, y, z'
loop_
 _atom_site_type_symbol
 _atom_site_label
 _atom_site_symmetry_multiplicity
 _atom_site_fract_x
 _atom_site_fract_y
 _atom_site_fract_z
 _atom_site_occupancy
  Th  Th0  1  0.000000  0.407975  0.500000  1
  Th  Th1  1  0.578548  0.582960  0.500000  1
  Th  Th2  1  0.421452  0.004413  0.500000  1
  Al  Al3  1  0.234009  0.236196  0.000000  1
  Al  Al4  1  0.765991  0.002187  0.000000  1
  Sn  Sn5  1  0.000000  0.764012  0.000000  1
  Pt  Pt6  1  0.342077  0.660728  0.000000  1
  Pt  Pt7  1  0.657923  0.318650  0.000000  1
  Rh  Rh8  1  0.000000  0.022881  0.500000  1
