# generated using pymatgen
data_V10Ga6C
_symmetry_space_group_name_H-M   'P 1'
_cell_length_a   7.34644100
_cell_length_b   7.34644115
_cell_length_c   4.92043700
_cell_angle_alpha   90.00000000
_cell_angle_beta   90.00000000
_cell_angle_gamma   119.99999480
_symmetry_Int_Tables_number   1
_chemical_formula_structural   V10Ga6C
_chemical_formula_sum   'V10 Ga6 C1'
_cell_volume   229.97907841
_cell_formula_units_Z   1
loop_
 _symmetry_equiv_pos_site_id
 _symmetry_equiv_pos_as_xyz
  1  'x, y, z'
loop_
 _atom_site_type_symbol
 _atom_site_label
 _atom_site_symmetry_multiplicity
 _atom_site_fract_x
 _atom_site_fract_y
 _atom_site_fract_z
 _atom_site_occupancy
  V  V0  1  0.000000  0.770268  0.254154  1
  V  V1  1  0.229732  0.229732  0.254154  1
  V  V2  1  0.770268  0.000000  0.254154  1
  V  V3  1  0.000000  0.229732  0.745846  1
  V  V4  1  0.770268  0.770268  0.745846  1
  V  V5  1  0.229732  0.000000  0.745846  1
  V  V6  1  0.333333  0.666667  0.000000  1
  V  V7  1  0.666667  0.333333  0.000000  1
  V  V8  1  0.666667  0.333333  0.500000  1
  V  V9  1  0.333333  0.666667  0.500000  1
  Ga  Ga10  1  0.000000  0.400812  0.245667  1
  Ga  Ga11  1  0.599188  0.599188  0.245667  1
  Ga  Ga12  1  0.400812  0.000000  0.245667  1
  Ga  Ga13  1  0.000000  0.599188  0.754333  1
  Ga  Ga14  1  0.400812  0.400812  0.754333  1
  Ga  Ga15  1  0.599188  0.000000  0.754333  1
  C  C16  1  0.000000  0.000000  0.500000  1
