# generated using pymatgen
data_NdLu2Ga9Pd2
_symmetry_space_group_name_H-M   'P 1'
_cell_length_a   8.16416003
_cell_length_b   8.16415989
_cell_length_c   8.16416072
_cell_angle_alpha   149.15663777
_cell_angle_beta   109.53954752
_cell_angle_gamma   78.87036361
_symmetry_Int_Tables_number   1
_chemical_formula_structural   NdLu2Ga9Pd2
_chemical_formula_sum   'Nd1 Lu2 Ga9 Pd2'
_cell_volume   257.88766543
_cell_formula_units_Z   1
loop_
 _symmetry_equiv_pos_site_id
 _symmetry_equiv_pos_as_xyz
  1  'x, y, z'
loop_
 _atom_site_type_symbol
 _atom_site_label
 _atom_site_symmetry_multiplicity
 _atom_site_fract_x
 _atom_site_fract_y
 _atom_site_fract_z
 _atom_site_occupancy
  Nd  Nd0  1  0.500000  0.500000  0.000000  1
  Lu  Lu1  1  0.197926  0.197926  0.000000  1
  Lu  Lu2  1  0.802074  0.802074  0.000000  1
  Ga  Ga3  1  0.643871  0.359438  0.284433  1
  Ga  Ga4  1  0.356129  0.640562  0.715567  1
  Ga  Ga5  1  0.075005  0.359438  0.715567  1
  Ga  Ga6  1  0.924995  0.640562  0.284433  1
  Ga  Ga7  1  0.523878  0.158885  0.364992  1
  Ga  Ga8  1  0.476122  0.841115  0.635008  1
  Ga  Ga9  1  0.793894  0.158885  0.635008  1
  Ga  Ga10  1  0.206106  0.841115  0.364992  1
  Ga  Ga11  1  0.000000  0.500000  0.500000  1
  Pd  Pd12  1  0.182240  0.000000  0.182240  1
  Pd  Pd13  1  0.817760  0.000000  0.817760  1
