# generated using pymatgen
data_Lu12InTc3Bi
_symmetry_space_group_name_H-M   'P 1'
_cell_length_a   8.34805934
_cell_length_b   8.34805983
_cell_length_c   8.34806008
_cell_angle_alpha   108.67593561
_cell_angle_beta   109.35287804
_cell_angle_gamma   110.38945371
_symmetry_Int_Tables_number   1
_chemical_formula_structural   Lu12InTc3Bi
_chemical_formula_sum   'Lu12 In1 Tc3 Bi1'
_cell_volume   447.75047565
_cell_formula_units_Z   1
loop_
 _symmetry_equiv_pos_site_id
 _symmetry_equiv_pos_as_xyz
  1  'x, y, z'
loop_
 _atom_site_type_symbol
 _atom_site_label
 _atom_site_symmetry_multiplicity
 _atom_site_fract_x
 _atom_site_fract_y
 _atom_site_fract_z
 _atom_site_occupancy
  Lu  Lu0  1  0.303517  0.311456  0.614974  1
  Lu  Lu1  1  0.696483  0.688544  0.385026  1
  Lu  Lu2  1  0.696483  0.311456  0.007938  1
  Lu  Lu3  1  0.303517  0.688544  0.992062  1
  Lu  Lu4  1  0.187814  0.425794  0.237980  1
  Lu  Lu5  1  0.812186  0.574206  0.762020  1
  Lu  Lu6  1  0.187814  0.949834  0.762020  1
  Lu  Lu7  1  0.955993  0.192361  0.763632  1
  Lu  Lu8  1  0.812186  0.050166  0.237980  1
  Lu  Lu9  1  0.044007  0.807639  0.236368  1
  Lu  Lu10  1  0.428729  0.192361  0.236368  1
  Lu  Lu11  1  0.571271  0.807639  0.763632  1
  In  In12  1  0.000000  0.500000  0.500000  1
  Tc  Tc13  1  0.369078  0.369078  0.000000  1
  Tc  Tc14  1  0.630922  0.630922  0.000000  1
  Tc  Tc15  1  0.000000  0.000000  0.000000  1
  Bi  Bi16  1  0.500000  0.000000  0.500000  1
