# generated using pymatgen
data_Li3Sc2Tc3(P3Ir4)4
_symmetry_space_group_name_H-M   'P 1'
_cell_length_a   12.53674100
_cell_length_b   12.53674195
_cell_length_c   3.93725400
_cell_angle_alpha   90.00000000
_cell_angle_beta   90.00000000
_cell_angle_gamma   120.00000012
_symmetry_Int_Tables_number   1
_chemical_formula_structural   Li3Sc2Tc3(P3Ir4)4
_chemical_formula_sum   'Li3 Sc2 Tc3 P12 Ir16'
_cell_volume   535.91190480
_cell_formula_units_Z   1
loop_
 _symmetry_equiv_pos_site_id
 _symmetry_equiv_pos_as_xyz
  1  'x, y, z'
loop_
 _atom_site_type_symbol
 _atom_site_label
 _atom_site_symmetry_multiplicity
 _atom_site_fract_x
 _atom_site_fract_y
 _atom_site_fract_z
 _atom_site_occupancy
  Li  Li0  1  0.825914  0.000000  0.500000  1
  Li  Li1  1  0.000000  0.825914  0.500000  1
  Li  Li2  1  0.174086  0.174086  0.500000  1
  Sc  Sc3  1  0.333333  0.666667  0.000000  1
  Sc  Sc4  1  0.666667  0.333333  0.000000  1
  Tc  Tc5  1  0.456892  0.000000  0.000000  1
  Tc  Tc6  1  0.000000  0.456892  0.000000  1
  Tc  Tc7  1  0.543108  0.543108  0.000000  1
  P  P8  1  0.176416  0.000000  0.000000  1
  P  P9  1  0.000000  0.176416  0.000000  1
  P  P10  1  0.823584  0.823584  0.000000  1
  P  P11  1  0.168913  0.482031  0.500000  1
  P  P12  1  0.517969  0.686881  0.500000  1
  P  P13  1  0.313119  0.831087  0.500000  1
  P  P14  1  0.686881  0.517969  0.500000  1
  P  P15  1  0.831087  0.313119  0.500000  1
  P  P16  1  0.482031  0.168913  0.500000  1
  P  P17  1  0.642310  0.000000  0.000000  1
  P  P18  1  0.000000  0.642310  0.000000  1
  P  P19  1  0.357690  0.357690  0.000000  1
  Ir  Ir20  1  0.359690  0.493880  0.500000  1
  Ir  Ir21  1  0.506120  0.865809  0.500000  1
  Ir  Ir22  1  0.134191  0.640310  0.500000  1
  Ir  Ir23  1  0.865809  0.506120  0.500000  1
  Ir  Ir24  1  0.640310  0.134191  0.500000  1
  Ir  Ir25  1  0.493880  0.359690  0.500000  1
  Ir  Ir26  1  0.181645  0.377291  0.000000  1
  Ir  Ir27  1  0.622709  0.804356  0.000000  1
  Ir  Ir28  1  0.195644  0.818355  0.000000  1
  Ir  Ir29  1  0.804356  0.622709  0.000000  1
  Ir  Ir30  1  0.818355  0.195644  0.000000  1
  Ir  Ir31  1  0.377291  0.181645  0.000000  1
  Ir  Ir32  1  0.284627  0.000000  0.500000  1
  Ir  Ir33  1  0.000000  0.284627  0.500000  1
  Ir  Ir34  1  0.715373  0.715373  0.500000  1
  Ir  Ir35  1  0.000000  0.000000  0.000000  1
