# generated using pymatgen
data_LiNd2H8Rh
_symmetry_space_group_name_H-M   'P 1'
_cell_length_a   3.81347093
_cell_length_b   4.96422400
_cell_length_c   6.31337900
_cell_angle_alpha   90.00000000
_cell_angle_beta   107.51662369
_cell_angle_gamma   90.00000000
_symmetry_Int_Tables_number   1
_chemical_formula_structural   LiNd2H8Rh
_chemical_formula_sum   'Li1 Nd2 H8 Rh1'
_cell_volume   113.97600310
_cell_formula_units_Z   1
loop_
 _symmetry_equiv_pos_site_id
 _symmetry_equiv_pos_as_xyz
  1  'x, y, z'
loop_
 _atom_site_type_symbol
 _atom_site_label
 _atom_site_symmetry_multiplicity
 _atom_site_fract_x
 _atom_site_fract_y
 _atom_site_fract_z
 _atom_site_occupancy
  Li  Li0  1  0.601349  0.750000  0.702037  1
  Nd  Nd1  1  0.861808  0.750000  0.223130  1
  Nd  Nd2  1  0.132270  0.249999  0.764233  1
  H  H3  1  0.306391  0.006725  0.111866  1
  H  H4  1  0.306391  0.493274  0.111866  1
  H  H5  1  0.910469  0.249999  0.320784  1
  H  H6  1  0.502178  0.004990  0.505469  1
  H  H7  1  0.502178  0.495011  0.505469  1
  H  H8  1  0.074605  0.750000  0.649979  1
  H  H9  1  0.695970  0.485372  0.891782  1
  H  H10  1  0.695970  0.014627  0.891782  1
  Rh  Rh11  1  0.410418  0.249999  0.321601  1
