# generated using pymatgen
data_Ho2Er6Tc(B8Os)3
_symmetry_space_group_name_H-M   'P 1'
_cell_length_a   3.64024500
_cell_length_b   9.10592104
_cell_length_c   11.48527002
_cell_angle_alpha   89.95641929
_cell_angle_beta   90.00000000
_cell_angle_gamma   90.00000000
_symmetry_Int_Tables_number   1
_chemical_formula_structural   Ho2Er6Tc(B8Os)3
_chemical_formula_sum   'Ho2 Er6 Tc1 B24 Os3'
_cell_volume   380.71113412
_cell_formula_units_Z   1
loop_
 _symmetry_equiv_pos_site_id
 _symmetry_equiv_pos_as_xyz
  1  'x, y, z'
loop_
 _atom_site_type_symbol
 _atom_site_label
 _atom_site_symmetry_multiplicity
 _atom_site_fract_x
 _atom_site_fract_y
 _atom_site_fract_z
 _atom_site_occupancy
  Ho  Ho0  1  0.000000  0.323873  0.412947  1
  Ho  Ho1  1  0.000000  0.677189  0.583742  1
  Er  Er2  1  0.000000  0.820282  0.088205  1
  Er  Er3  1  0.000000  0.177728  0.914768  1
  Er  Er4  1  0.000000  0.943051  0.372665  1
  Er  Er5  1  0.000000  0.056578  0.627424  1
  Er  Er6  1  0.000000  0.444832  0.127940  1
  Er  Er7  1  0.000000  0.556328  0.872397  1
  Tc  Tc8  1  0.000000  0.637870  0.321118  1
  B  B9  1  0.500000  0.552939  0.433197  1
  B  B10  1  0.500000  0.446493  0.567139  1
  B  B11  1  0.500000  0.053506  0.066788  1
  B  B12  1  0.500000  0.946510  0.933421  1
  B  B13  1  0.500000  0.748385  0.419670  1
  B  B14  1  0.500000  0.251733  0.580232  1
  B  B15  1  0.500000  0.248577  0.079981  1
  B  B16  1  0.500000  0.751518  0.919968  1
  B  B17  1  0.500000  0.791942  0.266152  1
  B  B18  1  0.500000  0.208384  0.733764  1
  B  B19  1  0.500000  0.291476  0.233123  1
  B  B20  1  0.500000  0.708878  0.766323  1
  B  B21  1  0.500000  0.631712  0.185498  1
  B  B22  1  0.500000  0.368118  0.814926  1
  B  B23  1  0.500000  0.131552  0.314201  1
  B  B24  1  0.500000  0.868715  0.685343  1
  B  B25  1  0.500000  0.982583  0.212776  1
  B  B26  1  0.500000  0.017357  0.787490  1
  B  B27  1  0.500000  0.482308  0.287121  1
  B  B28  1  0.500000  0.516932  0.712970  1
  B  B29  1  0.500000  0.607137  0.029289  1
  B  B30  1  0.500000  0.392686  0.970098  1
  B  B31  1  0.500000  0.107332  0.470367  1
  B  B32  1  0.500000  0.893665  0.529981  1
  Os  Os33  1  0.000000  0.361740  0.679486  1
  Os  Os34  1  0.000000  0.137468  0.177980  1
  Os  Os35  1  0.000000  0.862624  0.821515  1
