# generated using pymatgen
data_Ga2Te2ICl13
_symmetry_space_group_name_H-M   'P 1'
_cell_length_a   6.61251793
_cell_length_b   6.97106931
_cell_length_c   15.44804717
_cell_angle_alpha   76.42396945
_cell_angle_beta   90.71074402
_cell_angle_gamma   90.31402229
_symmetry_Int_Tables_number   1
_chemical_formula_structural   Ga2Te2ICl13
_chemical_formula_sum   'Ga2 Te2 I1 Cl13'
_cell_volume   692.14593333
_cell_formula_units_Z   1
loop_
 _symmetry_equiv_pos_site_id
 _symmetry_equiv_pos_as_xyz
  1  'x, y, z'
loop_
 _atom_site_type_symbol
 _atom_site_label
 _atom_site_symmetry_multiplicity
 _atom_site_fract_x
 _atom_site_fract_y
 _atom_site_fract_z
 _atom_site_occupancy
  Ga  Ga0  1  0.493927  0.716026  0.804435  1
  Ga  Ga1  1  0.506927  0.715179  0.312015  1
  Te  Te2  1  0.084741  0.991294  0.656588  1
  Te  Te3  1  0.914589  0.992609  0.162515  1
  I  I4  1  0.119159  0.870565  0.033515  1
  Cl  Cl5  1  0.827201  0.705883  0.804703  1
  Cl  Cl6  1  0.172207  0.706288  0.308474  1
  Cl  Cl7  1  0.365587  0.514030  0.918621  1
  Cl  Cl8  1  0.628644  0.502850  0.425393  1
  Cl  Cl9  1  0.374836  0.658088  0.676376  1
  Cl  Cl10  1  0.624081  0.658842  0.184118  1
  Cl  Cl11  1  0.388218  0.023360  0.799268  1
  Cl  Cl12  1  0.614593  0.018974  0.310255  1
  Cl  Cl13  1  0.305445  0.185478  0.555661  1
  Cl  Cl14  1  0.684989  0.191035  0.063869  1
  Cl  Cl15  1  0.886435  0.259460  0.672379  1
  Cl  Cl16  1  0.120075  0.261749  0.177197  1
  Cl  Cl17  1  0.888345  0.895688  0.546516  1
