# generated using pymatgen
data_Yb11GaP9
_symmetry_space_group_name_H-M   'P 1'
_cell_length_a   10.78730740
_cell_length_b   10.78730696
_cell_length_c   10.78730700
_cell_angle_alpha   120.94364857
_cell_angle_beta   117.73512910
_cell_angle_gamma   91.17008228
_symmetry_Int_Tables_number   1
_chemical_formula_structural   Yb11GaP9
_chemical_formula_sum   'Yb22 Ga2 P18'
_cell_volume   895.41782241
_cell_formula_units_Z   2
loop_
 _symmetry_equiv_pos_site_id
 _symmetry_equiv_pos_as_xyz
  1  'x, y, z'
loop_
 _atom_site_type_symbol
 _atom_site_label
 _atom_site_symmetry_multiplicity
 _atom_site_fract_x
 _atom_site_fract_y
 _atom_site_fract_z
 _atom_site_occupancy
  Yb  Yb0  1  0.809455  0.183518  0.255317  1
  Yb  Yb1  1  0.679009  0.679009  0.000000  1
  Yb  Yb2  1  0.114809  0.750949  0.181001  1
  Yb  Yb3  1  0.928201  0.554138  0.744683  1
  Yb  Yb4  1  0.326972  0.661057  0.987283  1
  Yb  Yb5  1  0.614809  0.433809  0.363860  1
  Yb  Yb6  1  0.826972  0.839689  0.665915  1
  Yb  Yb7  1  0.673774  0.339689  0.012717  1
  Yb  Yb8  1  0.179009  0.179009  0.000000  1
  Yb  Yb9  1  0.934403  0.729503  0.350943  1
  Yb  Yb10  1  0.428201  0.683518  0.374063  1
  Yb  Yb11  1  0.574745  0.313306  0.630417  1
  Yb  Yb12  1  0.569949  0.933809  0.818999  1
  Yb  Yb13  1  0.682888  0.944328  0.369583  1
  Yb  Yb14  1  0.878559  0.229503  0.795101  1
  Yb  Yb15  1  0.173774  0.161057  0.334085  1
  Yb  Yb16  1  0.182888  0.813306  0.738560  1
  Yb  Yb17  1  0.309455  0.054138  0.625937  1
  Yb  Yb18  1  0.378559  0.583459  0.649057  1
  Yb  Yb19  1  0.069949  0.250949  0.636140  1
  Yb  Yb20  1  0.434403  0.083459  0.204899  1
  Yb  Yb21  1  0.074745  0.444328  0.261440  1
  Ga  Ga22  1  0.394268  0.394268  0.000000  1
  Ga  Ga23  1  0.894268  0.894268  0.000000  1
  P  P24  1  0.115428  0.874941  0.987024  1
  P  P25  1  0.448699  0.169350  0.992880  1
  P  P26  1  0.615428  0.628404  0.240487  1
  P  P27  1  0.592241  0.027964  0.626778  1
  P  P28  1  0.750828  0.250828  0.500000  1
  P  P29  1  0.401186  0.965464  0.373222  1
  P  P30  1  0.676471  0.669350  0.720652  1
  P  P31  1  0.250828  0.750828  0.500000  1
  P  P32  1  0.176471  0.455819  0.007120  1
  P  P33  1  0.901186  0.527964  0.435722  1
  P  P34  1  0.887916  0.128404  0.012976  1
  P  P35  1  0.948699  0.955819  0.279348  1
  P  P36  1  0.092241  0.465464  0.564278  1
  P  P37  1  0.860368  0.504355  0.001612  1
  P  P38  1  0.360368  0.358755  0.356013  1
  P  P39  1  0.002742  0.004355  0.643987  1
  P  P40  1  0.387916  0.374941  0.759513  1
  P  P41  1  0.502742  0.858755  0.998388  1
