# generated using pymatgen
data_Hf8In4Cu3Rh5
_symmetry_space_group_name_H-M   'P 1'
_cell_length_a   7.43109324
_cell_length_b   7.45369824
_cell_length_c   6.68134666
_cell_angle_alpha   90.05703974
_cell_angle_beta   89.98904442
_cell_angle_gamma   89.79883637
_symmetry_Int_Tables_number   1
_chemical_formula_structural   Hf8In4Cu3Rh5
_chemical_formula_sum   'Hf8 In4 Cu3 Rh5'
_cell_volume   370.07148478
_cell_formula_units_Z   1
loop_
 _symmetry_equiv_pos_site_id
 _symmetry_equiv_pos_as_xyz
  1  'x, y, z'
loop_
 _atom_site_type_symbol
 _atom_site_label
 _atom_site_symmetry_multiplicity
 _atom_site_fract_x
 _atom_site_fract_y
 _atom_site_fract_z
 _atom_site_occupancy
  Hf  Hf0  1  0.147718  0.159598  0.002502  1
  Hf  Hf1  1  0.831517  0.845230  0.997300  1
  Hf  Hf2  1  0.667951  0.339824  0.496870  1
  Hf  Hf3  1  0.353226  0.653013  0.496551  1
  Hf  Hf4  1  0.682631  0.325079  0.002704  1
  Hf  Hf5  1  0.332764  0.677608  0.002098  1
  Hf  Hf6  1  0.812543  0.827548  0.501402  1
  Hf  Hf7  1  0.169529  0.185343  0.497879  1
  In  In8  1  0.492490  0.002598  0.249238  1
  In  In9  1  0.491749  0.004442  0.749368  1
  In  In10  1  0.004335  0.508723  0.247723  1
  In  In11  1  0.004472  0.507567  0.749338  1
  Cu  Cu12  1  0.369879  0.367241  0.779138  1
  Cu  Cu13  1  0.128937  0.868839  0.283707  1
  Cu  Cu14  1  0.130652  0.868668  0.717320  1
  Rh  Rh15  1  0.369480  0.367080  0.229209  1
  Rh  Rh16  1  0.620505  0.619484  0.765210  1
  Rh  Rh17  1  0.633461  0.630446  0.232130  1
  Rh  Rh18  1  0.877107  0.121040  0.734211  1
  Rh  Rh19  1  0.879053  0.120630  0.266106  1
