# generated using pymatgen
data_Mn(Nb2S5)4
_symmetry_space_group_name_H-M   'P 1'
_cell_length_a   10.16641819
_cell_length_b   10.16641822
_cell_length_c   18.76327288
_cell_angle_alpha   75.86784750
_cell_angle_beta   75.86784770
_cell_angle_gamma   19.15235551
_symmetry_Int_Tables_number   1
_chemical_formula_structural   Mn(Nb2S5)4
_chemical_formula_sum   'Mn1 Nb8 S20'
_cell_volume   616.43445163
_cell_formula_units_Z   1
loop_
 _symmetry_equiv_pos_site_id
 _symmetry_equiv_pos_as_xyz
  1  'x, y, z'
loop_
 _atom_site_type_symbol
 _atom_site_label
 _atom_site_symmetry_multiplicity
 _atom_site_fract_x
 _atom_site_fract_y
 _atom_site_fract_z
 _atom_site_occupancy
  Mn  Mn0  1  0.500000  0.500000  0.000000  1
  Nb  Nb1  1  0.076211  0.076211  0.089822  1
  Nb  Nb2  1  0.923789  0.923789  0.910178  1
  Nb  Nb3  1  0.331851  0.331851  0.811643  1
  Nb  Nb4  1  0.668149  0.668149  0.188357  1
  Nb  Nb5  1  0.267996  0.267996  0.279422  1
  Nb  Nb6  1  0.732004  0.732004  0.720578  1
  Nb  Nb7  1  0.158227  0.158227  0.555387  1
  Nb  Nb8  1  0.841773  0.841773  0.444613  1
  S  S9  1  0.437975  0.437975  0.399450  1
  S  S10  1  0.562025  0.562025  0.600550  1
  S  S11  1  0.400390  0.400390  0.511423  1
  S  S12  1  0.599610  0.599610  0.488577  1
  S  S13  1  0.148316  0.148316  0.694146  1
  S  S14  1  0.851684  0.851684  0.305854  1
  S  S15  1  0.385567  0.385567  0.008182  1
  S  S16  1  0.614433  0.614433  0.991818  1
  S  S17  1  0.204894  0.204894  0.821837  1
  S  S18  1  0.795106  0.795106  0.178163  1
  S  S19  1  0.253478  0.253478  0.429095  1
  S  S20  1  0.746522  0.746522  0.570905  1
  S  S21  1  0.327001  0.327001  0.679575  1
  S  S22  1  0.672999  0.672999  0.320425  1
  S  S23  1  0.483320  0.483320  0.124576  1
  S  S24  1  0.516680  0.516680  0.875424  1
  S  S25  1  0.201270  0.201270  0.089690  1
  S  S26  1  0.798730  0.798730  0.910310  1
  S  S27  1  0.075000  0.075000  0.225051  1
  S  S28  1  0.925000  0.925000  0.774949  1
