# generated using pymatgen
data_Sc12Pt3I16
_symmetry_space_group_name_H-M   'P 1'
_cell_length_a   9.54799191
_cell_length_b   11.87169697
_cell_length_c   12.49687763
_cell_angle_alpha   116.94820360
_cell_angle_beta   101.77918077
_cell_angle_gamma   101.23197584
_symmetry_Int_Tables_number   1
_chemical_formula_structural   Sc12Pt3I16
_chemical_formula_sum   'Sc12 Pt3 I16'
_cell_volume   1167.21754296
_cell_formula_units_Z   1
loop_
 _symmetry_equiv_pos_site_id
 _symmetry_equiv_pos_as_xyz
  1  'x, y, z'
loop_
 _atom_site_type_symbol
 _atom_site_label
 _atom_site_symmetry_multiplicity
 _atom_site_fract_x
 _atom_site_fract_y
 _atom_site_fract_z
 _atom_site_occupancy
  Sc  Sc0  1  0.089560  0.275389  0.361856  1
  Sc  Sc1  1  0.910440  0.724611  0.638144  1
  Sc  Sc2  1  0.780684  0.534294  0.332884  1
  Sc  Sc3  1  0.219316  0.465706  0.667116  1
  Sc  Sc4  1  0.273869  0.725539  0.638139  1
  Sc  Sc5  1  0.726131  0.274461  0.361861  1
  Sc  Sc6  1  0.143973  0.534536  0.333548  1
  Sc  Sc7  1  0.856027  0.465464  0.666452  1
  Sc  Sc8  1  0.406606  0.359903  0.275702  1
  Sc  Sc9  1  0.593394  0.640097  0.724298  1
  Sc  Sc10  1  0.458935  0.309863  0.521075  1
  Sc  Sc11  1  0.541065  0.690137  0.478925  1
  Pt  Pt12  1  0.000000  0.500000  0.500000  1
  Pt  Pt13  1  0.346425  0.500509  0.498630  1
  Pt  Pt14  1  0.653576  0.499491  0.501370  1
  I  I15  1  0.397861  0.741877  0.885542  1
  I  I16  1  0.602139  0.258123  0.114458  1
  I  I17  1  0.186179  0.959130  0.779786  1
  I  I18  1  0.813821  0.040870  0.220214  1
  I  I19  1  0.337156  0.092146  0.249172  1
  I  I20  1  0.662844  0.907854  0.750828  1
  I  I21  1  0.556582  0.437975  0.802580  1
  I  I22  1  0.443418  0.562025  0.197420  1
  I  I23  1  0.309321  0.826931  0.461201  1
  I  I24  1  0.690679  0.173069  0.538799  1
  I  I25  1  0.168379  0.171610  0.534564  1
  I  I26  1  0.831621  0.828390  0.465436  1
  I  I27  1  0.925971  0.573287  0.162688  1
  I  I28  1  0.074029  0.426713  0.837312  1
  I  I29  1  0.922733  0.739750  0.885675  1
  I  I30  1  0.077267  0.260250  0.114325  1
