# generated using pymatgen
data_Rb8Dy6SiBr20
_symmetry_space_group_name_H-M   'P 1'
_cell_length_a   12.35852376
_cell_length_b   12.35610732
_cell_length_c   12.35853307
_cell_angle_alpha   60.00567783
_cell_angle_beta   60.00218820
_cell_angle_gamma   60.00578175
_symmetry_Int_Tables_number   1
_chemical_formula_structural   Rb8Dy6SiBr20
_chemical_formula_sum   'Rb8 Dy6 Si1 Br20'
_cell_volume   1334.58114388
_cell_formula_units_Z   1
loop_
 _symmetry_equiv_pos_site_id
 _symmetry_equiv_pos_as_xyz
  1  'x, y, z'
loop_
 _atom_site_type_symbol
 _atom_site_label
 _atom_site_symmetry_multiplicity
 _atom_site_fract_x
 _atom_site_fract_y
 _atom_site_fract_z
 _atom_site_occupancy
  Rb  Rb0  1  0.358778  0.358785  0.358778  1
  Rb  Rb1  1  0.641222  0.641215  0.641222  1
  Rb  Rb2  1  0.358783  0.358775  0.923666  1
  Rb  Rb3  1  0.358784  0.923648  0.358784  1
  Rb  Rb4  1  0.641217  0.641225  0.076334  1
  Rb  Rb5  1  0.641216  0.076352  0.641216  1
  Rb  Rb6  1  0.923667  0.358776  0.358781  1
  Rb  Rb7  1  0.076333  0.641224  0.641219  1
  Dy  Dy8  1  0.842202  0.157716  0.157800  1
  Dy  Dy9  1  0.157798  0.842284  0.842200  1
  Dy  Dy10  1  0.157754  0.842248  0.157754  1
  Dy  Dy11  1  0.842246  0.157752  0.842246  1
  Dy  Dy12  1  0.157800  0.157716  0.842202  1
  Dy  Dy13  1  0.842200  0.842284  0.157798  1
  Si  Si14  1  0.000000  0.000000  0.000000  1
  Br  Br15  1  0.329776  0.000014  0.000003  1
  Br  Br16  1  0.670224  0.999986  0.999997  1
  Br  Br17  1  0.999999  0.329793  0.670221  1
  Br  Br18  1  0.000001  0.670207  0.329779  1
  Br  Br19  1  0.000001  0.329779  0.000001  1
  Br  Br20  1  0.670221  0.000000  0.329778  1
  Br  Br21  1  0.999999  0.670221  0.999999  1
  Br  Br22  1  0.329779  0.000000  0.670222  1
  Br  Br23  1  0.000003  0.000014  0.329775  1
  Br  Br24  1  0.999997  0.999986  0.670225  1
  Br  Br25  1  0.670221  0.329792  0.999999  1
  Br  Br26  1  0.329779  0.670208  0.000001  1
  Br  Br27  1  0.678207  0.321798  0.321793  1
  Br  Br28  1  0.321793  0.678202  0.678207  1
  Br  Br29  1  0.321796  0.678204  0.321796  1
  Br  Br30  1  0.678204  0.321796  0.678204  1
  Br  Br31  1  0.321793  0.321797  0.678207  1
  Br  Br32  1  0.678207  0.678203  0.321793  1
  Br  Br33  1  0.250001  0.249999  0.250001  1
  Br  Br34  1  0.749999  0.750001  0.749999  1
