# generated using pymatgen
data_V2(Fe7B2)3
_symmetry_space_group_name_H-M   'P 1'
_cell_length_a   7.49856700
_cell_length_b   7.49856609
_cell_length_c   7.49856700
_cell_angle_alpha   119.99999959
_cell_angle_beta   90.00000000
_cell_angle_gamma   119.99999959
_symmetry_Int_Tables_number   1
_chemical_formula_structural   V2(Fe7B2)3
_chemical_formula_sum   'V2 Fe21 B6'
_cell_volume   298.13968198
_cell_formula_units_Z   1
loop_
 _symmetry_equiv_pos_site_id
 _symmetry_equiv_pos_as_xyz
  1  'x, y, z'
loop_
 _atom_site_type_symbol
 _atom_site_label
 _atom_site_symmetry_multiplicity
 _atom_site_fract_x
 _atom_site_fract_y
 _atom_site_fract_z
 _atom_site_occupancy
  V  V0  1  0.749999  0.499999  0.250000  1
  V  V1  1  0.250000  0.499999  0.749999  1
  Fe  Fe2  1  0.000000  0.000000  0.000000  1
  Fe  Fe3  1  0.341664  0.000000  0.000000  1
  Fe  Fe4  1  0.658337  0.000000  0.000000  1
  Fe  Fe5  1  0.000000  0.341664  0.000000  1
  Fe  Fe6  1  0.341664  0.341664  0.000000  1
  Fe  Fe7  1  0.000000  0.658337  0.000000  1
  Fe  Fe8  1  0.658337  0.658337  0.000000  1
  Fe  Fe9  1  0.380922  0.761845  0.142768  1
  Fe  Fe10  1  0.000000  0.000000  0.341664  1
  Fe  Fe11  1  0.000000  0.341664  0.341664  1
  Fe  Fe12  1  0.341664  0.341664  0.341664  1
  Fe  Fe13  1  0.619077  0.238154  0.380922  1
  Fe  Fe14  1  0.142768  0.761845  0.380922  1
  Fe  Fe15  1  0.619077  0.761845  0.380922  1
  Fe  Fe16  1  0.380922  0.238154  0.619077  1
  Fe  Fe17  1  0.380922  0.761845  0.619077  1
  Fe  Fe18  1  0.857232  0.238154  0.619078  1
  Fe  Fe19  1  0.000000  0.000000  0.658337  1
  Fe  Fe20  1  0.000000  0.658337  0.658337  1
  Fe  Fe21  1  0.658337  0.658337  0.658337  1
  Fe  Fe22  1  0.619078  0.238154  0.857232  1
  B  B23  1  0.275719  0.000000  0.275719  1
  B  B24  1  0.724282  0.000000  0.275719  1
  B  B25  1  0.275719  0.551436  0.275719  1
  B  B26  1  0.724281  0.000000  0.724281  1
  B  B27  1  0.275719  0.000000  0.724282  1
  B  B28  1  0.724282  0.448564  0.724282  1
