# generated using pymatgen
data_LiTbB14
_symmetry_space_group_name_H-M   'P 1'
_cell_length_a   7.26814628
_cell_length_b   7.26814689
_cell_length_c   7.26814674
_cell_angle_alpha   132.31070871
_cell_angle_beta   110.91319805
_cell_angle_gamma   88.27491075
_symmetry_Int_Tables_number   1
_chemical_formula_structural   LiTbB14
_chemical_formula_sum   'Li2 Tb2 B28'
_cell_volume   252.65134408
_cell_formula_units_Z   2
loop_
 _symmetry_equiv_pos_site_id
 _symmetry_equiv_pos_as_xyz
  1  'x, y, z'
loop_
 _atom_site_type_symbol
 _atom_site_label
 _atom_site_symmetry_multiplicity
 _atom_site_fract_x
 _atom_site_fract_y
 _atom_site_fract_z
 _atom_site_occupancy
  Li  Li0  1  0.000000  0.000000  0.500000  1
  Li  Li1  1  0.000000  0.500000  0.000000  1
  Tb  Tb2  1  0.620511  0.250000  0.370511  1
  Tb  Tb3  1  0.379489  0.750000  0.629489  1
  B  B4  1  0.638139  0.665823  0.972316  1
  B  B5  1  0.361861  0.334177  0.027684  1
  B  B6  1  0.193507  0.165823  0.027684  1
  B  B7  1  0.806493  0.834177  0.972316  1
  B  B8  1  0.777769  0.149064  0.628705  1
  B  B9  1  0.222231  0.850936  0.371295  1
  B  B10  1  0.020357  0.649064  0.371295  1
  B  B11  1  0.979643  0.350936  0.628705  1
  B  B12  1  0.916245  0.089161  0.827085  1
  B  B13  1  0.083755  0.910839  0.172915  1
  B  B14  1  0.762076  0.589161  0.172915  1
  B  B15  1  0.237924  0.410839  0.827085  1
  B  B16  1  0.398353  0.400187  0.681619  1
  B  B17  1  0.601647  0.283265  0.001834  1
  B  B18  1  0.218569  0.900187  0.001834  1
  B  B19  1  0.781431  0.783265  0.681619  1
  B  B20  1  0.601647  0.599813  0.318381  1
  B  B21  1  0.398353  0.716735  0.998166  1
  B  B22  1  0.781431  0.099813  0.998166  1
  B  B23  1  0.218569  0.216735  0.318381  1
  B  B24  1  0.033452  0.830011  0.703491  1
  B  B25  1  0.966548  0.670039  0.796559  1
  B  B26  1  0.626520  0.330011  0.796559  1
  B  B27  1  0.373480  0.170039  0.703491  1
  B  B28  1  0.966548  0.169989  0.296509  1
  B  B29  1  0.033452  0.329961  0.203441  1
  B  B30  1  0.373480  0.669989  0.203441  1
  B  B31  1  0.626520  0.829961  0.296509  1
