# generated using pymatgen
data_Ho2Ni12As2P5
_symmetry_space_group_name_H-M   'P 1'
_cell_length_a   9.19536613
_cell_length_b   9.13502287
_cell_length_c   3.68292900
_cell_angle_alpha   90.00000000
_cell_angle_beta   90.00000000
_cell_angle_gamma   119.81260774
_symmetry_Int_Tables_number   1
_chemical_formula_structural   Ho2Ni12As2P5
_chemical_formula_sum   'Ho2 Ni12 As2 P5'
_cell_volume   268.42293695
_cell_formula_units_Z   1
loop_
 _symmetry_equiv_pos_site_id
 _symmetry_equiv_pos_as_xyz
  1  'x, y, z'
loop_
 _atom_site_type_symbol
 _atom_site_label
 _atom_site_symmetry_multiplicity
 _atom_site_fract_x
 _atom_site_fract_y
 _atom_site_fract_z
 _atom_site_occupancy
  Ho  Ho0  1  0.667207  0.332801  0.000000  1
  Ho  Ho1  1  0.338034  0.665871  0.500000  1
  Ni  Ni2  1  0.062004  0.428389  0.000000  1
  Ni  Ni3  1  0.558317  0.621244  0.000000  1
  Ni  Ni4  1  0.389597  0.948744  0.000000  1
  Ni  Ni5  1  0.287076  0.157299  0.000000  1
  Ni  Ni6  1  0.841268  0.125489  0.000000  1
  Ni  Ni7  1  0.862866  0.715594  0.000000  1
  Ni  Ni8  1  0.434445  0.380306  0.500000  1
  Ni  Ni9  1  0.620218  0.052358  0.500000  1
  Ni  Ni10  1  0.938407  0.561544  0.500000  1
  Ni  Ni11  1  0.109181  0.242549  0.500000  1
  Ni  Ni12  1  0.751421  0.859997  0.500000  1
  Ni  Ni13  1  0.132895  0.907031  0.500000  1
  As  As14  1  0.116709  0.710923  0.000000  1
  As  As15  1  0.001954  0.002098  0.000000  1
  P  P16  1  0.293159  0.405029  0.000000  1
  P  P17  1  0.595409  0.885464  0.000000  1
  P  P18  1  0.410230  0.112348  0.500000  1
  P  P19  1  0.888537  0.295164  0.500000  1
  P  P20  1  0.701064  0.589760  0.500000  1
