# generated using pymatgen
data_Pa2B6W
_symmetry_space_group_name_H-M   'P 1'
_cell_length_a   3.75916100
_cell_length_b   9.38713200
_cell_length_c   11.52420000
_cell_angle_alpha   90.00000000
_cell_angle_beta   90.00000000
_cell_angle_gamma   90.00000000
_symmetry_Int_Tables_number   1
_chemical_formula_structural   Pa2B6W
_chemical_formula_sum   'Pa8 B24 W4'
_cell_volume   406.66297926
_cell_formula_units_Z   4
loop_
 _symmetry_equiv_pos_site_id
 _symmetry_equiv_pos_as_xyz
  1  'x, y, z'
loop_
 _atom_site_type_symbol
 _atom_site_label
 _atom_site_symmetry_multiplicity
 _atom_site_fract_x
 _atom_site_fract_y
 _atom_site_fract_z
 _atom_site_occupancy
  Pa  Pa0  1  0.000000  0.334037  0.408274  1
  Pa  Pa1  1  0.000000  0.665963  0.591726  1
  Pa  Pa2  1  0.000000  0.834037  0.091726  1
  Pa  Pa3  1  0.000000  0.165963  0.908274  1
  Pa  Pa4  1  0.000000  0.952584  0.387181  1
  Pa  Pa5  1  0.000000  0.047416  0.612819  1
  Pa  Pa6  1  0.000000  0.452584  0.112819  1
  Pa  Pa7  1  0.000000  0.547416  0.887181  1
  B  B8  1  0.500000  0.550374  0.432418  1
  B  B9  1  0.500000  0.449626  0.567582  1
  B  B10  1  0.500000  0.050374  0.067582  1
  B  B11  1  0.500000  0.949626  0.932418  1
  B  B12  1  0.500000  0.742245  0.423675  1
  B  B13  1  0.500000  0.257755  0.576325  1
  B  B14  1  0.500000  0.242245  0.076325  1
  B  B15  1  0.500000  0.757755  0.923675  1
  B  B16  1  0.500000  0.800965  0.273811  1
  B  B17  1  0.500000  0.199035  0.726189  1
  B  B18  1  0.500000  0.300965  0.226189  1
  B  B19  1  0.500000  0.699035  0.773811  1
  B  B20  1  0.500000  0.644816  0.188582  1
  B  B21  1  0.500000  0.355184  0.811418  1
  B  B22  1  0.500000  0.144816  0.311418  1
  B  B23  1  0.500000  0.855184  0.688582  1
  B  B24  1  0.500000  0.987720  0.217619  1
  B  B25  1  0.500000  0.012280  0.782381  1
  B  B26  1  0.500000  0.487720  0.282381  1
  B  B27  1  0.500000  0.512280  0.717619  1
  B  B28  1  0.500000  0.643235  0.039858  1
  B  B29  1  0.500000  0.356765  0.960142  1
  B  B30  1  0.500000  0.143235  0.460142  1
  B  B31  1  0.500000  0.856765  0.539858  1
  W  W32  1  0.000000  0.644610  0.320399  1
  W  W33  1  0.000000  0.355390  0.679601  1
  W  W34  1  0.000000  0.144610  0.179601  1
  W  W35  1  0.000000  0.855390  0.820399  1
