# generated using pymatgen
data_Ac3(ZnSb3)2
_symmetry_space_group_name_H-M   'P 1'
_cell_length_a   4.41943600
_cell_length_b   10.87220000
_cell_length_c   13.88121600
_cell_angle_alpha   90.00000000
_cell_angle_beta   90.00000000
_cell_angle_gamma   90.00000000
_symmetry_Int_Tables_number   1
_chemical_formula_structural   Ac3(ZnSb3)2
_chemical_formula_sum   'Ac6 Zn4 Sb12'
_cell_volume   666.97843763
_cell_formula_units_Z   2
loop_
 _symmetry_equiv_pos_site_id
 _symmetry_equiv_pos_as_xyz
  1  'x, y, z'
loop_
 _atom_site_type_symbol
 _atom_site_label
 _atom_site_symmetry_multiplicity
 _atom_site_fract_x
 _atom_site_fract_y
 _atom_site_fract_z
 _atom_site_occupancy
  Ac  Ac0  1  0.750000  0.248132  0.750000  1
  Ac  Ac1  1  0.750000  0.259519  0.411007  1
  Ac  Ac2  1  0.250000  0.740481  0.911007  1
  Ac  Ac3  1  0.250000  0.740481  0.588993  1
  Ac  Ac4  1  0.250000  0.751868  0.250000  1
  Ac  Ac5  1  0.750000  0.259519  0.088993  1
  Zn  Zn6  1  0.250000  0.002487  0.092963  1
  Zn  Zn7  1  0.250000  0.002487  0.407037  1
  Zn  Zn8  1  0.750000  0.997513  0.592963  1
  Zn  Zn9  1  0.750000  0.997513  0.907037  1
  Sb  Sb10  1  0.750000  0.504779  0.250000  1
  Sb  Sb11  1  0.750000  0.493165  0.916397  1
  Sb  Sb12  1  0.750000  0.850382  0.750000  1
  Sb  Sb13  1  0.750000  0.853464  0.421675  1
  Sb  Sb14  1  0.250000  0.146536  0.921675  1
  Sb  Sb15  1  0.250000  0.146536  0.578325  1
  Sb  Sb16  1  0.250000  0.149618  0.250000  1
  Sb  Sb17  1  0.250000  0.506835  0.083603  1
  Sb  Sb18  1  0.250000  0.495221  0.750000  1
  Sb  Sb19  1  0.250000  0.506835  0.416397  1
  Sb  Sb20  1  0.750000  0.493165  0.583603  1
  Sb  Sb21  1  0.750000  0.853464  0.078325  1
