# generated using pymatgen
data_Pr2Zn2GePIr4
_symmetry_space_group_name_H-M   'P 1'
_cell_length_a   4.11437100
_cell_length_b   4.11437100
_cell_length_c   10.76464400
_cell_angle_alpha   90.00000000
_cell_angle_beta   90.00000000
_cell_angle_gamma   90.00000000
_symmetry_Int_Tables_number   1
_chemical_formula_structural   Pr2Zn2GePIr4
_chemical_formula_sum   'Pr2 Zn2 Ge1 P1 Ir4'
_cell_volume   182.22441815
_cell_formula_units_Z   1
loop_
 _symmetry_equiv_pos_site_id
 _symmetry_equiv_pos_as_xyz
  1  'x, y, z'
loop_
 _atom_site_type_symbol
 _atom_site_label
 _atom_site_symmetry_multiplicity
 _atom_site_fract_x
 _atom_site_fract_y
 _atom_site_fract_z
 _atom_site_occupancy
  Pr  Pr0  1  0.000000  0.500000  0.252613  1
  Pr  Pr1  1  0.500000  0.000000  0.750600  1
  Zn  Zn2  1  0.000000  0.000000  0.503931  1
  Zn  Zn3  1  0.500000  0.500000  0.503931  1
  Ge  Ge4  1  0.500000  0.000000  0.125732  1
  P  P5  1  0.000000  0.500000  0.874263  1
  Ir  Ir6  1  0.000000  0.500000  0.658197  1
  Ir  Ir7  1  0.500000  0.000000  0.354397  1
  Ir  Ir8  1  0.000000  0.000000  0.988168  1
  Ir  Ir9  1  0.500000  0.500000  0.988168  1
