# generated using pymatgen
data_Dy2Lu10Tc3Os
_symmetry_space_group_name_H-M   'P 1'
_cell_length_a   6.14864036
_cell_length_b   7.39204689
_cell_length_c   8.87301300
_cell_angle_alpha   90.00000000
_cell_angle_beta   90.00000000
_cell_angle_gamma   90.14058384
_symmetry_Int_Tables_number   1
_chemical_formula_structural   Dy2Lu10Tc3Os
_chemical_formula_sum   'Dy2 Lu10 Tc3 Os1'
_cell_volume   403.28643592
_cell_formula_units_Z   1
loop_
 _symmetry_equiv_pos_site_id
 _symmetry_equiv_pos_as_xyz
  1  'x, y, z'
loop_
 _atom_site_type_symbol
 _atom_site_label
 _atom_site_symmetry_multiplicity
 _atom_site_fract_x
 _atom_site_fract_y
 _atom_site_fract_z
 _atom_site_occupancy
  Dy  Dy0  1  0.876833  0.539888  0.250000  1
  Dy  Dy1  1  0.623934  0.037665  0.250000  1
  Lu  Lu2  1  0.343218  0.673981  0.059673  1
  Lu  Lu3  1  0.154136  0.175201  0.439179  1
  Lu  Lu4  1  0.656578  0.327329  0.564345  1
  Lu  Lu5  1  0.843963  0.824107  0.935418  1
  Lu  Lu6  1  0.656578  0.327329  0.935655  1
  Lu  Lu7  1  0.843963  0.824107  0.564582  1
  Lu  Lu8  1  0.343218  0.673981  0.440327  1
  Lu  Lu9  1  0.154136  0.175201  0.060821  1
  Lu  Lu10  1  0.128449  0.457610  0.750000  1
  Lu  Lu11  1  0.374994  0.961256  0.750000  1
  Tc  Tc12  1  0.046666  0.881046  0.250000  1
  Tc  Tc13  1  0.456001  0.381740  0.250000  1
  Tc  Tc14  1  0.957373  0.118695  0.750000  1
  Os  Os15  1  0.539957  0.620865  0.750000  1
