# generated using pymatgen
data_Ho2Pa2Ga6Ir7
_symmetry_space_group_name_H-M   'P 1'
_cell_length_a   7.25590309
_cell_length_b   7.25590274
_cell_length_c   7.34511181
_cell_angle_alpha   109.41987469
_cell_angle_beta   109.41986875
_cell_angle_gamma   109.07757753
_symmetry_Int_Tables_number   1
_chemical_formula_structural   Ho2Pa2Ga6Ir7
_chemical_formula_sum   'Ho2 Pa2 Ga6 Ir7'
_cell_volume   299.49363957
_cell_formula_units_Z   1
loop_
 _symmetry_equiv_pos_site_id
 _symmetry_equiv_pos_as_xyz
  1  'x, y, z'
loop_
 _atom_site_type_symbol
 _atom_site_label
 _atom_site_symmetry_multiplicity
 _atom_site_fract_x
 _atom_site_fract_y
 _atom_site_fract_z
 _atom_site_occupancy
  Ho  Ho0  1  0.000000  0.500000  0.000000  1
  Ho  Ho1  1  0.500000  0.000000  0.000000  1
  Pa  Pa2  1  0.000000  0.000000  0.500000  1
  Pa  Pa3  1  0.500000  0.500000  0.500000  1
  Ga  Ga4  1  0.685671  0.685671  0.000000  1
  Ga  Ga5  1  0.312233  0.994502  0.306735  1
  Ga  Ga6  1  0.994502  0.312233  0.306735  1
  Ga  Ga7  1  0.314329  0.314329  0.000000  1
  Ga  Ga8  1  0.687767  0.005498  0.693265  1
  Ga  Ga9  1  0.005498  0.687767  0.693265  1
  Ir  Ir10  1  0.750000  0.250000  0.500000  1
  Ir  Ir11  1  0.751948  0.508419  0.260368  1
  Ir  Ir12  1  0.491581  0.248052  0.739632  1
  Ir  Ir13  1  0.248052  0.491581  0.739632  1
  Ir  Ir14  1  0.250000  0.750000  0.500000  1
  Ir  Ir15  1  0.508419  0.751948  0.260368  1
  Ir  Ir16  1  0.000000  0.000000  0.000000  1
