# generated using pymatgen
data_Lu6Zn23C
_symmetry_space_group_name_H-M   'P 1'
_cell_length_a   8.87306414
_cell_length_b   8.87306367
_cell_length_c   8.87306400
_cell_angle_alpha   59.99999879
_cell_angle_beta   60.00000054
_cell_angle_gamma   59.99999861
_symmetry_Int_Tables_number   1
_chemical_formula_structural   Lu6Zn23C
_chemical_formula_sum   'Lu6 Zn23 C1'
_cell_volume   493.97597669
_cell_formula_units_Z   1
loop_
 _symmetry_equiv_pos_site_id
 _symmetry_equiv_pos_as_xyz
  1  'x, y, z'
loop_
 _atom_site_type_symbol
 _atom_site_label
 _atom_site_symmetry_multiplicity
 _atom_site_fract_x
 _atom_site_fract_y
 _atom_site_fract_z
 _atom_site_occupancy
  Lu  Lu0  1  0.693093  0.306907  0.306907  1
  Lu  Lu1  1  0.693093  0.306907  0.693093  1
  Lu  Lu2  1  0.693093  0.693093  0.306907  1
  Lu  Lu3  1  0.306907  0.693093  0.693093  1
  Lu  Lu4  1  0.306907  0.693093  0.306907  1
  Lu  Lu5  1  0.306907  0.306907  0.693093  1
  Zn  Zn6  1  0.634245  0.121919  0.121919  1
  Zn  Zn7  1  0.121919  0.634245  0.121919  1
  Zn  Zn8  1  0.121919  0.121919  0.634245  1
  Zn  Zn9  1  0.121919  0.121919  0.121919  1
  Zn  Zn10  1  0.365755  0.878081  0.878081  1
  Zn  Zn11  1  0.878081  0.365755  0.878081  1
  Zn  Zn12  1  0.878081  0.878081  0.365755  1
  Zn  Zn13  1  0.878081  0.878081  0.878081  1
  Zn  Zn14  1  0.500000  0.000000  0.000000  1
  Zn  Zn15  1  0.500000  0.000000  0.500000  1
  Zn  Zn16  1  0.500000  0.500000  0.000000  1
  Zn  Zn17  1  0.000000  0.500000  0.500000  1
  Zn  Zn18  1  0.000000  0.500000  0.000000  1
  Zn  Zn19  1  0.000000  0.000000  0.500000  1
  Zn  Zn20  1  0.000000  0.000000  0.000000  1
  Zn  Zn21  1  0.015239  0.328254  0.328254  1
  Zn  Zn22  1  0.328254  0.015239  0.328254  1
  Zn  Zn23  1  0.328254  0.328254  0.015239  1
  Zn  Zn24  1  0.328254  0.328254  0.328254  1
  Zn  Zn25  1  0.984761  0.671746  0.671746  1
  Zn  Zn26  1  0.671746  0.984761  0.671746  1
  Zn  Zn27  1  0.671746  0.671746  0.984761  1
  Zn  Zn28  1  0.671746  0.671746  0.671746  1
  C  C29  1  0.500000  0.500000  0.500000  1
