# generated using pymatgen
data_Sc2SbPt2Rh3
_symmetry_space_group_name_H-M   'P 1'
_cell_length_a   4.07325500
_cell_length_b   5.57682700
_cell_length_c   11.02463500
_cell_angle_alpha   90.00000000
_cell_angle_beta   90.00000000
_cell_angle_gamma   90.00000000
_symmetry_Int_Tables_number   1
_chemical_formula_structural   Sc2SbPt2Rh3
_chemical_formula_sum   'Sc4 Sb2 Pt4 Rh6'
_cell_volume   250.43382776
_cell_formula_units_Z   2
loop_
 _symmetry_equiv_pos_site_id
 _symmetry_equiv_pos_as_xyz
  1  'x, y, z'
loop_
 _atom_site_type_symbol
 _atom_site_label
 _atom_site_symmetry_multiplicity
 _atom_site_fract_x
 _atom_site_fract_y
 _atom_site_fract_z
 _atom_site_occupancy
  Sc  Sc0  1  0.500000  0.323222  0.362965  1
  Sc  Sc1  1  0.500000  0.676778  0.637035  1
  Sc  Sc2  1  0.500000  0.176778  0.862965  1
  Sc  Sc3  1  0.500000  0.823222  0.137035  1
  Sb  Sb4  1  0.000000  0.000000  0.500000  1
  Sb  Sb5  1  0.000000  0.500000  0.000000  1
  Pt  Pt6  1  0.000000  0.933294  0.749449  1
  Pt  Pt7  1  0.000000  0.066706  0.250551  1
  Pt  Pt8  1  0.000000  0.433294  0.750551  1
  Pt  Pt9  1  0.000000  0.566706  0.249449  1
  Rh  Rh10  1  0.500000  0.305381  0.114426  1
  Rh  Rh11  1  0.500000  0.694619  0.885574  1
  Rh  Rh12  1  0.500000  0.805381  0.385574  1
  Rh  Rh13  1  0.500000  0.194619  0.614426  1
  Rh  Rh14  1  0.000000  0.500000  0.500000  1
  Rh  Rh15  1  0.000000  0.000000  0.000000  1
