# generated using pymatgen
data_Li6AlAs3
_symmetry_space_group_name_H-M   'P 1'
_cell_length_a   4.24866615
_cell_length_b   6.16285733
_cell_length_c   7.45265599
_cell_angle_alpha   114.44956778
_cell_angle_beta   106.56529739
_cell_angle_gamma   90.00178290
_symmetry_Int_Tables_number   1
_chemical_formula_structural   Li6AlAs3
_chemical_formula_sum   'Li6 Al1 As3'
_cell_volume   168.70275865
_cell_formula_units_Z   1
loop_
 _symmetry_equiv_pos_site_id
 _symmetry_equiv_pos_as_xyz
  1  'x, y, z'
loop_
 _atom_site_type_symbol
 _atom_site_label
 _atom_site_symmetry_multiplicity
 _atom_site_fract_x
 _atom_site_fract_y
 _atom_site_fract_z
 _atom_site_occupancy
  Li  Li0  1  0.473494  0.711299  0.721844  1
  Li  Li1  1  0.826504  0.061819  0.426078  1
  Li  Li2  1  0.824146  0.543359  0.423805  1
  Li  Li3  1  0.148997  0.356743  0.071625  1
  Li  Li4  1  0.650156  0.603090  0.073726  1
  Li  Li5  1  0.474111  0.193713  0.722455  1
  Al  Al6  1  0.150141  0.882616  0.073941  1
  As  As7  1  0.997102  0.483480  0.768560  1
  As  As8  1  0.301984  0.787011  0.377953  1
  As  As9  1  0.650340  0.117357  0.074046  1
