# generated using pymatgen
data_CrIr2(RhO4)3
_symmetry_space_group_name_H-M   'P 1'
_cell_length_a   4.56459700
_cell_length_b   4.56459764
_cell_length_c   9.42063800
_cell_angle_alpha   90.00000000
_cell_angle_beta   90.00000000
_cell_angle_gamma   89.96969897
_symmetry_Int_Tables_number   1
_chemical_formula_structural   CrIr2(RhO4)3
_chemical_formula_sum   'Cr1 Ir2 Rh3 O12'
_cell_volume   196.28413425
_cell_formula_units_Z   1
loop_
 _symmetry_equiv_pos_site_id
 _symmetry_equiv_pos_as_xyz
  1  'x, y, z'
loop_
 _atom_site_type_symbol
 _atom_site_label
 _atom_site_symmetry_multiplicity
 _atom_site_fract_x
 _atom_site_fract_y
 _atom_site_fract_z
 _atom_site_occupancy
  Cr  Cr0  1  0.000000  0.000000  0.333305  1
  Ir  Ir1  1  0.000000  0.000000  0.001500  1
  Ir  Ir2  1  0.500000  0.500000  0.499642  1
  Rh  Rh3  1  0.000000  0.000000  0.664712  1
  Rh  Rh4  1  0.500000  0.500000  0.833581  1
  Rh  Rh5  1  0.500000  0.500000  0.167185  1
  O  O6  1  0.302234  0.302234  0.000373  1
  O  O7  1  0.697766  0.697766  0.000373  1
  O  O8  1  0.197323  0.802677  0.497383  1
  O  O9  1  0.802677  0.197323  0.497383  1
  O  O10  1  0.307922  0.307922  0.335012  1
  O  O11  1  0.691058  0.691058  0.665342  1
  O  O12  1  0.692078  0.692078  0.335012  1
  O  O13  1  0.190738  0.809262  0.834653  1
  O  O14  1  0.191017  0.808983  0.167275  1
  O  O15  1  0.308942  0.308942  0.665342  1
  O  O16  1  0.808983  0.191017  0.167275  1
  O  O17  1  0.809262  0.190738  0.834653  1
