# generated using pymatgen
data_Li3ErTm2InGe2
_symmetry_space_group_name_H-M   'P 1'
_cell_length_a   7.18428500
_cell_length_b   7.19310984
_cell_length_c   4.21218800
_cell_angle_alpha   90.00000000
_cell_angle_beta   90.00000000
_cell_angle_gamma   119.95942912
_symmetry_Int_Tables_number   1
_chemical_formula_structural   Li3ErTm2InGe2
_chemical_formula_sum   'Li3 Er1 Tm2 In1 Ge2'
_cell_volume   188.58885590
_cell_formula_units_Z   1
loop_
 _symmetry_equiv_pos_site_id
 _symmetry_equiv_pos_as_xyz
  1  'x, y, z'
loop_
 _atom_site_type_symbol
 _atom_site_label
 _atom_site_symmetry_multiplicity
 _atom_site_fract_x
 _atom_site_fract_y
 _atom_site_fract_z
 _atom_site_occupancy
  Li  Li0  1  0.251331  0.000000  0.500000  1
  Li  Li1  1  0.000058  0.251519  0.500000  1
  Li  Li2  1  0.748539  0.748481  0.500000  1
  Er  Er3  1  0.557951  0.000000  0.000000  1
  Tm  Tm4  1  0.999960  0.557927  0.000000  1
  Tm  Tm5  1  0.442034  0.442073  0.000000  1
  In  In6  1  0.000315  0.000000  0.000000  1
  Ge  Ge7  1  0.332975  0.666140  0.500000  1
  Ge  Ge8  1  0.666836  0.333860  0.500000  1
