# generated using pymatgen
data_Yb2GaSi13Ir6
_symmetry_space_group_name_H-M   'P 1'
_cell_length_a   8.07383891
_cell_length_b   8.03965047
_cell_length_c   8.02337329
_cell_angle_alpha   56.64779477
_cell_angle_beta   56.99460786
_cell_angle_gamma   56.83885490
_symmetry_Int_Tables_number   1
_chemical_formula_structural   Yb2GaSi13Ir6
_chemical_formula_sum   'Yb2 Ga1 Si13 Ir6'
_cell_volume   341.29193729
_cell_formula_units_Z   1
loop_
 _symmetry_equiv_pos_site_id
 _symmetry_equiv_pos_as_xyz
  1  'x, y, z'
loop_
 _atom_site_type_symbol
 _atom_site_label
 _atom_site_symmetry_multiplicity
 _atom_site_fract_x
 _atom_site_fract_y
 _atom_site_fract_z
 _atom_site_occupancy
  Yb  Yb0  1  0.500406  0.497239  0.499425  1
  Yb  Yb1  1  0.999581  0.001355  0.998737  1
  Ga  Ga2  1  0.352731  0.164134  0.578277  1
  Si  Si3  1  0.565847  0.350488  0.172204  1
  Si  Si4  1  0.171442  0.569315  0.348638  1
  Si  Si5  1  0.063320  0.673026  0.853539  1
  Si  Si6  1  0.849974  0.064707  0.672290  1
  Si  Si7  1  0.672257  0.849355  0.066452  1
  Si  Si8  1  0.649816  0.827407  0.433640  1
  Si  Si9  1  0.435097  0.648543  0.826748  1
  Si  Si10  1  0.828607  0.432579  0.651428  1
  Si  Si11  1  0.933252  0.330435  0.148739  1
  Si  Si12  1  0.152281  0.933990  0.322820  1
  Si  Si13  1  0.323445  0.156815  0.934932  1
  Si  Si14  1  0.250418  0.248883  0.250904  1
  Si  Si15  1  0.748455  0.752619  0.748974  1
  Ir  Ir16  1  0.928955  0.570674  0.250248  1
  Ir  Ir17  1  0.249855  0.919281  0.571520  1
  Ir  Ir18  1  0.571066  0.249944  0.928356  1
  Ir  Ir19  1  0.760444  0.069219  0.421389  1
  Ir  Ir20  1  0.429871  0.752866  0.067388  1
  Ir  Ir21  1  0.062880  0.437128  0.753353  1
