# generated using pymatgen
data_Pr5Er3Sc12Ga5Si11
_symmetry_space_group_name_H-M   'P 1'
_cell_length_a   7.24359185
_cell_length_b   7.48309375
_cell_length_c   14.37117628
_cell_angle_alpha   90.11128737
_cell_angle_beta   90.13637472
_cell_angle_gamma   90.14971667
_symmetry_Int_Tables_number   1
_chemical_formula_structural   Pr5Er3Sc12Ga5Si11
_chemical_formula_sum   'Pr5 Er3 Sc12 Ga5 Si11'
_cell_volume   778.97574752
_cell_formula_units_Z   1
loop_
 _symmetry_equiv_pos_site_id
 _symmetry_equiv_pos_as_xyz
  1  'x, y, z'
loop_
 _atom_site_type_symbol
 _atom_site_label
 _atom_site_symmetry_multiplicity
 _atom_site_fract_x
 _atom_site_fract_y
 _atom_site_fract_z
 _atom_site_occupancy
  Pr  Pr0  1  0.487505  0.673730  0.595049  1
  Pr  Pr1  1  0.987974  0.826050  0.596506  1
  Pr  Pr2  1  0.988942  0.830790  0.900407  1
  Pr  Pr3  1  0.511152  0.327095  0.099446  1
  Pr  Pr4  1  0.011101  0.172061  0.100474  1
  Er  Er5  1  0.011914  0.174774  0.397991  1
  Er  Er6  1  0.511757  0.325301  0.398246  1
  Er  Er7  1  0.491278  0.675151  0.897097  1
  Sc  Sc8  1  0.330253  0.173564  0.625483  1
  Sc  Sc9  1  0.671008  0.823971  0.374941  1
  Sc  Sc10  1  0.663624  0.001546  0.752148  1
  Sc  Sc11  1  0.170554  0.676380  0.374754  1
  Sc  Sc12  1  0.825812  0.325080  0.874480  1
  Sc  Sc13  1  0.829069  0.327048  0.625243  1
  Sc  Sc14  1  0.836793  0.500422  0.253620  1
  Sc  Sc15  1  0.337799  0.998376  0.254092  1
  Sc  Sc16  1  0.333630  0.175273  0.872592  1
  Sc  Sc17  1  0.170008  0.672161  0.129866  1
  Sc  Sc18  1  0.669039  0.826363  0.128613  1
  Sc  Sc19  1  0.163220  0.498310  0.751333  1
  Ga  Ga20  1  0.154930  0.452940  0.535223  1
  Ga  Ga21  1  0.842933  0.543313  0.038871  1
  Ga  Ga22  1  0.345004  0.951280  0.037083  1
  Ga  Ga23  1  0.160930  0.461388  0.959385  1
  Ga  Ga24  1  0.655375  0.047491  0.535387  1
  Si  Si25  1  0.290469  0.877691  0.750448  1
  Si  Si26  1  0.466962  0.619429  0.253670  1
  Si  Si27  1  0.034104  0.125043  0.749263  1
  Si  Si28  1  0.533485  0.381828  0.750159  1
  Si  Si29  1  0.966810  0.881094  0.253312  1
  Si  Si30  1  0.711863  0.123458  0.254917  1
  Si  Si31  1  0.343379  0.970618  0.457332  1
  Si  Si32  1  0.843675  0.529814  0.457157  1
  Si  Si33  1  0.784909  0.621012  0.750789  1
  Si  Si34  1  0.212428  0.376044  0.254930  1
  Si  Si35  1  0.650313  0.034116  0.959695  1
