# generated using pymatgen
data_LaNd4(PdO6)2
_symmetry_space_group_name_H-M   'P 1'
_cell_length_a   7.09953351
_cell_length_b   7.09953324
_cell_length_c   7.72468800
_cell_angle_alpha   74.20029912
_cell_angle_beta   74.20029974
_cell_angle_gamma   49.95809422
_symmetry_Int_Tables_number   1
_chemical_formula_structural   LaNd4(PdO6)2
_chemical_formula_sum   'La1 Nd4 Pd2 O12'
_cell_volume   284.31206883
_cell_formula_units_Z   1
loop_
 _symmetry_equiv_pos_site_id
 _symmetry_equiv_pos_as_xyz
  1  'x, y, z'
loop_
 _atom_site_type_symbol
 _atom_site_label
 _atom_site_symmetry_multiplicity
 _atom_site_fract_x
 _atom_site_fract_y
 _atom_site_fract_z
 _atom_site_occupancy
  La  La0  1  0.000000  0.000000  0.500000  1
  Nd  Nd1  1  0.304753  0.304753  0.357386  1
  Nd  Nd2  1  0.695247  0.695247  0.642614  1
  Nd  Nd3  1  0.694165  0.694165  0.164634  1
  Nd  Nd4  1  0.305835  0.305835  0.835366  1
  Pd  Pd5  1  0.753557  0.246443  0.000000  1
  Pd  Pd6  1  0.246443  0.753557  0.000000  1
  O  O7  1  0.095103  0.594423  0.577324  1
  O  O8  1  0.999208  0.999208  0.175533  1
  O  O9  1  0.405577  0.904897  0.422676  1
  O  O10  1  0.500118  0.500118  0.177924  1
  O  O11  1  0.099554  0.573976  0.080518  1
  O  O12  1  0.904897  0.405577  0.422676  1
  O  O13  1  0.000792  0.000792  0.824467  1
  O  O14  1  0.594423  0.095102  0.577324  1
  O  O15  1  0.499882  0.499882  0.822076  1
  O  O16  1  0.573976  0.099554  0.080518  1
  O  O17  1  0.426024  0.900446  0.919482  1
  O  O18  1  0.900446  0.426024  0.919482  1
