# generated using pymatgen
data_CdIrPd3Pb3O14
_symmetry_space_group_name_H-M   'P 1'
_cell_length_a   7.27593704
_cell_length_b   7.23758511
_cell_length_c   7.23758557
_cell_angle_alpha   61.10488022
_cell_angle_beta   61.34528555
_cell_angle_gamma   61.34527646
_symmetry_Int_Tables_number   1
_chemical_formula_structural   CdIrPd3Pb3O14
_chemical_formula_sum   'Cd1 Ir1 Pd3 Pb3 O14'
_cell_volume   277.16462645
_cell_formula_units_Z   1
loop_
 _symmetry_equiv_pos_site_id
 _symmetry_equiv_pos_as_xyz
  1  'x, y, z'
loop_
 _atom_site_type_symbol
 _atom_site_label
 _atom_site_symmetry_multiplicity
 _atom_site_fract_x
 _atom_site_fract_y
 _atom_site_fract_z
 _atom_site_occupancy
  Cd  Cd0  1  0.125000  0.125000  0.125000  1
  Ir  Ir1  1  0.125000  0.625000  0.625000  1
  Pd  Pd2  1  0.625000  0.125000  0.625000  1
  Pd  Pd3  1  0.625000  0.625000  0.125000  1
  Pd  Pd4  1  0.625000  0.625000  0.625000  1
  Pb  Pb5  1  0.625000  0.125000  0.125000  1
  Pb  Pb6  1  0.125000  0.625000  0.125000  1
  Pb  Pb7  1  0.125000  0.125000  0.625000  1
  O  O8  1  0.709663  0.710765  0.291530  1
  O  O9  1  0.289280  0.297926  0.707580  1
  O  O10  1  0.709663  0.291530  0.710765  1
  O  O11  1  0.289280  0.707580  0.297926  1
  O  O12  1  0.288619  0.707578  0.707578  1
  O  O13  1  0.709304  0.290068  0.290068  1
  O  O14  1  0.540337  0.539235  0.958470  1
  O  O15  1  0.960720  0.952074  0.542420  1
  O  O16  1  0.540337  0.958470  0.539235  1
  O  O17  1  0.960720  0.542420  0.952074  1
  O  O18  1  0.961381  0.542422  0.542422  1
  O  O19  1  0.540696  0.959932  0.959932  1
  O  O20  1  0.262284  0.246224  0.246224  1
  O  O21  1  0.987716  0.003776  0.003776  1
