# generated using pymatgen
data_YTm5Ti2(Al11Ru4)2
_symmetry_space_group_name_H-M   'P 1'
_cell_length_a   8.82210619
_cell_length_b   8.82210536
_cell_length_c   9.51198709
_cell_angle_alpha   90.01384260
_cell_angle_beta   89.98615966
_cell_angle_gamma   119.95083432
_symmetry_Int_Tables_number   1
_chemical_formula_structural   YTm5Ti2(Al11Ru4)2
_chemical_formula_sum   'Y1 Tm5 Ti2 Al22 Ru8'
_cell_volume   641.44782353
_cell_formula_units_Z   1
loop_
 _symmetry_equiv_pos_site_id
 _symmetry_equiv_pos_as_xyz
  1  'x, y, z'
loop_
 _atom_site_type_symbol
 _atom_site_label
 _atom_site_symmetry_multiplicity
 _atom_site_fract_x
 _atom_site_fract_y
 _atom_site_fract_z
 _atom_site_occupancy
  Y  Y0  1  0.806976  0.193024  0.749659  1
  Tm  Tm1  1  0.194685  0.805315  0.250398  1
  Tm  Tm2  1  0.389741  0.195106  0.749685  1
  Tm  Tm3  1  0.610069  0.805229  0.250253  1
  Tm  Tm4  1  0.804894  0.610259  0.749685  1
  Tm  Tm5  1  0.194771  0.389931  0.250253  1
  Ti  Ti6  1  0.666484  0.333516  0.002603  1
  Ti  Ti7  1  0.333159  0.666841  0.998231  1
  Al  Al8  1  0.333160  0.666840  0.479342  1
  Al  Al9  1  0.666595  0.333405  0.519753  1
  Al  Al10  1  0.838365  0.161635  0.421658  1
  Al  Al11  1  0.161537  0.838463  0.576936  1
  Al  Al12  1  0.322832  0.161480  0.422467  1
  Al  Al13  1  0.159112  0.840888  0.922350  1
  Al  Al14  1  0.676363  0.837720  0.576623  1
  Al  Al15  1  0.840687  0.159313  0.079135  1
  Al  Al16  1  0.838520  0.677168  0.422467  1
  Al  Al17  1  0.681293  0.840147  0.922605  1
  Al  Al18  1  0.162280  0.323637  0.576623  1
  Al  Al19  1  0.318152  0.159034  0.078320  1
  Al  Al20  1  0.159853  0.318707  0.922605  1
  Al  Al21  1  0.840966  0.681848  0.078320  1
  Al  Al22  1  0.439335  0.560665  0.747685  1
  Al  Al23  1  0.560467  0.439533  0.252278  1
  Al  Al24  1  0.121657  0.561327  0.747643  1
  Al  Al25  1  0.878812  0.439767  0.252305  1
  Al  Al26  1  0.438673  0.878343  0.747643  1
  Al  Al27  1  0.560233  0.121188  0.252305  1
  Al  Al28  1  0.001654  0.998346  0.749470  1
  Al  Al29  1  0.999846  0.000154  0.250564  1
  Ru  Ru30  1  0.500076  0.499924  0.999884  1
  Ru  Ru31  1  0.000507  0.500822  0.000701  1
  Ru  Ru32  1  0.499900  0.500100  0.499917  1
  Ru  Ru33  1  0.499178  0.999493  0.000701  1
  Ru  Ru34  1  0.000300  0.500664  0.499469  1
  Ru  Ru35  1  0.499336  0.999700  0.499469  1
  Ru  Ru36  1  0.999770  0.000230  0.999888  1
  Ru  Ru37  1  0.999763  0.000237  0.500108  1
