# generated using pymatgen
data_DyEr(Lu4Pb3)2
_symmetry_space_group_name_H-M   'P 1'
_cell_length_a   8.89718500
_cell_length_b   8.91879974
_cell_length_c   6.50515100
_cell_angle_alpha   90.00000000
_cell_angle_beta   90.00000000
_cell_angle_gamma   119.91985978
_symmetry_Int_Tables_number   1
_chemical_formula_structural   DyEr(Lu4Pb3)2
_chemical_formula_sum   'Dy1 Er1 Lu8 Pb6'
_cell_volume   447.40125081
_cell_formula_units_Z   1
loop_
 _symmetry_equiv_pos_site_id
 _symmetry_equiv_pos_as_xyz
  1  'x, y, z'
loop_
 _atom_site_type_symbol
 _atom_site_label
 _atom_site_symmetry_multiplicity
 _atom_site_fract_x
 _atom_site_fract_y
 _atom_site_fract_z
 _atom_site_occupancy
  Dy  Dy0  1  0.765065  0.000000  0.750000  1
  Er  Er1  1  0.233225  0.000000  0.250000  1
  Lu  Lu2  1  0.234867  0.235491  0.750000  1
  Lu  Lu3  1  0.334214  0.667787  0.000084  1
  Lu  Lu4  1  0.666428  0.332213  0.000084  1
  Lu  Lu5  1  0.999375  0.764509  0.750000  1
  Lu  Lu6  1  0.764751  0.763760  0.250000  1
  Lu  Lu7  1  0.000991  0.236240  0.250000  1
  Lu  Lu8  1  0.334214  0.667787  0.499916  1
  Lu  Lu9  1  0.666428  0.332213  0.499916  1
  Pb  Pb10  1  0.002137  0.398046  0.750000  1
  Pb  Pb11  1  0.395340  0.395797  0.250000  1
  Pb  Pb12  1  0.605824  0.000000  0.250000  1
  Pb  Pb13  1  0.604091  0.601954  0.750000  1
  Pb  Pb14  1  0.393508  0.000000  0.750000  1
  Pb  Pb15  1  0.999543  0.604203  0.250000  1
