# generated using pymatgen
data_Li8Tm8HgPb7
_symmetry_space_group_name_H-M   'P 1'
_cell_length_a   9.38320800
_cell_length_b   9.38320930
_cell_length_c   7.35597500
_cell_angle_alpha   90.00000000
_cell_angle_beta   90.00000000
_cell_angle_gamma   119.99999541
_symmetry_Int_Tables_number   1
_chemical_formula_structural   Li8Tm8HgPb7
_chemical_formula_sum   'Li8 Tm8 Hg1 Pb7'
_cell_volume   560.88476504
_cell_formula_units_Z   1
loop_
 _symmetry_equiv_pos_site_id
 _symmetry_equiv_pos_as_xyz
  1  'x, y, z'
loop_
 _atom_site_type_symbol
 _atom_site_label
 _atom_site_symmetry_multiplicity
 _atom_site_fract_x
 _atom_site_fract_y
 _atom_site_fract_z
 _atom_site_occupancy
  Li  Li0  1  0.834084  0.165916  0.713023  1
  Li  Li1  1  0.834084  0.668171  0.713023  1
  Li  Li2  1  0.331829  0.165916  0.713023  1
  Li  Li3  1  0.168623  0.831377  0.211122  1
  Li  Li4  1  0.168623  0.337245  0.211122  1
  Li  Li5  1  0.662755  0.831377  0.211122  1
  Li  Li6  1  0.666667  0.333333  0.322372  1
  Li  Li7  1  0.333333  0.666667  0.818628  1
  Tm  Tm8  1  0.485994  0.514006  0.501384  1
  Tm  Tm9  1  0.485994  0.971988  0.501384  1
  Tm  Tm10  1  0.028012  0.514006  0.501384  1
  Tm  Tm11  1  0.513417  0.486583  0.009828  1
  Tm  Tm12  1  0.513417  0.026835  0.009828  1
  Tm  Tm13  1  0.973165  0.486583  0.009828  1
  Tm  Tm14  1  0.000000  0.000000  0.498724  1
  Tm  Tm15  1  0.000000  0.000000  0.997129  1
  Hg  Hg16  1  0.333333  0.666667  0.230752  1
  Pb  Pb17  1  0.833431  0.166569  0.273971  1
  Pb  Pb18  1  0.833431  0.666859  0.273971  1
  Pb  Pb19  1  0.333141  0.166569  0.273971  1
  Pb  Pb20  1  0.167908  0.832092  0.776339  1
  Pb  Pb21  1  0.167908  0.335816  0.776339  1
  Pb  Pb22  1  0.664184  0.832092  0.776339  1
  Pb  Pb23  1  0.666667  0.333333  0.733406  1
