# generated using pymatgen
data_Ho5Mg(Rh2Pb)6
_symmetry_space_group_name_H-M   'P 1'
_cell_length_a   4.59728100
_cell_length_b   7.16719700
_cell_length_c   13.65171000
_cell_angle_alpha   90.00000000
_cell_angle_beta   90.00079320
_cell_angle_gamma   90.00000000
_symmetry_Int_Tables_number   1
_chemical_formula_structural   Ho5Mg(Rh2Pb)6
_chemical_formula_sum   'Ho5 Mg1 Rh12 Pb6'
_cell_volume   449.81863760
_cell_formula_units_Z   1
loop_
 _symmetry_equiv_pos_site_id
 _symmetry_equiv_pos_as_xyz
  1  'x, y, z'
loop_
 _atom_site_type_symbol
 _atom_site_label
 _atom_site_symmetry_multiplicity
 _atom_site_fract_x
 _atom_site_fract_y
 _atom_site_fract_z
 _atom_site_occupancy
  Ho  Ho0  1  0.999996  0.000000  0.996414  1
  Ho  Ho1  1  0.499998  0.500000  0.164953  1
  Ho  Ho2  1  0.000000  0.000000  0.333361  1
  Ho  Ho3  1  0.499997  0.500000  0.501732  1
  Ho  Ho4  1  0.999999  0.000000  0.670215  1
  Mg  Mg5  1  0.500003  0.500000  0.833313  1
  Rh  Rh6  1  0.499995  0.257169  0.994982  1
  Rh  Rh7  1  0.499995  0.742832  0.994982  1
  Rh  Rh8  1  0.000008  0.249140  0.165498  1
  Rh  Rh9  1  0.000008  0.750859  0.165498  1
  Rh  Rh10  1  0.499986  0.250286  0.333357  1
  Rh  Rh11  1  0.499986  0.749713  0.333357  1
  Rh  Rh12  1  0.000005  0.249157  0.501178  1
  Rh  Rh13  1  0.000005  0.750844  0.501178  1
  Rh  Rh14  1  0.500011  0.257193  0.671675  1
  Rh  Rh15  1  0.500011  0.742806  0.671675  1
  Rh  Rh16  1  0.000008  0.256387  0.833324  1
  Rh  Rh17  1  0.000008  0.743612  0.833324  1
  Pb  Pb18  1  0.999985  0.500000  0.995724  1
  Pb  Pb19  1  0.500007  0.000000  0.162831  1
  Pb  Pb20  1  0.999989  0.500000  0.333317  1
  Pb  Pb21  1  0.499994  0.000000  0.503839  1
  Pb  Pb22  1  0.999994  0.500000  0.670941  1
  Pb  Pb23  1  0.500006  0.000000  0.833333  1
