# generated using pymatgen
data_Y4Tm2Ir5Rh13
_symmetry_space_group_name_H-M   'P 1'
_cell_length_a   5.27663238
_cell_length_b   5.27663420
_cell_length_c   17.53948946
_cell_angle_alpha   90.02305903
_cell_angle_beta   89.97694077
_cell_angle_gamma   120.03646257
_symmetry_Int_Tables_number   1
_chemical_formula_structural   Y4Tm2Ir5Rh13
_chemical_formula_sum   'Y4 Tm2 Ir5 Rh13'
_cell_volume   422.76757664
_cell_formula_units_Z   1
loop_
 _symmetry_equiv_pos_site_id
 _symmetry_equiv_pos_as_xyz
  1  'x, y, z'
loop_
 _atom_site_type_symbol
 _atom_site_label
 _atom_site_symmetry_multiplicity
 _atom_site_fract_x
 _atom_site_fract_y
 _atom_site_fract_z
 _atom_site_occupancy
  Y  Y0  1  0.666399  0.333601  0.458489  1
  Y  Y1  1  0.332712  0.667288  0.541634  1
  Y  Y2  1  0.333305  0.666695  0.750349  1
  Y  Y3  1  0.666684  0.333316  0.250956  1
  Tm  Tm4  1  0.333469  0.666531  0.959202  1
  Tm  Tm5  1  0.666688  0.333312  0.041063  1
  Ir  Ir6  1  0.167448  0.832552  0.372974  1
  Ir  Ir7  1  0.167701  0.335212  0.373209  1
  Ir  Ir8  1  0.664788  0.832299  0.373209  1
  Ir  Ir9  1  0.834136  0.165864  0.627666  1
  Ir  Ir10  1  0.000445  0.999555  0.999803  1
  Rh  Rh11  1  0.834122  0.664207  0.626492  1
  Rh  Rh12  1  0.335793  0.165878  0.626492  1
  Rh  Rh13  1  0.832544  0.167456  0.876056  1
  Rh  Rh14  1  0.832897  0.665378  0.875846  1
  Rh  Rh15  1  0.334622  0.167103  0.875846  1
  Rh  Rh16  1  0.167122  0.832878  0.123652  1
  Rh  Rh17  1  0.167020  0.334903  0.123459  1
  Rh  Rh18  1  0.665097  0.832980  0.123459  1
  Rh  Rh19  1  0.333426  0.666574  0.248942  1
  Rh  Rh20  1  0.666457  0.333543  0.750884  1
  Rh  Rh21  1  0.999539  0.000461  0.249388  1
  Rh  Rh22  1  0.999900  0.000100  0.750697  1
  Rh  Rh23  1  0.997688  0.002312  0.500232  1
