# generated using pymatgen
data_Yb8Ge(Pd11Pb)2
_symmetry_space_group_name_H-M   'P 1'
_cell_length_a   8.12138100
_cell_length_b   8.52200900
_cell_length_c   8.50023600
_cell_angle_alpha   90.00000000
_cell_angle_beta   90.00000000
_cell_angle_gamma   90.00000000
_symmetry_Int_Tables_number   1
_chemical_formula_structural   Yb8Ge(Pd11Pb)2
_chemical_formula_sum   'Yb8 Ge1 Pd22 Pb2'
_cell_volume   588.30543046
_cell_formula_units_Z   1
loop_
 _symmetry_equiv_pos_site_id
 _symmetry_equiv_pos_as_xyz
  1  'x, y, z'
loop_
 _atom_site_type_symbol
 _atom_site_label
 _atom_site_symmetry_multiplicity
 _atom_site_fract_x
 _atom_site_fract_y
 _atom_site_fract_z
 _atom_site_occupancy
  Yb  Yb0  1  0.251512  0.224578  0.252580  1
  Yb  Yb1  1  0.746687  0.746312  0.746464  1
  Yb  Yb2  1  0.746687  0.746312  0.253536  1
  Yb  Yb3  1  0.746687  0.253688  0.746464  1
  Yb  Yb4  1  0.251512  0.224578  0.747420  1
  Yb  Yb5  1  0.251512  0.775422  0.252580  1
  Yb  Yb6  1  0.251512  0.775422  0.747420  1
  Yb  Yb7  1  0.746687  0.253688  0.253536  1
  Ge  Ge8  1  0.999567  0.000000  0.000000  1
  Pd  Pd9  1  0.741397  0.500000  0.000000  1
  Pd  Pd10  1  0.002220  0.255225  0.500000  1
  Pd  Pd11  1  0.499492  0.258908  0.000000  1
  Pd  Pd12  1  0.002220  0.744775  0.500000  1
  Pd  Pd13  1  0.499492  0.741092  0.000000  1
  Pd  Pd14  1  0.505236  0.000000  0.262863  1
  Pd  Pd15  1  0.257891  0.000000  0.500000  1
  Pd  Pd16  1  0.505236  0.000000  0.737137  1
  Pd  Pd17  1  0.739646  0.000000  0.500000  1
  Pd  Pd18  1  0.007213  0.500000  0.257369  1
  Pd  Pd19  1  0.007213  0.500000  0.742631  1
  Pd  Pd20  1  0.748023  0.500000  0.500000  1
  Pd  Pd21  1  0.497355  0.248940  0.500000  1
  Pd  Pd22  1  0.497355  0.751060  0.500000  1
  Pd  Pd23  1  0.495111  0.500000  0.254822  1
  Pd  Pd24  1  0.495111  0.500000  0.745178  1
  Pd  Pd25  1  0.296741  0.000000  0.000000  1
  Pd  Pd26  1  0.705843  0.000000  0.000000  1
  Pd  Pd27  1  0.000750  0.283959  0.000000  1
  Pd  Pd28  1  0.000750  0.716041  0.000000  1
  Pd  Pd29  1  0.991261  0.000000  0.287253  1
  Pd  Pd30  1  0.991261  0.000000  0.712747  1
  Pb  Pb31  1  0.265579  0.500000  0.000000  1
  Pb  Pb32  1  0.255239  0.500000  0.500000  1
