# generated using pymatgen
data_TaV11P7
_symmetry_space_group_name_H-M   'P 1'
_cell_length_a   9.33301880
_cell_length_b   9.33945455
_cell_length_c   3.25949800
_cell_angle_alpha   90.00000000
_cell_angle_beta   90.00000000
_cell_angle_gamma   119.81957794
_symmetry_Int_Tables_number   1
_chemical_formula_structural   TaV11P7
_chemical_formula_sum   'Ta1 V11 P7'
_cell_volume   246.49703902
_cell_formula_units_Z   1
loop_
 _symmetry_equiv_pos_site_id
 _symmetry_equiv_pos_as_xyz
  1  'x, y, z'
loop_
 _atom_site_type_symbol
 _atom_site_label
 _atom_site_symmetry_multiplicity
 _atom_site_fract_x
 _atom_site_fract_y
 _atom_site_fract_z
 _atom_site_occupancy
  Ta  Ta0  1  0.203235  0.992548  0.000000  1
  V  V1  1  0.129158  0.616431  0.000000  1
  V  V2  1  0.004958  0.204701  0.000000  1
  V  V3  1  0.488698  0.868965  0.000000  1
  V  V4  1  0.268454  0.257990  0.500000  1
  V  V5  1  0.377680  0.512778  0.000000  1
  V  V6  1  0.795850  0.802504  0.000000  1
  V  V7  1  0.628715  0.497888  0.500000  1
  V  V8  1  0.505363  0.132839  0.500000  1
  V  V9  1  0.983390  0.731301  0.500000  1
  V  V10  1  0.868913  0.372093  0.500000  1
  V  V11  1  0.745477  0.013501  0.500000  1
  P  P12  1  0.285109  0.831284  0.500000  1
  P  P13  1  0.156481  0.441428  0.500000  1
  P  P14  1  0.558253  0.716282  0.500000  1
  P  P15  1  0.466672  0.297609  0.000000  1
  P  P16  1  0.995744  0.001724  0.500000  1
  P  P17  1  0.829039  0.536535  0.000000  1
  P  P18  1  0.708810  0.171601  0.000000  1
