# generated using pymatgen
data_La12Pr8Si15Sn
_symmetry_space_group_name_H-M   'P 1'
_cell_length_a   8.04043661
_cell_length_b   8.03625712
_cell_length_c   15.43657600
_cell_angle_alpha   90.03256829
_cell_angle_beta   89.72204396
_cell_angle_gamma   89.86972942
_symmetry_Int_Tables_number   1
_chemical_formula_structural   La12Pr8Si15Sn
_chemical_formula_sum   'La12 Pr8 Si15 Sn1'
_cell_volume   997.42012251
_cell_formula_units_Z   1
loop_
 _symmetry_equiv_pos_site_id
 _symmetry_equiv_pos_as_xyz
  1  'x, y, z'
loop_
 _atom_site_type_symbol
 _atom_site_label
 _atom_site_symmetry_multiplicity
 _atom_site_fract_x
 _atom_site_fract_y
 _atom_site_fract_z
 _atom_site_occupancy
  La  La0  1  0.310740  0.309904  0.001120  1
  La  La1  1  0.190974  0.809617  0.249779  1
  La  La2  1  0.799015  0.187880  0.752968  1
  La  La3  1  0.688298  0.691245  0.496419  1
  La  La4  1  0.374875  0.014484  0.450138  1
  La  La5  1  0.496030  0.869767  0.698467  1
  La  La6  1  0.510483  0.122324  0.198496  1
  La  La7  1  0.876346  0.488917  0.300202  1
  La  La8  1  0.121469  0.515374  0.804815  1
  La  La9  1  0.623992  0.986421  0.950388  1
  La  La10  1  0.004364  0.383567  0.545869  1
  La  La11  1  0.988852  0.622212  0.052992  1
  Pr  Pr12  1  0.128262  0.983724  0.879230  1
  Pr  Pr13  1  0.516959  0.627516  0.126707  1
  Pr  Pr14  1  0.493859  0.382250  0.624971  1
  Pr  Pr15  1  0.629097  0.517766  0.876562  1
  Pr  Pr16  1  0.373198  0.484980  0.372712  1
  Pr  Pr17  1  0.871872  0.016656  0.375665  1
  Pr  Pr18  1  0.984667  0.127793  0.124957  1
  Pr  Pr19  1  0.004588  0.858711  0.620472  1
  Si  Si20  1  0.332549  0.697649  0.952181  1
  Si  Si21  1  0.665051  0.301414  0.449168  1
  Si  Si22  1  0.699996  0.332354  0.050784  1
  Si  Si23  1  0.302168  0.669358  0.547753  1
  Si  Si24  1  0.801413  0.833392  0.200445  1
  Si  Si25  1  0.166371  0.199600  0.300667  1
  Si  Si26  1  0.836604  0.800029  0.800601  1
  Si  Si27  1  0.288076  0.920562  0.059526  1
  Si  Si28  1  0.578891  0.790222  0.308079  1
  Si  Si29  1  0.428314  0.211671  0.813545  1
  Si  Si30  1  0.789961  0.577091  0.692599  1
  Si  Si31  1  0.211534  0.419913  0.191853  1
  Si  Si32  1  0.710675  0.081298  0.558457  1
  Si  Si33  1  0.922286  0.288392  0.942463  1
  Si  Si34  1  0.080533  0.714376  0.439439  1
  Sn  Sn35  1  0.197630  0.161573  0.689512  1
