# generated using pymatgen
data_TbHo7Re3B24Rh
_symmetry_space_group_name_H-M   'P 1'
_cell_length_a   3.67346600
_cell_length_b   9.15466401
_cell_length_c   11.53561100
_cell_angle_alpha   90.16318977
_cell_angle_beta   90.00000000
_cell_angle_gamma   90.00000000
_symmetry_Int_Tables_number   1
_chemical_formula_structural   TbHo7Re3B24Rh
_chemical_formula_sum   'Tb1 Ho7 Re3 B24 Rh1'
_cell_volume   387.93349167
_cell_formula_units_Z   1
loop_
 _symmetry_equiv_pos_site_id
 _symmetry_equiv_pos_as_xyz
  1  'x, y, z'
loop_
 _atom_site_type_symbol
 _atom_site_label
 _atom_site_symmetry_multiplicity
 _atom_site_fract_x
 _atom_site_fract_y
 _atom_site_fract_z
 _atom_site_occupancy
  Tb  Tb0  1  0.000000  0.318726  0.415393  1
  Ho  Ho1  1  0.000000  0.678217  0.591245  1
  Ho  Ho2  1  0.000000  0.827168  0.081219  1
  Ho  Ho3  1  0.000000  0.177253  0.912725  1
  Ho  Ho4  1  0.000000  0.943092  0.369970  1
  Ho  Ho5  1  0.000000  0.055742  0.628946  1
  Ho  Ho6  1  0.000000  0.441370  0.128904  1
  Ho  Ho7  1  0.000000  0.556745  0.871786  1
  Re  Re8  1  0.000000  0.362531  0.677938  1
  Re  Re9  1  0.000000  0.138159  0.179704  1
  Re  Re10  1  0.000000  0.861633  0.820922  1
  B  B11  1  0.500000  0.554282  0.433710  1
  B  B12  1  0.500000  0.446898  0.566965  1
  B  B13  1  0.500000  0.053349  0.066414  1
  B  B14  1  0.500000  0.947202  0.932692  1
  B  B15  1  0.500000  0.749029  0.420356  1
  B  B16  1  0.500000  0.250568  0.581362  1
  B  B17  1  0.500000  0.249211  0.081110  1
  B  B18  1  0.500000  0.751822  0.918949  1
  B  B19  1  0.500000  0.791096  0.264996  1
  B  B20  1  0.500000  0.208342  0.734251  1
  B  B21  1  0.500000  0.291543  0.234813  1
  B  B22  1  0.500000  0.708091  0.765868  1
  B  B23  1  0.500000  0.632036  0.183992  1
  B  B24  1  0.500000  0.369371  0.814309  1
  B  B25  1  0.500000  0.130436  0.314609  1
  B  B26  1  0.500000  0.868347  0.685402  1
  B  B27  1  0.500000  0.982706  0.211778  1
  B  B28  1  0.500000  0.017405  0.787064  1
  B  B29  1  0.500000  0.483666  0.287780  1
  B  B30  1  0.500000  0.518336  0.712562  1
  B  B31  1  0.500000  0.604196  0.029478  1
  B  B32  1  0.500000  0.397198  0.972053  1
  B  B33  1  0.500000  0.101270  0.471087  1
  B  B34  1  0.500000  0.894672  0.528299  1
  Rh  Rh35  1  0.000000  0.638293  0.321351  1
