# generated using pymatgen
data_Tm2Th2(PdPt3)3
_symmetry_space_group_name_H-M   'P 1'
_cell_length_a   5.92450400
_cell_length_b   5.92450300
_cell_length_c   9.70056600
_cell_angle_alpha   90.00000000
_cell_angle_beta   90.00000000
_cell_angle_gamma   120.28472939
_symmetry_Int_Tables_number   1
_chemical_formula_structural   Tm2Th2(PdPt3)3
_chemical_formula_sum   'Tm2 Th2 Pd3 Pt9'
_cell_volume   294.02104663
_cell_formula_units_Z   1
loop_
 _symmetry_equiv_pos_site_id
 _symmetry_equiv_pos_as_xyz
  1  'x, y, z'
loop_
 _atom_site_type_symbol
 _atom_site_label
 _atom_site_symmetry_multiplicity
 _atom_site_fract_x
 _atom_site_fract_y
 _atom_site_fract_z
 _atom_site_occupancy
  Tm  Tm0  1  0.332780  0.667220  0.250000  1
  Tm  Tm1  1  0.667754  0.332246  0.750000  1
  Th  Th2  1  0.000083  0.999917  0.500486  1
  Th  Th3  1  0.000083  0.999917  0.999514  1
  Pd  Pd4  1  0.500048  0.499952  0.500770  1
  Pd  Pd5  1  0.500048  0.499952  0.999230  1
  Pd  Pd6  1  0.175180  0.824820  0.750000  1
  Pt  Pt7  1  0.500304  0.999718  0.500247  1
  Pt  Pt8  1  0.000282  0.499696  0.500247  1
  Pt  Pt9  1  0.500304  0.999718  0.999753  1
  Pt  Pt10  1  0.000282  0.499696  0.999753  1
  Pt  Pt11  1  0.824901  0.650216  0.250000  1
  Pt  Pt12  1  0.349784  0.175099  0.250000  1
  Pt  Pt13  1  0.824425  0.175575  0.250000  1
  Pt  Pt14  1  0.175560  0.351820  0.750000  1
  Pt  Pt15  1  0.648180  0.824440  0.750000  1
