# generated using pymatgen
data_Sc4Mn3Fe4CoSi8
_symmetry_space_group_name_H-M   'P 1'
_cell_length_a   5.02992904
_cell_length_b   7.09047907
_cell_length_c   7.46843701
_cell_angle_alpha   90.07571281
_cell_angle_beta   89.93051061
_cell_angle_gamma   89.97490770
_symmetry_Int_Tables_number   1
_chemical_formula_structural   Sc4Mn3Fe4CoSi8
_chemical_formula_sum   'Sc4 Mn3 Fe4 Co1 Si8'
_cell_volume   266.35841353
_cell_formula_units_Z   1
loop_
 _symmetry_equiv_pos_site_id
 _symmetry_equiv_pos_as_xyz
  1  'x, y, z'
loop_
 _atom_site_type_symbol
 _atom_site_label
 _atom_site_symmetry_multiplicity
 _atom_site_fract_x
 _atom_site_fract_y
 _atom_site_fract_z
 _atom_site_occupancy
  Sc  Sc0  1  0.755097  0.905953  0.249200  1
  Sc  Sc1  1  0.246264  0.096852  0.749872  1
  Sc  Sc2  1  0.753772  0.402258  0.749348  1
  Sc  Sc3  1  0.245491  0.595614  0.248683  1
  Mn  Mn4  1  0.000202  0.749788  0.620393  1
  Mn  Mn5  1  0.501102  0.250040  0.378872  1
  Mn  Mn6  1  0.000335  0.249250  0.381805  1
  Fe  Fe7  1  0.248497  0.489406  0.885593  1
  Fe  Fe8  1  0.751028  0.010332  0.886255  1
  Fe  Fe9  1  0.250342  0.988039  0.115255  1
  Fe  Fe10  1  0.500161  0.750037  0.619840  1
  Co  Co11  1  0.749091  0.511906  0.114744  1
  Si  Si12  1  0.736566  0.549100  0.417529  1
  Si  Si13  1  0.263271  0.450582  0.583883  1
  Si  Si14  1  0.736787  0.049049  0.584536  1
  Si  Si15  1  0.264072  0.950346  0.416175  1
  Si  Si16  1  0.001681  0.751246  0.951624  1
  Si  Si17  1  0.497946  0.249723  0.047816  1
  Si  Si18  1  0.000297  0.249161  0.049488  1
  Si  Si19  1  0.497999  0.751318  0.949091  1
