# generated using pymatgen
data_Rb2BeTe2
_symmetry_space_group_name_H-M   'P 1'
_cell_length_a   8.85943086
_cell_length_b   8.85943097
_cell_length_c   8.85943105
_cell_angle_alpha   134.82583259
_cell_angle_beta   129.80529580
_cell_angle_gamma   69.80998219
_symmetry_Int_Tables_number   1
_chemical_formula_structural   Rb2BeTe2
_chemical_formula_sum   'Rb4 Be2 Te4'
_cell_volume   371.62285288
_cell_formula_units_Z   2
loop_
 _symmetry_equiv_pos_site_id
 _symmetry_equiv_pos_as_xyz
  1  'x, y, z'
loop_
 _atom_site_type_symbol
 _atom_site_label
 _atom_site_symmetry_multiplicity
 _atom_site_fract_x
 _atom_site_fract_y
 _atom_site_fract_z
 _atom_site_occupancy
  Rb  Rb0  1  0.466479  0.143197  0.323282  1
  Rb  Rb1  1  0.819914  0.643197  0.176718  1
  Rb  Rb2  1  0.533521  0.856803  0.676718  1
  Rb  Rb3  1  0.180086  0.356803  0.823282  1
  Be  Be4  1  0.000000  0.750000  0.750000  1
  Be  Be5  1  0.000000  0.250000  0.250000  1
  Te  Te6  1  0.075871  0.905050  0.170821  1
  Te  Te7  1  0.924129  0.094950  0.829179  1
  Te  Te8  1  0.265771  0.594950  0.670821  1
  Te  Te9  1  0.734229  0.405050  0.329179  1
