# generated using pymatgen
data_Er8Tm4Co4SnPt
_symmetry_space_group_name_H-M   'P 1'
_cell_length_a   8.21030801
_cell_length_b   8.21030792
_cell_length_c   8.21030769
_cell_angle_alpha   111.11171804
_cell_angle_beta   110.62144713
_cell_angle_gamma   106.71554133
_symmetry_Int_Tables_number   1
_chemical_formula_structural   Er8Tm4Co4SnPt
_chemical_formula_sum   'Er8 Tm4 Co4 Sn1 Pt1'
_cell_volume   425.30311376
_cell_formula_units_Z   1
loop_
 _symmetry_equiv_pos_site_id
 _symmetry_equiv_pos_as_xyz
  1  'x, y, z'
loop_
 _atom_site_type_symbol
 _atom_site_label
 _atom_site_symmetry_multiplicity
 _atom_site_fract_x
 _atom_site_fract_y
 _atom_site_fract_z
 _atom_site_occupancy
  Er  Er0  1  0.417515  0.216905  0.200611  1
  Er  Er1  1  0.582485  0.783095  0.799389  1
  Er  Er2  1  0.016294  0.216905  0.799389  1
  Er  Er3  1  0.983706  0.783095  0.200611  1
  Er  Er4  1  0.184821  0.288476  0.473297  1
  Er  Er5  1  0.815179  0.711524  0.526703  1
  Er  Er6  1  0.184821  0.711524  0.896345  1
  Er  Er7  1  0.815179  0.288476  0.103655  1
  Tm  Tm8  1  0.314819  0.619585  0.304765  1
  Tm  Tm9  1  0.685181  0.380416  0.695235  1
  Tm  Tm10  1  0.314819  0.010053  0.695235  1
  Tm  Tm11  1  0.685181  0.989947  0.304765  1
  Co  Co12  1  0.112683  0.612683  0.500000  1
  Co  Co13  1  0.887318  0.387318  0.500000  1
  Co  Co14  1  0.377785  0.000000  0.377785  1
  Co  Co15  1  0.622215  0.000000  0.622215  1
  Sn  Sn16  1  0.500000  0.500000  0.000000  1
  Pt  Pt17  1  0.000000  0.000000  0.000000  1
