# generated using pymatgen
data_Ho20Bi8IrPt3
_symmetry_space_group_name_H-M   'P 1'
_cell_length_a   8.03760310
_cell_length_b   9.01448700
_cell_length_c   12.38963612
_cell_angle_alpha   90.00000000
_cell_angle_beta   90.03376681
_cell_angle_gamma   90.00000000
_symmetry_Int_Tables_number   1
_chemical_formula_structural   Ho20Bi8IrPt3
_chemical_formula_sum   'Ho20 Bi8 Ir1 Pt3'
_cell_volume   897.68930178
_cell_formula_units_Z   1
loop_
 _symmetry_equiv_pos_site_id
 _symmetry_equiv_pos_as_xyz
  1  'x, y, z'
loop_
 _atom_site_type_symbol
 _atom_site_label
 _atom_site_symmetry_multiplicity
 _atom_site_fract_x
 _atom_site_fract_y
 _atom_site_fract_z
 _atom_site_occupancy
  Ho  Ho0  1  0.840172  0.750000  0.793872  1
  Ho  Ho1  1  0.163412  0.250000  0.209863  1
  Ho  Ho2  1  0.336685  0.250000  0.710152  1
  Ho  Ho3  1  0.663597  0.750000  0.289546  1
  Ho  Ho4  1  0.374591  0.750000  0.696856  1
  Ho  Ho5  1  0.625936  0.250000  0.302794  1
  Ho  Ho6  1  0.875253  0.250000  0.802771  1
  Ho  Ho7  1  0.121939  0.750000  0.194334  1
  Ho  Ho8  1  0.948424  0.750000  0.500406  1
  Ho  Ho9  1  0.049407  0.250000  0.500701  1
  Ho  Ho10  1  0.449417  0.250000  0.000416  1
  Ho  Ho11  1  0.553190  0.750000  0.000047  1
  Ho  Ho12  1  0.677642  0.046255  0.566782  1
  Ho  Ho13  1  0.320305  0.953971  0.432684  1
  Ho  Ho14  1  0.177366  0.951216  0.934397  1
  Ho  Ho15  1  0.320305  0.546029  0.432684  1
  Ho  Ho16  1  0.823286  0.041573  0.065477  1
  Ho  Ho17  1  0.677642  0.453745  0.566782  1
  Ho  Ho18  1  0.823286  0.458427  0.065477  1
  Ho  Ho19  1  0.177366  0.548784  0.934397  1
  Bi  Bi20  1  0.569070  0.489691  0.827427  1
  Bi  Bi21  1  0.431196  0.510233  0.172722  1
  Bi  Bi22  1  0.069071  0.510269  0.672700  1
  Bi  Bi23  1  0.431196  0.989767  0.172722  1
  Bi  Bi24  1  0.930900  0.489699  0.327561  1
  Bi  Bi25  1  0.569070  0.010309  0.827427  1
  Bi  Bi26  1  0.930900  0.010301  0.327561  1
  Bi  Bi27  1  0.069071  0.989731  0.672700  1
  Ir  Ir28  1  0.925418  0.750000  0.010716  1
  Pt  Pt29  1  0.575342  0.750000  0.510914  1
  Pt  Pt30  1  0.422619  0.250000  0.488116  1
  Pt  Pt31  1  0.076927  0.250000  0.989003  1
