# generated using pymatgen
data_YNpReB6
_symmetry_space_group_name_H-M   'P 1'
_cell_length_a   3.62889700
_cell_length_b   9.27643000
_cell_length_c   11.35866200
_cell_angle_alpha   90.00000000
_cell_angle_beta   90.00000000
_cell_angle_gamma   90.00000000
_symmetry_Int_Tables_number   1
_chemical_formula_structural   YNpReB6
_chemical_formula_sum   'Y4 Np4 Re4 B24'
_cell_volume   382.36901284
_cell_formula_units_Z   4
loop_
 _symmetry_equiv_pos_site_id
 _symmetry_equiv_pos_as_xyz
  1  'x, y, z'
loop_
 _atom_site_type_symbol
 _atom_site_label
 _atom_site_symmetry_multiplicity
 _atom_site_fract_x
 _atom_site_fract_y
 _atom_site_fract_z
 _atom_site_occupancy
  Y  Y0  1  0.000000  0.337380  0.406799  1
  Y  Y1  1  0.000000  0.662620  0.593201  1
  Y  Y2  1  0.000000  0.837380  0.093201  1
  Y  Y3  1  0.000000  0.162620  0.906799  1
  Np  Np4  1  0.000000  0.958994  0.400903  1
  Np  Np5  1  0.000000  0.041006  0.599097  1
  Np  Np6  1  0.000000  0.458994  0.099097  1
  Np  Np7  1  0.000000  0.541006  0.900903  1
  Re  Re8  1  0.000000  0.646681  0.318263  1
  Re  Re9  1  0.000000  0.353319  0.681737  1
  Re  Re10  1  0.000000  0.146681  0.181737  1
  Re  Re11  1  0.000000  0.853319  0.818263  1
  B  B12  1  0.500000  0.552559  0.430957  1
  B  B13  1  0.500000  0.447441  0.569043  1
  B  B14  1  0.500000  0.052559  0.069043  1
  B  B15  1  0.500000  0.947441  0.930957  1
  B  B16  1  0.500000  0.744887  0.422737  1
  B  B17  1  0.500000  0.255113  0.577263  1
  B  B18  1  0.500000  0.244887  0.077263  1
  B  B19  1  0.500000  0.755113  0.922737  1
  B  B20  1  0.500000  0.804368  0.275033  1
  B  B21  1  0.500000  0.195632  0.724967  1
  B  B22  1  0.500000  0.304368  0.224967  1
  B  B23  1  0.500000  0.695632  0.775033  1
  B  B24  1  0.500000  0.644161  0.188089  1
  B  B25  1  0.500000  0.355839  0.811911  1
  B  B26  1  0.500000  0.144161  0.311911  1
  B  B27  1  0.500000  0.855839  0.688089  1
  B  B28  1  0.500000  0.989066  0.220711  1
  B  B29  1  0.500000  0.010934  0.779289  1
  B  B30  1  0.500000  0.489066  0.279289  1
  B  B31  1  0.500000  0.510934  0.720711  1
  B  B32  1  0.500000  0.638906  0.038452  1
  B  B33  1  0.500000  0.361094  0.961548  1
  B  B34  1  0.500000  0.138906  0.461548  1
  B  B35  1  0.500000  0.861094  0.538452  1
