# generated using pymatgen
data_Hf8Mo3Ir4Pt
_symmetry_space_group_name_H-M   'P 1'
_cell_length_a   6.60591700
_cell_length_b   4.64187400
_cell_length_c   9.26142600
_cell_angle_alpha   90.00000000
_cell_angle_beta   90.00019190
_cell_angle_gamma   90.00000000
_symmetry_Int_Tables_number   1
_chemical_formula_structural   Hf8Mo3Ir4Pt
_chemical_formula_sum   'Hf8 Mo3 Ir4 Pt1'
_cell_volume   283.99083288
_cell_formula_units_Z   1
loop_
 _symmetry_equiv_pos_site_id
 _symmetry_equiv_pos_as_xyz
  1  'x, y, z'
loop_
 _atom_site_type_symbol
 _atom_site_label
 _atom_site_symmetry_multiplicity
 _atom_site_fract_x
 _atom_site_fract_y
 _atom_site_fract_z
 _atom_site_occupancy
  Hf  Hf0  1  0.006329  0.750000  0.124998  1
  Hf  Hf1  1  0.493651  0.750000  0.125000  1
  Hf  Hf2  1  0.003379  0.250001  0.377277  1
  Hf  Hf3  1  0.496616  0.250001  0.377277  1
  Hf  Hf4  1  0.498738  0.750000  0.625018  1
  Hf  Hf5  1  0.001269  0.750000  0.625017  1
  Hf  Hf6  1  0.496645  0.250001  0.872704  1
  Hf  Hf7  1  0.003374  0.250001  0.872705  1
  Mo  Mo8  1  0.249993  0.750000  0.372800  1
  Mo  Mo9  1  0.750009  0.250001  0.624994  1
  Mo  Mo10  1  0.250008  0.750000  0.877205  1
  Ir  Ir11  1  0.249991  0.250001  0.124998  1
  Ir  Ir12  1  0.749991  0.750000  0.374935  1
  Ir  Ir13  1  0.250009  0.250001  0.625002  1
  Ir  Ir14  1  0.750011  0.750000  0.875059  1
  Pt  Pt15  1  0.749988  0.250001  0.125010  1
