# generated using pymatgen
data_Ce10PuCoPb6
_symmetry_space_group_name_H-M   'P 1'
_cell_length_a   9.58286600
_cell_length_b   9.58286566
_cell_length_c   6.33256300
_cell_angle_alpha   90.00000000
_cell_angle_beta   90.00000000
_cell_angle_gamma   120.00000119
_symmetry_Int_Tables_number   1
_chemical_formula_structural   Ce10PuCoPb6
_chemical_formula_sum   'Ce10 Pu1 Co1 Pb6'
_cell_volume   503.61767144
_cell_formula_units_Z   1
loop_
 _symmetry_equiv_pos_site_id
 _symmetry_equiv_pos_as_xyz
  1  'x, y, z'
loop_
 _atom_site_type_symbol
 _atom_site_label
 _atom_site_symmetry_multiplicity
 _atom_site_fract_x
 _atom_site_fract_y
 _atom_site_fract_z
 _atom_site_occupancy
  Ce  Ce0  1  0.219819  0.219819  0.775414  1
  Ce  Ce1  1  0.780181  0.780181  0.224586  1
  Ce  Ce2  1  0.219819  0.000000  0.224586  1
  Ce  Ce3  1  0.780181  0.000000  0.775414  1
  Ce  Ce4  1  0.333333  0.666667  0.500000  1
  Ce  Ce5  1  0.666667  0.333333  0.500000  1
  Ce  Ce6  1  0.000000  0.219819  0.224586  1
  Ce  Ce7  1  0.000000  0.780181  0.775414  1
  Ce  Ce8  1  0.333333  0.666667  0.000000  1
  Ce  Ce9  1  0.666667  0.333333  0.000000  1
  Pu  Pu10  1  0.000000  0.000000  0.000000  1
  Co  Co11  1  0.000000  0.000000  0.500000  1
  Pb  Pb12  1  0.402963  0.402963  0.258030  1
  Pb  Pb13  1  0.597037  0.597037  0.741970  1
  Pb  Pb14  1  0.000000  0.402963  0.741970  1
  Pb  Pb15  1  0.597037  0.000000  0.258030  1
  Pb  Pb16  1  0.402963  0.000000  0.741970  1
  Pb  Pb17  1  0.000000  0.597037  0.258030  1
