# generated using pymatgen
data_TcNiSnP
_symmetry_space_group_name_H-M   'P 1'
_cell_length_a   3.46843800
_cell_length_b   5.60709500
_cell_length_c   13.03828100
_cell_angle_alpha   90.00000000
_cell_angle_beta   90.00000000
_cell_angle_gamma   90.00000000
_symmetry_Int_Tables_number   1
_chemical_formula_structural   TcNiSnP
_chemical_formula_sum   'Tc4 Ni4 Sn4 P4'
_cell_volume   253.56668136
_cell_formula_units_Z   4
loop_
 _symmetry_equiv_pos_site_id
 _symmetry_equiv_pos_as_xyz
  1  'x, y, z'
loop_
 _atom_site_type_symbol
 _atom_site_label
 _atom_site_symmetry_multiplicity
 _atom_site_fract_x
 _atom_site_fract_y
 _atom_site_fract_z
 _atom_site_occupancy
  Tc  Tc0  1  0.250000  0.496132  0.092817  1
  Tc  Tc1  1  0.750000  0.503868  0.907183  1
  Tc  Tc2  1  0.750000  0.996132  0.407183  1
  Tc  Tc3  1  0.250000  0.003868  0.592817  1
  Ni  Ni4  1  0.750000  0.505959  0.406760  1
  Ni  Ni5  1  0.250000  0.494041  0.593240  1
  Ni  Ni6  1  0.250000  0.005959  0.093240  1
  Ni  Ni7  1  0.750000  0.994041  0.906760  1
  Sn  Sn8  1  0.250000  0.275641  0.284410  1
  Sn  Sn9  1  0.750000  0.724359  0.715590  1
  Sn  Sn10  1  0.750000  0.775641  0.215590  1
  Sn  Sn11  1  0.250000  0.224359  0.784410  1
  P  P12  1  0.750000  0.229733  0.046254  1
  P  P13  1  0.250000  0.770267  0.953746  1
  P  P14  1  0.250000  0.729733  0.453746  1
  P  P15  1  0.750000  0.270267  0.546254  1
