# generated using pymatgen
data_La12TcIr2RuBr12
_symmetry_space_group_name_H-M   'P 1'
_cell_length_a   10.64925798
_cell_length_b   10.66393439
_cell_length_c   10.63273634
_cell_angle_alpha   109.80255893
_cell_angle_beta   108.66019712
_cell_angle_gamma   109.86484109
_symmetry_Int_Tables_number   1
_chemical_formula_structural   La12TcIr2RuBr12
_chemical_formula_sum   'La12 Tc1 Ir2 Ru1 Br12'
_cell_volume   930.41110083
_cell_formula_units_Z   1
loop_
 _symmetry_equiv_pos_site_id
 _symmetry_equiv_pos_as_xyz
  1  'x, y, z'
loop_
 _atom_site_type_symbol
 _atom_site_label
 _atom_site_symmetry_multiplicity
 _atom_site_fract_x
 _atom_site_fract_y
 _atom_site_fract_z
 _atom_site_occupancy
  La  La0  1  0.267169  0.751677  0.234504  1
  La  La1  1  0.484508  0.751677  0.017172  1
  La  La2  1  0.233373  0.466746  0.483373  1
  La  La3  1  0.017818  0.035636  0.267818  1
  La  La4  1  0.237631  0.269434  0.757471  1
  La  La5  1  0.016477  0.482051  0.748774  1
  La  La6  1  0.488764  0.229543  0.468201  1
  La  La7  1  0.267527  0.015068  0.032844  1
  La  La8  1  0.740779  0.229543  0.261342  1
  La  La9  1  0.747542  0.015068  0.482224  1
  La  La10  1  0.465574  0.482051  0.233277  1
  La  La11  1  0.031802  0.269434  0.011963  1
  Tc  Tc12  1  0.502881  0.005762  0.252881  1
  Ir  Ir13  1  0.002264  0.251132  0.501049  1
  Ir  Ir14  1  0.248868  0.251132  0.250083  1
  Ru  Ru15  1  0.246755  0.493511  0.996755  1
  Br  Br16  1  0.250012  0.994964  0.503443  1
  Br  Br17  1  0.507575  0.504494  0.754502  1
  Br  Br18  1  0.251148  0.755103  0.746590  1
  Br  Br19  1  0.992498  0.745523  0.996747  1
  Br  Br20  1  0.996919  0.504494  0.249992  1
  Br  Br21  1  0.744952  0.994964  0.991521  1
  Br  Br22  1  0.753026  0.745523  0.248776  1
  Br  Br23  1  0.503955  0.755103  0.508513  1
  Br  Br24  1  0.505692  0.249963  0.994442  1
  Br  Br25  1  0.754300  0.508599  0.504300  1
  Br  Br26  1  0.744271  0.249963  0.755521  1
  Br  Br27  1  0.995920  0.991841  0.745920  1
