# generated using pymatgen
data_Yb2Pr6SiPd24
_symmetry_space_group_name_H-M   'P 1'
_cell_length_a   8.45370804
_cell_length_b   8.45370804
_cell_length_c   8.45370804
_cell_angle_alpha   89.87502096
_cell_angle_beta   89.87502096
_cell_angle_gamma   89.87502096
_symmetry_Int_Tables_number   1
_chemical_formula_structural   Yb2Pr6SiPd24
_chemical_formula_sum   'Yb2 Pr6 Si1 Pd24'
_cell_volume   604.14145905
_cell_formula_units_Z   1
loop_
 _symmetry_equiv_pos_site_id
 _symmetry_equiv_pos_as_xyz
  1  'x, y, z'
loop_
 _atom_site_type_symbol
 _atom_site_label
 _atom_site_symmetry_multiplicity
 _atom_site_fract_x
 _atom_site_fract_y
 _atom_site_fract_z
 _atom_site_occupancy
  Yb  Yb0  1  0.252039  0.252039  0.252039  1
  Yb  Yb1  1  0.747961  0.747961  0.747961  1
  Pr  Pr2  1  0.746518  0.746518  0.253044  1
  Pr  Pr3  1  0.746518  0.253044  0.746518  1
  Pr  Pr4  1  0.253482  0.253482  0.746956  1
  Pr  Pr5  1  0.253482  0.746956  0.253482  1
  Pr  Pr6  1  0.253044  0.746518  0.746518  1
  Pr  Pr7  1  0.746956  0.253482  0.253482  1
  Si  Si8  1  0.000000  0.000000  0.000000  1
  Pd  Pd9  1  0.257128  0.497357  0.003833  1
  Pd  Pd10  1  0.742872  0.502643  0.996167  1
  Pd  Pd11  1  0.003833  0.257128  0.497357  1
  Pd  Pd12  1  0.497357  0.257128  0.003833  1
  Pd  Pd13  1  0.996167  0.742872  0.502643  1
  Pd  Pd14  1  0.502643  0.742872  0.996167  1
  Pd  Pd15  1  0.497357  0.003833  0.257128  1
  Pd  Pd16  1  0.257128  0.003833  0.497357  1
  Pd  Pd17  1  0.502643  0.996167  0.742872  1
  Pd  Pd18  1  0.742872  0.996167  0.502643  1
  Pd  Pd19  1  0.003833  0.497357  0.257128  1
  Pd  Pd20  1  0.996167  0.502643  0.742872  1
  Pd  Pd21  1  0.251897  0.496088  0.496088  1
  Pd  Pd22  1  0.748103  0.503912  0.503912  1
  Pd  Pd23  1  0.496088  0.251897  0.496088  1
  Pd  Pd24  1  0.503912  0.748103  0.503912  1
  Pd  Pd25  1  0.496088  0.496088  0.251897  1
  Pd  Pd26  1  0.503912  0.503912  0.748103  1
  Pd  Pd27  1  0.280722  0.003525  0.003525  1
  Pd  Pd28  1  0.719278  0.996475  0.996475  1
  Pd  Pd29  1  0.003525  0.280722  0.003525  1
  Pd  Pd30  1  0.996475  0.719278  0.996475  1
  Pd  Pd31  1  0.003525  0.003525  0.280722  1
  Pd  Pd32  1  0.996475  0.996475  0.719278  1
