# generated using pymatgen
data_LaHoEr5CoI12
_symmetry_space_group_name_H-M   'P 1'
_cell_length_a   9.73250525
_cell_length_b   9.71454055
_cell_length_c   9.72667286
_cell_angle_alpha   106.16343245
_cell_angle_beta   106.18935937
_cell_angle_gamma   106.28135460
_symmetry_Int_Tables_number   1
_chemical_formula_structural   LaHoEr5CoI12
_chemical_formula_sum   'La1 Ho1 Er5 Co1 I12'
_cell_volume   781.76366707
_cell_formula_units_Z   1
loop_
 _symmetry_equiv_pos_site_id
 _symmetry_equiv_pos_as_xyz
  1  'x, y, z'
loop_
 _atom_site_type_symbol
 _atom_site_label
 _atom_site_symmetry_multiplicity
 _atom_site_fract_x
 _atom_site_fract_y
 _atom_site_fract_z
 _atom_site_occupancy
  La  La0  1  0.995070  0.995081  0.994994  1
  Ho  Ho1  1  0.410535  0.216206  0.481873  1
  Er  Er2  1  0.516616  0.587747  0.781515  1
  Er  Er3  1  0.781581  0.516818  0.587463  1
  Er  Er4  1  0.587507  0.781485  0.516566  1
  Er  Er5  1  0.482134  0.411400  0.217713  1
  Er  Er6  1  0.217762  0.482259  0.411232  1
  Co  Co7  1  0.499807  0.499848  0.499781  1
  I  I8  1  0.276376  0.823286  0.426685  1
  I  I9  1  0.426830  0.276913  0.824069  1
  I  I10  1  0.823541  0.426779  0.276506  1
  I  I11  1  0.723078  0.175335  0.571844  1
  I  I12  1  0.571659  0.722337  0.175132  1
  I  I13  1  0.175219  0.571684  0.722422  1
  I  I14  1  0.044985  0.123771  0.352096  1
  I  I15  1  0.352290  0.045602  0.123287  1
  I  I16  1  0.123591  0.351982  0.045436  1
  I  I17  1  0.952724  0.873760  0.640202  1
  I  I18  1  0.640189  0.952589  0.873813  1
  I  I19  1  0.873874  0.640491  0.952744  1
