# generated using pymatgen
data_TbNdNpO6
_symmetry_space_group_name_H-M   'P 1'
_cell_length_a   5.61556600
_cell_length_b   7.91105104
_cell_length_c   11.93309800
_cell_angle_alpha   74.26544268
_cell_angle_beta   90.00000000
_cell_angle_gamma   90.00000000
_symmetry_Int_Tables_number   1
_chemical_formula_structural   TbNdNpO6
_chemical_formula_sum   'Tb4 Nd4 Np4 O24'
_cell_volume   510.26345464
_cell_formula_units_Z   4
loop_
 _symmetry_equiv_pos_site_id
 _symmetry_equiv_pos_as_xyz
  1  'x, y, z'
loop_
 _atom_site_type_symbol
 _atom_site_label
 _atom_site_symmetry_multiplicity
 _atom_site_fract_x
 _atom_site_fract_y
 _atom_site_fract_z
 _atom_site_occupancy
  Tb  Tb0  1  0.186532  0.793829  0.579591  1
  Tb  Tb1  1  0.813468  0.793829  0.079591  1
  Tb  Tb2  1  0.186532  0.206171  0.920409  1
  Tb  Tb3  1  0.813468  0.206171  0.420409  1
  Nd  Nd4  1  0.745664  0.000000  0.750000  1
  Nd  Nd5  1  0.254336  0.000000  0.250000  1
  Nd  Nd6  1  0.693626  0.500000  0.750000  1
  Nd  Nd7  1  0.306374  0.500000  0.250000  1
  Np  Np8  1  0.253980  0.721004  0.887828  1
  Np  Np9  1  0.746020  0.721004  0.387828  1
  Np  Np10  1  0.253980  0.278996  0.612172  1
  Np  Np11  1  0.746020  0.278996  0.112172  1
  O  O12  1  0.050760  0.941837  0.899802  1
  O  O13  1  0.548575  0.844715  0.934816  1
  O  O14  1  0.949240  0.941837  0.399802  1
  O  O15  1  0.444197  0.795618  0.728417  1
  O  O16  1  0.451425  0.844715  0.434816  1
  O  O17  1  0.971210  0.716077  0.767153  1
  O  O18  1  0.555803  0.795618  0.228417  1
  O  O19  1  0.876567  0.628565  0.553053  1
  O  O20  1  0.378564  0.482177  0.887128  1
  O  O21  1  0.028790  0.716077  0.267153  1
  O  O22  1  0.378564  0.517823  0.612872  1
  O  O23  1  0.876567  0.371435  0.946947  1
  O  O24  1  0.123433  0.628565  0.053053  1
  O  O25  1  0.621436  0.482177  0.387128  1
  O  O26  1  0.971210  0.283923  0.732847  1
  O  O27  1  0.621436  0.517823  0.112872  1
  O  O28  1  0.123433  0.371435  0.446947  1
  O  O29  1  0.444197  0.204382  0.771583  1
  O  O30  1  0.028790  0.283923  0.232847  1
  O  O31  1  0.548575  0.155285  0.565184  1
  O  O32  1  0.555803  0.204382  0.271583  1
  O  O33  1  0.050760  0.058163  0.600198  1
  O  O34  1  0.451425  0.155285  0.065184  1
  O  O35  1  0.949240  0.058163  0.100198  1
