# generated using pymatgen
data_Y3Si3Pd
_symmetry_space_group_name_H-M   'P 1'
_cell_length_a   5.69842333
_cell_length_b   5.69842303
_cell_length_c   13.65246369
_cell_angle_alpha   71.11173718
_cell_angle_beta   71.11173887
_cell_angle_gamma   43.72833326
_symmetry_Int_Tables_number   1
_chemical_formula_structural   Y3Si3Pd
_chemical_formula_sum   'Y6 Si6 Pd2'
_cell_volume   287.19557581
_cell_formula_units_Z   2
loop_
 _symmetry_equiv_pos_site_id
 _symmetry_equiv_pos_as_xyz
  1  'x, y, z'
loop_
 _atom_site_type_symbol
 _atom_site_label
 _atom_site_symmetry_multiplicity
 _atom_site_fract_x
 _atom_site_fract_y
 _atom_site_fract_z
 _atom_site_occupancy
  Y  Y0  1  0.603646  0.603646  0.077517  1
  Y  Y1  1  0.396354  0.396354  0.922483  1
  Y  Y2  1  0.524273  0.524273  0.624346  1
  Y  Y3  1  0.475727  0.475727  0.375654  1
  Y  Y4  1  0.256554  0.256554  0.226141  1
  Y  Y5  1  0.743446  0.743446  0.773859  1
  Si  Si6  1  0.960769  0.960769  0.230397  1
  Si  Si7  1  0.039231  0.039231  0.769603  1
  Si  Si8  1  0.877241  0.877241  0.545199  1
  Si  Si9  1  0.122759  0.122759  0.454801  1
  Si  Si10  1  0.112050  0.112050  0.924862  1
  Si  Si11  1  0.887950  0.887950  0.075138  1
  Pd  Pd12  1  0.756274  0.756274  0.406266  1
  Pd  Pd13  1  0.243726  0.243726  0.593734  1
