# generated using pymatgen
data_Ac5Pr5Sn8
_symmetry_space_group_name_H-M   'P 1'
_cell_length_a   8.57900700
_cell_length_b   8.73155903
_cell_length_c   16.59935634
_cell_angle_alpha   89.80331299
_cell_angle_beta   90.00000000
_cell_angle_gamma   90.00000000
_symmetry_Int_Tables_number   1
_chemical_formula_structural   Ac5Pr5Sn8
_chemical_formula_sum   'Ac10 Pr10 Sn16'
_cell_volume   1243.41901743
_cell_formula_units_Z   2
loop_
 _symmetry_equiv_pos_site_id
 _symmetry_equiv_pos_as_xyz
  1  'x, y, z'
loop_
 _atom_site_type_symbol
 _atom_site_label
 _atom_site_symmetry_multiplicity
 _atom_site_fract_x
 _atom_site_fract_y
 _atom_site_fract_z
 _atom_site_occupancy
  Ac  Ac0  1  0.491315  0.818427  0.904301  1
  Ac  Ac1  1  0.991315  0.681573  0.595699  1
  Ac  Ac2  1  0.510188  0.178316  0.401296  1
  Ac  Ac3  1  0.010188  0.321684  0.098704  1
  Ac  Ac4  1  0.509757  0.182244  0.099264  1
  Ac  Ac5  1  0.009757  0.317756  0.400736  1
  Ac  Ac6  1  0.488405  0.816996  0.596593  1
  Ac  Ac7  1  0.988405  0.683004  0.903407  1
  Ac  Ac8  1  0.642009  0.339309  0.882971  1
  Ac  Ac9  1  0.142009  0.160691  0.617029  1
  Pr  Pr10  1  0.358226  0.659945  0.375263  1
  Pr  Pr11  1  0.858226  0.840055  0.124737  1
  Pr  Pr12  1  0.355036  0.661399  0.121961  1
  Pr  Pr13  1  0.855036  0.838601  0.378039  1
  Pr  Pr14  1  0.645816  0.338159  0.621973  1
  Pr  Pr15  1  0.145816  0.161841  0.878027  1
  Pr  Pr16  1  0.310465  0.498114  0.751331  1
  Pr  Pr17  1  0.810465  0.001886  0.748669  1
  Pr  Pr18  1  0.690485  0.500276  0.250675  1
  Pr  Pr19  1  0.190485  0.999724  0.249325  1
  Sn  Sn20  1  0.194751  0.959877  0.043069  1
  Sn  Sn21  1  0.694751  0.540123  0.456931  1
  Sn  Sn22  1  0.792080  0.039345  0.541399  1
  Sn  Sn23  1  0.292080  0.460655  0.958601  1
  Sn  Sn24  1  0.814785  0.036193  0.958787  1
  Sn  Sn25  1  0.314785  0.463807  0.541213  1
  Sn  Sn26  1  0.195981  0.949848  0.451512  1
  Sn  Sn27  1  0.695981  0.550152  0.048488  1
  Sn  Sn28  1  0.688508  0.644011  0.748433  1
  Sn  Sn29  1  0.188508  0.855989  0.751567  1
  Sn  Sn30  1  0.312200  0.360145  0.249598  1
  Sn  Sn31  1  0.812200  0.139855  0.250402  1
  Sn  Sn32  1  0.444979  0.117536  0.751651  1
  Sn  Sn33  1  0.944979  0.382464  0.748349  1
  Sn  Sn34  1  0.555014  0.875050  0.249577  1
  Sn  Sn35  1  0.055014  0.624950  0.250423  1
