# generated using pymatgen
data_Hf3Sc5Ta11VSi16
_symmetry_space_group_name_H-M   'P 1'
_cell_length_a   6.86049641
_cell_length_b   6.86749587
_cell_length_c   12.64146309
_cell_angle_alpha   90.17840853
_cell_angle_beta   89.87438954
_cell_angle_gamma   90.00432783
_symmetry_Int_Tables_number   1
_chemical_formula_structural   Hf3Sc5Ta11VSi16
_chemical_formula_sum   'Hf3 Sc5 Ta11 V1 Si16'
_cell_volume   595.59101731
_cell_formula_units_Z   1
loop_
 _symmetry_equiv_pos_site_id
 _symmetry_equiv_pos_as_xyz
  1  'x, y, z'
loop_
 _atom_site_type_symbol
 _atom_site_label
 _atom_site_symmetry_multiplicity
 _atom_site_fract_x
 _atom_site_fract_y
 _atom_site_fract_z
 _atom_site_occupancy
  Hf  Hf0  1  0.001276  0.659917  0.030916  1
  Hf  Hf1  1  0.839692  0.504541  0.279939  1
  Hf  Hf2  1  0.158858  0.497416  0.780318  1
  Sc  Sc3  1  0.500804  0.838868  0.719140  1
  Sc  Sc4  1  0.498781  0.160934  0.220831  1
  Sc  Sc5  1  0.999732  0.340784  0.528595  1
  Sc  Sc6  1  0.661697  0.999789  0.970336  1
  Sc  Sc7  1  0.338875  0.000146  0.469568  1
  Ta  Ta8  1  0.328267  0.332098  0.000006  1
  Ta  Ta9  1  0.166886  0.830593  0.250488  1
  Ta  Ta10  1  0.832307  0.170668  0.749267  1
  Ta  Ta11  1  0.671757  0.668584  0.499271  1
  Ta  Ta12  1  0.003614  0.152818  0.126360  1
  Ta  Ta13  1  0.348545  0.504459  0.375554  1
  Ta  Ta14  1  0.652656  0.495712  0.876420  1
  Ta  Ta15  1  0.507629  0.348456  0.623277  1
  Ta  Ta16  1  0.495030  0.653029  0.124699  1
  Ta  Ta17  1  0.995600  0.846637  0.627260  1
  Ta  Ta18  1  0.151212  0.004592  0.874100  1
  V  V19  1  0.847057  0.990176  0.372793  1
  Si  Si20  1  0.302315  0.958291  0.064365  1
  Si  Si21  1  0.545199  0.806077  0.315894  1
  Si  Si22  1  0.458857  0.196490  0.813538  1
  Si  Si23  1  0.802309  0.542714  0.685475  1
  Si  Si24  1  0.199582  0.455241  0.187425  1
  Si  Si25  1  0.702042  0.041156  0.559711  1
  Si  Si26  1  0.955404  0.300519  0.936333  1
  Si  Si27  1  0.040759  0.705355  0.435630  1
  Si  Si28  1  0.705439  0.362646  0.073800  1
  Si  Si29  1  0.127857  0.203077  0.324052  1
  Si  Si30  1  0.861388  0.793483  0.822848  1
  Si  Si31  1  0.207447  0.137727  0.677000  1
  Si  Si32  1  0.793163  0.865615  0.180823  1
  Si  Si33  1  0.294205  0.636869  0.571824  1
  Si  Si34  1  0.363399  0.707021  0.927300  1
  Si  Si35  1  0.640360  0.287503  0.424842  1
