# generated using pymatgen
data_NdYNi12P5
_symmetry_space_group_name_H-M   'P 1'
_cell_length_a   3.66561500
_cell_length_b   10.72942522
_cell_length_c   13.13414303
_cell_angle_alpha   71.58752648
_cell_angle_beta   90.00000000
_cell_angle_gamma   90.00000000
_symmetry_Int_Tables_number   1
_chemical_formula_structural   NdYNi12P5
_chemical_formula_sum   'Nd2 Y2 Ni24 P10'
_cell_volume   490.12070778
_cell_formula_units_Z   2
loop_
 _symmetry_equiv_pos_site_id
 _symmetry_equiv_pos_as_xyz
  1  'x, y, z'
loop_
 _atom_site_type_symbol
 _atom_site_label
 _atom_site_symmetry_multiplicity
 _atom_site_fract_x
 _atom_site_fract_y
 _atom_site_fract_z
 _atom_site_occupancy
  Nd  Nd0  1  0.250000  0.244806  0.187874  1
  Nd  Nd1  1  0.750000  0.755194  0.812126  1
  Y  Y2  1  0.250000  0.281427  0.681857  1
  Y  Y3  1  0.750000  0.718573  0.318143  1
  Ni  Ni4  1  0.250000  0.836782  0.139490  1
  Ni  Ni5  1  0.750000  0.163218  0.860510  1
  Ni  Ni6  1  0.250000  0.287928  0.439292  1
  Ni  Ni7  1  0.750000  0.712072  0.560708  1
  Ni  Ni8  1  0.250000  0.069552  0.015948  1
  Ni  Ni9  1  0.750000  0.930448  0.984052  1
  Ni  Ni10  1  0.250000  0.063939  0.446723  1
  Ni  Ni11  1  0.750000  0.936061  0.553277  1
  Ni  Ni12  1  0.250000  0.596375  0.695731  1
  Ni  Ni13  1  0.750000  0.403625  0.304269  1
  Ni  Ni14  1  0.250000  0.583295  0.007887  1
  Ni  Ni15  1  0.750000  0.416705  0.992113  1
  Ni  Ni16  1  0.250000  0.578986  0.509412  1
  Ni  Ni17  1  0.750000  0.421014  0.490588  1
  Ni  Ni18  1  0.250000  0.298082  0.916789  1
  Ni  Ni19  1  0.750000  0.701918  0.083211  1
  Ni  Ni20  1  0.250000  0.995850  0.659572  1
  Ni  Ni21  1  0.750000  0.004150  0.340428  1
  Ni  Ni22  1  0.250000  0.837143  0.437238  1
  Ni  Ni23  1  0.750000  0.162857  0.562762  1
  Ni  Ni24  1  0.250000  0.992020  0.848019  1
  Ni  Ni25  1  0.750000  0.007980  0.151981  1
  Ni  Ni26  1  0.250000  0.565699  0.204279  1
  Ni  Ni27  1  0.750000  0.434301  0.795721  1
  P  P28  1  0.250000  0.509550  0.870764  1
  P  P29  1  0.750000  0.490450  0.129236  1
  P  P30  1  0.250000  0.801118  0.984015  1
  P  P31  1  0.750000  0.198882  0.015985  1
  P  P32  1  0.250000  0.497644  0.377537  1
  P  P33  1  0.750000  0.502356  0.622463  1
  P  P34  1  0.250000  0.812966  0.610586  1
  P  P35  1  0.750000  0.187034  0.389414  1
  P  P36  1  0.250000  0.944700  0.260769  1
  P  P37  1  0.750000  0.055300  0.739231  1
