# generated using pymatgen
data_NaEr(NbSe2)8
_symmetry_space_group_name_H-M   'P 1'
_cell_length_a   7.01345000
_cell_length_b   7.01345011
_cell_length_c   14.61859100
_cell_angle_alpha   90.00000000
_cell_angle_beta   90.00000000
_cell_angle_gamma   119.99999946
_symmetry_Int_Tables_number   1
_chemical_formula_structural   NaEr(NbSe2)8
_chemical_formula_sum   'Na1 Er1 Nb8 Se16'
_cell_volume   622.72968266
_cell_formula_units_Z   1
loop_
 _symmetry_equiv_pos_site_id
 _symmetry_equiv_pos_as_xyz
  1  'x, y, z'
loop_
 _atom_site_type_symbol
 _atom_site_label
 _atom_site_symmetry_multiplicity
 _atom_site_fract_x
 _atom_site_fract_y
 _atom_site_fract_z
 _atom_site_occupancy
  Na  Na0  1  0.000000  0.000000  0.000000  1
  Er  Er1  1  0.000000  0.000000  0.500000  1
  Nb  Nb2  1  0.000000  0.000000  0.253523  1
  Nb  Nb3  1  0.000000  0.000000  0.746477  1
  Nb  Nb4  1  0.508494  0.016988  0.253072  1
  Nb  Nb5  1  0.983012  0.491506  0.253072  1
  Nb  Nb6  1  0.508494  0.491506  0.253072  1
  Nb  Nb7  1  0.491506  0.983012  0.746928  1
  Nb  Nb8  1  0.016988  0.508494  0.746928  1
  Nb  Nb9  1  0.491506  0.508494  0.746928  1
  Se  Se10  1  0.333333  0.666667  0.866207  1
  Se  Se11  1  0.666667  0.333333  0.133793  1
  Se  Se12  1  0.666667  0.333333  0.372528  1
  Se  Se13  1  0.333333  0.666667  0.627472  1
  Se  Se14  1  0.169211  0.830789  0.367148  1
  Se  Se15  1  0.169211  0.338422  0.367148  1
  Se  Se16  1  0.661578  0.830789  0.367148  1
  Se  Se17  1  0.830789  0.169211  0.632852  1
  Se  Se18  1  0.830789  0.661578  0.632852  1
  Se  Se19  1  0.338422  0.169211  0.632852  1
  Se  Se20  1  0.831067  0.168933  0.858873  1
  Se  Se21  1  0.831067  0.662135  0.858873  1
  Se  Se22  1  0.337865  0.168933  0.858873  1
  Se  Se23  1  0.168933  0.831067  0.141127  1
  Se  Se24  1  0.168933  0.337865  0.141127  1
  Se  Se25  1  0.662135  0.831067  0.141127  1
