# generated using pymatgen
data_Ho12TcPd2Ru
_symmetry_space_group_name_H-M   'P 1'
_cell_length_a   6.33535194
_cell_length_b   7.22470508
_cell_length_c   9.31693000
_cell_angle_alpha   90.00000000
_cell_angle_beta   90.00000000
_cell_angle_gamma   89.93654640
_symmetry_Int_Tables_number   1
_chemical_formula_structural   Ho12TcPd2Ru
_chemical_formula_sum   'Ho12 Tc1 Pd2 Ru1'
_cell_volume   426.44540071
_cell_formula_units_Z   1
loop_
 _symmetry_equiv_pos_site_id
 _symmetry_equiv_pos_as_xyz
  1  'x, y, z'
loop_
 _atom_site_type_symbol
 _atom_site_label
 _atom_site_symmetry_multiplicity
 _atom_site_fract_x
 _atom_site_fract_y
 _atom_site_fract_z
 _atom_site_occupancy
  Ho  Ho0  1  0.325876  0.684989  0.058623  1
  Ho  Ho1  1  0.168975  0.174258  0.437066  1
  Ho  Ho2  1  0.668474  0.325473  0.563804  1
  Ho  Ho3  1  0.829223  0.815561  0.942855  1
  Ho  Ho4  1  0.668474  0.325473  0.936196  1
  Ho  Ho5  1  0.829223  0.815561  0.557145  1
  Ho  Ho6  1  0.325876  0.684989  0.441377  1
  Ho  Ho7  1  0.168975  0.174258  0.062934  1
  Ho  Ho8  1  0.876879  0.537167  0.250000  1
  Ho  Ho9  1  0.630758  0.029897  0.250000  1
  Ho  Ho10  1  0.137080  0.471535  0.750000  1
  Ho  Ho11  1  0.378515  0.958391  0.750000  1
  Tc  Tc12  1  0.044382  0.887748  0.250000  1
  Pd  Pd13  1  0.447401  0.390405  0.250000  1
  Pd  Pd14  1  0.950740  0.110968  0.750000  1
  Ru  Ru15  1  0.549150  0.613330  0.750000  1
