# generated using pymatgen
data_MgNb2F12
_symmetry_space_group_name_H-M   'P 1'
_cell_length_a   5.22034525
_cell_length_b   5.60127522
_cell_length_c   9.19579713
_cell_angle_alpha   104.88505727
_cell_angle_beta   90.44658141
_cell_angle_gamma   119.11380954
_symmetry_Int_Tables_number   1
_chemical_formula_structural   MgNb2F12
_chemical_formula_sum   'Mg1 Nb2 F12'
_cell_volume   224.20960515
_cell_formula_units_Z   1
loop_
 _symmetry_equiv_pos_site_id
 _symmetry_equiv_pos_as_xyz
  1  'x, y, z'
loop_
 _atom_site_type_symbol
 _atom_site_label
 _atom_site_symmetry_multiplicity
 _atom_site_fract_x
 _atom_site_fract_y
 _atom_site_fract_z
 _atom_site_occupancy
  Mg  Mg0  1  0.000000  0.000000  0.000000  1
  Nb  Nb1  1  0.775654  0.505163  0.259421  1
  Nb  Nb2  1  0.224346  0.494837  0.740579  1
  F  F3  1  0.809131  0.257649  0.709284  1
  F  F4  1  0.190869  0.742351  0.290716  1
  F  F5  1  0.182011  0.755547  0.925464  1
  F  F6  1  0.703355  0.723985  0.427247  1
  F  F7  1  0.296645  0.276015  0.572753  1
  F  F8  1  0.782416  0.262975  0.366184  1
  F  F9  1  0.217584  0.737025  0.633816  1
  F  F10  1  0.341671  0.254681  0.176147  1
  F  F11  1  0.658329  0.745319  0.823853  1
  F  F12  1  0.771779  0.735737  0.124064  1
  F  F13  1  0.228221  0.264263  0.875936  1
  F  F14  1  0.817989  0.244453  0.074536  1
