# generated using pymatgen
data_Gd2Ho4ScCrO12
_symmetry_space_group_name_H-M   'P 1'
_cell_length_a   6.57851054
_cell_length_b   6.57021696
_cell_length_c   6.57696876
_cell_angle_alpha   92.67485206
_cell_angle_beta   92.65651846
_cell_angle_gamma   92.72021549
_symmetry_Int_Tables_number   1
_chemical_formula_structural   Gd2Ho4ScCrO12
_chemical_formula_sum   'Gd2 Ho4 Sc1 Cr1 O12'
_cell_volume   283.30548203
_cell_formula_units_Z   1
loop_
 _symmetry_equiv_pos_site_id
 _symmetry_equiv_pos_as_xyz
  1  'x, y, z'
loop_
 _atom_site_type_symbol
 _atom_site_label
 _atom_site_symmetry_multiplicity
 _atom_site_fract_x
 _atom_site_fract_y
 _atom_site_fract_z
 _atom_site_occupancy
  Gd  Gd0  1  0.742521  0.927385  0.435601  1
  Gd  Gd1  1  0.927965  0.437721  0.743941  1
  Ho  Ho2  1  0.436136  0.744068  0.927689  1
  Ho  Ho3  1  0.257440  0.072393  0.564160  1
  Ho  Ho4  1  0.074347  0.563559  0.256710  1
  Ho  Ho5  1  0.562297  0.257738  0.072707  1
  Sc  Sc6  1  0.001609  0.000510  0.001240  1
  Cr  Cr7  1  0.499001  0.499569  0.499462  1
  O  O8  1  0.583554  0.461100  0.799962  1
  O  O9  1  0.457202  0.798098  0.590363  1
  O  O10  1  0.797864  0.586112  0.456540  1
  O  O11  1  0.411363  0.539000  0.200094  1
  O  O12  1  0.535809  0.202429  0.410375  1
  O  O13  1  0.202071  0.410135  0.534852  1
  O  O14  1  0.071839  0.914018  0.308316  1
  O  O15  1  0.913399  0.307353  0.072958  1
  O  O16  1  0.691760  0.932581  0.080692  1
  O  O17  1  0.088505  0.694294  0.935810  1
  O  O18  1  0.936070  0.082674  0.694402  1
  O  O19  1  0.309247  0.069264  0.914126  1
