# generated using pymatgen
data_Na3Y2P12Ir9Ru10
_symmetry_space_group_name_H-M   'P 1'
_cell_length_a   12.56937349
_cell_length_b   12.52541101
_cell_length_c   3.97677200
_cell_angle_alpha   90.00000000
_cell_angle_beta   90.00000000
_cell_angle_gamma   119.80794045
_symmetry_Int_Tables_number   1
_chemical_formula_structural   Na3Y2P12Ir9Ru10
_chemical_formula_sum   'Na3 Y2 P12 Ir9 Ru10'
_cell_volume   543.25557309
_cell_formula_units_Z   1
loop_
 _symmetry_equiv_pos_site_id
 _symmetry_equiv_pos_as_xyz
  1  'x, y, z'
loop_
 _atom_site_type_symbol
 _atom_site_label
 _atom_site_symmetry_multiplicity
 _atom_site_fract_x
 _atom_site_fract_y
 _atom_site_fract_z
 _atom_site_occupancy
  Na  Na0  1  0.666900  0.332312  0.000000  1
  Na  Na1  1  0.333655  0.666797  0.000000  1
  Na  Na2  1  0.000484  0.815250  0.500000  1
  Y  Y3  1  0.817154  0.999964  0.500000  1
  Y  Y4  1  0.180655  0.182643  0.500000  1
  P  P5  1  0.628003  0.997126  0.000000  1
  P  P6  1  0.367992  0.374111  0.000000  1
  P  P7  1  0.006091  0.633231  0.000000  1
  P  P8  1  0.689812  0.519141  0.500000  1
  P  P9  1  0.829490  0.309121  0.500000  1
  P  P10  1  0.312439  0.832598  0.500000  1
  P  P11  1  0.518571  0.685103  0.500000  1
  P  P12  1  0.182431  0.999687  0.000000  1
  P  P13  1  0.818002  0.814980  0.000000  1
  P  P14  1  0.995683  0.183242  0.000000  1
  P  P15  1  0.481610  0.167446  0.500000  1
  P  P16  1  0.168781  0.483448  0.500000  1
  Ir  Ir17  1  0.623299  0.805009  0.000000  1
  Ir  Ir18  1  0.181323  0.376363  0.000000  1
  Ir  Ir19  1  0.374751  0.186637  0.000000  1
  Ir  Ir20  1  0.197736  0.818477  0.000000  1
  Ir  Ir21  1  0.808507  0.620587  0.000000  1
  Ir  Ir22  1  0.871028  0.508318  0.500000  1
  Ir  Ir23  1  0.492638  0.360871  0.500000  1
  Ir  Ir24  1  0.638939  0.127077  0.500000  1
  Ir  Ir25  1  0.999228  0.001446  0.000000  1
  Ru  Ru26  1  0.126360  0.640629  0.500000  1
  Ru  Ru27  1  0.359876  0.486471  0.500000  1
  Ru  Ru28  1  0.510853  0.871432  0.500000  1
  Ru  Ru29  1  0.715865  0.714936  0.500000  1
  Ru  Ru30  1  0.000170  0.286653  0.500000  1
  Ru  Ru31  1  0.450894  0.005046  0.000000  1
  Ru  Ru32  1  0.552514  0.549427  0.000000  1
  Ru  Ru33  1  0.997309  0.447689  0.000000  1
  Ru  Ru34  1  0.815169  0.192715  0.000000  1
  Ru  Ru35  1  0.285786  0.004016  0.500000  1
