# generated using pymatgen
data_Hf4Fe2CuSi4Pd
_symmetry_space_group_name_H-M   'P 1'
_cell_length_a   3.87908000
_cell_length_b   6.44054940
_cell_length_c   7.33039325
_cell_angle_alpha   91.74418996
_cell_angle_beta   90.00000000
_cell_angle_gamma   90.00000000
_symmetry_Int_Tables_number   1
_chemical_formula_structural   Hf4Fe2CuSi4Pd
_chemical_formula_sum   'Hf4 Fe2 Cu1 Si4 Pd1'
_cell_volume   183.05334215
_cell_formula_units_Z   1
loop_
 _symmetry_equiv_pos_site_id
 _symmetry_equiv_pos_as_xyz
  1  'x, y, z'
loop_
 _atom_site_type_symbol
 _atom_site_label
 _atom_site_symmetry_multiplicity
 _atom_site_fract_x
 _atom_site_fract_y
 _atom_site_fract_z
 _atom_site_occupancy
  Hf  Hf0  1  0.250000  0.516428  0.678406  1
  Hf  Hf1  1  0.750000  0.483806  0.324829  1
  Hf  Hf2  1  0.250000  0.018053  0.803049  1
  Hf  Hf3  1  0.750000  0.983673  0.196332  1
  Fe  Fe4  1  0.750000  0.851760  0.561567  1
  Fe  Fe5  1  0.250000  0.150298  0.438019  1
  Cu  Cu6  1  0.750000  0.347436  0.936025  1
  Si  Si7  1  0.250000  0.263690  0.127611  1
  Si  Si8  1  0.750000  0.737989  0.868383  1
  Si  Si9  1  0.250000  0.785293  0.400783  1
  Si  Si10  1  0.750000  0.216270  0.601736  1
  Pd  Pd11  1  0.250000  0.645303  0.063260  1
