# generated using pymatgen
data_Gd8In4IrAu7
_symmetry_space_group_name_H-M   'P 1'
_cell_length_a   8.02319508
_cell_length_b   8.02319577
_cell_length_c   7.38715300
_cell_angle_alpha   90.06449279
_cell_angle_beta   90.06449280
_cell_angle_gamma   90.18240838
_symmetry_Int_Tables_number   1
_chemical_formula_structural   Gd8In4IrAu7
_chemical_formula_sum   'Gd8 In4 Ir1 Au7'
_cell_volume   475.52032314
_cell_formula_units_Z   1
loop_
 _symmetry_equiv_pos_site_id
 _symmetry_equiv_pos_as_xyz
  1  'x, y, z'
loop_
 _atom_site_type_symbol
 _atom_site_label
 _atom_site_symmetry_multiplicity
 _atom_site_fract_x
 _atom_site_fract_y
 _atom_site_fract_z
 _atom_site_occupancy
  Gd  Gd0  1  0.180409  0.180409  0.008362  1
  Gd  Gd1  1  0.829595  0.829595  0.998961  1
  Gd  Gd2  1  0.661047  0.324501  0.493572  1
  Gd  Gd3  1  0.324501  0.661047  0.493572  1
  Gd  Gd4  1  0.660121  0.325102  0.005665  1
  Gd  Gd5  1  0.325102  0.660121  0.005665  1
  Gd  Gd6  1  0.830224  0.830224  0.501363  1
  Gd  Gd7  1  0.179119  0.179119  0.493649  1
  In  In8  1  0.498362  0.003654  0.254896  1
  In  In9  1  0.501205  0.993814  0.744069  1
  In  In10  1  0.003654  0.498362  0.254896  1
  In  In11  1  0.993814  0.501205  0.744069  1
  Ir  Ir12  1  0.373422  0.373422  0.250521  1
  Au  Au13  1  0.627698  0.627698  0.750815  1
  Au  Au14  1  0.630048  0.630048  0.249053  1
  Au  Au15  1  0.875147  0.132108  0.752773  1
  Au  Au16  1  0.873586  0.127737  0.247756  1
  Au  Au17  1  0.373099  0.373099  0.749815  1
  Au  Au18  1  0.127737  0.873586  0.247756  1
  Au  Au19  1  0.132108  0.875147  0.752773  1
