# generated using pymatgen
data_Tm12Tc3Ir
_symmetry_space_group_name_H-M   'P 1'
_cell_length_a   7.37091939
_cell_length_b   8.97623100
_cell_length_c   6.18790136
_cell_angle_alpha   90.00000000
_cell_angle_beta   89.97540137
_cell_angle_gamma   90.00000000
_symmetry_Int_Tables_number   1
_chemical_formula_structural   Tm12Tc3Ir
_chemical_formula_sum   'Tm12 Tc3 Ir1'
_cell_volume   409.41054471
_cell_formula_units_Z   1
loop_
 _symmetry_equiv_pos_site_id
 _symmetry_equiv_pos_as_xyz
  1  'x, y, z'
loop_
 _atom_site_type_symbol
 _atom_site_label
 _atom_site_symmetry_multiplicity
 _atom_site_fract_x
 _atom_site_fract_y
 _atom_site_fract_z
 _atom_site_occupancy
  Tm  Tm0  1  0.042435  0.250000  0.628591  1
  Tm  Tm1  1  0.959396  0.750000  0.375990  1
  Tm  Tm2  1  0.461680  0.750000  0.124826  1
  Tm  Tm3  1  0.538481  0.250000  0.874289  1
  Tm  Tm4  1  0.176557  0.061136  0.161142  1
  Tm  Tm5  1  0.824355  0.936959  0.836694  1
  Tm  Tm6  1  0.324409  0.937403  0.658685  1
  Tm  Tm7  1  0.824355  0.563041  0.836694  1
  Tm  Tm8  1  0.675230  0.061543  0.339487  1
  Tm  Tm9  1  0.176557  0.438864  0.161142  1
  Tm  Tm10  1  0.675230  0.438457  0.339487  1
  Tm  Tm11  1  0.324409  0.562597  0.658685  1
  Tc  Tc12  1  0.382428  0.250000  0.458935  1
  Tc  Tc13  1  0.617412  0.750000  0.542673  1
  Tc  Tc14  1  0.115211  0.750000  0.961665  1
  Ir  Ir15  1  0.881856  0.250000  0.041015  1
