# generated using pymatgen
data_YHf2Fe7Co2
_symmetry_space_group_name_H-M   'P 1'
_cell_length_a   8.53726923
_cell_length_b   8.53726877
_cell_length_c   8.53726946
_cell_angle_alpha   33.71338116
_cell_angle_beta   33.71338786
_cell_angle_gamma   33.71337895
_symmetry_Int_Tables_number   1
_chemical_formula_structural   YHf2Fe7Co2
_chemical_formula_sum   'Y1 Hf2 Fe7 Co2'
_cell_volume   170.78830832
_cell_formula_units_Z   1
loop_
 _symmetry_equiv_pos_site_id
 _symmetry_equiv_pos_as_xyz
  1  'x, y, z'
loop_
 _atom_site_type_symbol
 _atom_site_label
 _atom_site_symmetry_multiplicity
 _atom_site_fract_x
 _atom_site_fract_y
 _atom_site_fract_z
 _atom_site_occupancy
  Y  Y0  1  0.000000  0.000000  0.000000  1
  Hf  Hf1  1  0.856819  0.856819  0.856819  1
  Hf  Hf2  1  0.143181  0.143181  0.143181  1
  Fe  Fe3  1  0.413278  0.413278  0.919209  1
  Fe  Fe4  1  0.919209  0.413278  0.413278  1
  Fe  Fe5  1  0.413278  0.919209  0.413278  1
  Fe  Fe6  1  0.500000  0.500000  0.500000  1
  Fe  Fe7  1  0.586722  0.080791  0.586722  1
  Fe  Fe8  1  0.080791  0.586722  0.586722  1
  Fe  Fe9  1  0.586722  0.586722  0.080791  1
  Co  Co10  1  0.666302  0.666302  0.666302  1
  Co  Co11  1  0.333698  0.333698  0.333698  1
