# generated using pymatgen
data_LiZr2ScCr4(Co4P3)4
_symmetry_space_group_name_H-M   'P 1'
_cell_length_a   3.60552200
_cell_length_b   10.17887600
_cell_length_c   11.63944500
_cell_angle_alpha   90.00000000
_cell_angle_beta   90.00000000
_cell_angle_gamma   90.00000000
_symmetry_Int_Tables_number   1
_chemical_formula_structural   LiZr2ScCr4(Co4P3)4
_chemical_formula_sum   'Li1 Zr2 Sc1 Cr4 Co16 P12'
_cell_volume   427.16950956
_cell_formula_units_Z   1
loop_
 _symmetry_equiv_pos_site_id
 _symmetry_equiv_pos_as_xyz
  1  'x, y, z'
loop_
 _atom_site_type_symbol
 _atom_site_label
 _atom_site_symmetry_multiplicity
 _atom_site_fract_x
 _atom_site_fract_y
 _atom_site_fract_z
 _atom_site_occupancy
  Li  Li0  1  0.750000  0.418442  0.295634  1
  Zr  Zr1  1  0.250000  0.582751  0.704707  1
  Zr  Zr2  1  0.250000  0.917072  0.203869  1
  Sc  Sc3  1  0.750000  0.082162  0.795468  1
  Cr  Cr4  1  0.250000  0.711949  0.987946  1
  Cr  Cr5  1  0.250000  0.787773  0.487972  1
  Cr  Cr6  1  0.750000  0.289888  0.010728  1
  Cr  Cr7  1  0.750000  0.210498  0.509738  1
  Co  Co8  1  0.250000  0.409049  0.489170  1
  Co  Co9  1  0.250000  0.091187  0.987287  1
  Co  Co10  1  0.750000  0.594855  0.512751  1
  Co  Co11  1  0.750000  0.906451  0.012463  1
  Co  Co12  1  0.250000  0.217754  0.177256  1
  Co  Co13  1  0.250000  0.279357  0.678748  1
  Co  Co14  1  0.750000  0.778071  0.821669  1
  Co  Co15  1  0.750000  0.721986  0.322971  1
  Co  Co16  1  0.250000  0.885948  0.700203  1
  Co  Co17  1  0.250000  0.615593  0.200157  1
  Co  Co18  1  0.750000  0.112761  0.300855  1
  Co  Co19  1  0.750000  0.386938  0.799603  1
  Co  Co20  1  0.250000  0.465700  0.932680  1
  Co  Co21  1  0.250000  0.035698  0.431954  1
  Co  Co22  1  0.750000  0.532568  0.067590  1
  Co  Co23  1  0.750000  0.965901  0.568217  1
  P  P24  1  0.250000  0.417925  0.120578  1
  P  P25  1  0.250000  0.082377  0.616275  1
  P  P26  1  0.750000  0.581969  0.885938  1
  P  P27  1  0.750000  0.918448  0.385187  1
  P  P28  1  0.250000  0.264116  0.868196  1
  P  P29  1  0.250000  0.240734  0.365290  1
  P  P30  1  0.750000  0.732334  0.131892  1
  P  P31  1  0.750000  0.766140  0.631620  1
  P  P32  1  0.250000  0.592189  0.387091  1
  P  P33  1  0.250000  0.902480  0.889767  1
  P  P34  1  0.750000  0.402399  0.608562  1
  P  P35  1  0.750000  0.098537  0.109968  1
