# generated using pymatgen
data_ErLu(ThH5)6
_symmetry_space_group_name_H-M   'P 1'
_cell_length_a   7.80645098
_cell_length_b   7.80197962
_cell_length_c   7.75334919
_cell_angle_alpha   109.44326921
_cell_angle_beta   109.46223427
_cell_angle_gamma   109.71853954
_symmetry_Int_Tables_number   1
_chemical_formula_structural   ErLu(ThH5)6
_chemical_formula_sum   'Er1 Lu1 Th6 H30'
_cell_volume   362.56912295
_cell_formula_units_Z   1
loop_
 _symmetry_equiv_pos_site_id
 _symmetry_equiv_pos_as_xyz
  1  'x, y, z'
loop_
 _atom_site_type_symbol
 _atom_site_label
 _atom_site_symmetry_multiplicity
 _atom_site_fract_x
 _atom_site_fract_y
 _atom_site_fract_z
 _atom_site_occupancy
  Er  Er0  1  0.913798  0.914829  0.915273  1
  Lu  Lu1  1  0.498468  0.999462  0.086061  1
  Th  Th2  1  0.991825  0.078260  0.493018  1
  Th  Th3  1  0.085860  0.506782  0.001533  1
  Th  Th4  1  0.999117  0.584904  0.506265  1
  Th  Th5  1  0.583953  0.504340  0.998518  1
  Th  Th6  1  0.505297  0.998447  0.589251  1
  Th  Th7  1  0.416972  0.409035  0.410933  1
  H  H8  1  0.647988  0.962696  0.366177  1
  H  H9  1  0.217461  0.316858  0.845802  1
  H  H10  1  0.186870  0.403160  0.534588  1
  H  H11  1  0.095947  0.278035  0.122827  1
  H  H12  1  0.283301  0.118786  0.091508  1
  H  H13  1  0.122156  0.091583  0.273266  1
  H  H14  1  0.473652  0.154618  0.878904  1
  H  H15  1  0.719299  0.351521  0.812547  1
  H  H16  1  0.627375  0.378480  0.249919  1
  H  H17  1  0.251123  0.623818  0.377665  1
  H  H18  1  0.748079  0.872892  0.124713  1
  H  H19  1  0.124709  0.748745  0.875261  1
  H  H20  1  0.373244  0.245964  0.622537  1
  H  H21  1  0.876865  0.129128  0.750009  1
  H  H22  1  0.781488  0.594975  0.632579  1
  H  H23  1  0.319720  0.851741  0.221094  1
  H  H24  1  0.375296  0.663315  0.967830  1
  H  H25  1  0.961819  0.367568  0.650215  1
  H  H26  1  0.538138  0.183997  0.403615  1
  H  H27  1  0.406746  0.539056  0.187526  1
  H  H28  1  0.835483  0.214619  0.308411  1
  H  H29  1  0.907194  0.693786  0.033529  1
  H  H30  1  0.811530  0.717148  0.349649  1
  H  H31  1  0.151935  0.868605  0.465020  1
  H  H32  1  0.688270  0.027672  0.909154  1
  H  H33  1  0.349175  0.819757  0.729048  1
  H  H34  1  0.871746  0.470818  0.153817  1
  H  H35  1  0.632990  0.779713  0.594649  1
  H  H36  1  0.596919  0.628981  0.778031  1
  H  H37  1  0.028195  0.905904  0.689259  1
