# generated using pymatgen
data_Nd3Al12OsRuPtRh
_symmetry_space_group_name_H-M   'P 1'
_cell_length_a   8.95651300
_cell_length_b   8.92788782
_cell_length_c   9.63997600
_cell_angle_alpha   90.10315686
_cell_angle_beta   90.00000000
_cell_angle_gamma   120.10613033
_symmetry_Int_Tables_number   1
_chemical_formula_structural   Nd3Al12OsRuPtRh
_chemical_formula_sum   'Nd6 Al24 Os2 Ru2 Pt2 Rh2'
_cell_volume   666.84958205
_cell_formula_units_Z   2
loop_
 _symmetry_equiv_pos_site_id
 _symmetry_equiv_pos_as_xyz
  1  'x, y, z'
loop_
 _atom_site_type_symbol
 _atom_site_label
 _atom_site_symmetry_multiplicity
 _atom_site_fract_x
 _atom_site_fract_y
 _atom_site_fract_z
 _atom_site_occupancy
  Nd  Nd0  1  0.190578  0.381044  0.249651  1
  Nd  Nd1  1  0.809422  0.618956  0.750349  1
  Nd  Nd2  1  0.618889  0.807301  0.247709  1
  Nd  Nd3  1  0.381111  0.192699  0.752291  1
  Nd  Nd4  1  0.188285  0.807533  0.248483  1
  Nd  Nd5  1  0.811715  0.192467  0.751517  1
  Al  Al6  1  0.331111  0.661966  0.021882  1
  Al  Al7  1  0.668889  0.338034  0.978118  1
  Al  Al8  1  0.662729  0.331151  0.522788  1
  Al  Al9  1  0.337271  0.668849  0.477212  1
  Al  Al10  1  0.166138  0.326271  0.576658  1
  Al  Al11  1  0.833862  0.673729  0.423342  1
  Al  Al12  1  0.673979  0.837214  0.576025  1
  Al  Al13  1  0.835348  0.670988  0.073594  1
  Al  Al14  1  0.326021  0.162786  0.423975  1
  Al  Al15  1  0.164652  0.329012  0.926406  1
  Al  Al16  1  0.166032  0.840813  0.575971  1
  Al  Al17  1  0.326377  0.167439  0.075842  1
  Al  Al18  1  0.833968  0.159187  0.424029  1
  Al  Al19  1  0.673623  0.832561  0.924158  1
  Al  Al20  1  0.841257  0.167011  0.075741  1
  Al  Al21  1  0.158743  0.832989  0.924259  1
  Al  Al22  1  0.562595  0.125538  0.253484  1
  Al  Al23  1  0.437405  0.874462  0.746516  1
  Al  Al24  1  0.872438  0.435839  0.247322  1
  Al  Al25  1  0.127562  0.564161  0.752678  1
  Al  Al26  1  0.561913  0.436574  0.249867  1
  Al  Al27  1  0.438087  0.563426  0.750133  1
  Al  Al28  1  0.999355  0.998045  0.249473  1
  Al  Al29  1  0.000645  0.001955  0.750527  1
  Os  Os30  1  0.000000  0.500000  0.000000  1
  Os  Os31  1  0.500000  0.500000  0.000000  1
  Ru  Ru32  1  0.000000  0.000000  0.000000  1
  Ru  Ru33  1  0.000000  0.000000  0.500000  1
  Pt  Pt34  1  0.500000  0.000000  0.000000  1
  Pt  Pt35  1  0.000000  0.500000  0.500000  1
  Rh  Rh36  1  0.500000  0.000000  0.500000  1
  Rh  Rh37  1  0.500000  0.500000  0.500000  1
