# generated using pymatgen
data_ErHfAgS4
_symmetry_space_group_name_H-M   'P 1'
_cell_length_a   7.74890616
_cell_length_b   7.74890800
_cell_length_c   7.74890698
_cell_angle_alpha   118.85686164
_cell_angle_beta   121.06006351
_cell_angle_gamma   90.08253760
_symmetry_Int_Tables_number   1
_chemical_formula_structural   ErHfAgS4
_chemical_formula_sum   'Er2 Hf2 Ag2 S8'
_cell_volume   329.06224649
_cell_formula_units_Z   2
loop_
 _symmetry_equiv_pos_site_id
 _symmetry_equiv_pos_as_xyz
  1  'x, y, z'
loop_
 _atom_site_type_symbol
 _atom_site_label
 _atom_site_symmetry_multiplicity
 _atom_site_fract_x
 _atom_site_fract_y
 _atom_site_fract_z
 _atom_site_occupancy
  Er  Er0  1  0.000000  0.000000  0.500000  1
  Er  Er1  1  0.000000  0.500000  0.000000  1
  Hf  Hf2  1  0.000000  0.000000  0.000000  1
  Hf  Hf3  1  0.500000  0.000000  0.500000  1
  Ag  Ag4  1  0.376414  0.626414  0.750000  1
  Ag  Ag5  1  0.623586  0.373586  0.250000  1
  S  S6  1  0.249461  0.777668  0.028207  1
  S  S7  1  0.750539  0.778746  0.528207  1
  S  S8  1  0.220525  0.231461  0.989064  1
  S  S9  1  0.742398  0.231461  0.510936  1
  S  S10  1  0.779475  0.768539  0.010936  1
  S  S11  1  0.257602  0.768539  0.489064  1
  S  S12  1  0.750539  0.222332  0.971793  1
  S  S13  1  0.249461  0.221254  0.471793  1
