# generated using pymatgen
data_Yb7HfSi16(MoW5)2
_symmetry_space_group_name_H-M   'P 1'
_cell_length_a   6.70593197
_cell_length_b   6.88817087
_cell_length_c   12.98125215
_cell_angle_alpha   89.75687381
_cell_angle_beta   89.92462427
_cell_angle_gamma   90.12003754
_symmetry_Int_Tables_number   1
_chemical_formula_structural   Yb7HfSi16(MoW5)2
_chemical_formula_sum   'Yb7 Hf1 Si16 Mo2 W10'
_cell_volume   599.61763522
_cell_formula_units_Z   1
loop_
 _symmetry_equiv_pos_site_id
 _symmetry_equiv_pos_as_xyz
  1  'x, y, z'
loop_
 _atom_site_type_symbol
 _atom_site_label
 _atom_site_symmetry_multiplicity
 _atom_site_fract_x
 _atom_site_fract_y
 _atom_site_fract_z
 _atom_site_occupancy
  Yb  Yb0  1  0.998680  0.167110  0.089946  1
  Yb  Yb1  1  0.002149  0.834066  0.910122  1
  Yb  Yb2  1  0.502780  0.665789  0.910189  1
  Yb  Yb3  1  0.001553  0.833718  0.589212  1
  Yb  Yb4  1  0.497955  0.332049  0.090154  1
  Yb  Yb5  1  0.999654  0.167854  0.410831  1
  Yb  Yb6  1  0.498575  0.330073  0.409263  1
  Hf  Hf7  1  0.503243  0.673779  0.597584  1
  Si  Si8  1  0.033887  0.126425  0.748044  1
  Si  Si9  1  0.965267  0.877856  0.250008  1
  Si  Si10  1  0.464036  0.619042  0.249301  1
  Si  Si11  1  0.535321  0.377763  0.748179  1
  Si  Si12  1  0.298334  0.862278  0.749903  1
  Si  Si13  1  0.701645  0.135206  0.250632  1
  Si  Si14  1  0.199377  0.361978  0.250185  1
  Si  Si15  1  0.802224  0.639842  0.750483  1
  Si  Si16  1  0.169409  0.461419  0.544943  1
  Si  Si17  1  0.834835  0.542236  0.457244  1
  Si  Si18  1  0.338490  0.952953  0.458135  1
  Si  Si19  1  0.840261  0.542686  0.045704  1
  Si  Si20  1  0.660531  0.040699  0.544806  1
  Si  Si21  1  0.159357  0.457333  0.953247  1
  Si  Si22  1  0.659759  0.043441  0.954035  1
  Si  Si23  1  0.339822  0.956828  0.044823  1
  Mo  Mo24  1  0.833087  0.334608  0.871650  1
  Mo  Mo25  1  0.165231  0.666098  0.127330  1
  W  W26  1  0.164807  0.495440  0.746743  1
  W  W27  1  0.838934  0.509060  0.251833  1
  W  W28  1  0.340812  0.988360  0.251226  1
  W  W29  1  0.660007  0.005289  0.746541  1
  W  W30  1  0.333674  0.163129  0.625022  1
  W  W31  1  0.661461  0.829144  0.375321  1
  W  W32  1  0.164918  0.665869  0.372998  1
  W  W33  1  0.664364  0.832432  0.128315  1
  W  W34  1  0.830749  0.341660  0.625734  1
  W  W35  1  0.334811  0.166491  0.870318  1
