# generated using pymatgen
data_Ba6DyIn(BO3)6
_symmetry_space_group_name_H-M   'P 1'
_cell_length_a   8.17267427
_cell_length_b   8.17267410
_cell_length_c   8.17267411
_cell_angle_alpha   105.81251802
_cell_angle_beta   105.81251492
_cell_angle_gamma   105.81253315
_symmetry_Int_Tables_number   1
_chemical_formula_structural   Ba6DyIn(BO3)6
_chemical_formula_sum   'Ba6 Dy1 In1 B6 O18'
_cell_volume   468.55637003
_cell_formula_units_Z   1
loop_
 _symmetry_equiv_pos_site_id
 _symmetry_equiv_pos_as_xyz
  1  'x, y, z'
loop_
 _atom_site_type_symbol
 _atom_site_label
 _atom_site_symmetry_multiplicity
 _atom_site_fract_x
 _atom_site_fract_y
 _atom_site_fract_z
 _atom_site_occupancy
  Ba  Ba0  1  0.766016  0.665174  0.154651  1
  Ba  Ba1  1  0.334827  0.845349  0.233985  1
  Ba  Ba2  1  0.845349  0.233986  0.334826  1
  Ba  Ba3  1  0.154651  0.766015  0.665175  1
  Ba  Ba4  1  0.665174  0.154651  0.766015  1
  Ba  Ba5  1  0.233985  0.334826  0.845350  1
  Dy  Dy6  1  0.500000  0.500000  0.500000  1
  In  In7  1  0.000000  0.000000  0.000000  1
  B  B8  1  0.451393  0.205943  0.127445  1
  B  B9  1  0.127445  0.451393  0.205943  1
  B  B10  1  0.205943  0.127445  0.451393  1
  B  B11  1  0.794057  0.872555  0.548608  1
  B  B12  1  0.872556  0.548608  0.794057  1
  B  B13  1  0.548608  0.794057  0.872555  1
  O  O14  1  0.280376  0.070723  0.003751  1
  O  O15  1  0.568016  0.299759  0.061048  1
  O  O16  1  0.003751  0.280376  0.070723  1
  O  O17  1  0.314031  0.506134  0.234453  1
  O  O18  1  0.070723  0.003750  0.280376  1
  O  O19  1  0.061047  0.568016  0.299759  1
  O  O20  1  0.506134  0.234453  0.314031  1
  O  O21  1  0.700240  0.938952  0.431984  1
  O  O22  1  0.765547  0.685969  0.493867  1
  O  O23  1  0.234453  0.314032  0.506134  1
  O  O24  1  0.299759  0.061047  0.568016  1
  O  O25  1  0.493867  0.765547  0.685969  1
  O  O26  1  0.938952  0.431983  0.700240  1
  O  O27  1  0.929276  0.996249  0.719623  1
  O  O28  1  0.685969  0.493867  0.765547  1
  O  O29  1  0.996248  0.719624  0.929277  1
  O  O30  1  0.431983  0.700240  0.938952  1
  O  O31  1  0.719624  0.929277  0.996249  1
