# generated using pymatgen
data_HfPaReB6
_symmetry_space_group_name_H-M   'P 1'
_cell_length_a   3.62263000
_cell_length_b   9.03691000
_cell_length_c   11.42062300
_cell_angle_alpha   90.00000000
_cell_angle_beta   90.00000000
_cell_angle_gamma   90.00000000
_symmetry_Int_Tables_number   1
_chemical_formula_structural   HfPaReB6
_chemical_formula_sum   'Hf4 Pa4 Re4 B24'
_cell_volume   373.88128953
_cell_formula_units_Z   4
loop_
 _symmetry_equiv_pos_site_id
 _symmetry_equiv_pos_as_xyz
  1  'x, y, z'
loop_
 _atom_site_type_symbol
 _atom_site_label
 _atom_site_symmetry_multiplicity
 _atom_site_fract_x
 _atom_site_fract_y
 _atom_site_fract_z
 _atom_site_occupancy
  Hf  Hf0  1  0.000000  0.945311  0.374732  1
  Hf  Hf1  1  0.000000  0.054689  0.625268  1
  Hf  Hf2  1  0.000000  0.445311  0.125268  1
  Hf  Hf3  1  0.000000  0.554689  0.874732  1
  Pa  Pa4  1  0.000000  0.323160  0.413696  1
  Pa  Pa5  1  0.000000  0.676840  0.586304  1
  Pa  Pa6  1  0.000000  0.823160  0.086304  1
  Pa  Pa7  1  0.000000  0.176840  0.913696  1
  Re  Re8  1  0.000000  0.641233  0.319855  1
  Re  Re9  1  0.000000  0.358767  0.680145  1
  Re  Re10  1  0.000000  0.141233  0.180145  1
  Re  Re11  1  0.000000  0.858767  0.819855  1
  B  B12  1  0.500000  0.553441  0.434600  1
  B  B13  1  0.500000  0.446559  0.565400  1
  B  B14  1  0.500000  0.053441  0.065400  1
  B  B15  1  0.500000  0.946559  0.934600  1
  B  B16  1  0.500000  0.753506  0.418880  1
  B  B17  1  0.500000  0.246494  0.581120  1
  B  B18  1  0.500000  0.253506  0.081120  1
  B  B19  1  0.500000  0.746494  0.918880  1
  B  B20  1  0.500000  0.796192  0.264573  1
  B  B21  1  0.500000  0.203808  0.735427  1
  B  B22  1  0.500000  0.296192  0.235427  1
  B  B23  1  0.500000  0.703808  0.764573  1
  B  B24  1  0.500000  0.630373  0.182484  1
  B  B25  1  0.500000  0.369627  0.817516  1
  B  B26  1  0.500000  0.130373  0.317516  1
  B  B27  1  0.500000  0.869627  0.682484  1
  B  B28  1  0.500000  0.980850  0.214506  1
  B  B29  1  0.500000  0.019150  0.785494  1
  B  B30  1  0.500000  0.480850  0.285494  1
  B  B31  1  0.500000  0.519150  0.714506  1
  B  B32  1  0.500000  0.601915  0.027542  1
  B  B33  1  0.500000  0.398085  0.972458  1
  B  B34  1  0.500000  0.101915  0.472458  1
  B  B35  1  0.500000  0.898085  0.527542  1
