# generated using pymatgen
data_Er8Cu3Si12Ni
_symmetry_space_group_name_H-M   'P 1'
_cell_length_a   7.94738300
_cell_length_b   7.94738312
_cell_length_c   8.01116000
_cell_angle_alpha   90.00000000
_cell_angle_beta   90.00000000
_cell_angle_gamma   119.99999533
_symmetry_Int_Tables_number   1
_chemical_formula_structural   Er8Cu3Si12Ni
_chemical_formula_sum   'Er8 Cu3 Si12 Ni1'
_cell_volume   438.20199495
_cell_formula_units_Z   1
loop_
 _symmetry_equiv_pos_site_id
 _symmetry_equiv_pos_as_xyz
  1  'x, y, z'
loop_
 _atom_site_type_symbol
 _atom_site_label
 _atom_site_symmetry_multiplicity
 _atom_site_fract_x
 _atom_site_fract_y
 _atom_site_fract_z
 _atom_site_occupancy
  Er  Er0  1  0.498532  0.997063  0.251179  1
  Er  Er1  1  0.498962  0.997923  0.748633  1
  Er  Er2  1  0.002937  0.501468  0.251179  1
  Er  Er3  1  0.002077  0.501038  0.748633  1
  Er  Er4  1  0.498532  0.501468  0.251179  1
  Er  Er5  1  0.498962  0.501038  0.748633  1
  Er  Er6  1  0.000000  0.000000  0.250156  1
  Er  Er7  1  0.000000  0.000000  0.749504  1
  Cu  Cu8  1  0.333333  0.666667  0.999141  1
  Cu  Cu9  1  0.666667  0.333333  0.001086  1
  Cu  Cu10  1  0.666667  0.333333  0.500080  1
  Si  Si11  1  0.169103  0.338206  0.999895  1
  Si  Si12  1  0.830802  0.661604  0.999939  1
  Si  Si13  1  0.661794  0.830897  0.999895  1
  Si  Si14  1  0.832088  0.664176  0.499845  1
  Si  Si15  1  0.338396  0.169198  0.999939  1
  Si  Si16  1  0.172380  0.344760  0.499882  1
  Si  Si17  1  0.169103  0.830897  0.999895  1
  Si  Si18  1  0.335824  0.167912  0.499845  1
  Si  Si19  1  0.830802  0.169198  0.999939  1
  Si  Si20  1  0.655240  0.827620  0.499882  1
  Si  Si21  1  0.832088  0.167912  0.499845  1
  Si  Si22  1  0.172380  0.827620  0.499882  1
  Ni  Ni23  1  0.333333  0.666667  0.501919  1
