# generated using pymatgen
data_Tb7(ErPb2)3
_symmetry_space_group_name_H-M   'P 1'
_cell_length_a   9.07206206
_cell_length_b   9.07206065
_cell_length_c   6.65155800
_cell_angle_alpha   89.99980344
_cell_angle_beta   89.99981049
_cell_angle_gamma   119.99080419
_symmetry_Int_Tables_number   1
_chemical_formula_structural   Tb7(ErPb2)3
_chemical_formula_sum   'Tb7 Er3 Pb6'
_cell_volume   474.13957627
_cell_formula_units_Z   1
loop_
 _symmetry_equiv_pos_site_id
 _symmetry_equiv_pos_as_xyz
  1  'x, y, z'
loop_
 _atom_site_type_symbol
 _atom_site_label
 _atom_site_symmetry_multiplicity
 _atom_site_fract_x
 _atom_site_fract_y
 _atom_site_fract_z
 _atom_site_occupancy
  Tb  Tb0  1  0.333327  0.666675  0.500000  1
  Tb  Tb1  1  0.238034  0.000124  0.249767  1
  Tb  Tb2  1  0.762101  0.000158  0.750227  1
  Tb  Tb3  1  0.999841  0.237899  0.249773  1
  Tb  Tb4  1  0.762097  0.761968  0.249771  1
  Tb  Tb5  1  0.238032  0.237901  0.750229  1
  Tb  Tb6  1  0.999876  0.761967  0.750233  1
  Er  Er7  1  0.333345  0.666657  0.000000  1
  Er  Er8  1  0.666671  0.333329  0.500000  1
  Er  Er9  1  0.666691  0.333309  0.000000  1
  Pb  Pb10  1  0.604940  0.001004  0.249159  1
  Pb  Pb11  1  0.395977  0.000867  0.750829  1
  Pb  Pb12  1  0.999134  0.604024  0.249171  1
  Pb  Pb13  1  0.395954  0.395018  0.249168  1
  Pb  Pb14  1  0.604983  0.604046  0.750832  1
  Pb  Pb15  1  0.998997  0.395061  0.750841  1
