# generated using pymatgen
data_Lu4ReOs5W2
_symmetry_space_group_name_H-M   'P 1'
_cell_length_a   5.30080291
_cell_length_b   5.41505059
_cell_length_c   8.85593300
_cell_angle_alpha   89.99744050
_cell_angle_beta   90.00027787
_cell_angle_gamma   120.88685390
_symmetry_Int_Tables_number   1
_chemical_formula_structural   Lu4ReOs5W2
_chemical_formula_sum   'Lu4 Re1 Os5 W2'
_cell_volume   218.15152729
_cell_formula_units_Z   1
loop_
 _symmetry_equiv_pos_site_id
 _symmetry_equiv_pos_as_xyz
  1  'x, y, z'
loop_
 _atom_site_type_symbol
 _atom_site_label
 _atom_site_symmetry_multiplicity
 _atom_site_fract_x
 _atom_site_fract_y
 _atom_site_fract_z
 _atom_site_occupancy
  Lu  Lu0  1  0.343346  0.672793  0.434476  1
  Lu  Lu1  1  0.666192  0.334644  0.561531  1
  Lu  Lu2  1  0.666174  0.334632  0.938464  1
  Lu  Lu3  1  0.343312  0.672764  0.065528  1
  Re  Re4  1  0.166130  0.824150  0.749993  1
  Os  Os5  1  0.828456  0.652805  0.250009  1
  Os  Os6  1  0.638406  0.819632  0.749993  1
  Os  Os7  1  0.012677  0.004946  0.998196  1
  Os  Os8  1  0.826553  0.174948  0.250011  1
  Os  Os9  1  0.012699  0.004961  0.501801  1
  W  W10  1  0.160984  0.335068  0.749993  1
  W  W11  1  0.335071  0.168660  0.250005  1
