# generated using pymatgen
data_Er12Zn3Ag9C4
_symmetry_space_group_name_H-M   'P 1'
_cell_length_a   9.22251414
_cell_length_b   9.22251506
_cell_length_c   9.26591871
_cell_angle_alpha   60.15483273
_cell_angle_beta   60.15483290
_cell_angle_gamma   60.00000092
_symmetry_Int_Tables_number   1
_chemical_formula_structural   Er12Zn3Ag9C4
_chemical_formula_sum   'Er12 Zn3 Ag9 C4'
_cell_volume   558.57901750
_cell_formula_units_Z   1
loop_
 _symmetry_equiv_pos_site_id
 _symmetry_equiv_pos_as_xyz
  1  'x, y, z'
loop_
 _atom_site_type_symbol
 _atom_site_label
 _atom_site_symmetry_multiplicity
 _atom_site_fract_x
 _atom_site_fract_y
 _atom_site_fract_z
 _atom_site_occupancy
  Er  Er0  1  0.442874  0.442874  0.057348  1
  Er  Er1  1  0.056904  0.442874  0.057348  1
  Er  Er2  1  0.442874  0.056904  0.057348  1
  Er  Er3  1  0.057098  0.057098  0.442643  1
  Er  Er4  1  0.443161  0.057098  0.442643  1
  Er  Er5  1  0.057098  0.443161  0.442643  1
  Er  Er6  1  0.807126  0.807126  0.192652  1
  Er  Er7  1  0.193096  0.807126  0.192652  1
  Er  Er8  1  0.807126  0.193096  0.192652  1
  Er  Er9  1  0.192902  0.192902  0.807357  1
  Er  Er10  1  0.806839  0.192902  0.807357  1
  Er  Er11  1  0.192902  0.806839  0.807357  1
  Zn  Zn12  1  0.625000  0.125000  0.625000  1
  Zn  Zn13  1  0.125000  0.625000  0.625000  1
  Zn  Zn14  1  0.625000  0.625000  0.625000  1
  Ag  Ag15  1  0.831351  0.831351  0.505944  1
  Ag  Ag16  1  0.834232  0.505111  0.826423  1
  Ag  Ag17  1  0.505111  0.834232  0.826423  1
  Ag  Ag18  1  0.834232  0.834232  0.826423  1
  Ag  Ag19  1  0.418649  0.418649  0.744056  1
  Ag  Ag20  1  0.415768  0.744889  0.423577  1
  Ag  Ag21  1  0.744889  0.415768  0.423577  1
  Ag  Ag22  1  0.415768  0.415768  0.423577  1
  Ag  Ag23  1  0.625000  0.625000  0.125000  1
  C  C24  1  0.125000  0.125000  0.625000  1
  C  C25  1  0.125000  0.625000  0.125000  1
  C  C26  1  0.625000  0.125000  0.125000  1
  C  C27  1  0.125000  0.125000  0.125000  1
