# generated using pymatgen
data_Er6MnAl24Os2Rh5
_symmetry_space_group_name_H-M   'P 1'
_cell_length_a   8.75974500
_cell_length_b   8.77861608
_cell_length_c   9.48301900
_cell_angle_alpha   90.10990391
_cell_angle_beta   90.00000000
_cell_angle_gamma   119.92891134
_symmetry_Int_Tables_number   1
_chemical_formula_structural   Er6MnAl24Os2Rh5
_chemical_formula_sum   'Er6 Mn1 Al24 Os2 Rh5'
_cell_volume   631.98149839
_cell_formula_units_Z   1
loop_
 _symmetry_equiv_pos_site_id
 _symmetry_equiv_pos_as_xyz
  1  'x, y, z'
loop_
 _atom_site_type_symbol
 _atom_site_label
 _atom_site_symmetry_multiplicity
 _atom_site_fract_x
 _atom_site_fract_y
 _atom_site_fract_z
 _atom_site_occupancy
  Er  Er0  1  0.192660  0.385319  0.250661  1
  Er  Er1  1  0.807340  0.614681  0.749339  1
  Er  Er2  1  0.612716  0.808866  0.251217  1
  Er  Er3  1  0.387284  0.191134  0.748783  1
  Er  Er4  1  0.196150  0.808866  0.251217  1
  Er  Er5  1  0.803850  0.191134  0.748783  1
  Mn  Mn6  1  0.000000  0.000000  0.000000  1
  Al  Al7  1  0.333121  0.666243  0.025729  1
  Al  Al8  1  0.666879  0.333757  0.974271  1
  Al  Al9  1  0.666357  0.332713  0.526484  1
  Al  Al10  1  0.333643  0.667287  0.473516  1
  Al  Al11  1  0.163227  0.326455  0.578011  1
  Al  Al12  1  0.836773  0.673545  0.421989  1
  Al  Al13  1  0.672640  0.837582  0.577196  1
  Al  Al14  1  0.839980  0.679958  0.077352  1
  Al  Al15  1  0.327360  0.162418  0.422804  1
  Al  Al16  1  0.160020  0.320042  0.922648  1
  Al  Al17  1  0.164943  0.837582  0.577196  1
  Al  Al18  1  0.320807  0.161141  0.076640  1
  Al  Al19  1  0.835057  0.162418  0.422804  1
  Al  Al20  1  0.679193  0.838859  0.923360  1
  Al  Al21  1  0.840334  0.161141  0.076640  1
  Al  Al22  1  0.159666  0.838859  0.923360  1
  Al  Al23  1  0.563179  0.126359  0.249596  1
  Al  Al24  1  0.436821  0.873641  0.750404  1
  Al  Al25  1  0.876061  0.438395  0.249249  1
  Al  Al26  1  0.123939  0.561605  0.750751  1
  Al  Al27  1  0.562334  0.438395  0.249249  1
  Al  Al28  1  0.437666  0.561605  0.750751  1
  Al  Al29  1  0.000304  0.000610  0.243638  1
  Al  Al30  1  0.999696  0.999390  0.756362  1
  Os  Os31  1  0.500000  0.000000  0.500000  1
  Os  Os32  1  0.000000  0.000000  0.500000  1
  Rh  Rh33  1  0.500000  0.000000  0.000000  1
  Rh  Rh34  1  0.000000  0.500000  0.000000  1
  Rh  Rh35  1  0.500000  0.500000  0.000000  1
  Rh  Rh36  1  0.000000  0.500000  0.500000  1
  Rh  Rh37  1  0.500000  0.500000  0.500000  1
