# generated using pymatgen
data_CeMn3NiAs12
_symmetry_space_group_name_H-M   'P 1'
_cell_length_a   7.28585291
_cell_length_b   7.28585226
_cell_length_c   7.28585280
_cell_angle_alpha   109.41159467
_cell_angle_beta   109.41160311
_cell_angle_gamma   109.41160149
_symmetry_Int_Tables_number   1
_chemical_formula_structural   CeMn3NiAs12
_chemical_formula_sum   'Ce1 Mn3 Ni1 As12'
_cell_volume   298.38310954
_cell_formula_units_Z   1
loop_
 _symmetry_equiv_pos_site_id
 _symmetry_equiv_pos_as_xyz
  1  'x, y, z'
loop_
 _atom_site_type_symbol
 _atom_site_label
 _atom_site_symmetry_multiplicity
 _atom_site_fract_x
 _atom_site_fract_y
 _atom_site_fract_z
 _atom_site_occupancy
  Ce  Ce0  1  0.000000  0.000000  0.000000  1
  Mn  Mn1  1  0.500000  0.000000  0.000000  1
  Mn  Mn2  1  0.000000  0.500000  0.000000  1
  Mn  Mn3  1  0.000000  0.000000  0.500000  1
  Ni  Ni4  1  0.500000  0.500000  0.500000  1
  As  As5  1  0.850576  0.660517  0.503459  1
  As  As6  1  0.149424  0.339483  0.496541  1
  As  As7  1  0.157421  0.659826  0.816392  1
  As  As8  1  0.842579  0.340174  0.183608  1
  As  As9  1  0.660517  0.503459  0.850576  1
  As  As10  1  0.339483  0.496541  0.149424  1
  As  As11  1  0.659826  0.816392  0.157421  1
  As  As12  1  0.340174  0.183608  0.842579  1
  As  As13  1  0.503459  0.850576  0.660517  1
  As  As14  1  0.496541  0.149424  0.339483  1
  As  As15  1  0.816392  0.157421  0.659826  1
  As  As16  1  0.183608  0.842579  0.340174  1
