# generated using pymatgen
data_TmLu2In3Ir2Au
_symmetry_space_group_name_H-M   'P 1'
_cell_length_a   7.65536605
_cell_length_b   7.65938903
_cell_length_c   3.81229100
_cell_angle_alpha   90.00000000
_cell_angle_beta   90.00000000
_cell_angle_gamma   119.99584976
_symmetry_Int_Tables_number   1
_chemical_formula_structural   TmLu2In3Ir2Au
_chemical_formula_sum   'Tm1 Lu2 In3 Ir2 Au1'
_cell_volume   193.59535232
_cell_formula_units_Z   1
loop_
 _symmetry_equiv_pos_site_id
 _symmetry_equiv_pos_as_xyz
  1  'x, y, z'
loop_
 _atom_site_type_symbol
 _atom_site_label
 _atom_site_symmetry_multiplicity
 _atom_site_fract_x
 _atom_site_fract_y
 _atom_site_fract_z
 _atom_site_occupancy
  Tm  Tm0  1  0.385806  0.974548  0.500000  1
  Lu  Lu1  1  0.025915  0.411259  0.500000  1
  Lu  Lu2  1  0.588706  0.614623  0.500000  1
  In  In3  1  0.740020  0.001053  0.000000  1
  In  In4  1  0.998665  0.738630  0.000000  1
  In  In5  1  0.261178  0.260219  0.000000  1
  Ir  Ir6  1  0.333193  0.666022  0.000000  1
  Ir  Ir7  1  0.999635  0.999992  0.500000  1
  Au  Au8  1  0.666882  0.333654  0.000000  1
