# generated using pymatgen
data_Pr9Dy10LuPb16
_symmetry_space_group_name_H-M   'P 1'
_cell_length_a   8.34274590
_cell_length_b   8.42521233
_cell_length_c   15.96886000
_cell_angle_alpha   90.08828432
_cell_angle_beta   90.33181654
_cell_angle_gamma   90.46853797
_symmetry_Int_Tables_number   1
_chemical_formula_structural   Pr9Dy10LuPb16
_chemical_formula_sum   'Pr9 Dy10 Lu1 Pb16'
_cell_volume   1122.38391082
_cell_formula_units_Z   1
loop_
 _symmetry_equiv_pos_site_id
 _symmetry_equiv_pos_as_xyz
  1  'x, y, z'
loop_
 _atom_site_type_symbol
 _atom_site_label
 _atom_site_symmetry_multiplicity
 _atom_site_fract_x
 _atom_site_fract_y
 _atom_site_fract_z
 _atom_site_occupancy
  Pr  Pr0  1  0.129335  0.339391  0.619227  1
  Pr  Pr1  1  0.472958  0.678788  0.598792  1
  Pr  Pr2  1  0.975090  0.822745  0.904041  1
  Pr  Pr3  1  0.525227  0.323220  0.097675  1
  Pr  Pr4  1  0.027378  0.176099  0.399835  1
  Pr  Pr5  1  0.525111  0.323175  0.400858  1
  Pr  Pr6  1  0.025135  0.177261  0.097714  1
  Pr  Pr7  1  0.475820  0.678080  0.902871  1
  Pr  Pr8  1  0.974368  0.823112  0.598386  1
  Dy  Dy9  1  0.633356  0.159168  0.622744  1
  Dy  Dy10  1  0.134095  0.341552  0.878506  1
  Dy  Dy11  1  0.366680  0.841942  0.122440  1
  Dy  Dy12  1  0.866824  0.657731  0.377803  1
  Dy  Dy13  1  0.369951  0.842001  0.375371  1
  Dy  Dy14  1  0.866140  0.659269  0.122498  1
  Dy  Dy15  1  0.632790  0.158644  0.879499  1
  Dy  Dy16  1  0.799014  0.494707  0.751142  1
  Dy  Dy17  1  0.300705  0.004418  0.750627  1
  Dy  Dy18  1  0.200261  0.505650  0.249001  1
  Lu  Lu19  1  0.701091  0.994640  0.249984  1
  Pb  Pb20  1  0.708459  0.961505  0.455561  1
  Pb  Pb21  1  0.205764  0.539490  0.043801  1
  Pb  Pb22  1  0.293714  0.040045  0.957178  1
  Pb  Pb23  1  0.783678  0.464101  0.542831  1
  Pb  Pb24  1  0.297050  0.032973  0.542067  1
  Pb  Pb25  1  0.794617  0.460518  0.957049  1
  Pb  Pb26  1  0.706417  0.960339  0.045152  1
  Pb  Pb27  1  0.208182  0.542391  0.452535  1
  Pb  Pb28  1  0.439248  0.369856  0.751940  1
  Pb  Pb29  1  0.935780  0.125928  0.752484  1
  Pb  Pb30  1  0.563052  0.629777  0.249082  1
  Pb  Pb31  1  0.060959  0.870048  0.249939  1
  Pb  Pb32  1  0.665208  0.851158  0.750978  1
  Pb  Pb33  1  0.163960  0.651887  0.752173  1
  Pb  Pb34  1  0.336153  0.149491  0.248897  1
  Pb  Pb35  1  0.836430  0.348903  0.249317  1
