# generated using pymatgen
data_Eu2DyYF10
_symmetry_space_group_name_H-M   'P 1'
_cell_length_a   8.22577929
_cell_length_b   8.22577871
_cell_length_c   5.79262699
_cell_angle_alpha   89.09953475
_cell_angle_beta   89.09951998
_cell_angle_gamma   149.42280698
_symmetry_Int_Tables_number   1
_chemical_formula_structural   Eu2DyYF10
_chemical_formula_sum   'Eu2 Dy1 Y1 F10'
_cell_volume   199.02955752
_cell_formula_units_Z   1
loop_
 _symmetry_equiv_pos_site_id
 _symmetry_equiv_pos_as_xyz
  1  'x, y, z'
loop_
 _atom_site_type_symbol
 _atom_site_label
 _atom_site_symmetry_multiplicity
 _atom_site_fract_x
 _atom_site_fract_y
 _atom_site_fract_z
 _atom_site_occupancy
  Eu  Eu0  1  0.323503  0.676497  0.750000  1
  Eu  Eu1  1  0.676424  0.323576  0.250000  1
  Dy  Dy2  1  0.075722  0.924278  0.750000  1
  Y  Y3  1  0.924465  0.075535  0.250000  1
  F  F4  1  0.728662  0.806517  0.603165  1
  F  F5  1  0.806912  0.728404  0.102031  1
  F  F6  1  0.800978  0.180483  0.002633  1
  F  F7  1  0.622122  0.377878  0.750000  1
  F  F8  1  0.819517  0.199022  0.497367  1
  F  F9  1  0.180234  0.801204  0.503286  1
  F  F10  1  0.377585  0.622415  0.250000  1
  F  F11  1  0.198796  0.819766  0.996714  1
  F  F12  1  0.193483  0.271338  0.896835  1
  F  F13  1  0.271596  0.193088  0.397969  1
