# generated using pymatgen
data_LiSm2Ag3O8
_symmetry_space_group_name_H-M   'P 1'
_cell_length_a   6.61330110
_cell_length_b   6.70169313
_cell_length_c   6.62751993
_cell_angle_alpha   126.67495984
_cell_angle_beta   126.35287780
_cell_angle_gamma   80.70842988
_symmetry_Int_Tables_number   1
_chemical_formula_structural   LiSm2Ag3O8
_chemical_formula_sum   'Li1 Sm2 Ag3 O8'
_cell_volume   181.10746309
_cell_formula_units_Z   1
loop_
 _symmetry_equiv_pos_site_id
 _symmetry_equiv_pos_as_xyz
  1  'x, y, z'
loop_
 _atom_site_type_symbol
 _atom_site_label
 _atom_site_symmetry_multiplicity
 _atom_site_fract_x
 _atom_site_fract_y
 _atom_site_fract_z
 _atom_site_occupancy
  Li  Li0  1  0.875000  0.125000  0.250000  1
  Sm  Sm1  1  0.510454  0.485042  0.997784  1
  Sm  Sm2  1  0.239546  0.764958  0.502216  1
  Ag  Ag3  1  0.375000  0.125000  0.250000  1
  Ag  Ag4  1  0.875000  0.125000  0.750000  1
  Ag  Ag5  1  0.875000  0.625000  0.750000  1
  O  O6  1  0.903798  0.366269  0.152395  1
  O  O7  1  0.208487  0.743198  0.846760  1
  O  O8  1  0.846202  0.883731  0.347605  1
  O  O9  1  0.541513  0.506802  0.653240  1
  O  O10  1  0.503377  0.159780  0.054151  1
  O  O11  1  0.103497  0.453102  0.941197  1
  O  O12  1  0.646503  0.796898  0.558803  1
  O  O13  1  0.246623  0.090220  0.445849  1
