# generated using pymatgen
data_Lu3U(B6Mo)2
_symmetry_space_group_name_H-M   'P 1'
_cell_length_a   3.65590200
_cell_length_b   9.11424617
_cell_length_c   11.46214863
_cell_angle_alpha   90.23514725
_cell_angle_beta   90.00000000
_cell_angle_gamma   90.00000000
_symmetry_Int_Tables_number   1
_chemical_formula_structural   Lu3U(B6Mo)2
_chemical_formula_sum   'Lu6 U2 B24 Mo4'
_cell_volume   381.92464005
_cell_formula_units_Z   2
loop_
 _symmetry_equiv_pos_site_id
 _symmetry_equiv_pos_as_xyz
  1  'x, y, z'
loop_
 _atom_site_type_symbol
 _atom_site_label
 _atom_site_symmetry_multiplicity
 _atom_site_fract_x
 _atom_site_fract_y
 _atom_site_fract_z
 _atom_site_occupancy
  Lu  Lu0  1  0.000000  0.823009  0.085879  1
  Lu  Lu1  1  0.000000  0.176991  0.914121  1
  Lu  Lu2  1  0.000000  0.944521  0.372093  1
  Lu  Lu3  1  0.000000  0.055479  0.627907  1
  Lu  Lu4  1  0.000000  0.444127  0.127331  1
  Lu  Lu5  1  0.000000  0.555873  0.872669  1
  U  U6  1  0.000000  0.321197  0.413814  1
  U  U7  1  0.000000  0.678803  0.586186  1
  B  B8  1  0.500000  0.552177  0.434508  1
  B  B9  1  0.500000  0.447823  0.565492  1
  B  B10  1  0.500000  0.052362  0.065347  1
  B  B11  1  0.500000  0.947638  0.934653  1
  B  B12  1  0.500000  0.750503  0.420819  1
  B  B13  1  0.500000  0.249497  0.579181  1
  B  B14  1  0.500000  0.251183  0.078352  1
  B  B15  1  0.500000  0.748817  0.921648  1
  B  B16  1  0.500000  0.793924  0.264327  1
  B  B17  1  0.500000  0.206076  0.735673  1
  B  B18  1  0.500000  0.295015  0.236592  1
  B  B19  1  0.500000  0.704985  0.763408  1
  B  B20  1  0.500000  0.631298  0.183481  1
  B  B21  1  0.500000  0.368702  0.816519  1
  B  B22  1  0.500000  0.132791  0.316805  1
  B  B23  1  0.500000  0.867209  0.683195  1
  B  B24  1  0.500000  0.979523  0.212095  1
  B  B25  1  0.500000  0.020477  0.787905  1
  B  B26  1  0.500000  0.479964  0.288033  1
  B  B27  1  0.500000  0.520036  0.711967  1
  B  B28  1  0.500000  0.600982  0.028584  1
  B  B29  1  0.500000  0.399018  0.971416  1
  B  B30  1  0.500000  0.108065  0.470248  1
  B  B31  1  0.500000  0.891935  0.529752  1
  Mo  Mo32  1  0.000000  0.635773  0.325389  1
  Mo  Mo33  1  0.000000  0.364227  0.674611  1
  Mo  Mo34  1  0.000000  0.142465  0.182858  1
  Mo  Mo35  1  0.000000  0.857535  0.817142  1
