# generated using pymatgen
data_Yb3GdB15C
_symmetry_space_group_name_H-M   'P 1'
_cell_length_a   7.01156838
_cell_length_b   7.01156827
_cell_length_c   4.07048800
_cell_angle_alpha   90.00000000
_cell_angle_beta   90.00000000
_cell_angle_gamma   90.46892602
_symmetry_Int_Tables_number   1
_chemical_formula_structural   Yb3GdB15C
_chemical_formula_sum   'Yb3 Gd1 B15 C1'
_cell_volume   200.10699700
_cell_formula_units_Z   1
loop_
 _symmetry_equiv_pos_site_id
 _symmetry_equiv_pos_as_xyz
  1  'x, y, z'
loop_
 _atom_site_type_symbol
 _atom_site_label
 _atom_site_symmetry_multiplicity
 _atom_site_fract_x
 _atom_site_fract_y
 _atom_site_fract_z
 _atom_site_occupancy
  Yb  Yb0  1  0.817819  0.316460  0.000000  1
  Yb  Yb1  1  0.183540  0.682181  0.000000  1
  Yb  Yb2  1  0.676447  0.823553  0.000000  1
  Gd  Gd3  1  0.318453  0.181547  0.000000  1
  B  B4  1  0.506289  0.504509  0.796550  1
  B  B5  1  0.995491  0.993711  0.796550  1
  B  B6  1  0.506289  0.504509  0.203450  1
  B  B7  1  0.995491  0.993711  0.203450  1
  B  B8  1  0.079328  0.420672  0.500000  1
  B  B9  1  0.412596  0.915481  0.500000  1
  B  B10  1  0.584519  0.087404  0.500000  1
  B  B11  1  0.686494  0.541109  0.500000  1
  B  B12  1  0.326608  0.467715  0.500000  1
  B  B13  1  0.173403  0.958282  0.500000  1
  B  B14  1  0.820806  0.032152  0.500000  1
  B  B15  1  0.467848  0.679194  0.500000  1
  B  B16  1  0.541718  0.326597  0.500000  1
  B  B17  1  0.032285  0.173392  0.500000  1
  B  B18  1  0.958891  0.813506  0.500000  1
  C  C19  1  0.915685  0.584315  0.500000  1
