# generated using pymatgen
data_SmMnFeSiC
_symmetry_space_group_name_H-M   'P 1'
_cell_length_a   5.61110453
_cell_length_b   5.61110515
_cell_length_c   6.87555162
_cell_angle_alpha   88.19354823
_cell_angle_beta   91.80645077
_cell_angle_gamma   139.89203622
_symmetry_Int_Tables_number   1
_chemical_formula_structural   SmMnFeSiC
_chemical_formula_sum   'Sm2 Mn2 Fe2 Si2 C2'
_cell_volume   139.38002730
_cell_formula_units_Z   2
loop_
 _symmetry_equiv_pos_site_id
 _symmetry_equiv_pos_as_xyz
  1  'x, y, z'
loop_
 _atom_site_type_symbol
 _atom_site_label
 _atom_site_symmetry_multiplicity
 _atom_site_fract_x
 _atom_site_fract_y
 _atom_site_fract_z
 _atom_site_occupancy
  Sm  Sm0  1  0.549833  0.450167  0.254129  1
  Sm  Sm1  1  0.450167  0.549833  0.745871  1
  Mn  Mn2  1  0.830150  0.169850  0.061806  1
  Mn  Mn3  1  0.169850  0.830150  0.938194  1
  Fe  Fe4  1  0.164594  0.835406  0.566387  1
  Fe  Fe5  1  0.835406  0.164594  0.433613  1
  Si  Si6  1  0.269842  0.730158  0.267797  1
  Si  Si7  1  0.730158  0.269842  0.732203  1
  C  C8  1  0.000000  0.000000  0.000000  1
  C  C9  1  0.000000  0.000000  0.500000  1
