# generated using pymatgen
data_Pr8Lu12ZnSi15
_symmetry_space_group_name_H-M   'P 1'
_cell_length_a   7.43167200
_cell_length_b   7.72209494
_cell_length_c   14.64076000
_cell_angle_alpha   90.01131507
_cell_angle_beta   89.86707737
_cell_angle_gamma   90.03908355
_symmetry_Int_Tables_number   1
_chemical_formula_structural   Pr8Lu12ZnSi15
_chemical_formula_sum   'Pr8 Lu12 Zn1 Si15'
_cell_volume   840.20258628
_cell_formula_units_Z   1
loop_
 _symmetry_equiv_pos_site_id
 _symmetry_equiv_pos_as_xyz
  1  'x, y, z'
loop_
 _atom_site_type_symbol
 _atom_site_label
 _atom_site_symmetry_multiplicity
 _atom_site_fract_x
 _atom_site_fract_y
 _atom_site_fract_z
 _atom_site_occupancy
  Pr  Pr0  1  0.013639  0.173297  0.400318  1
  Pr  Pr1  1  0.517058  0.324106  0.399235  1
  Pr  Pr2  1  0.483760  0.675468  0.902519  1
  Pr  Pr3  1  0.486022  0.678378  0.598957  1
  Pr  Pr4  1  0.984980  0.827528  0.598577  1
  Pr  Pr5  1  0.983850  0.825589  0.903073  1
  Pr  Pr6  1  0.515228  0.323899  0.097903  1
  Pr  Pr7  1  0.015607  0.175365  0.098703  1
  Lu  Lu8  1  0.329805  0.176864  0.624488  1
  Lu  Lu9  1  0.670963  0.822337  0.375890  1
  Lu  Lu10  1  0.661182  0.993119  0.750039  1
  Lu  Lu11  1  0.173791  0.675793  0.374971  1
  Lu  Lu12  1  0.825313  0.321932  0.877265  1
  Lu  Lu13  1  0.827159  0.324937  0.623541  1
  Lu  Lu14  1  0.841078  0.494234  0.250747  1
  Lu  Lu15  1  0.340397  0.004486  0.248978  1
  Lu  Lu16  1  0.326738  0.176537  0.876965  1
  Lu  Lu17  1  0.172460  0.676676  0.123826  1
  Lu  Lu18  1  0.673618  0.823290  0.123406  1
  Lu  Lu19  1  0.160126  0.506330  0.751639  1
  Zn  Zn20  1  0.153464  0.463123  0.538706  1
  Si  Si21  1  0.280429  0.880383  0.750626  1
  Si  Si22  1  0.468107  0.618469  0.248809  1
  Si  Si23  1  0.033513  0.120529  0.751563  1
  Si  Si24  1  0.533415  0.382694  0.750508  1
  Si  Si25  1  0.967109  0.880940  0.250120  1
  Si  Si26  1  0.717240  0.120964  0.248795  1
  Si  Si27  1  0.848698  0.534001  0.038998  1
  Si  Si28  1  0.348017  0.965672  0.039657  1
  Si  Si29  1  0.150043  0.465268  0.961618  1
  Si  Si30  1  0.651157  0.035890  0.538244  1
  Si  Si31  1  0.347643  0.965105  0.460324  1
  Si  Si32  1  0.847416  0.535823  0.459752  1
  Si  Si33  1  0.782361  0.620939  0.751647  1
  Si  Si34  1  0.218045  0.376871  0.249165  1
  Si  Si35  1  0.650564  0.033164  0.960428  1
