# generated using pymatgen
data_Sm12Fe2Br17
_symmetry_space_group_name_H-M   'P 1'
_cell_length_a   9.41294782
_cell_length_b   11.30324917
_cell_length_c   11.37797031
_cell_angle_alpha   93.68411258
_cell_angle_beta   104.64284132
_cell_angle_gamma   114.17754589
_symmetry_Int_Tables_number   1
_chemical_formula_structural   Sm12Fe2Br17
_chemical_formula_sum   'Sm12 Fe2 Br17'
_cell_volume   1049.03479737
_cell_formula_units_Z   1
loop_
 _symmetry_equiv_pos_site_id
 _symmetry_equiv_pos_as_xyz
  1  'x, y, z'
loop_
 _atom_site_type_symbol
 _atom_site_label
 _atom_site_symmetry_multiplicity
 _atom_site_fract_x
 _atom_site_fract_y
 _atom_site_fract_z
 _atom_site_occupancy
  Sm  Sm0  1  0.060152  0.515201  0.322152  1
  Sm  Sm1  1  0.983636  0.810402  0.577348  1
  Sm  Sm2  1  0.643842  0.239377  0.285513  1
  Sm  Sm3  1  0.016364  0.189598  0.422652  1
  Sm  Sm4  1  0.228799  0.671381  0.993819  1
  Sm  Sm5  1  0.259015  0.991085  0.892034  1
  Sm  Sm6  1  0.356158  0.760623  0.714487  1
  Sm  Sm7  1  0.939848  0.484799  0.677848  1
  Sm  Sm8  1  0.740985  0.008915  0.107966  1
  Sm  Sm9  1  0.152947  0.287663  0.149818  1
  Sm  Sm10  1  0.771201  0.328619  0.006181  1
  Sm  Sm11  1  0.847053  0.712337  0.850182  1
  Fe  Fe12  1  0.103781  0.738543  0.785829  1
  Fe  Fe13  1  0.896219  0.261457  0.214171  1
  Br  Br14  1  0.791820  0.526122  0.421038  1
  Br  Br15  1  0.648422  0.424022  0.760534  1
  Br  Br16  1  0.847374  0.901565  0.326304  1
  Br  Br17  1  0.321180  0.213014  0.364813  1
  Br  Br18  1  0.152626  0.098435  0.673696  1
  Br  Br19  1  0.584225  0.050406  0.849224  1
  Br  Br20  1  0.760328  0.186727  0.534172  1
  Br  Br21  1  0.545369  0.708995  0.950010  1
  Br  Br22  1  0.351578  0.575978  0.239466  1
  Br  Br23  1  0.208180  0.473878  0.578962  1
  Br  Br24  1  0.054451  0.372932  0.901390  1
  Br  Br25  1  0.454631  0.291005  0.049990  1
  Br  Br26  1  0.000000  0.000000  0.000000  1
  Br  Br27  1  0.239672  0.813273  0.465828  1
  Br  Br28  1  0.415775  0.949594  0.150776  1
  Br  Br29  1  0.678820  0.786986  0.635187  1
  Br  Br30  1  0.945549  0.627068  0.098610  1
