# generated using pymatgen
data_Er3Zr4BiF28
_symmetry_space_group_name_H-M   'P 1'
_cell_length_a   5.76042823
_cell_length_b   9.13502721
_cell_length_c   12.25401827
_cell_angle_alpha   62.38717029
_cell_angle_beta   90.00992585
_cell_angle_gamma   90.04291699
_symmetry_Int_Tables_number   1
_chemical_formula_structural   Er3Zr4BiF28
_chemical_formula_sum   'Er3 Zr4 Bi1 F28'
_cell_volume   571.38081551
_cell_formula_units_Z   1
loop_
 _symmetry_equiv_pos_site_id
 _symmetry_equiv_pos_as_xyz
  1  'x, y, z'
loop_
 _atom_site_type_symbol
 _atom_site_label
 _atom_site_symmetry_multiplicity
 _atom_site_fract_x
 _atom_site_fract_y
 _atom_site_fract_z
 _atom_site_occupancy
  Er  Er0  1  0.744273  0.818767  0.265814  1
  Er  Er1  1  0.243755  0.184200  0.233743  1
  Er  Er2  1  0.256631  0.189506  0.733629  1
  Zr  Zr3  1  0.743436  0.278723  0.452277  1
  Zr  Zr4  1  0.244431  0.725444  0.049664  1
  Zr  Zr5  1  0.255246  0.725622  0.540311  1
  Zr  Zr6  1  0.755397  0.270011  0.957072  1
  Bi  Bi7  1  0.757466  0.820741  0.764947  1
  F  F8  1  0.461226  0.708155  0.925822  1
  F  F9  1  0.967880  0.288576  0.577291  1
  F  F10  1  0.529905  0.286129  0.079197  1
  F  F11  1  0.030157  0.710697  0.417913  1
  F  F12  1  0.454734  0.280230  0.550832  1
  F  F13  1  0.952606  0.716640  0.958088  1
  F  F14  1  0.548169  0.719815  0.446497  1
  F  F15  1  0.045336  0.276782  0.053110  1
  F  F16  1  0.771365  0.517764  0.860341  1
  F  F17  1  0.267552  0.473357  0.639620  1
  F  F18  1  0.235040  0.473073  0.144547  1
  F  F19  1  0.732955  0.528520  0.356149  1
  F  F20  1  0.759089  0.019102  0.060561  1
  F  F21  1  0.258610  0.976487  0.439041  1
  F  F22  1  0.241285  0.975518  0.941728  1
  F  F23  1  0.739716  0.026786  0.554154  1
  F  F24  1  0.983634  0.731614  0.643709  1
  F  F25  1  0.485467  0.264711  0.850261  1
  F  F26  1  0.010499  0.264466  0.347681  1
  F  F27  1  0.512817  0.735922  0.154668  1
  F  F28  1  0.031062  0.747701  0.175920  1
  F  F29  1  0.528129  0.253782  0.327422  1
  F  F30  1  0.969295  0.249636  0.828913  1
  F  F31  1  0.458731  0.744005  0.670125  1
  F  F32  1  0.435786  0.977409  0.236322  1
  F  F33  1  0.935995  0.024374  0.264085  1
  F  F34  1  0.570016  0.036178  0.765640  1
  F  F35  1  0.082312  0.979554  0.732904  1
