# generated using pymatgen
data_Mg2Si2IrPt
_symmetry_space_group_name_H-M   'P 1'
_cell_length_a   6.56089700
_cell_length_b   4.07009800
_cell_length_c   7.16783300
_cell_angle_alpha   90.00000000
_cell_angle_beta   90.00000000
_cell_angle_gamma   90.00000000
_symmetry_Int_Tables_number   1
_chemical_formula_structural   Mg2Si2IrPt
_chemical_formula_sum   'Mg4 Si4 Ir2 Pt2'
_cell_volume   191.40618377
_cell_formula_units_Z   2
loop_
 _symmetry_equiv_pos_site_id
 _symmetry_equiv_pos_as_xyz
  1  'x, y, z'
loop_
 _atom_site_type_symbol
 _atom_site_label
 _atom_site_symmetry_multiplicity
 _atom_site_fract_x
 _atom_site_fract_y
 _atom_site_fract_z
 _atom_site_occupancy
  Mg  Mg0  1  0.013864  0.750001  0.172811  1
  Mg  Mg1  1  0.513864  0.750001  0.327188  1
  Mg  Mg2  1  0.489248  0.250000  0.673005  1
  Mg  Mg3  1  0.989248  0.250000  0.826995  1
  Si  Si4  1  0.707168  0.250000  0.122728  1
  Si  Si5  1  0.207168  0.250000  0.377271  1
  Si  Si6  1  0.798049  0.750001  0.638457  1
  Si  Si7  1  0.298050  0.750001  0.861543  1
  Ir  Ir8  1  0.157899  0.750001  0.551761  1
  Ir  Ir9  1  0.657899  0.750001  0.948239  1
  Pt  Pt10  1  0.333771  0.250000  0.054349  1
  Pt  Pt11  1  0.833771  0.250000  0.445650  1
