# generated using pymatgen
data_P2Se7
_symmetry_space_group_name_H-M   'P 1'
_cell_length_a   6.94524206
_cell_length_b   6.61326058
_cell_length_c   12.80081951
_cell_angle_alpha   82.77409092
_cell_angle_beta   89.43724042
_cell_angle_gamma   86.01245771
_symmetry_Int_Tables_number   1
_chemical_formula_structural   P2Se7
_chemical_formula_sum   'P4 Se14'
_cell_volume   581.86864237
_cell_formula_units_Z   2
loop_
 _symmetry_equiv_pos_site_id
 _symmetry_equiv_pos_as_xyz
  1  'x, y, z'
loop_
 _atom_site_type_symbol
 _atom_site_label
 _atom_site_symmetry_multiplicity
 _atom_site_fract_x
 _atom_site_fract_y
 _atom_site_fract_z
 _atom_site_occupancy
  P  P0  1  0.047441  0.173207  0.065067  1
  P  P1  1  0.626073  0.799975  0.489862  1
  P  P2  1  0.373927  0.200025  0.510138  1
  P  P3  1  0.952559  0.826793  0.934933  1
  Se  Se4  1  0.274880  0.376881  0.055873  1
  Se  Se5  1  0.143352  0.827021  0.082780  1
  Se  Se6  1  0.866351  0.248781  0.206545  1
  Se  Se7  1  0.627324  0.011533  0.214315  1
  Se  Se8  1  0.755762  0.731895  0.332213  1
  Se  Se9  1  0.274575  0.451916  0.399021  1
  Se  Se10  1  0.296514  0.879573  0.474014  1
  Se  Se11  1  0.703486  0.120427  0.525986  1
  Se  Se12  1  0.725425  0.548084  0.600979  1
  Se  Se13  1  0.244238  0.268105  0.667787  1
  Se  Se14  1  0.372676  0.988467  0.785685  1
  Se  Se15  1  0.133649  0.751219  0.793455  1
  Se  Se16  1  0.856648  0.172979  0.917220  1
  Se  Se17  1  0.725120  0.623119  0.944127  1
