# generated using pymatgen
data_CaCe2DyCu24
_symmetry_space_group_name_H-M   'P 1'
_cell_length_a   5.06316100
_cell_length_b   8.05864086
_cell_length_c   10.10730300
_cell_angle_alpha   90.04831148
_cell_angle_beta   90.00000000
_cell_angle_gamma   90.00000000
_symmetry_Int_Tables_number   1
_chemical_formula_structural   CaCe2DyCu24
_chemical_formula_sum   'Ca1 Ce2 Dy1 Cu24'
_cell_volume   412.40001284
_cell_formula_units_Z   1
loop_
 _symmetry_equiv_pos_site_id
 _symmetry_equiv_pos_as_xyz
  1  'x, y, z'
loop_
 _atom_site_type_symbol
 _atom_site_label
 _atom_site_symmetry_multiplicity
 _atom_site_fract_x
 _atom_site_fract_y
 _atom_site_fract_z
 _atom_site_occupancy
  Ca  Ca0  1  0.000000  0.759015  0.686424  1
  Ce  Ce1  1  0.500000  0.240827  0.816822  1
  Ce  Ce2  1  0.500000  0.740960  0.184391  1
  Dy  Dy3  1  0.000000  0.257901  0.312075  1
  Cu  Cu4  1  0.500000  0.353072  0.107573  1
  Cu  Cu5  1  0.500000  0.854020  0.894427  1
  Cu  Cu6  1  0.000000  0.644574  0.392740  1
  Cu  Cu7  1  0.000000  0.148445  0.604863  1
  Cu  Cu8  1  0.500000  0.683211  0.493468  1
  Cu  Cu9  1  0.500000  0.183146  0.505907  1
  Cu  Cu10  1  0.000000  0.317208  0.006987  1
  Cu  Cu11  1  0.000000  0.817240  0.994045  1
  Cu  Cu12  1  0.500000  0.936851  0.655309  1
  Cu  Cu13  1  0.500000  0.435458  0.344675  1
  Cu  Cu14  1  0.000000  0.062819  0.844205  1
  Cu  Cu15  1  0.000000  0.561440  0.155530  1
  Cu  Cu16  1  0.500000  0.601997  0.732271  1
  Cu  Cu17  1  0.500000  0.101098  0.267658  1
  Cu  Cu18  1  0.000000  0.399009  0.766356  1
  Cu  Cu19  1  0.000000  0.901951  0.234616  1
  Cu  Cu20  1  0.744674  0.064623  0.059272  1
  Cu  Cu21  1  0.256189  0.564329  0.941406  1
  Cu  Cu22  1  0.244219  0.935798  0.441516  1
  Cu  Cu23  1  0.756192  0.435127  0.557634  1
  Cu  Cu24  1  0.755781  0.935798  0.441516  1
  Cu  Cu25  1  0.243808  0.435127  0.557634  1
  Cu  Cu26  1  0.255326  0.064623  0.059272  1
  Cu  Cu27  1  0.743811  0.564329  0.941406  1
