# generated using pymatgen
data_SmDy4YRh18
_symmetry_space_group_name_H-M   'P 1'
_cell_length_a   5.27328000
_cell_length_b   5.27328135
_cell_length_c   17.59534500
_cell_angle_alpha   90.00000000
_cell_angle_beta   90.00000000
_cell_angle_gamma   119.99999153
_symmetry_Int_Tables_number   1
_chemical_formula_structural   SmDy4YRh18
_chemical_formula_sum   'Sm1 Dy4 Y1 Rh18'
_cell_volume   423.73099291
_cell_formula_units_Z   1
loop_
 _symmetry_equiv_pos_site_id
 _symmetry_equiv_pos_as_xyz
  1  'x, y, z'
loop_
 _atom_site_type_symbol
 _atom_site_label
 _atom_site_symmetry_multiplicity
 _atom_site_fract_x
 _atom_site_fract_y
 _atom_site_fract_z
 _atom_site_occupancy
  Sm  Sm0  1  0.333333  0.666667  0.750000  1
  Dy  Dy1  1  0.333333  0.666667  0.958031  1
  Dy  Dy2  1  0.666667  0.333333  0.042019  1
  Dy  Dy3  1  0.666667  0.333333  0.457981  1
  Dy  Dy4  1  0.333333  0.666667  0.541969  1
  Y  Y5  1  0.666667  0.333333  0.250000  1
  Rh  Rh6  1  0.167264  0.832736  0.374292  1
  Rh  Rh7  1  0.167264  0.334530  0.374292  1
  Rh  Rh8  1  0.665470  0.832736  0.374292  1
  Rh  Rh9  1  0.832776  0.167224  0.625633  1
  Rh  Rh10  1  0.832776  0.665551  0.625633  1
  Rh  Rh11  1  0.334449  0.167224  0.625633  1
  Rh  Rh12  1  0.832776  0.167224  0.874367  1
  Rh  Rh13  1  0.832776  0.665551  0.874367  1
  Rh  Rh14  1  0.334449  0.167224  0.874367  1
  Rh  Rh15  1  0.167264  0.832736  0.125708  1
  Rh  Rh16  1  0.167264  0.334530  0.125708  1
  Rh  Rh17  1  0.665470  0.832736  0.125708  1
  Rh  Rh18  1  0.333333  0.666667  0.250000  1
  Rh  Rh19  1  0.666667  0.333333  0.750000  1
  Rh  Rh20  1  0.000000  0.000000  0.250000  1
  Rh  Rh21  1  0.000000  0.000000  0.750000  1
  Rh  Rh22  1  0.000000  0.000000  0.499998  1
  Rh  Rh23  1  0.000000  0.000000  0.000002  1
