# generated using pymatgen
data_HfU8S17
_symmetry_space_group_name_H-M   'P 1'
_cell_length_a   7.85935973
_cell_length_b   7.85935872
_cell_length_c   10.45531160
_cell_angle_alpha   80.58599779
_cell_angle_beta   80.58599765
_cell_angle_gamma   65.05430800
_symmetry_Int_Tables_number   1
_chemical_formula_structural   HfU8S17
_chemical_formula_sum   'Hf1 U8 S17'
_cell_volume   574.44509303
_cell_formula_units_Z   1
loop_
 _symmetry_equiv_pos_site_id
 _symmetry_equiv_pos_as_xyz
  1  'x, y, z'
loop_
 _atom_site_type_symbol
 _atom_site_label
 _atom_site_symmetry_multiplicity
 _atom_site_fract_x
 _atom_site_fract_y
 _atom_site_fract_z
 _atom_site_occupancy
  Hf  Hf0  1  0.000000  0.000000  0.000000  1
  U  U1  1  0.794643  0.794643  0.461097  1
  U  U2  1  0.205357  0.205357  0.538903  1
  U  U3  1  0.698515  0.183435  0.696940  1
  U  U4  1  0.183435  0.698515  0.696940  1
  U  U5  1  0.816565  0.301485  0.303060  1
  U  U6  1  0.679867  0.679867  0.986549  1
  U  U7  1  0.320133  0.320133  0.013451  1
  U  U8  1  0.301485  0.816565  0.303060  1
  S  S9  1  0.478980  0.478980  0.166595  1
  S  S10  1  0.697477  0.697477  0.244454  1
  S  S11  1  0.567780  0.177522  0.465155  1
  S  S12  1  0.059161  0.670517  0.966824  1
  S  S13  1  0.211897  0.211897  0.275784  1
  S  S14  1  0.432220  0.822478  0.534845  1
  S  S15  1  0.521020  0.521020  0.833405  1
  S  S16  1  0.670517  0.059161  0.966824  1
  S  S17  1  0.936763  0.936763  0.234953  1
  S  S18  1  0.063237  0.063237  0.765047  1
  S  S19  1  0.302523  0.302523  0.755546  1
  S  S20  1  0.329483  0.940839  0.033176  1
  S  S21  1  0.822478  0.432220  0.534845  1
  S  S22  1  0.940839  0.329483  0.033176  1
  S  S23  1  0.177522  0.567780  0.465155  1
  S  S24  1  0.000000  0.000000  0.500000  1
  S  S25  1  0.788103  0.788103  0.724216  1
