# generated using pymatgen
data_HoTm4In2(NiHg)2
_symmetry_space_group_name_H-M   'P 1'
_cell_length_a   7.74274500
_cell_length_b   17.85860000
_cell_length_c   3.56452800
_cell_angle_alpha   90.00000000
_cell_angle_beta   90.00000000
_cell_angle_gamma   90.00000000
_symmetry_Int_Tables_number   1
_chemical_formula_structural   HoTm4In2(NiHg)2
_chemical_formula_sum   'Ho2 Tm8 In4 Ni4 Hg4'
_cell_volume   492.88363298
_cell_formula_units_Z   2
loop_
 _symmetry_equiv_pos_site_id
 _symmetry_equiv_pos_as_xyz
  1  'x, y, z'
loop_
 _atom_site_type_symbol
 _atom_site_label
 _atom_site_symmetry_multiplicity
 _atom_site_fract_x
 _atom_site_fract_y
 _atom_site_fract_z
 _atom_site_occupancy
  Ho  Ho0  1  0.500000  0.500000  0.000000  1
  Ho  Ho1  1  0.000000  0.000000  0.000000  1
  Tm  Tm2  1  0.753839  0.281402  0.000000  1
  Tm  Tm3  1  0.246161  0.718598  0.000000  1
  Tm  Tm4  1  0.746161  0.781402  0.000000  1
  Tm  Tm5  1  0.253839  0.218598  0.000000  1
  Tm  Tm6  1  0.612720  0.088806  0.000000  1
  Tm  Tm7  1  0.387280  0.911194  0.000000  1
  Tm  Tm8  1  0.887280  0.588806  0.000000  1
  Tm  Tm9  1  0.112720  0.411194  0.000000  1
  In  In10  1  0.572661  0.652175  0.500000  1
  In  In11  1  0.427339  0.347825  0.500000  1
  In  In12  1  0.927339  0.152175  0.500000  1
  In  In13  1  0.072661  0.847825  0.500000  1
  Ni  Ni14  1  0.540529  0.197811  0.500000  1
  Ni  Ni15  1  0.459471  0.802189  0.500000  1
  Ni  Ni16  1  0.959471  0.697811  0.500000  1
  Ni  Ni17  1  0.040529  0.302189  0.500000  1
  Hg  Hg18  1  0.707084  0.931557  0.500000  1
  Hg  Hg19  1  0.292916  0.068443  0.500000  1
  Hg  Hg20  1  0.792916  0.431557  0.500000  1
  Hg  Hg21  1  0.207084  0.568443  0.500000  1
