# generated using pymatgen
data_Zr4USe8
_symmetry_space_group_name_H-M   'P 1'
_cell_length_a   7.80814944
_cell_length_b   7.80814933
_cell_length_c   7.80814974
_cell_angle_alpha   58.32438169
_cell_angle_beta   58.32438280
_cell_angle_gamma   58.32437744
_symmetry_Int_Tables_number   1
_chemical_formula_structural   Zr4USe8
_chemical_formula_sum   'Zr4 U1 Se8'
_cell_volume   323.69644079
_cell_formula_units_Z   1
loop_
 _symmetry_equiv_pos_site_id
 _symmetry_equiv_pos_as_xyz
  1  'x, y, z'
loop_
 _atom_site_type_symbol
 _atom_site_label
 _atom_site_symmetry_multiplicity
 _atom_site_fract_x
 _atom_site_fract_y
 _atom_site_fract_z
 _atom_site_occupancy
  Zr  Zr0  1  0.000000  0.500000  0.500000  1
  Zr  Zr1  1  0.500000  0.000000  0.500000  1
  Zr  Zr2  1  0.500000  0.500000  0.000000  1
  Zr  Zr3  1  0.000000  0.000000  0.000000  1
  U  U4  1  0.500000  0.500000  0.500000  1
  Se  Se5  1  0.238158  0.752813  0.752813  1
  Se  Se6  1  0.247187  0.247187  0.761842  1
  Se  Se7  1  0.761842  0.247187  0.247187  1
  Se  Se8  1  0.247187  0.761842  0.247187  1
  Se  Se9  1  0.252439  0.252439  0.252439  1
  Se  Se10  1  0.747561  0.747561  0.747561  1
  Se  Se11  1  0.752813  0.238158  0.752813  1
  Se  Se12  1  0.752813  0.752813  0.238158  1
