# generated using pymatgen
data_Tb2Lu8In8Pt3Au
_symmetry_space_group_name_H-M   'P 1'
_cell_length_a   3.55561400
_cell_length_b   8.12543875
_cell_length_c   18.15355919
_cell_angle_alpha   89.97548424
_cell_angle_beta   90.00000000
_cell_angle_gamma   90.00000000
_symmetry_Int_Tables_number   1
_chemical_formula_structural   Tb2Lu8In8Pt3Au
_chemical_formula_sum   'Tb2 Lu8 In8 Pt3 Au1'
_cell_volume   524.47304645
_cell_formula_units_Z   1
loop_
 _symmetry_equiv_pos_site_id
 _symmetry_equiv_pos_as_xyz
  1  'x, y, z'
loop_
 _atom_site_type_symbol
 _atom_site_label
 _atom_site_symmetry_multiplicity
 _atom_site_fract_x
 _atom_site_fract_y
 _atom_site_fract_z
 _atom_site_occupancy
  Tb  Tb0  1  0.000000  0.999560  0.999053  1
  Tb  Tb1  1  0.000000  0.498978  0.500510  1
  Lu  Lu2  1  0.000000  0.121151  0.419670  1
  Lu  Lu3  1  0.000000  0.883351  0.586483  1
  Lu  Lu4  1  0.000000  0.383627  0.914146  1
  Lu  Lu5  1  0.000000  0.617007  0.083638  1
  Lu  Lu6  1  0.000000  0.252507  0.216899  1
  Lu  Lu7  1  0.000000  0.755908  0.779707  1
  Lu  Lu8  1  0.000000  0.256566  0.721093  1
  Lu  Lu9  1  0.000000  0.730849  0.279362  1
  In  In10  1  0.500000  0.420333  0.351613  1
  In  In11  1  0.500000  0.577593  0.649501  1
  In  In12  1  0.500000  0.078049  0.850729  1
  In  In13  1  0.500000  0.919996  0.148337  1
  In  In14  1  0.500000  0.295371  0.065058  1
  In  In15  1  0.500000  0.705166  0.932672  1
  In  In16  1  0.500000  0.205611  0.568145  1
  In  In17  1  0.500000  0.795161  0.434357  1
  Pt  Pt18  1  0.500000  0.973958  0.696615  1
  Pt  Pt19  1  0.500000  0.474175  0.803763  1
  Pt  Pt20  1  0.500000  0.527321  0.195749  1
  Au  Au21  1  0.500000  0.027761  0.302901  1
