# generated using pymatgen
data_K3Nb2Br10N
_symmetry_space_group_name_H-M   'P 1'
_cell_length_a   7.36257100
_cell_length_b   7.36257100
_cell_length_c   19.60790500
_cell_angle_alpha   90.00000000
_cell_angle_beta   90.00000000
_cell_angle_gamma   90.00000000
_symmetry_Int_Tables_number   1
_chemical_formula_structural   K3Nb2Br10N
_chemical_formula_sum   'K6 Nb4 Br20 N2'
_cell_volume   1062.89456381
_cell_formula_units_Z   2
loop_
 _symmetry_equiv_pos_site_id
 _symmetry_equiv_pos_as_xyz
  1  'x, y, z'
loop_
 _atom_site_type_symbol
 _atom_site_label
 _atom_site_symmetry_multiplicity
 _atom_site_fract_x
 _atom_site_fract_y
 _atom_site_fract_z
 _atom_site_occupancy
  K  K0  1  0.500000  0.500000  0.000000  1
  K  K1  1  0.000000  0.000000  0.500000  1
  K  K2  1  0.000000  0.500000  0.250000  1
  K  K3  1  0.500000  0.000000  0.750000  1
  K  K4  1  0.500000  0.000000  0.250000  1
  K  K5  1  0.000000  0.500000  0.750000  1
  Nb  Nb6  1  0.500000  0.500000  0.404357  1
  Nb  Nb7  1  0.000000  0.000000  0.904357  1
  Nb  Nb8  1  0.500000  0.500000  0.595643  1
  Nb  Nb9  1  0.000000  0.000000  0.095643  1
  Br  Br10  1  0.793468  0.687274  0.396055  1
  Br  Br11  1  0.206532  0.312726  0.396055  1
  Br  Br12  1  0.706532  0.187274  0.896055  1
  Br  Br13  1  0.293468  0.812726  0.896055  1
  Br  Br14  1  0.687274  0.206532  0.396055  1
  Br  Br15  1  0.312726  0.793468  0.396055  1
  Br  Br16  1  0.187274  0.293468  0.896055  1
  Br  Br17  1  0.812726  0.706532  0.896055  1
  Br  Br18  1  0.206532  0.312726  0.603945  1
  Br  Br19  1  0.793468  0.687274  0.603945  1
  Br  Br20  1  0.293468  0.812726  0.103945  1
  Br  Br21  1  0.706532  0.187274  0.103945  1
  Br  Br22  1  0.312726  0.793468  0.603945  1
  Br  Br23  1  0.687274  0.206532  0.603945  1
  Br  Br24  1  0.812726  0.706532  0.103945  1
  Br  Br25  1  0.187274  0.293468  0.103945  1
  Br  Br26  1  0.500000  0.500000  0.260964  1
  Br  Br27  1  0.000000  0.000000  0.760964  1
  Br  Br28  1  0.500000  0.500000  0.739036  1
  Br  Br29  1  0.000000  0.000000  0.239036  1
  N  N30  1  0.500000  0.500000  0.500000  1
  N  N31  1  0.000000  0.000000  0.000000  1
