# generated using pymatgen
data_Tb5GdC3Cl5
_symmetry_space_group_name_H-M   'P 1'
_cell_length_a   3.67706378
_cell_length_b   8.37585891
_cell_length_c   10.31219855
_cell_angle_alpha   85.63456985
_cell_angle_beta   79.69759402
_cell_angle_gamma   77.33742919
_symmetry_Int_Tables_number   1
_chemical_formula_structural   Tb5GdC3Cl5
_chemical_formula_sum   'Tb5 Gd1 C3 Cl5'
_cell_volume   304.65477452
_cell_formula_units_Z   1
loop_
 _symmetry_equiv_pos_site_id
 _symmetry_equiv_pos_as_xyz
  1  'x, y, z'
loop_
 _atom_site_type_symbol
 _atom_site_label
 _atom_site_symmetry_multiplicity
 _atom_site_fract_x
 _atom_site_fract_y
 _atom_site_fract_z
 _atom_site_occupancy
  Tb  Tb0  1  0.573007  0.074869  0.780268  1
  Tb  Tb1  1  0.957991  0.429765  0.658505  1
  Tb  Tb2  1  0.683798  0.180696  0.454970  1
  Tb  Tb3  1  0.047990  0.567855  0.341402  1
  Tb  Tb4  1  0.320033  0.818925  0.543842  1
  Gd  Gd5  1  0.431994  0.923040  0.217069  1
  C  C6  1  0.127091  0.123873  0.625293  1
  C  C7  1  0.877444  0.874498  0.373172  1
  C  C8  1  0.503206  0.498740  0.499834  1
  Cl  Cl9  1  0.749841  0.746360  0.754653  1
  Cl  Cl10  1  0.379707  0.378841  0.868272  1
  Cl  Cl11  1  0.251519  0.253186  0.244130  1
  Cl  Cl12  1  0.630139  0.615101  0.131343  1
  Cl  Cl13  1  0.003462  0.997839  0.996561  1
