# generated using pymatgen
data_NaNb7S12
_symmetry_space_group_name_H-M   'P 1'
_cell_length_a   5.81796100
_cell_length_b   5.81796036
_cell_length_c   13.67004400
_cell_angle_alpha   90.00000000
_cell_angle_beta   90.00000000
_cell_angle_gamma   120.00000931
_symmetry_Int_Tables_number   1
_chemical_formula_structural   NaNb7S12
_chemical_formula_sum   'Na1 Nb7 S12'
_cell_volume   400.72096747
_cell_formula_units_Z   1
loop_
 _symmetry_equiv_pos_site_id
 _symmetry_equiv_pos_as_xyz
  1  'x, y, z'
loop_
 _atom_site_type_symbol
 _atom_site_label
 _atom_site_symmetry_multiplicity
 _atom_site_fract_x
 _atom_site_fract_y
 _atom_site_fract_z
 _atom_site_occupancy
  Na  Na0  1  0.666667  0.333333  0.750000  1
  Nb  Nb1  1  0.333333  0.666667  0.482246  1
  Nb  Nb2  1  0.666667  0.333333  0.019492  1
  Nb  Nb3  1  0.666667  0.333333  0.480508  1
  Nb  Nb4  1  0.333333  0.666667  0.017754  1
  Nb  Nb5  1  0.000000  0.000000  0.480785  1
  Nb  Nb6  1  0.000000  0.000000  0.019215  1
  Nb  Nb7  1  0.333333  0.666667  0.250000  1
  S  S8  1  0.667374  0.666915  0.365021  1
  S  S9  1  0.333085  0.000461  0.365021  1
  S  S10  1  0.999539  0.332626  0.365021  1
  S  S11  1  0.000443  0.668698  0.904343  1
  S  S12  1  0.331302  0.999557  0.595657  1
  S  S13  1  0.331302  0.331743  0.904343  1
  S  S14  1  0.668257  0.999557  0.904343  1
  S  S15  1  0.333085  0.332626  0.134979  1
  S  S16  1  0.667374  0.000461  0.134979  1
  S  S17  1  0.668257  0.668698  0.595657  1
  S  S18  1  0.000443  0.331743  0.595657  1
  S  S19  1  0.999539  0.666915  0.134979  1
