# generated using pymatgen
data_K2AlMoP8(WO14)2
_symmetry_space_group_name_H-M   'P 1'
_cell_length_a   7.68221730
_cell_length_b   9.33544572
_cell_length_c   9.74605700
_cell_angle_alpha   62.04760645
_cell_angle_beta   76.74869902
_cell_angle_gamma   99.99141894
_symmetry_Int_Tables_number   1
_chemical_formula_structural   K2AlMoP8(WO14)2
_chemical_formula_sum   'K2 Al1 Mo1 P8 W2 O28'
_cell_volume   567.98857225
_cell_formula_units_Z   1
loop_
 _symmetry_equiv_pos_site_id
 _symmetry_equiv_pos_as_xyz
  1  'x, y, z'
loop_
 _atom_site_type_symbol
 _atom_site_label
 _atom_site_symmetry_multiplicity
 _atom_site_fract_x
 _atom_site_fract_y
 _atom_site_fract_z
 _atom_site_occupancy
  K  K0  1  0.999669  0.247482  0.256524  1
  K  K1  1  0.000268  0.752318  0.743552  1
  Al  Al2  1  0.500056  0.748678  0.747012  1
  Mo  Mo3  1  0.003773  0.499788  0.496887  1
  P  P4  1  0.244771  0.209701  0.598870  1
  P  P5  1  0.241955  0.711715  0.080280  1
  P  P6  1  0.762202  0.295028  0.906699  1
  P  P7  1  0.751276  0.783115  0.413878  1
  P  P8  1  0.613036  0.683559  0.058381  1
  P  P9  1  0.618635  0.162864  0.582140  1
  P  P10  1  0.382402  0.820848  0.436426  1
  P  P11  1  0.385349  0.332374  0.923864  1
  W  W12  1  0.996278  0.999684  0.003431  1
  W  W13  1  0.499868  0.251954  0.252868  1
  O  O14  1  0.098769  0.050778  0.764559  1
  O  O15  1  0.110131  0.550134  0.245094  1
  O  O16  1  0.899539  0.452892  0.743962  1
  O  O17  1  0.891012  0.947175  0.244368  1
  O  O18  1  0.791205  0.780748  0.060364  1
  O  O19  1  0.794328  0.262731  0.583232  1
  O  O20  1  0.203670  0.730619  0.431207  1
  O  O21  1  0.209924  0.225968  0.926622  1
  O  O22  1  0.345914  0.300231  0.101845  1
  O  O23  1  0.359227  0.797531  0.606481  1
  O  O24  1  0.654573  0.204003  0.401096  1
  O  O25  1  0.639790  0.698471  0.891306  1
  O  O26  1  0.448388  0.234759  0.621004  1
  O  O27  1  0.448809  0.760611  0.094727  1
  O  O28  1  0.553726  0.255209  0.894097  1
  O  O29  1  0.547735  0.748187  0.391823  1
  O  O30  1  0.206017  0.374405  0.557881  1
  O  O31  1  0.183884  0.870516  0.051881  1
  O  O32  1  0.809022  0.129810  0.946533  1
  O  O33  1  0.802872  0.625927  0.441978  1
  O  O34  1  0.255852  0.163934  0.464469  1
  O  O35  1  0.269666  0.683778  0.935129  1
  O  O36  1  0.746245  0.330357  0.047872  1
  O  O37  1  0.728981  0.821339  0.552713  1
  O  O38  1  0.545733  0.495446  0.203540  1
  O  O39  1  0.557484  0.972934  0.705208  1
  O  O40  1  0.452217  0.011969  0.296631  1
  O  O41  1  0.445750  0.520431  0.793567  1
