# generated using pymatgen
data_Gd4Tc5B12Ru
_symmetry_space_group_name_H-M   'P 1'
_cell_length_a   6.21086302
_cell_length_b   6.21668176
_cell_length_c   7.52206900
_cell_angle_alpha   89.35847511
_cell_angle_beta   89.32264111
_cell_angle_gamma   113.82157755
_symmetry_Int_Tables_number   1
_chemical_formula_structural   Gd4Tc5B12Ru
_chemical_formula_sum   'Gd4 Tc5 B12 Ru1'
_cell_volume   265.63244602
_cell_formula_units_Z   1
loop_
 _symmetry_equiv_pos_site_id
 _symmetry_equiv_pos_as_xyz
  1  'x, y, z'
loop_
 _atom_site_type_symbol
 _atom_site_label
 _atom_site_symmetry_multiplicity
 _atom_site_fract_x
 _atom_site_fract_y
 _atom_site_fract_z
 _atom_site_occupancy
  Gd  Gd0  1  0.902708  0.560687  0.324380  1
  Gd  Gd1  1  0.441426  0.097771  0.176335  1
  Gd  Gd2  1  0.097547  0.437286  0.675616  1
  Gd  Gd3  1  0.554890  0.901246  0.824036  1
  Tc  Tc4  1  0.411609  0.585869  0.251926  1
  Tc  Tc5  1  0.587823  0.412152  0.749990  1
  Tc  Tc6  1  0.011168  0.196108  0.088999  1
  Tc  Tc7  1  0.801597  0.989001  0.412391  1
  Tc  Tc8  1  0.988774  0.803824  0.909523  1
  B  B9  1  0.755773  0.848833  0.129333  1
  B  B10  1  0.148186  0.245359  0.367730  1
  B  B11  1  0.246479  0.151000  0.871445  1
  B  B12  1  0.850952  0.759330  0.630660  1
  B  B13  1  0.415401  0.840082  0.480411  1
  B  B14  1  0.157936  0.584607  0.017140  1
  B  B15  1  0.586613  0.160444  0.518774  1
  B  B16  1  0.841521  0.415985  0.982786  1
  B  B17  1  0.556693  0.648747  0.535199  1
  B  B18  1  0.350250  0.442516  0.965883  1
  B  B19  1  0.444446  0.350161  0.465594  1
  B  B20  1  0.649475  0.557364  0.034547  1
  Ru  Ru21  1  0.198735  0.011626  0.587301  1
