# generated using pymatgen
data_Sr4Ga14NiPt
_symmetry_space_group_name_H-M   'P 1'
_cell_length_a   6.23430170
_cell_length_b   6.23756741
_cell_length_c   11.73307447
_cell_angle_alpha   74.58484468
_cell_angle_beta   74.59309744
_cell_angle_gamma   90.00000128
_symmetry_Int_Tables_number   1
_chemical_formula_structural   Sr4Ga14NiPt
_chemical_formula_sum   'Sr4 Ga14 Ni1 Pt1'
_cell_volume   422.81606432
_cell_formula_units_Z   1
loop_
 _symmetry_equiv_pos_site_id
 _symmetry_equiv_pos_as_xyz
  1  'x, y, z'
loop_
 _atom_site_type_symbol
 _atom_site_label
 _atom_site_symmetry_multiplicity
 _atom_site_fract_x
 _atom_site_fract_y
 _atom_site_fract_z
 _atom_site_occupancy
  Sr  Sr0  1  0.000095  0.000095  0.999811  1
  Sr  Sr1  1  0.499654  0.499654  0.000693  1
  Sr  Sr2  1  0.750695  0.250695  0.498610  1
  Sr  Sr3  1  0.246520  0.746520  0.506961  1
  Ga  Ga4  1  0.198098  0.198098  0.603806  1
  Ga  Ga5  1  0.809687  0.809687  0.380627  1
  Ga  Ga6  1  0.615376  0.121906  0.250611  1
  Ga  Ga7  1  0.134013  0.627483  0.250611  1
  Ga  Ga8  1  0.615376  0.627483  0.250611  1
  Ga  Ga9  1  0.134013  0.121906  0.250611  1
  Ga  Ga10  1  0.860496  0.355376  0.757102  1
  Ga  Ga11  1  0.382401  0.887521  0.757102  1
  Ga  Ga12  1  0.860496  0.887521  0.757102  1
  Ga  Ga13  1  0.382401  0.355376  0.757102  1
  Ga  Ga14  1  0.690429  0.690429  0.619140  1
  Ga  Ga15  1  0.061194  0.561194  0.877612  1
  Ga  Ga16  1  0.454060  0.954060  0.091878  1
  Ga  Ga17  1  0.941927  0.441927  0.116146  1
  Ni  Ni18  1  0.564365  0.064365  0.871270  1
  Pt  Pt19  1  0.313534  0.313534  0.372932  1
