# generated using pymatgen
data_Tb4Tm6IrRu3
_symmetry_space_group_name_H-M   'P 1'
_cell_length_a   6.32613004
_cell_length_b   7.26672190
_cell_length_c   8.40265575
_cell_angle_alpha   96.91827561
_cell_angle_beta   111.93420402
_cell_angle_gamma   90.10493329
_symmetry_Int_Tables_number   1
_chemical_formula_structural   Tb4Tm6IrRu3
_chemical_formula_sum   'Tb4 Tm6 Ir1 Ru3'
_cell_volume   355.24204396
_cell_formula_units_Z   1
loop_
 _symmetry_equiv_pos_site_id
 _symmetry_equiv_pos_as_xyz
  1  'x, y, z'
loop_
 _atom_site_type_symbol
 _atom_site_label
 _atom_site_symmetry_multiplicity
 _atom_site_fract_x
 _atom_site_fract_y
 _atom_site_fract_z
 _atom_site_occupancy
  Tb  Tb0  1  0.789991  0.081179  0.812727  1
  Tb  Tb1  1  0.977902  0.415370  0.189028  1
  Tb  Tb2  1  0.211018  0.916213  0.188241  1
  Tb  Tb3  1  0.025321  0.585020  0.813059  1
  Tm  Tm4  1  0.204390  0.183409  0.565269  1
  Tm  Tm5  1  0.640916  0.316707  0.433995  1
  Tm  Tm6  1  0.794231  0.815465  0.433897  1
  Tm  Tm7  1  0.357977  0.685055  0.564343  1
  Tm  Tm8  1  0.421015  0.249854  0.000175  1
  Tm  Tm9  1  0.579312  0.751050  0.000807  1
  Ir  Ir10  1  0.596913  0.423955  0.777416  1
  Ru  Ru11  1  0.821803  0.076525  0.220934  1
  Ru  Ru12  1  0.398989  0.575634  0.221687  1
  Ru  Ru13  1  0.180221  0.924566  0.778421  1
