# generated using pymatgen
data_Y2HoB6Ir7Os
_symmetry_space_group_name_H-M   'P 1'
_cell_length_a   9.99525987
_cell_length_b   9.17358245
_cell_length_c   5.57663229
_cell_angle_alpha   81.37255144
_cell_angle_beta   65.14959889
_cell_angle_gamma   33.47784887
_symmetry_Int_Tables_number   1
_chemical_formula_structural   Y2HoB6Ir7Os
_chemical_formula_sum   'Y2 Ho1 B6 Ir7 Os1'
_cell_volume   234.50745550
_cell_formula_units_Z   1
loop_
 _symmetry_equiv_pos_site_id
 _symmetry_equiv_pos_as_xyz
  1  'x, y, z'
loop_
 _atom_site_type_symbol
 _atom_site_label
 _atom_site_symmetry_multiplicity
 _atom_site_fract_x
 _atom_site_fract_y
 _atom_site_fract_z
 _atom_site_occupancy
  Y  Y0  1  0.178874  0.178874  0.821126  1
  Y  Y1  1  0.821126  0.821126  0.178874  1
  Ho  Ho2  1  0.000000  0.000000  0.000000  1
  B  B3  1  0.821462  0.528923  0.482916  1
  B  B4  1  0.166699  0.482916  0.528923  1
  B  B5  1  0.482916  0.166699  0.821462  1
  B  B6  1  0.670359  0.329641  0.670359  1
  B  B7  1  0.528923  0.821462  0.166699  1
  B  B8  1  0.329641  0.670359  0.329641  1
  Ir  Ir9  1  0.414275  0.414275  0.585725  1
  Ir  Ir10  1  0.585582  0.585582  0.914418  1
  Ir  Ir11  1  0.085864  0.085864  0.414136  1
  Ir  Ir12  1  0.914418  0.914418  0.585582  1
  Ir  Ir13  1  0.585725  0.585725  0.414275  1
  Ir  Ir14  1  0.250000  0.250000  0.250000  1
  Ir  Ir15  1  0.414136  0.414136  0.085864  1
  Os  Os16  1  0.750000  0.750000  0.750000  1
