# generated using pymatgen
data_Dy3HoOsRuC4
_symmetry_space_group_name_H-M   'P 1'
_cell_length_a   5.12807100
_cell_length_b   6.45208988
_cell_length_c   9.78061263
_cell_angle_alpha   89.80148740
_cell_angle_beta   90.00000000
_cell_angle_gamma   90.00000000
_symmetry_Int_Tables_number   1
_chemical_formula_structural   Dy3HoOsRuC4
_chemical_formula_sum   'Dy6 Ho2 Os2 Ru2 C8'
_cell_volume   323.60698751
_cell_formula_units_Z   2
loop_
 _symmetry_equiv_pos_site_id
 _symmetry_equiv_pos_as_xyz
  1  'x, y, z'
loop_
 _atom_site_type_symbol
 _atom_site_label
 _atom_site_symmetry_multiplicity
 _atom_site_fract_x
 _atom_site_fract_y
 _atom_site_fract_z
 _atom_site_occupancy
  Dy  Dy0  1  0.750000  0.820656  0.053495  1
  Dy  Dy1  1  0.250000  0.179344  0.946505  1
  Dy  Dy2  1  0.250000  0.526321  0.217364  1
  Dy  Dy3  1  0.750000  0.473679  0.782636  1
  Dy  Dy4  1  0.750000  0.974634  0.718342  1
  Dy  Dy5  1  0.250000  0.025366  0.281658  1
  Ho  Ho6  1  0.250000  0.682215  0.553283  1
  Ho  Ho7  1  0.750000  0.317785  0.446717  1
  Os  Os8  1  0.750000  0.776568  0.366007  1
  Os  Os9  1  0.250000  0.223432  0.633993  1
  Ru  Ru10  1  0.250000  0.722067  0.865075  1
  Ru  Ru11  1  0.750000  0.277933  0.134925  1
  C  C12  1  0.250000  0.458368  0.755235  1
  C  C13  1  0.750000  0.541632  0.244765  1
  C  C14  1  0.750000  0.040730  0.259848  1
  C  C15  1  0.250000  0.959270  0.740152  1
  C  C16  1  0.250000  0.826126  0.053248  1
  C  C17  1  0.750000  0.173874  0.946752  1
  C  C18  1  0.750000  0.674148  0.553732  1
  C  C19  1  0.250000  0.325852  0.446268  1
