# generated using pymatgen
data_Pr6Nd2Re3OsC8
_symmetry_space_group_name_H-M   'P 1'
_cell_length_a   5.40934900
_cell_length_b   6.72624762
_cell_length_c   10.23381101
_cell_angle_alpha   90.09447346
_cell_angle_beta   90.00000000
_cell_angle_gamma   90.00000000
_symmetry_Int_Tables_number   1
_chemical_formula_structural   Pr6Nd2Re3OsC8
_chemical_formula_sum   'Pr6 Nd2 Re3 Os1 C8'
_cell_volume   372.35282692
_cell_formula_units_Z   1
loop_
 _symmetry_equiv_pos_site_id
 _symmetry_equiv_pos_as_xyz
  1  'x, y, z'
loop_
 _atom_site_type_symbol
 _atom_site_label
 _atom_site_symmetry_multiplicity
 _atom_site_fract_x
 _atom_site_fract_y
 _atom_site_fract_z
 _atom_site_occupancy
  Pr  Pr0  1  0.250000  0.474974  0.786746  1
  Pr  Pr1  1  0.750000  0.026606  0.288154  1
  Pr  Pr2  1  0.250000  0.975040  0.713051  1
  Pr  Pr3  1  0.750000  0.524954  0.210812  1
  Pr  Pr4  1  0.750000  0.688881  0.549483  1
  Pr  Pr5  1  0.750000  0.189227  0.950117  1
  Nd  Nd6  1  0.250000  0.814493  0.049880  1
  Nd  Nd7  1  0.250000  0.312941  0.449475  1
  Re  Re8  1  0.750000  0.230187  0.642402  1
  Re  Re9  1  0.250000  0.768849  0.355570  1
  Re  Re10  1  0.750000  0.730454  0.857667  1
  Os  Os11  1  0.250000  0.268558  0.144285  1
  C  C12  1  0.250000  0.685785  0.535051  1
  C  C13  1  0.750000  0.813026  0.037785  1
  C  C14  1  0.250000  0.185424  0.966072  1
  C  C15  1  0.750000  0.312763  0.462763  1
  C  C16  1  0.250000  0.033396  0.258143  1
  C  C17  1  0.750000  0.466371  0.758000  1
  C  C18  1  0.250000  0.531879  0.242334  1
  C  C19  1  0.750000  0.966190  0.742208  1
