# generated using pymatgen
data_ErPa3(InIr2)2
_symmetry_space_group_name_H-M   'P 1'
_cell_length_a   7.74353089
_cell_length_b   7.74353105
_cell_length_c   3.60734000
_cell_angle_alpha   90.00000000
_cell_angle_beta   90.00000000
_cell_angle_gamma   88.25437635
_symmetry_Int_Tables_number   1
_chemical_formula_structural   ErPa3(InIr2)2
_chemical_formula_sum   'Er1 Pa3 In2 Ir4'
_cell_volume   216.20391968
_cell_formula_units_Z   1
loop_
 _symmetry_equiv_pos_site_id
 _symmetry_equiv_pos_as_xyz
  1  'x, y, z'
loop_
 _atom_site_type_symbol
 _atom_site_label
 _atom_site_symmetry_multiplicity
 _atom_site_fract_x
 _atom_site_fract_y
 _atom_site_fract_z
 _atom_site_occupancy
  Er  Er0  1  0.669020  0.169020  0.500000  1
  Pa  Pa1  1  0.333821  0.833821  0.500000  1
  Pa  Pa2  1  0.167365  0.329501  0.500000  1
  Pa  Pa3  1  0.829501  0.667365  0.500000  1
  In  In4  1  0.501132  0.490381  0.000000  1
  In  In5  1  0.990381  0.001132  0.000000  1
  Ir  Ir6  1  0.143183  0.643183  0.000000  1
  Ir  Ir7  1  0.882660  0.382660  0.000000  1
  Ir  Ir8  1  0.629098  0.853839  0.000000  1
  Ir  Ir9  1  0.353839  0.129098  0.000000  1
