# generated using pymatgen
data_Yb4Si3Ag5
_symmetry_space_group_name_H-M   'P 1'
_cell_length_a   5.71544848
_cell_length_b   5.71544848
_cell_length_c   10.69786349
_cell_angle_alpha   85.17072037
_cell_angle_beta   85.17072048
_cell_angle_gamma   46.76422117
_symmetry_Int_Tables_number   1
_chemical_formula_structural   Yb4Si3Ag5
_chemical_formula_sum   'Yb4 Si3 Ag5'
_cell_volume   253.52292039
_cell_formula_units_Z   1
loop_
 _symmetry_equiv_pos_site_id
 _symmetry_equiv_pos_as_xyz
  1  'x, y, z'
loop_
 _atom_site_type_symbol
 _atom_site_label
 _atom_site_symmetry_multiplicity
 _atom_site_fract_x
 _atom_site_fract_y
 _atom_site_fract_z
 _atom_site_occupancy
  Yb  Yb0  1  0.687206  0.687206  0.683925  1
  Yb  Yb1  1  0.191126  0.191126  0.191243  1
  Yb  Yb2  1  0.393835  0.393835  0.898898  1
  Yb  Yb3  1  0.893094  0.893094  0.394676  1
  Si  Si4  1  0.169636  0.169636  0.491697  1
  Si  Si5  1  0.989895  0.989895  0.661518  1
  Si  Si6  1  0.484345  0.484345  0.189225  1
  Ag  Ag7  1  0.674452  0.674452  0.996974  1
  Ag  Ag8  1  0.385663  0.385663  0.603464  1
  Ag  Ag9  1  0.913679  0.913679  0.104936  1
  Ag  Ag10  1  0.095314  0.095314  0.872072  1
  Ag  Ag11  1  0.602954  0.602954  0.392570  1
