# generated using pymatgen
data_Ho2MnCrC3
_symmetry_space_group_name_H-M   'P 1'
_cell_length_a   5.42182795
_cell_length_b   5.42182721
_cell_length_c   5.49958837
_cell_angle_alpha   75.17492604
_cell_angle_beta   75.17492469
_cell_angle_gamma   36.40010393
_symmetry_Int_Tables_number   1
_chemical_formula_structural   Ho2MnCrC3
_chemical_formula_sum   'Ho2 Mn1 Cr1 C3'
_cell_volume   92.39111598
_cell_formula_units_Z   1
loop_
 _symmetry_equiv_pos_site_id
 _symmetry_equiv_pos_as_xyz
  1  'x, y, z'
loop_
 _atom_site_type_symbol
 _atom_site_label
 _atom_site_symmetry_multiplicity
 _atom_site_fract_x
 _atom_site_fract_y
 _atom_site_fract_z
 _atom_site_occupancy
  Ho  Ho0  1  0.604159  0.604159  0.183885  1
  Ho  Ho1  1  0.392855  0.392855  0.814033  1
  Mn  Mn2  1  0.842788  0.842788  0.388600  1
  Cr  Cr3  1  0.156325  0.156325  0.607991  1
  C  C4  1  0.289854  0.289854  0.275442  1
  C  C5  1  0.714529  0.714529  0.731154  1
  C  C6  1  0.999490  0.999490  0.498894  1
