# generated using pymatgen
data_Th14ReRu2Rh3
_symmetry_space_group_name_H-M   'P 1'
_cell_length_a   9.96901939
_cell_length_b   10.02434545
_cell_length_c   6.32594436
_cell_angle_alpha   89.56858074
_cell_angle_beta   89.95504722
_cell_angle_gamma   119.77653407
_symmetry_Int_Tables_number   1
_chemical_formula_structural   Th14ReRu2Rh3
_chemical_formula_sum   'Th14 Re1 Ru2 Rh3'
_cell_volume   548.68084233
_cell_formula_units_Z   1
loop_
 _symmetry_equiv_pos_site_id
 _symmetry_equiv_pos_as_xyz
  1  'x, y, z'
loop_
 _atom_site_type_symbol
 _atom_site_label
 _atom_site_symmetry_multiplicity
 _atom_site_fract_x
 _atom_site_fract_y
 _atom_site_fract_z
 _atom_site_occupancy
  Th  Th0  1  0.460900  0.542392  0.294596  1
  Th  Th1  1  0.082942  0.544792  0.296227  1
  Th  Th2  1  0.917862  0.458839  0.796234  1
  Th  Th3  1  0.250411  0.125737  0.503595  1
  Th  Th4  1  0.539847  0.081681  0.792597  1
  Th  Th5  1  0.749832  0.872905  0.004928  1
  Th  Th6  1  0.666622  0.333371  0.297053  1
  Th  Th7  1  0.122611  0.872186  0.004317  1
  Th  Th8  1  0.455452  0.915699  0.294907  1
  Th  Th9  1  0.540941  0.458486  0.795990  1
  Th  Th10  1  0.876896  0.129394  0.503161  1
  Th  Th11  1  0.128628  0.258287  0.000199  1
  Th  Th12  1  0.876545  0.746903  0.506624  1
  Th  Th13  1  0.332196  0.666885  0.796291  1
  Re  Re14  1  0.811246  0.623660  0.054323  1
  Ru  Ru15  1  0.186742  0.371888  0.545012  1
  Ru  Ru16  1  0.190589  0.816673  0.549310  1
  Rh  Rh17  1  0.811102  0.181728  0.048594  1
  Rh  Rh18  1  0.627141  0.816307  0.551899  1
  Rh  Rh19  1  0.371495  0.182188  0.048141  1
