# generated using pymatgen
data_Nd2Y2ReOs7
_symmetry_space_group_name_H-M   'P 1'
_cell_length_a   5.30186342
_cell_length_b   5.41710831
_cell_length_c   9.10624378
_cell_angle_alpha   90.00000118
_cell_angle_beta   90.12086832
_cell_angle_gamma   120.72168952
_symmetry_Int_Tables_number   1
_chemical_formula_structural   Nd2Y2ReOs7
_chemical_formula_sum   'Nd2 Y2 Re1 Os7'
_cell_volume   224.83307741
_cell_formula_units_Z   1
loop_
 _symmetry_equiv_pos_site_id
 _symmetry_equiv_pos_as_xyz
  1  'x, y, z'
loop_
 _atom_site_type_symbol
 _atom_site_label
 _atom_site_symmetry_multiplicity
 _atom_site_fract_x
 _atom_site_fract_y
 _atom_site_fract_z
 _atom_site_occupancy
  Nd  Nd0  1  0.661005  0.330502  0.937798  1
  Nd  Nd1  1  0.325651  0.662826  0.064857  1
  Y  Y2  1  0.327103  0.663552  0.434682  1
  Y  Y3  1  0.659843  0.329921  0.562960  1
  Re  Re4  1  0.679025  0.839513  0.746178  1
  Os  Os5  1  0.977897  0.988948  0.499158  1
  Os  Os6  1  0.976422  0.988211  0.000348  1
  Os  Os7  1  0.835518  0.164584  0.254643  1
  Os  Os8  1  0.835518  0.670934  0.254643  1
  Os  Os9  1  0.358811  0.179405  0.254962  1
  Os  Os10  1  0.181605  0.831899  0.744885  1
  Os  Os11  1  0.181605  0.349706  0.744885  1
