# generated using pymatgen
data_AcCe(Si2Rh3)2
_symmetry_space_group_name_H-M   'P 1'
_cell_length_a   6.75920076
_cell_length_b   6.75898459
_cell_length_c   6.76071495
_cell_angle_alpha   130.26851076
_cell_angle_beta   115.40316057
_cell_angle_gamma   85.67034263
_symmetry_Int_Tables_number   1
_chemical_formula_structural   AcCe(Si2Rh3)2
_chemical_formula_sum   'Ac1 Ce1 Si4 Rh6'
_cell_volume   203.55725639
_cell_formula_units_Z   1
loop_
 _symmetry_equiv_pos_site_id
 _symmetry_equiv_pos_as_xyz
  1  'x, y, z'
loop_
 _atom_site_type_symbol
 _atom_site_label
 _atom_site_symmetry_multiplicity
 _atom_site_fract_x
 _atom_site_fract_y
 _atom_site_fract_z
 _atom_site_occupancy
  Ac  Ac0  1  0.249376  0.965423  0.714738  1
  Ce  Ce1  1  0.750330  0.046614  0.297077  1
  Si  Si2  1  0.074918  0.273505  0.198628  1
  Si  Si3  1  0.919228  0.722392  0.803208  1
  Si  Si4  1  0.425101  0.623878  0.198852  1
  Si  Si5  1  0.580878  0.383968  0.803104  1
  Rh  Rh6  1  0.501853  0.498878  0.500675  1
  Rh  Rh7  1  0.998477  0.498984  0.997396  1
  Rh  Rh8  1  0.287045  0.999875  0.280270  1
  Rh  Rh9  1  0.719384  0.999810  0.712902  1
  Rh  Rh10  1  0.213093  0.493499  0.712948  1
  Rh  Rh11  1  0.780317  0.493172  0.280203  1
