# generated using pymatgen
data_Ce2ReB8Mo
_symmetry_space_group_name_H-M   'P 1'
_cell_length_a   3.69083300
_cell_length_b   6.03886775
_cell_length_c   11.69116846
_cell_angle_alpha   89.94278647
_cell_angle_beta   90.00000000
_cell_angle_gamma   90.00000000
_symmetry_Int_Tables_number   1
_chemical_formula_structural   Ce2ReB8Mo
_chemical_formula_sum   'Ce4 Re2 B16 Mo2'
_cell_volume   260.57792156
_cell_formula_units_Z   2
loop_
 _symmetry_equiv_pos_site_id
 _symmetry_equiv_pos_as_xyz
  1  'x, y, z'
loop_
 _atom_site_type_symbol
 _atom_site_label
 _atom_site_symmetry_multiplicity
 _atom_site_fract_x
 _atom_site_fract_y
 _atom_site_fract_z
 _atom_site_occupancy
  Ce  Ce0  1  0.000000  0.126849  0.147977  1
  Ce  Ce1  1  0.000000  0.873151  0.852023  1
  Ce  Ce2  1  0.000000  0.625264  0.346698  1
  Ce  Ce3  1  0.000000  0.374736  0.653302  1
  Re  Re4  1  0.000000  0.637621  0.090689  1
  Re  Re5  1  0.000000  0.362379  0.909311  1
  B  B6  1  0.500000  0.525370  0.809938  1
  B  B7  1  0.500000  0.474630  0.190062  1
  B  B8  1  0.500000  0.024064  0.692209  1
  B  B9  1  0.500000  0.975936  0.307791  1
  B  B10  1  0.500000  0.388036  0.045983  1
  B  B11  1  0.500000  0.611964  0.954017  1
  B  B12  1  0.500000  0.886276  0.453359  1
  B  B13  1  0.500000  0.113724  0.546641  1
  B  B14  1  0.500000  0.214902  0.815696  1
  B  B15  1  0.500000  0.785098  0.184304  1
  B  B16  1  0.500000  0.714031  0.685831  1
  B  B17  1  0.500000  0.285969  0.314169  1
  B  B18  1  0.500000  0.138466  0.968593  1
  B  B19  1  0.500000  0.861534  0.031407  1
  B  B20  1  0.500000  0.635380  0.532202  1
  B  B21  1  0.500000  0.364620  0.467798  1
  Mo  Mo22  1  0.000000  0.128821  0.414092  1
  Mo  Mo23  1  0.000000  0.871179  0.585908  1
