# generated using pymatgen
data_Cd2Ga3RhO8
_symmetry_space_group_name_H-M   'P 1'
_cell_length_a   6.26889144
_cell_length_b   6.26889130
_cell_length_c   6.26889222
_cell_angle_alpha   58.85482606
_cell_angle_beta   58.85482525
_cell_angle_gamma   58.85482451
_symmetry_Int_Tables_number   1
_chemical_formula_structural   Cd2Ga3RhO8
_chemical_formula_sum   'Cd2 Ga3 Rh1 O8'
_cell_volume   169.64928711
_cell_formula_units_Z   1
loop_
 _symmetry_equiv_pos_site_id
 _symmetry_equiv_pos_as_xyz
  1  'x, y, z'
loop_
 _atom_site_type_symbol
 _atom_site_label
 _atom_site_symmetry_multiplicity
 _atom_site_fract_x
 _atom_site_fract_y
 _atom_site_fract_z
 _atom_site_occupancy
  Cd  Cd0  1  0.252972  0.252972  0.252972  1
  Cd  Cd1  1  0.997028  0.997028  0.997028  1
  Ga  Ga2  1  0.625000  0.625000  0.125000  1
  Ga  Ga3  1  0.625000  0.125000  0.625000  1
  Ga  Ga4  1  0.125000  0.625000  0.625000  1
  Rh  Rh5  1  0.625000  0.625000  0.625000  1
  O  O6  1  0.860119  0.860119  0.430354  1
  O  O7  1  0.860119  0.430354  0.860119  1
  O  O8  1  0.430354  0.860119  0.860119  1
  O  O9  1  0.857344  0.857344  0.857344  1
  O  O10  1  0.389881  0.389881  0.819646  1
  O  O11  1  0.389881  0.819646  0.389881  1
  O  O12  1  0.819646  0.389881  0.389881  1
  O  O13  1  0.392656  0.392656  0.392656  1
