# generated using pymatgen
data_Hg4BiSe2Br5
_symmetry_space_group_name_H-M   'P 1'
_cell_length_a   8.71108117
_cell_length_b   11.21757000
_cell_length_c   9.43565458
_cell_angle_alpha   90.00000000
_cell_angle_beta   113.74816583
_cell_angle_gamma   90.00000000
_symmetry_Int_Tables_number   1
_chemical_formula_structural   Hg4BiSe2Br5
_chemical_formula_sum   'Hg8 Bi2 Se4 Br10'
_cell_volume   843.95231491
_cell_formula_units_Z   2
loop_
 _symmetry_equiv_pos_site_id
 _symmetry_equiv_pos_as_xyz
  1  'x, y, z'
loop_
 _atom_site_type_symbol
 _atom_site_label
 _atom_site_symmetry_multiplicity
 _atom_site_fract_x
 _atom_site_fract_y
 _atom_site_fract_z
 _atom_site_occupancy
  Hg  Hg0  1  0.925380  0.184552  0.333266  1
  Hg  Hg1  1  0.074620  0.684552  0.666734  1
  Hg  Hg2  1  0.950495  0.665400  0.360744  1
  Hg  Hg3  1  0.049505  0.165400  0.639256  1
  Hg  Hg4  1  0.497695  0.180852  0.987142  1
  Hg  Hg5  1  0.502305  0.680852  0.012858  1
  Hg  Hg6  1  0.800639  0.432209  0.017372  1
  Hg  Hg7  1  0.199361  0.932209  0.982628  1
  Bi  Bi8  1  0.503154  0.431379  0.509923  1
  Bi  Bi9  1  0.496846  0.931379  0.490077  1
  Se  Se10  1  0.803336  0.202586  0.028567  1
  Se  Se11  1  0.196664  0.702586  0.971433  1
  Se  Se12  1  0.191740  0.159963  0.944111  1
  Se  Se13  1  0.808260  0.659963  0.055889  1
  Br  Br14  1  0.843959  0.923994  0.690715  1
  Br  Br15  1  0.156041  0.423994  0.309285  1
  Br  Br16  1  0.858541  0.437746  0.717016  1
  Br  Br17  1  0.141459  0.937746  0.282984  1
  Br  Br18  1  0.404175  0.456164  0.771588  1
  Br  Br19  1  0.595825  0.956164  0.228412  1
  Br  Br20  1  0.593155  0.395711  0.257495  1
  Br  Br21  1  0.406845  0.895711  0.742505  1
  Br  Br22  1  0.497662  0.183045  0.571787  1
  Br  Br23  1  0.502338  0.683045  0.428213  1
