# generated using pymatgen
data_LiMn(SiRu2)2
_symmetry_space_group_name_H-M   'P 1'
_cell_length_a   7.21478813
_cell_length_b   7.21478794
_cell_length_c   7.21478643
_cell_angle_alpha   33.36354204
_cell_angle_beta   33.36354546
_cell_angle_gamma   33.36354820
_symmetry_Int_Tables_number   1
_chemical_formula_structural   LiMn(SiRu2)2
_chemical_formula_sum   'Li1 Mn1 Si2 Ru4'
_cell_volume   101.13956737
_cell_formula_units_Z   1
loop_
 _symmetry_equiv_pos_site_id
 _symmetry_equiv_pos_as_xyz
  1  'x, y, z'
loop_
 _atom_site_type_symbol
 _atom_site_label
 _atom_site_symmetry_multiplicity
 _atom_site_fract_x
 _atom_site_fract_y
 _atom_site_fract_z
 _atom_site_occupancy
  Li  Li0  1  0.500000  0.500000  0.500000  1
  Mn  Mn1  1  0.000000  0.000000  0.000000  1
  Si  Si2  1  0.246563  0.246563  0.246563  1
  Si  Si3  1  0.753437  0.753437  0.753437  1
  Ru  Ru4  1  0.627234  0.627234  0.627234  1
  Ru  Ru5  1  0.122950  0.122950  0.122950  1
  Ru  Ru6  1  0.877050  0.877050  0.877050  1
  Ru  Ru7  1  0.372766  0.372766  0.372766  1
