# generated using pymatgen
data_Tb3LuMn4F28
_symmetry_space_group_name_H-M   'P 1'
_cell_length_a   5.41995320
_cell_length_b   8.69905213
_cell_length_c   11.68685385
_cell_angle_alpha   62.37769169
_cell_angle_beta   90.09237374
_cell_angle_gamma   90.00168893
_symmetry_Int_Tables_number   1
_chemical_formula_structural   Tb3LuMn4F28
_chemical_formula_sum   'Tb3 Lu1 Mn4 F28'
_cell_volume   488.21310601
_cell_formula_units_Z   1
loop_
 _symmetry_equiv_pos_site_id
 _symmetry_equiv_pos_as_xyz
  1  'x, y, z'
loop_
 _atom_site_type_symbol
 _atom_site_label
 _atom_site_symmetry_multiplicity
 _atom_site_fract_x
 _atom_site_fract_y
 _atom_site_fract_z
 _atom_site_occupancy
  Tb  Tb0  1  0.738230  0.189316  0.735650  1
  Tb  Tb1  1  0.761221  0.186212  0.235938  1
  Tb  Tb2  1  0.238240  0.809841  0.764086  1
  Lu  Lu3  1  0.263954  0.809966  0.263810  1
  Mn  Mn4  1  0.761081  0.726119  0.046423  1
  Mn  Mn5  1  0.242418  0.271936  0.958161  1
  Mn  Mn6  1  0.258290  0.277560  0.455336  1
  Mn  Mn7  1  0.740689  0.725520  0.540342  1
  F  F8  1  0.934005  0.705157  0.420002  1
  F  F9  1  0.067976  0.295891  0.577589  1
  F  F10  1  0.432553  0.293040  0.079903  1
  F  F11  1  0.566730  0.706409  0.925134  1
  F  F12  1  0.483736  0.729436  0.137149  1
  F  F13  1  0.521211  0.271519  0.869320  1
  F  F14  1  0.980656  0.272769  0.366775  1
  F  F15  1  0.018056  0.727191  0.630679  1
  F  F16  1  0.955855  0.744501  0.170603  1
  F  F17  1  0.054399  0.257858  0.831158  1
  F  F18  1  0.446907  0.261139  0.329308  1
  F  F19  1  0.550676  0.741585  0.666519  1
  F  F20  1  0.772996  0.488786  0.140281  1
  F  F21  1  0.229399  0.510992  0.863197  1
  F  F22  1  0.269300  0.516782  0.360402  1
  F  F23  1  0.726474  0.488245  0.636159  1
  F  F24  1  0.955843  0.280977  0.040840  1
  F  F25  1  0.043491  0.718358  0.961127  1
  F  F26  1  0.454180  0.719456  0.455076  1
  F  F27  1  0.544511  0.284556  0.538849  1
  F  F28  1  0.740624  0.962846  0.451304  1
  F  F29  1  0.260140  0.040311  0.546157  1
  F  F30  1  0.241259  0.035420  0.048650  1
  F  F31  1  0.760681  0.963583  0.954143  1
  F  F32  1  0.585903  0.964752  0.228838  1
  F  F33  1  0.401872  0.032613  0.772595  1
  F  F34  1  0.094889  0.022564  0.271399  1
  F  F35  1  0.901555  0.966791  0.727097  1
