# generated using pymatgen
data_RbCoPtS4
_symmetry_space_group_name_H-M   'P 1'
_cell_length_a   6.15101000
_cell_length_b   7.10508100
_cell_length_c   15.58980000
_cell_angle_alpha   90.00000000
_cell_angle_beta   90.00000000
_cell_angle_gamma   90.00000000
_symmetry_Int_Tables_number   1
_chemical_formula_structural   RbCoPtS4
_chemical_formula_sum   'Rb4 Co4 Pt4 S16'
_cell_volume   681.32764387
_cell_formula_units_Z   4
loop_
 _symmetry_equiv_pos_site_id
 _symmetry_equiv_pos_as_xyz
  1  'x, y, z'
loop_
 _atom_site_type_symbol
 _atom_site_label
 _atom_site_symmetry_multiplicity
 _atom_site_fract_x
 _atom_site_fract_y
 _atom_site_fract_z
 _atom_site_occupancy
  Rb  Rb0  1  0.352955  0.000000  0.000000  1
  Rb  Rb1  1  0.647045  0.500000  0.500000  1
  Rb  Rb2  1  0.028355  0.000000  0.500000  1
  Rb  Rb3  1  0.971645  0.500000  0.000000  1
  Co  Co4  1  0.001224  0.000000  0.250170  1
  Co  Co5  1  0.001224  0.000000  0.749830  1
  Co  Co6  1  0.998776  0.500000  0.249830  1
  Co  Co7  1  0.998776  0.500000  0.750170  1
  Pt  Pt8  1  0.500000  0.250000  0.250000  1
  Pt  Pt9  1  0.500000  0.750000  0.750000  1
  Pt  Pt10  1  0.500000  0.750000  0.250000  1
  Pt  Pt11  1  0.500000  0.250000  0.750000  1
  S  S12  1  0.846784  0.250639  0.324305  1
  S  S13  1  0.846784  0.749361  0.675695  1
  S  S14  1  0.153216  0.750639  0.175695  1
  S  S15  1  0.153216  0.249361  0.824305  1
  S  S16  1  0.153216  0.249361  0.175695  1
  S  S17  1  0.153216  0.750639  0.824305  1
  S  S18  1  0.846784  0.749361  0.324305  1
  S  S19  1  0.846784  0.250639  0.675695  1
  S  S20  1  0.684231  0.000000  0.174594  1
  S  S21  1  0.684231  0.000000  0.825406  1
  S  S22  1  0.315769  0.500000  0.325406  1
  S  S23  1  0.315769  0.500000  0.674594  1
  S  S24  1  0.320944  0.000000  0.324781  1
  S  S25  1  0.320944  0.000000  0.675219  1
  S  S26  1  0.679056  0.500000  0.175219  1
  S  S27  1  0.679056  0.500000  0.824781  1
