# generated using pymatgen
data_Er2Pa2Tc7Ir
_symmetry_space_group_name_H-M   'P 1'
_cell_length_a   5.18694100
_cell_length_b   5.18694103
_cell_length_c   9.42959400
_cell_angle_alpha   90.00000000
_cell_angle_beta   90.00000000
_cell_angle_gamma   119.99999342
_symmetry_Int_Tables_number   1
_chemical_formula_structural   Er2Pa2Tc7Ir
_chemical_formula_sum   'Er2 Pa2 Tc7 Ir1'
_cell_volume   219.70820376
_cell_formula_units_Z   1
loop_
 _symmetry_equiv_pos_site_id
 _symmetry_equiv_pos_as_xyz
  1  'x, y, z'
loop_
 _atom_site_type_symbol
 _atom_site_label
 _atom_site_symmetry_multiplicity
 _atom_site_fract_x
 _atom_site_fract_y
 _atom_site_fract_z
 _atom_site_occupancy
  Er  Er0  1  0.666667  0.333333  0.935869  1
  Er  Er1  1  0.333333  0.666667  0.064131  1
  Pa  Pa2  1  0.333333  0.666667  0.437991  1
  Pa  Pa3  1  0.666667  0.333333  0.562009  1
  Tc  Tc4  1  0.000000  0.000000  0.500000  1
  Tc  Tc5  1  0.830310  0.169690  0.246853  1
  Tc  Tc6  1  0.830310  0.660620  0.246853  1
  Tc  Tc7  1  0.339380  0.169690  0.246853  1
  Tc  Tc8  1  0.169690  0.830310  0.753147  1
  Tc  Tc9  1  0.169690  0.339380  0.753147  1
  Tc  Tc10  1  0.660620  0.830310  0.753147  1
  Ir  Ir11  1  0.000000  0.000000  0.000000  1
