# generated using pymatgen
data_Zr12Al3In(Pd2N)4
_symmetry_space_group_name_H-M   'P 1'
_cell_length_a   8.68848885
_cell_length_b   8.69613921
_cell_length_c   8.69613900
_cell_angle_alpha   60.00000459
_cell_angle_beta   59.97087307
_cell_angle_gamma   59.97086632
_symmetry_Int_Tables_number   1
_chemical_formula_structural   Zr12Al3In(Pd2N)4
_chemical_formula_sum   'Zr12 Al3 In1 Pd8 N4'
_cell_volume   464.39855460
_cell_formula_units_Z   1
loop_
 _symmetry_equiv_pos_site_id
 _symmetry_equiv_pos_as_xyz
  1  'x, y, z'
loop_
 _atom_site_type_symbol
 _atom_site_label
 _atom_site_symmetry_multiplicity
 _atom_site_fract_x
 _atom_site_fract_y
 _atom_site_fract_z
 _atom_site_occupancy
  Zr  Zr0  1  0.812052  0.812169  0.187889  1
  Zr  Zr1  1  0.186486  0.185586  0.813964  1
  Zr  Zr2  1  0.812052  0.187889  0.812169  1
  Zr  Zr3  1  0.186486  0.813964  0.185586  1
  Zr  Zr4  1  0.186486  0.813964  0.813964  1
  Zr  Zr5  1  0.812052  0.187889  0.187889  1
  Zr  Zr6  1  0.437948  0.437831  0.062111  1
  Zr  Zr7  1  0.063514  0.064414  0.436036  1
  Zr  Zr8  1  0.437948  0.062111  0.437831  1
  Zr  Zr9  1  0.063514  0.436036  0.064414  1
  Zr  Zr10  1  0.063514  0.436036  0.436036  1
  Zr  Zr11  1  0.437948  0.062111  0.062111  1
  Al  Al12  1  0.625000  0.125000  0.625000  1
  Al  Al13  1  0.625000  0.625000  0.125000  1
  Al  Al14  1  0.625000  0.625000  0.625000  1
  In  In15  1  0.125000  0.625000  0.625000  1
  Pd  Pd16  1  0.757038  0.414321  0.414321  1
  Pd  Pd17  1  0.425566  0.763564  0.405435  1
  Pd  Pd18  1  0.425566  0.405435  0.763564  1
  Pd  Pd19  1  0.425566  0.405435  0.405435  1
  Pd  Pd20  1  0.492962  0.835679  0.835679  1
  Pd  Pd21  1  0.824434  0.486436  0.844565  1
  Pd  Pd22  1  0.824434  0.844565  0.486436  1
  Pd  Pd23  1  0.824434  0.844565  0.844565  1
  N  N24  1  0.625000  0.125000  0.125000  1
  N  N25  1  0.125000  0.625000  0.125000  1
  N  N26  1  0.125000  0.125000  0.625000  1
  N  N27  1  0.125000  0.125000  0.125000  1
