# generated using pymatgen
data_CaDy(Ga3Ni)6
_symmetry_space_group_name_H-M   'P 1'
_cell_length_a   10.16401957
_cell_length_b   10.16402001
_cell_length_c   10.16401800
_cell_angle_alpha   41.99710085
_cell_angle_beta   41.99709805
_cell_angle_gamma   41.99710513
_symmetry_Int_Tables_number   1
_chemical_formula_structural   CaDy(Ga3Ni)6
_chemical_formula_sum   'Ca1 Dy1 Ga18 Ni6'
_cell_volume   425.21569171
_cell_formula_units_Z   1
loop_
 _symmetry_equiv_pos_site_id
 _symmetry_equiv_pos_as_xyz
  1  'x, y, z'
loop_
 _atom_site_type_symbol
 _atom_site_label
 _atom_site_symmetry_multiplicity
 _atom_site_fract_x
 _atom_site_fract_y
 _atom_site_fract_z
 _atom_site_occupancy
  Ca  Ca0  1  0.166905  0.166905  0.166905  1
  Dy  Dy1  1  0.833212  0.833212  0.833212  1
  Ga  Ga2  1  0.051407  0.051407  0.051407  1
  Ga  Ga3  1  0.706791  0.503608  0.289625  1
  Ga  Ga4  1  0.666927  0.334049  0.999042  1
  Ga  Ga5  1  0.104919  0.431475  0.763331  1
  Ga  Ga6  1  0.431475  0.763331  0.104919  1
  Ga  Ga7  1  0.385624  0.385624  0.385624  1
  Ga  Ga8  1  0.334049  0.999042  0.666927  1
  Ga  Ga9  1  0.613737  0.613737  0.613737  1
  Ga  Ga10  1  0.237620  0.565469  0.897240  1
  Ga  Ga11  1  0.565469  0.897240  0.237620  1
  Ga  Ga12  1  0.503608  0.289625  0.706791  1
  Ga  Ga13  1  0.763331  0.104919  0.431475  1
  Ga  Ga14  1  0.949379  0.949379  0.949379  1
  Ga  Ga15  1  0.289625  0.706791  0.503608  1
  Ga  Ga16  1  0.999042  0.666927  0.334049  1
  Ga  Ga17  1  0.716881  0.716881  0.716881  1
  Ga  Ga18  1  0.282655  0.282655  0.282655  1
  Ga  Ga19  1  0.897240  0.237620  0.565469  1
  Ni  Ni20  1  0.242059  0.920815  0.584033  1
  Ni  Ni21  1  0.920815  0.584033  0.242059  1
  Ni  Ni22  1  0.756350  0.420184  0.076667  1
  Ni  Ni23  1  0.076667  0.756350  0.420184  1
  Ni  Ni24  1  0.420184  0.076667  0.756350  1
  Ni  Ni25  1  0.584033  0.242059  0.920815  1
