# generated using pymatgen
data_Sm2Sc3Pt4
_symmetry_space_group_name_H-M   'P 1'
_cell_length_a   7.52750900
_cell_length_b   7.45486700
_cell_length_c   13.78208200
_cell_angle_alpha   90.00000000
_cell_angle_beta   90.00000000
_cell_angle_gamma   90.00000000
_symmetry_Int_Tables_number   1
_chemical_formula_structural   Sm2Sc3Pt4
_chemical_formula_sum   'Sm8 Sc12 Pt16'
_cell_volume   773.40328557
_cell_formula_units_Z   4
loop_
 _symmetry_equiv_pos_site_id
 _symmetry_equiv_pos_as_xyz
  1  'x, y, z'
loop_
 _atom_site_type_symbol
 _atom_site_label
 _atom_site_symmetry_multiplicity
 _atom_site_fract_x
 _atom_site_fract_y
 _atom_site_fract_z
 _atom_site_occupancy
  Sm  Sm0  1  0.010114  0.173932  0.096851  1
  Sm  Sm1  1  0.989886  0.826068  0.903149  1
  Sm  Sm2  1  0.489886  0.673932  0.903149  1
  Sm  Sm3  1  0.989886  0.826068  0.596851  1
  Sm  Sm4  1  0.510114  0.326068  0.096851  1
  Sm  Sm5  1  0.010114  0.173932  0.403149  1
  Sm  Sm6  1  0.510114  0.326068  0.403149  1
  Sm  Sm7  1  0.489886  0.673932  0.596851  1
  Sc  Sc8  1  0.164078  0.496900  0.750000  1
  Sc  Sc9  1  0.835922  0.503100  0.250000  1
  Sc  Sc10  1  0.335922  0.996900  0.250000  1
  Sc  Sc11  1  0.664078  0.003100  0.750000  1
  Sc  Sc12  1  0.331992  0.164471  0.624204  1
  Sc  Sc13  1  0.668008  0.835529  0.375796  1
  Sc  Sc14  1  0.168008  0.664471  0.375796  1
  Sc  Sc15  1  0.668008  0.835529  0.124204  1
  Sc  Sc16  1  0.831992  0.335529  0.624204  1
  Sc  Sc17  1  0.331992  0.164471  0.875796  1
  Sc  Sc18  1  0.831992  0.335529  0.875796  1
  Sc  Sc19  1  0.168008  0.664471  0.124204  1
  Pt  Pt20  1  0.032104  0.131931  0.750000  1
  Pt  Pt21  1  0.967896  0.868069  0.250000  1
  Pt  Pt22  1  0.467896  0.631931  0.250000  1
  Pt  Pt23  1  0.532104  0.368069  0.750000  1
  Pt  Pt24  1  0.293197  0.862209  0.750000  1
  Pt  Pt25  1  0.706803  0.137791  0.250000  1
  Pt  Pt26  1  0.206803  0.362209  0.250000  1
  Pt  Pt27  1  0.793197  0.637791  0.750000  1
  Pt  Pt28  1  0.168147  0.456385  0.544773  1
  Pt  Pt29  1  0.831853  0.543615  0.455227  1
  Pt  Pt30  1  0.331853  0.956385  0.455227  1
  Pt  Pt31  1  0.831853  0.543615  0.044773  1
  Pt  Pt32  1  0.668147  0.043615  0.544773  1
  Pt  Pt33  1  0.168147  0.456385  0.955227  1
  Pt  Pt34  1  0.668147  0.043615  0.955227  1
  Pt  Pt35  1  0.331853  0.956385  0.044773  1
