# generated using pymatgen
data_Li2Tb3Se5
_symmetry_space_group_name_H-M   'P 1'
_cell_length_a   4.05251526
_cell_length_b   7.09616614
_cell_length_c   10.75631200
_cell_angle_alpha   70.42861598
_cell_angle_beta   112.23730186
_cell_angle_gamma   73.56838062
_symmetry_Int_Tables_number   1
_chemical_formula_structural   Li2Tb3Se5
_chemical_formula_sum   'Li2 Tb3 Se5'
_cell_volume   238.16493570
_cell_formula_units_Z   1
loop_
 _symmetry_equiv_pos_site_id
 _symmetry_equiv_pos_as_xyz
  1  'x, y, z'
loop_
 _atom_site_type_symbol
 _atom_site_label
 _atom_site_symmetry_multiplicity
 _atom_site_fract_x
 _atom_site_fract_y
 _atom_site_fract_z
 _atom_site_occupancy
  Li  Li0  1  0.877796  0.224304  0.557173  1
  Li  Li1  1  0.860647  0.435035  0.172321  1
  Tb  Tb2  1  0.864086  0.831094  0.363413  1
  Tb  Tb3  1  0.867026  0.026389  0.963828  1
  Tb  Tb4  1  0.858496  0.638470  0.763391  1
  Se  Se5  1  0.364165  0.235658  0.065002  1
  Se  Se6  1  0.362972  0.035089  0.461917  1
  Se  Se7  1  0.364669  0.628021  0.264595  1
  Se  Se8  1  0.362849  0.832397  0.863642  1
  Se  Se9  1  0.361489  0.428853  0.662386  1
