# generated using pymatgen
data_La2H4ICl
_symmetry_space_group_name_H-M   'P 1'
_cell_length_a   11.81395495
_cell_length_b   11.81395499
_cell_length_c   11.81395400
_cell_angle_alpha   19.48433394
_cell_angle_beta   19.48433339
_cell_angle_gamma   19.48433435
_symmetry_Int_Tables_number   1
_chemical_formula_structural   La2H4ICl
_chemical_formula_sum   'La2 H4 I1 Cl1'
_cell_volume   160.39851382
_cell_formula_units_Z   1
loop_
 _symmetry_equiv_pos_site_id
 _symmetry_equiv_pos_as_xyz
  1  'x, y, z'
loop_
 _atom_site_type_symbol
 _atom_site_label
 _atom_site_symmetry_multiplicity
 _atom_site_fract_x
 _atom_site_fract_y
 _atom_site_fract_z
 _atom_site_occupancy
  La  La0  1  0.880724  0.880724  0.880724  1
  La  La1  1  0.114968  0.114968  0.114968  1
  H  H2  1  0.811882  0.811882  0.811882  1
  H  H3  1  0.184567  0.184567  0.184567  1
  H  H4  1  0.541902  0.541902  0.541902  1
  H  H5  1  0.456851  0.456851  0.456851  1
  I  I6  1  0.279242  0.279242  0.279242  1
  Cl  Cl7  1  0.729862  0.729862  0.729862  1
