# generated using pymatgen
data_La11Nd5Cd4Pd3Ru
_symmetry_space_group_name_H-M   'P 1'
_cell_length_a   10.15189062
_cell_length_b   10.14975796
_cell_length_c   10.14975870
_cell_angle_alpha   59.56151493
_cell_angle_beta   59.63978554
_cell_angle_gamma   59.63978610
_symmetry_Int_Tables_number   1
_chemical_formula_structural   La11Nd5Cd4Pd3Ru
_chemical_formula_sum   'La11 Nd5 Cd4 Pd3 Ru1'
_cell_volume   733.01532968
_cell_formula_units_Z   1
loop_
 _symmetry_equiv_pos_site_id
 _symmetry_equiv_pos_as_xyz
  1  'x, y, z'
loop_
 _atom_site_type_symbol
 _atom_site_label
 _atom_site_symmetry_multiplicity
 _atom_site_fract_x
 _atom_site_fract_y
 _atom_site_fract_z
 _atom_site_occupancy
  La  La0  1  0.352408  0.351440  0.351440  1
  La  La1  1  0.346758  0.346733  0.951279  1
  La  La2  1  0.346758  0.951279  0.346733  1
  La  La3  1  0.951267  0.346423  0.346423  1
  La  La4  1  0.817326  0.190020  0.190020  1
  La  La5  1  0.191789  0.806780  0.806780  1
  La  La6  1  0.190389  0.818081  0.189158  1
  La  La7  1  0.806658  0.191040  0.807167  1
  La  La8  1  0.190389  0.189158  0.818081  1
  La  La9  1  0.806658  0.807167  0.191040  1
  La  La10  1  0.934389  0.566216  0.566216  1
  Nd  Nd11  1  0.560700  0.935366  0.935366  1
  Nd  Nd12  1  0.565183  0.935088  0.566186  1
  Nd  Nd13  1  0.935539  0.560778  0.936213  1
  Nd  Nd14  1  0.565183  0.566186  0.935088  1
  Nd  Nd15  1  0.935539  0.936213  0.560778  1
  Cd  Cd16  1  0.579462  0.580167  0.580167  1
  Cd  Cd17  1  0.580640  0.580612  0.257464  1
  Cd  Cd18  1  0.580640  0.257464  0.580612  1
  Cd  Cd19  1  0.258223  0.580608  0.580608  1
  Pd  Pd20  1  0.144996  0.144214  0.571755  1
  Pd  Pd21  1  0.144996  0.571755  0.144214  1
  Pd  Pd22  1  0.571721  0.144805  0.144805  1
  Ru  Ru23  1  0.142389  0.142407  0.142407  1
