# generated using pymatgen
data_Tm3Lu5(ScBi)12
_symmetry_space_group_name_H-M   'P 1'
_cell_length_a   7.88658302
_cell_length_b   9.13097800
_cell_length_c   11.67412502
_cell_angle_alpha   90.00000000
_cell_angle_beta   90.00736429
_cell_angle_gamma   90.00000000
_symmetry_Int_Tables_number   1
_chemical_formula_structural   Tm3Lu5(ScBi)12
_chemical_formula_sum   'Tm3 Lu5 Sc12 Bi12'
_cell_volume   840.67960610
_cell_formula_units_Z   1
loop_
 _symmetry_equiv_pos_site_id
 _symmetry_equiv_pos_as_xyz
  1  'x, y, z'
loop_
 _atom_site_type_symbol
 _atom_site_label
 _atom_site_symmetry_multiplicity
 _atom_site_fract_x
 _atom_site_fract_y
 _atom_site_fract_z
 _atom_site_occupancy
  Tm  Tm0  1  0.815197  0.750000  0.219486  1
  Tm  Tm1  1  0.315207  0.750000  0.280524  1
  Tm  Tm2  1  0.684825  0.250000  0.719474  1
  Lu  Lu3  1  0.351793  0.250000  0.281162  1
  Lu  Lu4  1  0.648197  0.750000  0.718866  1
  Lu  Lu5  1  0.148192  0.750000  0.781140  1
  Lu  Lu6  1  0.851812  0.250000  0.218864  1
  Lu  Lu7  1  0.184922  0.250000  0.780677  1
  Sc  Sc8  1  0.019794  0.250000  0.510049  1
  Sc  Sc9  1  0.980316  0.750000  0.490064  1
  Sc  Sc10  1  0.480280  0.750000  0.009926  1
  Sc  Sc11  1  0.519595  0.250000  0.989969  1
  Sc  Sc12  1  0.192936  0.067033  0.058557  1
  Sc  Sc13  1  0.807046  0.932950  0.941400  1
  Sc  Sc14  1  0.307106  0.932969  0.558641  1
  Sc  Sc15  1  0.807046  0.567050  0.941400  1
  Sc  Sc16  1  0.692887  0.067026  0.441395  1
  Sc  Sc17  1  0.192936  0.432967  0.058557  1
  Sc  Sc18  1  0.692887  0.432974  0.441395  1
  Sc  Sc19  1  0.307106  0.567031  0.558641  1
  Bi  Bi20  1  0.403345  0.250000  0.540075  1
  Bi  Bi21  1  0.596479  0.750000  0.460045  1
  Bi  Bi22  1  0.096451  0.750000  0.039946  1
  Bi  Bi23  1  0.903874  0.250000  0.959762  1
  Bi  Bi24  1  0.065121  0.004227  0.331120  1
  Bi  Bi25  1  0.935040  0.995928  0.668964  1
  Bi  Bi26  1  0.434563  0.996036  0.831057  1
  Bi  Bi27  1  0.935040  0.504072  0.668964  1
  Bi  Bi28  1  0.565161  0.004239  0.168851  1
  Bi  Bi29  1  0.065121  0.495773  0.331120  1
  Bi  Bi30  1  0.565161  0.495761  0.168851  1
  Bi  Bi31  1  0.434563  0.503964  0.831057  1
