# generated using pymatgen
data_Dy6Er10In3AgIr4
_symmetry_space_group_name_H-M   'P 1'
_cell_length_a   9.59019158
_cell_length_b   9.59019090
_cell_length_c   9.59019223
_cell_angle_alpha   59.94029090
_cell_angle_beta   59.94029361
_cell_angle_gamma   59.94028634
_symmetry_Int_Tables_number   1
_chemical_formula_structural   Dy6Er10In3AgIr4
_chemical_formula_sum   'Dy6 Er10 In3 Ag1 Ir4'
_cell_volume   622.84258178
_cell_formula_units_Z   1
loop_
 _symmetry_equiv_pos_site_id
 _symmetry_equiv_pos_as_xyz
  1  'x, y, z'
loop_
 _atom_site_type_symbol
 _atom_site_label
 _atom_site_symmetry_multiplicity
 _atom_site_fract_x
 _atom_site_fract_y
 _atom_site_fract_z
 _atom_site_occupancy
  Dy  Dy0  1  0.186212  0.810846  0.810846  1
  Dy  Dy1  1  0.809618  0.189986  0.189986  1
  Dy  Dy2  1  0.810846  0.186212  0.810846  1
  Dy  Dy3  1  0.189986  0.809618  0.189986  1
  Dy  Dy4  1  0.810846  0.810846  0.186212  1
  Dy  Dy5  1  0.189986  0.189986  0.809618  1
  Er  Er6  1  0.599119  0.599119  0.599119  1
  Er  Er7  1  0.600205  0.600205  0.200965  1
  Er  Er8  1  0.600205  0.200965  0.600205  1
  Er  Er9  1  0.200965  0.600205  0.600205  1
  Er  Er10  1  0.058517  0.441218  0.441218  1
  Er  Er11  1  0.438021  0.060023  0.060023  1
  Er  Er12  1  0.441218  0.058517  0.441218  1
  Er  Er13  1  0.060023  0.438021  0.060023  1
  Er  Er14  1  0.441218  0.441218  0.058517  1
  Er  Er15  1  0.060023  0.060023  0.438021  1
  In  In16  1  0.832217  0.832217  0.504398  1
  In  In17  1  0.832217  0.504398  0.832217  1
  In  In18  1  0.504398  0.832217  0.832217  1
  Ag  Ag19  1  0.832961  0.832961  0.832961  1
  Ir  Ir20  1  0.392170  0.392170  0.392170  1
  Ir  Ir21  1  0.391535  0.391535  0.825961  1
  Ir  Ir22  1  0.391535  0.825961  0.391535  1
  Ir  Ir23  1  0.825961  0.391535  0.391535  1
