# generated using pymatgen
data_Pr4Pd2RhAu
_symmetry_space_group_name_H-M   'P 1'
_cell_length_a   4.72480100
_cell_length_b   5.76738197
_cell_length_c   7.38783132
_cell_angle_alpha   89.44670600
_cell_angle_beta   90.00000000
_cell_angle_gamma   90.00000000
_symmetry_Int_Tables_number   1
_chemical_formula_structural   Pr4Pd2RhAu
_chemical_formula_sum   'Pr4 Pd2 Rh1 Au1'
_cell_volume   201.30703735
_cell_formula_units_Z   1
loop_
 _symmetry_equiv_pos_site_id
 _symmetry_equiv_pos_as_xyz
  1  'x, y, z'
loop_
 _atom_site_type_symbol
 _atom_site_label
 _atom_site_symmetry_multiplicity
 _atom_site_fract_x
 _atom_site_fract_y
 _atom_site_fract_z
 _atom_site_occupancy
  Pr  Pr0  1  0.250000  0.363613  0.673506  1
  Pr  Pr1  1  0.250000  0.134637  0.191660  1
  Pr  Pr2  1  0.750000  0.648678  0.326336  1
  Pr  Pr3  1  0.750000  0.858929  0.805316  1
  Pd  Pd4  1  0.250000  0.648581  0.040685  1
  Pd  Pd5  1  0.750000  0.153009  0.456422  1
  Rh  Rh6  1  0.250000  0.836479  0.545089  1
  Au  Au7  1  0.750000  0.356072  0.960986  1
