# generated using pymatgen
data_Tb5Y3(HoBi)12
_symmetry_space_group_name_H-M   'P 1'
_cell_length_a   8.26187414
_cell_length_b   9.50621100
_cell_length_c   12.07650121
_cell_angle_alpha   90.00000000
_cell_angle_beta   89.97864270
_cell_angle_gamma   90.00000000
_symmetry_Int_Tables_number   1
_chemical_formula_structural   Tb5Y3(HoBi)12
_chemical_formula_sum   'Tb5 Y3 Ho12 Bi12'
_cell_volume   948.47769807
_cell_formula_units_Z   1
loop_
 _symmetry_equiv_pos_site_id
 _symmetry_equiv_pos_as_xyz
  1  'x, y, z'
loop_
 _atom_site_type_symbol
 _atom_site_label
 _atom_site_symmetry_multiplicity
 _atom_site_fract_x
 _atom_site_fract_y
 _atom_site_fract_z
 _atom_site_occupancy
  Tb  Tb0  1  0.186279  0.750000  0.719130  1
  Tb  Tb1  1  0.686211  0.750000  0.780877  1
  Tb  Tb2  1  0.813747  0.250000  0.280898  1
  Tb  Tb3  1  0.313766  0.250000  0.219109  1
  Tb  Tb4  1  0.353846  0.750000  0.215536  1
  Y  Y5  1  0.853803  0.750000  0.284610  1
  Y  Y6  1  0.646211  0.250000  0.784627  1
  Y  Y7  1  0.146158  0.250000  0.715385  1
  Ho  Ho8  1  0.026021  0.750000  0.988890  1
  Ho  Ho9  1  0.526051  0.750000  0.511167  1
  Ho  Ho10  1  0.973909  0.250000  0.011121  1
  Ho  Ho11  1  0.473991  0.250000  0.488873  1
  Ho  Ho12  1  0.306320  0.436635  0.940234  1
  Ho  Ho13  1  0.806302  0.063449  0.559794  1
  Ho  Ho14  1  0.693652  0.936540  0.059774  1
  Ho  Ho15  1  0.193698  0.563495  0.440179  1
  Ho  Ho16  1  0.693652  0.563460  0.059774  1
  Ho  Ho17  1  0.193698  0.936505  0.440179  1
  Ho  Ho18  1  0.306320  0.063365  0.940234  1
  Ho  Ho19  1  0.806302  0.436551  0.559794  1
  Bi  Bi20  1  0.433636  0.003929  0.673379  1
  Bi  Bi21  1  0.933629  0.496076  0.826620  1
  Bi  Bi22  1  0.566409  0.503849  0.326656  1
  Bi  Bi23  1  0.066364  0.996080  0.173367  1
  Bi  Bi24  1  0.566409  0.996151  0.326656  1
  Bi  Bi25  1  0.066364  0.503920  0.173367  1
  Bi  Bi26  1  0.433636  0.496071  0.673379  1
  Bi  Bi27  1  0.933629  0.003924  0.826620  1
  Bi  Bi28  1  0.409034  0.750000  0.957984  1
  Bi  Bi29  1  0.909028  0.750000  0.541767  1
  Bi  Bi30  1  0.590949  0.250000  0.041765  1
  Bi  Bi31  1  0.090975  0.250000  0.458254  1
