# generated using pymatgen
data_Sc13Al9Pt8
_symmetry_space_group_name_H-M   'P 1'
_cell_length_a   9.17763780
_cell_length_b   9.17763697
_cell_length_c   9.17763813
_cell_angle_alpha   59.70464783
_cell_angle_beta   59.70465351
_cell_angle_gamma   59.70465590
_symmetry_Int_Tables_number   1
_chemical_formula_structural   Sc13Al9Pt8
_chemical_formula_sum   'Sc13 Al9 Pt8'
_cell_volume   542.94319893
_cell_formula_units_Z   1
loop_
 _symmetry_equiv_pos_site_id
 _symmetry_equiv_pos_as_xyz
  1  'x, y, z'
loop_
 _atom_site_type_symbol
 _atom_site_label
 _atom_site_symmetry_multiplicity
 _atom_site_fract_x
 _atom_site_fract_y
 _atom_site_fract_z
 _atom_site_occupancy
  Sc  Sc0  1  0.213794  0.213794  0.786748  1
  Sc  Sc1  1  0.786748  0.213794  0.213794  1
  Sc  Sc2  1  0.213794  0.786748  0.213794  1
  Sc  Sc3  1  0.803025  0.803025  0.173676  1
  Sc  Sc4  1  0.173676  0.803025  0.803025  1
  Sc  Sc5  1  0.803025  0.173676  0.803025  1
  Sc  Sc6  1  0.378739  0.378739  0.378739  1
  Sc  Sc7  1  0.381420  0.865077  0.381420  1
  Sc  Sc8  1  0.865077  0.381420  0.381420  1
  Sc  Sc9  1  0.381420  0.381420  0.865077  1
  Sc  Sc10  1  0.839645  0.476827  0.839645  1
  Sc  Sc11  1  0.476827  0.839645  0.839645  1
  Sc  Sc12  1  0.839645  0.839645  0.476827  1
  Al  Al13  1  0.156303  0.156303  0.156303  1
  Al  Al14  1  0.161239  0.521166  0.161239  1
  Al  Al15  1  0.521166  0.161239  0.161239  1
  Al  Al16  1  0.161239  0.161239  0.521166  1
  Al  Al17  1  0.618042  0.618042  0.618042  1
  Al  Al18  1  0.619114  0.144039  0.619114  1
  Al  Al19  1  0.144039  0.619114  0.619114  1
  Al  Al20  1  0.619114  0.619114  0.144039  1
  Al  Al21  1  0.825793  0.825793  0.825793  1
  Pt  Pt22  1  0.004257  0.004257  0.500357  1
  Pt  Pt23  1  0.500357  0.004257  0.004257  1
  Pt  Pt24  1  0.004257  0.500357  0.004257  1
  Pt  Pt25  1  0.495659  0.495659  0.008225  1
  Pt  Pt26  1  0.008225  0.495659  0.495659  1
  Pt  Pt27  1  0.495659  0.008225  0.495659  1
  Pt  Pt28  1  0.500184  0.500184  0.500184  1
  Pt  Pt29  1  0.008516  0.008516  0.008516  1
