# generated using pymatgen
data_Sm2Dy4TiCo17P12
_symmetry_space_group_name_H-M   'P 1'
_cell_length_a   3.71186600
_cell_length_b   10.58538500
_cell_length_c   12.27594600
_cell_angle_alpha   90.00000000
_cell_angle_beta   90.00000000
_cell_angle_gamma   90.00000000
_symmetry_Int_Tables_number   1
_chemical_formula_structural   Sm2Dy4TiCo17P12
_chemical_formula_sum   'Sm2 Dy4 Ti1 Co17 P12'
_cell_volume   482.34070887
_cell_formula_units_Z   1
loop_
 _symmetry_equiv_pos_site_id
 _symmetry_equiv_pos_as_xyz
  1  'x, y, z'
loop_
 _atom_site_type_symbol
 _atom_site_label
 _atom_site_symmetry_multiplicity
 _atom_site_fract_x
 _atom_site_fract_y
 _atom_site_fract_z
 _atom_site_occupancy
  Sm  Sm0  1  0.000000  0.500000  0.525273  1
  Sm  Sm1  1  0.500000  0.000000  0.477370  1
  Dy  Dy2  1  0.500000  0.819465  0.206283  1
  Dy  Dy3  1  0.500000  0.180535  0.206283  1
  Dy  Dy4  1  0.000000  0.682280  0.796756  1
  Dy  Dy5  1  0.000000  0.317720  0.796756  1
  Ti  Ti6  1  0.500000  0.500000  0.149942  1
  Co  Co7  1  0.000000  0.000000  0.840269  1
  Co  Co8  1  0.500000  0.500000  0.704815  1
  Co  Co9  1  0.000000  0.000000  0.294919  1
  Co  Co10  1  0.000000  0.500000  0.986299  1
  Co  Co11  1  0.500000  0.000000  0.013598  1
  Co  Co12  1  0.500000  0.329868  0.992182  1
  Co  Co13  1  0.500000  0.670132  0.992182  1
  Co  Co14  1  0.000000  0.164323  0.003933  1
  Co  Co15  1  0.000000  0.835677  0.003933  1
  Co  Co16  1  0.500000  0.295701  0.431509  1
  Co  Co17  1  0.500000  0.704299  0.431509  1
  Co  Co18  1  0.000000  0.203134  0.570672  1
  Co  Co19  1  0.000000  0.796866  0.570672  1
  Co  Co20  1  0.500000  0.880077  0.709887  1
  Co  Co21  1  0.500000  0.119923  0.709887  1
  Co  Co22  1  0.000000  0.621470  0.291124  1
  Co  Co23  1  0.000000  0.378530  0.291124  1
  P  P24  1  0.500000  0.500000  0.883237  1
  P  P25  1  0.000000  0.000000  0.116262  1
  P  P26  1  0.500000  0.500000  0.349881  1
  P  P27  1  0.000000  0.000000  0.658232  1
  P  P28  1  0.500000  0.308173  0.617838  1
  P  P29  1  0.500000  0.691827  0.617838  1
  P  P30  1  0.000000  0.191068  0.384687  1
  P  P31  1  0.000000  0.808932  0.384687  1
  P  P32  1  0.500000  0.850062  0.891143  1
  P  P33  1  0.500000  0.149938  0.891143  1
  P  P34  1  0.000000  0.659093  0.103937  1
  P  P35  1  0.000000  0.340907  0.103937  1
