# generated using pymatgen
data_AlV7Ga3Tc5
_symmetry_space_group_name_H-M   'P 1'
_cell_length_a   4.78605719
_cell_length_b   4.80379611
_cell_length_c   9.63524134
_cell_angle_alpha   90.19577550
_cell_angle_beta   89.90747572
_cell_angle_gamma   90.08860213
_symmetry_Int_Tables_number   1
_chemical_formula_structural   AlV7Ga3Tc5
_chemical_formula_sum   'Al1 V7 Ga3 Tc5'
_cell_volume   221.52432917
_cell_formula_units_Z   1
loop_
 _symmetry_equiv_pos_site_id
 _symmetry_equiv_pos_as_xyz
  1  'x, y, z'
loop_
 _atom_site_type_symbol
 _atom_site_label
 _atom_site_symmetry_multiplicity
 _atom_site_fract_x
 _atom_site_fract_y
 _atom_site_fract_z
 _atom_site_occupancy
  Al  Al0  1  0.498342  0.500358  0.998947  1
  V  V1  1  0.752911  0.002170  0.500633  1
  V  V2  1  0.999374  0.499608  0.876172  1
  V  V3  1  0.002127  0.500521  0.373192  1
  V  V4  1  0.499485  0.750080  0.750459  1
  V  V5  1  0.499789  0.751604  0.250312  1
  V  V6  1  0.249337  0.997932  0.000077  1
  V  V7  1  0.248792  0.002222  0.500271  1
  Ga  Ga8  1  0.500535  0.506178  0.498228  1
  Ga  Ga9  1  0.000873  0.997038  0.750547  1
  Ga  Ga10  1  0.001132  0.996711  0.253583  1
  Tc  Tc11  1  0.000747  0.499191  0.123306  1
  Tc  Tc12  1  0.000510  0.499737  0.624612  1
  Tc  Tc13  1  0.499280  0.250260  0.749165  1
  Tc  Tc14  1  0.501067  0.247929  0.250761  1
  Tc  Tc15  1  0.745700  0.998463  0.999738  1
