# generated using pymatgen
data_Mn2Zn3Fe2(NiO6)2
_symmetry_space_group_name_H-M   'P 1'
_cell_length_a   5.99351876
_cell_length_b   5.99351911
_cell_length_c   13.29142297
_cell_angle_alpha   77.33995304
_cell_angle_beta   77.33995148
_cell_angle_gamma   90.27775216
_symmetry_Int_Tables_number   1
_chemical_formula_structural   Mn2Zn3Fe2(NiO6)2
_chemical_formula_sum   'Mn4 Zn6 Fe4 Ni4 O24'
_cell_volume   453.82217931
_cell_formula_units_Z   2
loop_
 _symmetry_equiv_pos_site_id
 _symmetry_equiv_pos_as_xyz
  1  'x, y, z'
loop_
 _atom_site_type_symbol
 _atom_site_label
 _atom_site_symmetry_multiplicity
 _atom_site_fract_x
 _atom_site_fract_y
 _atom_site_fract_z
 _atom_site_occupancy
  Mn  Mn0  1  0.162403  0.167620  0.167200  1
  Mn  Mn1  1  0.837597  0.832380  0.832800  1
  Mn  Mn2  1  0.167620  0.162403  0.667200  1
  Mn  Mn3  1  0.832380  0.837597  0.332800  1
  Zn  Zn4  1  0.300947  0.026070  0.416248  1
  Zn  Zn5  1  0.973930  0.699053  0.083752  1
  Zn  Zn6  1  0.633958  0.366042  0.750000  1
  Zn  Zn7  1  0.026070  0.300947  0.916248  1
  Zn  Zn8  1  0.699053  0.973930  0.583752  1
  Zn  Zn9  1  0.366042  0.633958  0.250000  1
  Fe  Fe10  1  0.500000  0.000000  0.000000  1
  Fe  Fe11  1  0.000000  0.500000  0.500000  1
  Fe  Fe12  1  0.500000  0.500000  0.500000  1
  Fe  Fe13  1  0.500000  0.500000  0.000000  1
  Ni  Ni14  1  0.167566  0.662999  0.667913  1
  Ni  Ni15  1  0.832434  0.337001  0.332087  1
  Ni  Ni16  1  0.662999  0.167566  0.167913  1
  Ni  Ni17  1  0.337001  0.832434  0.832087  1
  O  O18  1  0.077487  0.070309  0.821860  1
  O  O19  1  0.755922  0.745146  0.489543  1
  O  O20  1  0.399980  0.395940  0.162761  1
  O  O21  1  0.929691  0.922513  0.678140  1
  O  O22  1  0.604060  0.600020  0.337239  1
  O  O23  1  0.254854  0.244078  0.010457  1
  O  O24  1  0.384246  0.928095  0.670659  1
  O  O25  1  0.052749  0.597505  0.340555  1
  O  O26  1  0.717511  0.248403  0.005719  1
  O  O27  1  0.071905  0.615754  0.829341  1
  O  O28  1  0.751597  0.282489  0.494281  1
  O  O29  1  0.402495  0.947251  0.159445  1
  O  O30  1  0.244078  0.254854  0.510457  1
  O  O31  1  0.922513  0.929691  0.178140  1
  O  O32  1  0.600020  0.604060  0.837239  1
  O  O33  1  0.395940  0.399980  0.662761  1
  O  O34  1  0.070309  0.077488  0.321860  1
  O  O35  1  0.745146  0.755922  0.989543  1
  O  O36  1  0.947251  0.402495  0.659445  1
  O  O37  1  0.615754  0.071905  0.329341  1
  O  O38  1  0.282489  0.751597  0.994281  1
  O  O39  1  0.248403  0.717511  0.505719  1
  O  O40  1  0.928095  0.384246  0.170659  1
  O  O41  1  0.597505  0.052749  0.840555  1
