# generated using pymatgen
data_Ti4Al2Ir3Rh7
_symmetry_space_group_name_H-M   'P 1'
_cell_length_a   4.00832000
_cell_length_b   5.39996686
_cell_length_c   10.64777617
_cell_angle_alpha   89.81857126
_cell_angle_beta   90.00000000
_cell_angle_gamma   90.00000000
_symmetry_Int_Tables_number   1
_chemical_formula_structural   Ti4Al2Ir3Rh7
_chemical_formula_sum   'Ti4 Al2 Ir3 Rh7'
_cell_volume   230.46777861
_cell_formula_units_Z   1
loop_
 _symmetry_equiv_pos_site_id
 _symmetry_equiv_pos_as_xyz
  1  'x, y, z'
loop_
 _atom_site_type_symbol
 _atom_site_label
 _atom_site_symmetry_multiplicity
 _atom_site_fract_x
 _atom_site_fract_y
 _atom_site_fract_z
 _atom_site_occupancy
  Ti  Ti0  1  0.500000  0.320614  0.139287  1
  Ti  Ti1  1  0.500000  0.680189  0.860649  1
  Ti  Ti2  1  0.500000  0.819622  0.360528  1
  Ti  Ti3  1  0.500000  0.177339  0.640609  1
  Al  Al4  1  0.000000  0.002497  0.999651  1
  Al  Al5  1  0.000000  0.501101  0.499568  1
  Ir  Ir6  1  0.000000  0.069491  0.247495  1
  Ir  Ir7  1  0.000000  0.927311  0.753949  1
  Ir  Ir8  1  0.000000  0.569066  0.252557  1
  Rh  Rh9  1  0.000000  0.002179  0.501285  1
  Rh  Rh10  1  0.000000  0.502886  0.999308  1
  Rh  Rh11  1  0.000000  0.428078  0.745360  1
  Rh  Rh12  1  0.500000  0.309412  0.389350  1
  Rh  Rh13  1  0.500000  0.689728  0.609987  1
  Rh  Rh14  1  0.500000  0.810317  0.111145  1
  Rh  Rh15  1  0.500000  0.190172  0.889269  1
