# generated using pymatgen
data_Cs3Li4TlB4(P4O15)2
_symmetry_space_group_name_H-M   'P 1'
_cell_length_a   7.09247368
_cell_length_b   7.78046963
_cell_length_c   13.91678900
_cell_angle_alpha   86.04167145
_cell_angle_beta   104.36251729
_cell_angle_gamma   113.80340830
_symmetry_Int_Tables_number   1
_chemical_formula_structural   Cs3Li4TlB4(P4O15)2
_chemical_formula_sum   'Cs3 Li4 Tl1 B4 P8 O30'
_cell_volume   680.26113894
_cell_formula_units_Z   1
loop_
 _symmetry_equiv_pos_site_id
 _symmetry_equiv_pos_as_xyz
  1  'x, y, z'
loop_
 _atom_site_type_symbol
 _atom_site_label
 _atom_site_symmetry_multiplicity
 _atom_site_fract_x
 _atom_site_fract_y
 _atom_site_fract_z
 _atom_site_occupancy
  Cs  Cs0  1  0.719192  0.812830  0.863117  1
  Cs  Cs1  1  0.899752  0.240593  0.345430  1
  Cs  Cs2  1  0.095525  0.758396  0.647886  1
  Li  Li3  1  0.786139  0.226320  0.013026  1
  Li  Li4  1  0.218318  0.776742  0.991360  1
  Li  Li5  1  0.284895  0.752701  0.219071  1
  Li  Li6  1  0.714303  0.249962  0.778177  1
  Tl  Tl7  1  0.267454  0.179736  0.120946  1
  B  B8  1  0.859735  0.713223  0.284695  1
  B  B9  1  0.138485  0.283466  0.717202  1
  B  B10  1  0.541872  0.755448  0.507943  1
  B  B11  1  0.456444  0.243544  0.491067  1
  P  P12  1  0.261488  0.886755  0.403905  1
  P  P13  1  0.737433  0.113094  0.594990  1
  P  P14  1  0.506087  0.522567  0.353251  1
  P  P15  1  0.491179  0.475741  0.646115  1
  P  P16  1  0.658385  0.847515  0.126902  1
  P  P17  1  0.350434  0.159448  0.875735  1
  P  P18  1  0.825489  0.572688  0.106432  1
  P  P19  1  0.173974  0.425649  0.895325  1
  O  O20  1  0.319185  0.730968  0.467989  1
  O  O21  1  0.681001  0.269366  0.531073  1
  O  O22  1  0.363669  0.948581  0.318350  1
  O  O23  1  0.633414  0.051919  0.680198  1
  O  O24  1  0.311297  0.044237  0.482397  1
  O  O25  1  0.689800  0.954826  0.517702  1
  O  O26  1  0.014533  0.797200  0.376848  1
  O  O27  1  0.984728  0.200686  0.624847  1
  O  O28  1  0.613560  0.666183  0.443442  1
  O  O29  1  0.384640  0.331352  0.557021  1
  O  O30  1  0.428063  0.319009  0.392297  1
  O  O31  1  0.566570  0.679897  0.607661  1
  O  O32  1  0.324485  0.542252  0.278593  1
  O  O33  1  0.675851  0.459943  0.720495  1
  O  O34  1  0.437470  0.839109  0.115630  1
  O  O35  1  0.570588  0.168392  0.884120  1
  O  O36  1  0.770262  0.851311  0.241086  1
  O  O37  1  0.227618  0.144809  0.762061  1
  O  O38  1  0.802550  0.001847  0.074685  1
  O  O39  1  0.214636  0.011212  0.933922  1
  O  O40  1  0.630933  0.643867  0.086679  1
  O  O41  1  0.376974  0.366388  0.910927  1
  O  O42  1  0.694173  0.537364  0.308459  1
  O  O43  1  0.305159  0.459451  0.693441  1
  O  O44  1  0.963841  0.664694  0.036018  1
  O  O45  1  0.046263  0.325341  0.968999  1
  O  O46  1  0.958426  0.661678  0.215448  1
  O  O47  1  0.038806  0.334127  0.786743  1
  O  O48  1  0.726527  0.361214  0.106691  1
  O  O49  1  0.258397  0.636360  0.893605  1
