# generated using pymatgen
data_NdEu2(As2Pd3)3
_symmetry_space_group_name_H-M   'P 1'
_cell_length_a   4.14759700
_cell_length_b   8.68908389
_cell_length_c   10.18867648
_cell_angle_alpha   107.52607813
_cell_angle_beta   90.00000000
_cell_angle_gamma   103.80788180
_symmetry_Int_Tables_number   1
_chemical_formula_structural   NdEu2(As2Pd3)3
_chemical_formula_sum   'Nd1 Eu2 As6 Pd9'
_cell_volume   338.99868843
_cell_formula_units_Z   1
loop_
 _symmetry_equiv_pos_site_id
 _symmetry_equiv_pos_as_xyz
  1  'x, y, z'
loop_
 _atom_site_type_symbol
 _atom_site_label
 _atom_site_symmetry_multiplicity
 _atom_site_fract_x
 _atom_site_fract_y
 _atom_site_fract_z
 _atom_site_occupancy
  Nd  Nd0  1  0.000000  0.000000  0.000000  1
  Eu  Eu1  1  0.845085  0.690171  0.299530  1
  Eu  Eu2  1  0.154915  0.309829  0.700470  1
  As  As3  1  0.800330  0.600661  0.868853  1
  As  As4  1  0.199670  0.399339  0.131147  1
  As  As5  1  0.538769  0.077539  0.784061  1
  As  As6  1  0.461231  0.922461  0.215939  1
  As  As7  1  0.636169  0.272339  0.452957  1
  As  As8  1  0.363831  0.727661  0.547043  1
  Pd  Pd9  1  0.956101  0.912202  0.669633  1
  Pd  Pd10  1  0.043899  0.087798  0.330367  1
  Pd  Pd11  1  0.779254  0.558509  0.608472  1
  Pd  Pd12  1  0.220746  0.441491  0.391528  1
  Pd  Pd13  1  0.377870  0.755740  0.800192  1
  Pd  Pd14  1  0.622130  0.244260  0.199808  1
  Pd  Pd15  1  0.500000  0.000000  0.500000  1
  Pd  Pd16  1  0.679892  0.359784  0.968526  1
  Pd  Pd17  1  0.320108  0.640216  0.031474  1
