# generated using pymatgen
data_Zr2SnIr5
_symmetry_space_group_name_H-M   'P 1'
_cell_length_a   5.70085221
_cell_length_b   5.70085245
_cell_length_c   8.23791600
_cell_angle_alpha   90.00000000
_cell_angle_beta   90.00000000
_cell_angle_gamma   95.36313356
_symmetry_Int_Tables_number   1
_chemical_formula_structural   Zr2SnIr5
_chemical_formula_sum   'Zr4 Sn2 Ir10'
_cell_volume   266.55790269
_cell_formula_units_Z   2
loop_
 _symmetry_equiv_pos_site_id
 _symmetry_equiv_pos_as_xyz
  1  'x, y, z'
loop_
 _atom_site_type_symbol
 _atom_site_label
 _atom_site_symmetry_multiplicity
 _atom_site_fract_x
 _atom_site_fract_y
 _atom_site_fract_z
 _atom_site_occupancy
  Zr  Zr0  1  0.776580  0.223420  0.500000  1
  Zr  Zr1  1  0.223420  0.776580  0.000000  1
  Zr  Zr2  1  0.223420  0.776580  0.500000  1
  Zr  Zr3  1  0.776580  0.223420  0.000000  1
  Sn  Sn4  1  0.500794  0.500794  0.750000  1
  Sn  Sn5  1  0.499206  0.499206  0.250000  1
  Ir  Ir6  1  0.738381  0.738381  0.000333  1
  Ir  Ir7  1  0.738381  0.738381  0.499667  1
  Ir  Ir8  1  0.261619  0.261619  0.999667  1
  Ir  Ir9  1  0.261619  0.261619  0.500333  1
  Ir  Ir10  1  0.499967  0.000360  0.750000  1
  Ir  Ir11  1  0.500033  0.999640  0.250000  1
  Ir  Ir12  1  0.000057  0.000057  0.250000  1
  Ir  Ir13  1  0.999943  0.999943  0.750000  1
  Ir  Ir14  1  0.000360  0.499967  0.750000  1
  Ir  Ir15  1  0.999640  0.500033  0.250000  1
