# generated using pymatgen
data_HoTm3(MgIr)4
_symmetry_space_group_name_H-M   'P 1'
_cell_length_a   7.02458980
_cell_length_b   4.05914400
_cell_length_c   8.59781200
_cell_angle_alpha   90.00000000
_cell_angle_beta   90.38887849
_cell_angle_gamma   90.00000000
_symmetry_Int_Tables_number   1
_chemical_formula_structural   HoTm3(MgIr)4
_chemical_formula_sum   'Ho1 Tm3 Mg4 Ir4'
_cell_volume   245.15083021
_cell_formula_units_Z   1
loop_
 _symmetry_equiv_pos_site_id
 _symmetry_equiv_pos_as_xyz
  1  'x, y, z'
loop_
 _atom_site_type_symbol
 _atom_site_label
 _atom_site_symmetry_multiplicity
 _atom_site_fract_x
 _atom_site_fract_y
 _atom_site_fract_z
 _atom_site_occupancy
  Ho  Ho0  1  0.540547  0.750000  0.673575  1
  Tm  Tm1  1  0.959294  0.250000  0.172868  1
  Tm  Tm2  1  0.459536  0.250000  0.326086  1
  Tm  Tm3  1  0.040983  0.750000  0.827508  1
  Mg  Mg4  1  0.865762  0.250000  0.558175  1
  Mg  Mg5  1  0.364740  0.250000  0.941838  1
  Mg  Mg6  1  0.135101  0.750000  0.440473  1
  Mg  Mg7  1  0.634314  0.750000  0.059083  1
  Ir  Ir8  1  0.751951  0.250000  0.868640  1
  Ir  Ir9  1  0.248598  0.250000  0.632448  1
  Ir  Ir10  1  0.249365  0.750000  0.132398  1
  Ir  Ir11  1  0.749810  0.750000  0.366909  1
