# generated using pymatgen
data_Dy5Nb2P12IrRh16
_symmetry_space_group_name_H-M   'P 1'
_cell_length_a   12.65163000
_cell_length_b   12.80317481
_cell_length_c   3.93543200
_cell_angle_alpha   90.00000000
_cell_angle_beta   90.00000000
_cell_angle_gamma   119.60921801
_symmetry_Int_Tables_number   1
_chemical_formula_structural   Dy5Nb2P12IrRh16
_chemical_formula_sum   'Dy5 Nb2 P12 Ir1 Rh16'
_cell_volume   554.22220808
_cell_formula_units_Z   1
loop_
 _symmetry_equiv_pos_site_id
 _symmetry_equiv_pos_as_xyz
  1  'x, y, z'
loop_
 _atom_site_type_symbol
 _atom_site_label
 _atom_site_symmetry_multiplicity
 _atom_site_fract_x
 _atom_site_fract_y
 _atom_site_fract_z
 _atom_site_occupancy
  Dy  Dy0  1  0.330052  0.661299  0.500000  1
  Dy  Dy1  1  0.668755  0.338701  0.500000  1
  Dy  Dy2  1  0.998716  0.812244  0.000000  1
  Dy  Dy3  1  0.186472  0.187756  0.000000  1
  Dy  Dy4  1  0.811728  0.000000  0.000000  1
  Nb  Nb5  1  0.997535  0.447321  0.500000  1
  Nb  Nb6  1  0.550214  0.552679  0.500000  1
  P  P7  1  0.002276  0.640863  0.500000  1
  P  P8  1  0.361413  0.359137  0.500000  1
  P  P9  1  0.639210  0.000000  0.500000  1
  P  P10  1  0.515327  0.682225  0.000000  1
  P  P11  1  0.313539  0.829403  0.000000  1
  P  P12  1  0.162255  0.480764  0.000000  1
  P  P13  1  0.484136  0.170597  0.000000  1
  P  P14  1  0.681491  0.519236  0.000000  1
  P  P15  1  0.833102  0.317775  0.000000  1
  P  P16  1  0.999593  0.175158  0.500000  1
  P  P17  1  0.824433  0.824842  0.500000  1
  P  P18  1  0.183208  0.000000  0.500000  1
  Ir  Ir19  1  0.004673  0.000000  0.500000  1
  Rh  Rh20  1  0.507921  0.863628  0.000000  1
  Rh  Rh21  1  0.127109  0.644083  0.000000  1
  Rh  Rh22  1  0.352949  0.487626  0.000000  1
  Rh  Rh23  1  0.483027  0.355917  0.000000  1
  Rh  Rh24  1  0.865325  0.512374  0.000000  1
  Rh  Rh25  1  0.644294  0.136372  0.000000  1
  Rh  Rh26  1  0.457812  0.000000  0.500000  1
  Rh  Rh27  1  0.997713  0.278549  0.000000  1
  Rh  Rh28  1  0.719163  0.721451  0.000000  1
  Rh  Rh29  1  0.287893  0.000000  0.000000  1
  Rh  Rh30  1  0.626173  0.806949  0.500000  1
  Rh  Rh31  1  0.202034  0.823274  0.500000  1
  Rh  Rh32  1  0.176352  0.370228  0.500000  1
  Rh  Rh33  1  0.378760  0.176726  0.500000  1
  Rh  Rh34  1  0.806124  0.629772  0.500000  1
  Rh  Rh35  1  0.819225  0.193051  0.500000  1
