# generated using pymatgen
data_Sc12Os2PtI16
_symmetry_space_group_name_H-M   'P 1'
_cell_length_a   9.09606579
_cell_length_b   12.18521203
_cell_length_c   12.80385966
_cell_angle_alpha   117.45271212
_cell_angle_beta   100.95434354
_cell_angle_gamma   100.39692989
_symmetry_Int_Tables_number   1
_chemical_formula_structural   Sc12Os2PtI16
_chemical_formula_sum   'Sc12 Os2 Pt1 I16'
_cell_volume   1176.40915803
_cell_formula_units_Z   1
loop_
 _symmetry_equiv_pos_site_id
 _symmetry_equiv_pos_as_xyz
  1  'x, y, z'
loop_
 _atom_site_type_symbol
 _atom_site_label
 _atom_site_symmetry_multiplicity
 _atom_site_fract_x
 _atom_site_fract_y
 _atom_site_fract_z
 _atom_site_occupancy
  Sc  Sc0  1  0.094307  0.275140  0.361601  1
  Sc  Sc1  1  0.905693  0.724860  0.638399  1
  Sc  Sc2  1  0.777643  0.534269  0.332582  1
  Sc  Sc3  1  0.222357  0.465731  0.667418  1
  Sc  Sc4  1  0.277386  0.725224  0.638391  1
  Sc  Sc5  1  0.722614  0.274776  0.361609  1
  Sc  Sc6  1  0.149420  0.534493  0.332493  1
  Sc  Sc7  1  0.850580  0.465507  0.667507  1
  Sc  Sc8  1  0.410660  0.366653  0.286114  1
  Sc  Sc9  1  0.589340  0.633347  0.713886  1
  Sc  Sc10  1  0.461314  0.318809  0.520354  1
  Sc  Sc11  1  0.538686  0.681191  0.479646  1
  Os  Os12  1  0.336906  0.500184  0.499869  1
  Os  Os13  1  0.663095  0.499816  0.500131  1
  Pt  Pt14  1  0.000000  0.500000  0.500000  1
  I  I15  1  0.389465  0.736272  0.879057  1
  I  I16  1  0.610535  0.263728  0.120943  1
  I  I17  1  0.184946  0.956324  0.779694  1
  I  I18  1  0.815054  0.043676  0.220306  1
  I  I19  1  0.338556  0.103075  0.255813  1
  I  I20  1  0.661444  0.896925  0.744187  1
  I  I21  1  0.563746  0.439438  0.795349  1
  I  I22  1  0.436254  0.560562  0.204651  1
  I  I23  1  0.300793  0.821740  0.463837  1
  I  I24  1  0.699207  0.178260  0.536163  1
  I  I25  1  0.163893  0.178811  0.535983  1
  I  I26  1  0.836107  0.821189  0.464017  1
  I  I27  1  0.926850  0.571991  0.162778  1
  I  I28  1  0.073150  0.428009  0.837222  1
  I  I29  1  0.926621  0.735934  0.879076  1
  I  I30  1  0.073379  0.264066  0.120924  1
