# generated using pymatgen
data_Dy10Tl4In3Ni4Hg
_symmetry_space_group_name_H-M   'P 1'
_cell_length_a   3.57582400
_cell_length_b   8.06276428
_cell_length_c   18.03914086
_cell_angle_alpha   90.14695059
_cell_angle_beta   90.00000000
_cell_angle_gamma   90.00000000
_symmetry_Int_Tables_number   1
_chemical_formula_structural   Dy10Tl4In3Ni4Hg
_chemical_formula_sum   'Dy10 Tl4 In3 Ni4 Hg1'
_cell_volume   520.08522888
_cell_formula_units_Z   1
loop_
 _symmetry_equiv_pos_site_id
 _symmetry_equiv_pos_as_xyz
  1  'x, y, z'
loop_
 _atom_site_type_symbol
 _atom_site_label
 _atom_site_symmetry_multiplicity
 _atom_site_fract_x
 _atom_site_fract_y
 _atom_site_fract_z
 _atom_site_occupancy
  Dy  Dy0  1  0.500000  0.382932  0.589212  1
  Dy  Dy1  1  0.500000  0.885053  0.912103  1
  Dy  Dy2  1  0.500000  0.109861  0.087897  1
  Dy  Dy3  1  0.500000  0.754918  0.721197  1
  Dy  Dy4  1  0.500000  0.255534  0.780365  1
  Dy  Dy5  1  0.500000  0.504300  0.003046  1
  Dy  Dy6  1  0.500000  0.746194  0.216644  1
  Dy  Dy7  1  0.500000  0.243026  0.279525  1
  Dy  Dy8  1  0.500000  0.001234  0.499218  1
  Dy  Dy9  1  0.500000  0.616675  0.408348  1
  Tl  Tl10  1  0.000000  0.925454  0.347005  1
  Tl  Tl11  1  0.000000  0.075975  0.652291  1
  Tl  Tl12  1  0.000000  0.574642  0.849977  1
  Tl  Tl13  1  0.000000  0.703175  0.565992  1
  In  In14  1  0.000000  0.205743  0.932717  1
  In  In15  1  0.000000  0.297873  0.432681  1
  In  In16  1  0.000000  0.421319  0.152281  1
  Ni  Ni17  1  0.000000  0.980262  0.805115  1
  Ni  Ni18  1  0.000000  0.518904  0.302260  1
  Ni  Ni19  1  0.000000  0.476573  0.697074  1
  Ni  Ni20  1  0.000000  0.026890  0.196408  1
  Hg  Hg21  1  0.000000  0.793463  0.068646  1
