# generated using pymatgen
data_Rh4Pb7
_symmetry_space_group_name_H-M   'P 1'
_cell_length_a   7.20581364
_cell_length_b   7.20581377
_cell_length_c   7.20581388
_cell_angle_alpha   120.05228704
_cell_angle_beta   120.05228155
_cell_angle_gamma   89.90945950
_symmetry_Int_Tables_number   1
_chemical_formula_structural   Rh4Pb7
_chemical_formula_sum   'Rh4 Pb7'
_cell_volume   264.35661779
_cell_formula_units_Z   1
loop_
 _symmetry_equiv_pos_site_id
 _symmetry_equiv_pos_as_xyz
  1  'x, y, z'
loop_
 _atom_site_type_symbol
 _atom_site_label
 _atom_site_symmetry_multiplicity
 _atom_site_fract_x
 _atom_site_fract_y
 _atom_site_fract_z
 _atom_site_occupancy
  Rh  Rh0  1  0.596066  0.250735  0.000000  1
  Rh  Rh1  1  0.250735  0.596066  0.000000  1
  Rh  Rh2  1  0.749265  0.749265  0.345332  1
  Rh  Rh3  1  0.403933  0.403933  0.654668  1
  Pb  Pb4  1  0.000000  0.000000  0.000000  1
  Pb  Pb5  1  0.878709  0.543019  0.000000  1
  Pb  Pb6  1  0.543019  0.878709  0.000000  1
  Pb  Pb7  1  0.456981  0.456981  0.335689  1
  Pb  Pb8  1  0.500000  0.000000  0.500000  1
  Pb  Pb9  1  0.000000  0.500000  0.500000  1
  Pb  Pb10  1  0.121291  0.121291  0.664310  1
