# generated using pymatgen
data_La2YbY(Pt2O7)2
_symmetry_space_group_name_H-M   'P 1'
_cell_length_a   7.43255178
_cell_length_b   7.37291643
_cell_length_c   7.40633095
_cell_angle_alpha   59.71669445
_cell_angle_beta   59.88281794
_cell_angle_gamma   59.73208124
_symmetry_Int_Tables_number   1
_chemical_formula_structural   La2YbY(Pt2O7)2
_chemical_formula_sum   'La2 Yb1 Y1 Pt4 O14'
_cell_volume   285.53586437
_cell_formula_units_Z   1
loop_
 _symmetry_equiv_pos_site_id
 _symmetry_equiv_pos_as_xyz
  1  'x, y, z'
loop_
 _atom_site_type_symbol
 _atom_site_label
 _atom_site_symmetry_multiplicity
 _atom_site_fract_x
 _atom_site_fract_y
 _atom_site_fract_z
 _atom_site_occupancy
  La  La0  1  0.625000  0.125000  0.125000  1
  La  La1  1  0.125000  0.125000  0.125000  1
  Yb  Yb2  1  0.125000  0.625000  0.125000  1
  Y  Y3  1  0.125000  0.125000  0.625000  1
  Pt  Pt4  1  0.625000  0.625000  0.625000  1
  Pt  Pt5  1  0.125000  0.625000  0.625000  1
  Pt  Pt6  1  0.625000  0.625000  0.125000  1
  Pt  Pt7  1  0.625000  0.125000  0.625000  1
  O  O8  1  0.290924  0.713556  0.704596  1
  O  O9  1  0.541829  0.958836  0.957507  1
  O  O10  1  0.713732  0.701256  0.292907  1
  O  O11  1  0.290674  0.289673  0.700737  1
  O  O12  1  0.005718  0.999329  0.989236  1
  O  O13  1  0.292107  0.701256  0.292907  1
  O  O14  1  0.718915  0.289673  0.700737  1
  O  O15  1  0.957893  0.548744  0.957093  1
  O  O16  1  0.536268  0.548744  0.957093  1
  O  O17  1  0.959326  0.960327  0.549263  1
  O  O18  1  0.244282  0.250671  0.260764  1
  O  O19  1  0.531085  0.960327  0.549263  1
  O  O20  1  0.708171  0.291164  0.292493  1
  O  O21  1  0.959076  0.536444  0.545404  1
