# generated using pymatgen
data_La2Be3SiRh6
_symmetry_space_group_name_H-M   'P 1'
_cell_length_a   6.55319389
_cell_length_b   6.54994176
_cell_length_c   6.55319466
_cell_angle_alpha   129.69462238
_cell_angle_beta   116.74871289
_cell_angle_gamma   84.92263247
_symmetry_Int_Tables_number   1
_chemical_formula_structural   La2Be3SiRh6
_chemical_formula_sum   'La2 Be3 Si1 Rh6'
_cell_volume   184.99495755
_cell_formula_units_Z   1
loop_
 _symmetry_equiv_pos_site_id
 _symmetry_equiv_pos_as_xyz
  1  'x, y, z'
loop_
 _atom_site_type_symbol
 _atom_site_label
 _atom_site_symmetry_multiplicity
 _atom_site_fract_x
 _atom_site_fract_y
 _atom_site_fract_z
 _atom_site_occupancy
  La  La0  1  0.742820  0.004370  0.261549  1
  La  La1  1  0.257016  0.995899  0.738883  1
  Be  Be2  1  0.588090  0.353558  0.765468  1
  Be  Be3  1  0.416661  0.651269  0.234608  1
  Be  Be4  1  0.077579  0.311837  0.234257  1
  Si  Si5  1  0.917881  0.683189  0.765307  1
  Rh  Rh6  1  0.246854  0.497823  0.743493  1
  Rh  Rh7  1  0.737161  0.003347  0.738642  1
  Rh  Rh8  1  0.754329  0.497823  0.250968  1
  Rh  Rh9  1  0.264705  0.003347  0.266187  1
  Rh  Rh10  1  0.492791  0.498769  0.494658  1
  Rh  Rh11  1  0.004113  0.498769  0.005979  1
