# generated using pymatgen
data_Tb2ErGaSn3Rh2
_symmetry_space_group_name_H-M   'P 1'
_cell_length_a   7.47902604
_cell_length_b   7.46529516
_cell_length_c   4.08029000
_cell_angle_alpha   90.00000000
_cell_angle_beta   90.00000000
_cell_angle_gamma   120.38610487
_symmetry_Int_Tables_number   1
_chemical_formula_structural   Tb2ErGaSn3Rh2
_chemical_formula_sum   'Tb2 Er1 Ga1 Sn3 Rh2'
_cell_volume   196.52184016
_cell_formula_units_Z   1
loop_
 _symmetry_equiv_pos_site_id
 _symmetry_equiv_pos_as_xyz
  1  'x, y, z'
loop_
 _atom_site_type_symbol
 _atom_site_label
 _atom_site_symmetry_multiplicity
 _atom_site_fract_x
 _atom_site_fract_y
 _atom_site_fract_z
 _atom_site_occupancy
  Tb  Tb0  1  0.399133  0.410360  0.000000  1
  Tb  Tb1  1  0.011717  0.601469  0.000000  1
  Er  Er2  1  0.590185  0.986462  0.000000  1
  Ga  Ga3  1  0.666358  0.331358  0.500000  1
  Sn  Sn4  1  0.742657  0.748116  0.500000  1
  Sn  Sn5  1  0.003601  0.256390  0.500000  1
  Sn  Sn6  1  0.252791  0.995715  0.500000  1
  Rh  Rh7  1  0.997858  0.000225  0.000000  1
  Rh  Rh8  1  0.335701  0.669904  0.500000  1
