# generated using pymatgen
data_LaEr2Th(ReB6)2
_symmetry_space_group_name_H-M   'P 1'
_cell_length_a   3.75987300
_cell_length_b   9.26587059
_cell_length_c   11.73001635
_cell_angle_alpha   89.86331148
_cell_angle_beta   90.00000000
_cell_angle_gamma   90.00000000
_symmetry_Int_Tables_number   1
_chemical_formula_structural   LaEr2Th(ReB6)2
_chemical_formula_sum   'La2 Er4 Th2 Re4 B24'
_cell_volume   408.65497235
_cell_formula_units_Z   2
loop_
 _symmetry_equiv_pos_site_id
 _symmetry_equiv_pos_as_xyz
  1  'x, y, z'
loop_
 _atom_site_type_symbol
 _atom_site_label
 _atom_site_symmetry_multiplicity
 _atom_site_fract_x
 _atom_site_fract_y
 _atom_site_fract_z
 _atom_site_occupancy
  La  La0  1  0.000000  0.323665  0.414296  1
  La  La1  1  0.000000  0.676335  0.585704  1
  Er  Er2  1  0.000000  0.943374  0.370189  1
  Er  Er3  1  0.000000  0.056626  0.629811  1
  Er  Er4  1  0.000000  0.444142  0.128908  1
  Er  Er5  1  0.000000  0.555858  0.871092  1
  Th  Th6  1  0.000000  0.821995  0.085888  1
  Th  Th7  1  0.000000  0.178005  0.914112  1
  Re  Re8  1  0.000000  0.641990  0.316902  1
  Re  Re9  1  0.000000  0.358010  0.683098  1
  Re  Re10  1  0.000000  0.138157  0.179040  1
  Re  Re11  1  0.000000  0.861843  0.820960  1
  B  B12  1  0.500000  0.556931  0.428448  1
  B  B13  1  0.500000  0.443069  0.571552  1
  B  B14  1  0.500000  0.056081  0.070479  1
  B  B15  1  0.500000  0.943919  0.929521  1
  B  B16  1  0.500000  0.750156  0.414960  1
  B  B17  1  0.500000  0.249844  0.585040  1
  B  B18  1  0.500000  0.250113  0.083969  1
  B  B19  1  0.500000  0.749887  0.916031  1
  B  B20  1  0.500000  0.791767  0.265894  1
  B  B21  1  0.500000  0.208233  0.734106  1
  B  B22  1  0.500000  0.291099  0.232702  1
  B  B23  1  0.500000  0.708901  0.767298  1
  B  B24  1  0.500000  0.630952  0.185748  1
  B  B25  1  0.500000  0.369048  0.814252  1
  B  B26  1  0.500000  0.129815  0.313008  1
  B  B27  1  0.500000  0.870185  0.686992  1
  B  B28  1  0.500000  0.985044  0.213777  1
  B  B29  1  0.500000  0.014956  0.786223  1
  B  B30  1  0.500000  0.486085  0.285455  1
  B  B31  1  0.500000  0.513915  0.714545  1
  B  B32  1  0.500000  0.600982  0.027489  1
  B  B33  1  0.500000  0.399018  0.972511  1
  B  B34  1  0.500000  0.096200  0.473609  1
  B  B35  1  0.500000  0.903800  0.526391  1
