# generated using pymatgen
data_Tb6Er10Cd4OsPt3
_symmetry_space_group_name_H-M   'P 1'
_cell_length_a   9.65407884
_cell_length_b   9.65407931
_cell_length_c   9.65408002
_cell_angle_alpha   59.55095754
_cell_angle_beta   59.55095504
_cell_angle_gamma   59.55095805
_symmetry_Int_Tables_number   1
_chemical_formula_structural   Tb6Er10Cd4OsPt3
_chemical_formula_sum   'Tb6 Er10 Cd4 Os1 Pt3'
_cell_volume   629.73956061
_cell_formula_units_Z   1
loop_
 _symmetry_equiv_pos_site_id
 _symmetry_equiv_pos_as_xyz
  1  'x, y, z'
loop_
 _atom_site_type_symbol
 _atom_site_label
 _atom_site_symmetry_multiplicity
 _atom_site_fract_x
 _atom_site_fract_y
 _atom_site_fract_z
 _atom_site_occupancy
  Tb  Tb0  1  0.936301  0.564654  0.564654  1
  Tb  Tb1  1  0.556738  0.939198  0.939198  1
  Tb  Tb2  1  0.564654  0.936301  0.564654  1
  Tb  Tb3  1  0.939198  0.556738  0.939198  1
  Tb  Tb4  1  0.564654  0.564654  0.936301  1
  Tb  Tb5  1  0.939198  0.939198  0.556738  1
  Er  Er6  1  0.351557  0.351557  0.351557  1
  Er  Er7  1  0.350448  0.350448  0.947703  1
  Er  Er8  1  0.350448  0.947703  0.350448  1
  Er  Er9  1  0.947703  0.350448  0.350448  1
  Er  Er10  1  0.815581  0.187943  0.187943  1
  Er  Er11  1  0.186765  0.810690  0.810690  1
  Er  Er12  1  0.187943  0.815581  0.187943  1
  Er  Er13  1  0.810690  0.186765  0.810690  1
  Er  Er14  1  0.187943  0.187943  0.815581  1
  Er  Er15  1  0.810690  0.810690  0.186765  1
  Cd  Cd16  1  0.579981  0.579981  0.579981  1
  Cd  Cd17  1  0.580542  0.580542  0.255248  1
  Cd  Cd18  1  0.580542  0.255248  0.580542  1
  Cd  Cd19  1  0.255248  0.580542  0.580542  1
  Os  Os20  1  0.143416  0.143416  0.143416  1
  Pt  Pt21  1  0.143748  0.143748  0.572266  1
  Pt  Pt22  1  0.143748  0.572266  0.143748  1
  Pt  Pt23  1  0.572266  0.143748  0.143748  1
