# generated using pymatgen
data_TmLuAlZnPt2
_symmetry_space_group_name_H-M   'P 1'
_cell_length_a   4.30456000
_cell_length_b   6.73097516
_cell_length_c   7.91080777
_cell_angle_alpha   89.31336200
_cell_angle_beta   90.00000000
_cell_angle_gamma   90.00000000
_symmetry_Int_Tables_number   1
_chemical_formula_structural   TmLuAlZnPt2
_chemical_formula_sum   'Tm2 Lu2 Al2 Zn2 Pt4'
_cell_volume   229.19038699
_cell_formula_units_Z   2
loop_
 _symmetry_equiv_pos_site_id
 _symmetry_equiv_pos_as_xyz
  1  'x, y, z'
loop_
 _atom_site_type_symbol
 _atom_site_label
 _atom_site_symmetry_multiplicity
 _atom_site_fract_x
 _atom_site_fract_y
 _atom_site_fract_z
 _atom_site_occupancy
  Tm  Tm0  1  0.250000  0.534422  0.178312  1
  Tm  Tm1  1  0.750000  0.465578  0.821688  1
  Lu  Lu2  1  0.750000  0.969071  0.683962  1
  Lu  Lu3  1  0.250000  0.030929  0.316038  1
  Al  Al4  1  0.250000  0.640227  0.557505  1
  Al  Al5  1  0.750000  0.359773  0.442495  1
  Zn  Zn6  1  0.750000  0.857325  0.062156  1
  Zn  Zn7  1  0.250000  0.142675  0.937844  1
  Pt  Pt8  1  0.250000  0.755519  0.868441  1
  Pt  Pt9  1  0.750000  0.244481  0.131559  1
  Pt  Pt10  1  0.750000  0.737543  0.386535  1
  Pt  Pt11  1  0.250000  0.262457  0.613465  1
