# generated using pymatgen
data_SrPr(Sn2Ir)4
_symmetry_space_group_name_H-M   'P 1'
_cell_length_a   4.55047100
_cell_length_b   7.27302700
_cell_length_c   18.71890300
_cell_angle_alpha   90.00000000
_cell_angle_beta   90.00000000
_cell_angle_gamma   90.00000000
_symmetry_Int_Tables_number   1
_chemical_formula_structural   SrPr(Sn2Ir)4
_chemical_formula_sum   'Sr2 Pr2 Sn16 Ir8'
_cell_volume   619.51516892
_cell_formula_units_Z   2
loop_
 _symmetry_equiv_pos_site_id
 _symmetry_equiv_pos_as_xyz
  1  'x, y, z'
loop_
 _atom_site_type_symbol
 _atom_site_label
 _atom_site_symmetry_multiplicity
 _atom_site_fract_x
 _atom_site_fract_y
 _atom_site_fract_z
 _atom_site_occupancy
  Sr  Sr0  1  0.250000  0.997730  0.857664  1
  Sr  Sr1  1  0.250000  0.502270  0.357664  1
  Pr  Pr2  1  0.750000  0.001602  0.142307  1
  Pr  Pr3  1  0.750000  0.498398  0.642307  1
  Sn  Sn4  1  0.250000  0.302827  0.182455  1
  Sn  Sn5  1  0.250000  0.197173  0.682455  1
  Sn  Sn6  1  0.750000  0.696621  0.818263  1
  Sn  Sn7  1  0.750000  0.803379  0.318263  1
  Sn  Sn8  1  0.250000  0.722223  0.194036  1
  Sn  Sn9  1  0.250000  0.777777  0.694036  1
  Sn  Sn10  1  0.750000  0.277861  0.806284  1
  Sn  Sn11  1  0.750000  0.222139  0.306284  1
  Sn  Sn12  1  0.250000  0.866541  0.032016  1
  Sn  Sn13  1  0.250000  0.633459  0.532016  1
  Sn  Sn14  1  0.750000  0.134349  0.967970  1
  Sn  Sn15  1  0.750000  0.365651  0.467970  1
  Sn  Sn16  1  0.250000  0.519428  0.931952  1
  Sn  Sn17  1  0.250000  0.980572  0.431952  1
  Sn  Sn18  1  0.750000  0.478831  0.067327  1
  Sn  Sn19  1  0.750000  0.021169  0.567327  1
  Ir  Ir20  1  0.250000  0.252475  0.036514  1
  Ir  Ir21  1  0.250000  0.247525  0.536514  1
  Ir  Ir22  1  0.750000  0.747080  0.965164  1
  Ir  Ir23  1  0.750000  0.752920  0.465164  1
  Ir  Ir24  1  0.250000  0.016421  0.285021  1
  Ir  Ir25  1  0.250000  0.483579  0.785021  1
  Ir  Ir26  1  0.750000  0.983177  0.713029  1
  Ir  Ir27  1  0.750000  0.516823  0.213029  1
