# generated using pymatgen
data_Tb6Ho11Lu3Pt16
_symmetry_space_group_name_H-M   'P 1'
_cell_length_a   7.42583106
_cell_length_b   7.55985007
_cell_length_c   14.71698700
_cell_angle_alpha   90.01673966
_cell_angle_beta   90.00490476
_cell_angle_gamma   89.98633594
_symmetry_Int_Tables_number   1
_chemical_formula_structural   Tb6Ho11Lu3Pt16
_chemical_formula_sum   'Tb6 Ho11 Lu3 Pt16'
_cell_volume   826.18464868
_cell_formula_units_Z   1
loop_
 _symmetry_equiv_pos_site_id
 _symmetry_equiv_pos_as_xyz
  1  'x, y, z'
loop_
 _atom_site_type_symbol
 _atom_site_label
 _atom_site_symmetry_multiplicity
 _atom_site_fract_x
 _atom_site_fract_y
 _atom_site_fract_z
 _atom_site_occupancy
  Tb  Tb0  1  0.516833  0.326076  0.096319  1
  Tb  Tb1  1  0.016439  0.174305  0.403587  1
  Tb  Tb2  1  0.516270  0.327116  0.403944  1
  Tb  Tb3  1  0.015943  0.173082  0.095899  1
  Tb  Tb4  1  0.482817  0.675203  0.904889  1
  Tb  Tb5  1  0.985276  0.825678  0.595055  1
  Ho  Ho6  1  0.640520  0.169105  0.621821  1
  Ho  Ho7  1  0.140716  0.329563  0.878255  1
  Ho  Ho8  1  0.359291  0.830153  0.122441  1
  Ho  Ho9  1  0.859096  0.669374  0.377506  1
  Ho  Ho10  1  0.360272  0.829599  0.377971  1
  Ho  Ho11  1  0.860150  0.670148  0.121948  1
  Ho  Ho12  1  0.640724  0.169032  0.878417  1
  Ho  Ho13  1  0.141168  0.329716  0.621593  1
  Ho  Ho14  1  0.483044  0.675057  0.596003  1
  Ho  Ho15  1  0.985284  0.826055  0.904167  1
  Ho  Ho16  1  0.802169  0.512549  0.749954  1
  Lu  Lu17  1  0.301833  0.988597  0.750102  1
  Lu  Lu18  1  0.198083  0.488054  0.249866  1
  Lu  Lu19  1  0.697825  0.012044  0.250020  1
  Pt  Pt20  1  0.693354  0.972875  0.456299  1
  Pt  Pt21  1  0.193259  0.527199  0.043387  1
  Pt  Pt22  1  0.305348  0.026376  0.957308  1
  Pt  Pt23  1  0.804806  0.474180  0.542812  1
  Pt  Pt24  1  0.308019  0.025849  0.543352  1
  Pt  Pt25  1  0.807390  0.474593  0.956783  1
  Pt  Pt26  1  0.692695  0.971376  0.042802  1
  Pt  Pt27  1  0.192757  0.528712  0.457391  1
  Pt  Pt28  1  0.434063  0.384459  0.749906  1
  Pt  Pt29  1  0.936733  0.112340  0.750366  1
  Pt  Pt30  1  0.563933  0.613764  0.249742  1
  Pt  Pt31  1  0.063883  0.885418  0.250039  1
  Pt  Pt32  1  0.660278  0.858647  0.749896  1
  Pt  Pt33  1  0.165402  0.643905  0.750461  1
  Pt  Pt34  1  0.336812  0.142364  0.250003  1
  Pt  Pt35  1  0.837517  0.357436  0.249694  1
