# generated using pymatgen
data_Dy4Ho2Co13P12Ru5
_symmetry_space_group_name_H-M   'P 1'
_cell_length_a   3.76353600
_cell_length_b   10.58675373
_cell_length_c   12.35353448
_cell_angle_alpha   90.36933658
_cell_angle_beta   90.00000000
_cell_angle_gamma   90.00000000
_symmetry_Int_Tables_number   1
_chemical_formula_structural   Dy4Ho2Co13P12Ru5
_chemical_formula_sum   'Dy4 Ho2 Co13 P12 Ru5'
_cell_volume   492.19941561
_cell_formula_units_Z   1
loop_
 _symmetry_equiv_pos_site_id
 _symmetry_equiv_pos_as_xyz
  1  'x, y, z'
loop_
 _atom_site_type_symbol
 _atom_site_label
 _atom_site_symmetry_multiplicity
 _atom_site_fract_x
 _atom_site_fract_y
 _atom_site_fract_z
 _atom_site_occupancy
  Dy  Dy0  1  0.000000  0.502639  0.526958  1
  Dy  Dy1  1  0.500000  0.995219  0.477133  1
  Dy  Dy2  1  0.500000  0.818635  0.202951  1
  Dy  Dy3  1  0.000000  0.682383  0.795660  1
  Ho  Ho4  1  0.500000  0.183185  0.201345  1
  Ho  Ho5  1  0.000000  0.317141  0.798668  1
  Co  Co6  1  0.000000  0.500148  0.985414  1
  Co  Co7  1  0.500000  0.999851  0.013931  1
  Co  Co8  1  0.000000  0.798334  0.574066  1
  Co  Co9  1  0.500000  0.877557  0.711875  1
  Co  Co10  1  0.500000  0.117705  0.715539  1
  Co  Co11  1  0.000000  0.621895  0.285975  1
  Co  Co12  1  0.000000  0.381287  0.284083  1
  Co  Co13  1  0.500000  0.332719  0.989842  1
  Co  Co14  1  0.500000  0.667773  0.990021  1
  Co  Co15  1  0.000000  0.166973  0.009303  1
  Co  Co16  1  0.000000  0.832501  0.009345  1
  Co  Co17  1  0.500000  0.499910  0.705270  1
  Co  Co18  1  0.000000  0.001195  0.294583  1
  P  P19  1  0.500000  0.312567  0.622551  1
  P  P20  1  0.500000  0.689480  0.620915  1
  P  P21  1  0.000000  0.187072  0.378092  1
  P  P22  1  0.000000  0.816006  0.381464  1
  P  P23  1  0.500000  0.499950  0.882361  1
  P  P24  1  0.000000  0.000523  0.117035  1
  P  P25  1  0.500000  0.845996  0.894753  1
  P  P26  1  0.500000  0.152773  0.895200  1
  P  P27  1  0.000000  0.653795  0.104703  1
  P  P28  1  0.000000  0.346890  0.103991  1
  P  P29  1  0.500000  0.500411  0.343270  1
  P  P30  1  0.000000  0.996144  0.654696  1
  Ru  Ru31  1  0.500000  0.298427  0.426531  1
  Ru  Ru32  1  0.500000  0.703922  0.430035  1
  Ru  Ru33  1  0.000000  0.200372  0.573888  1
  Ru  Ru34  1  0.500000  0.501154  0.155593  1
  Ru  Ru35  1  0.000000  0.997469  0.842959  1
