# generated using pymatgen
data_TmPu(NiH4)2
_symmetry_space_group_name_H-M   'P 1'
_cell_length_a   3.60769933
_cell_length_b   4.76415100
_cell_length_c   6.02548663
_cell_angle_alpha   90.00000000
_cell_angle_beta   107.45514580
_cell_angle_gamma   90.00000000
_symmetry_Int_Tables_number   1
_chemical_formula_structural   TmPu(NiH4)2
_chemical_formula_sum   'Tm1 Pu1 Ni2 H8'
_cell_volume   98.79490203
_cell_formula_units_Z   1
loop_
 _symmetry_equiv_pos_site_id
 _symmetry_equiv_pos_as_xyz
  1  'x, y, z'
loop_
 _atom_site_type_symbol
 _atom_site_label
 _atom_site_symmetry_multiplicity
 _atom_site_fract_x
 _atom_site_fract_y
 _atom_site_fract_z
 _atom_site_occupancy
  Tm  Tm0  1  0.365731  0.750000  0.731629  1
  Pu  Pu1  1  0.631062  0.249999  0.262485  1
  Ni  Ni2  1  0.094065  0.750000  0.188266  1
  Ni  Ni3  1  0.902314  0.249999  0.803615  1
  H  H4  1  0.001803  0.008249  0.003532  1
  H  H5  1  0.001803  0.491752  0.003532  1
  H  H6  1  0.583783  0.750000  0.167281  1
  H  H7  1  0.195457  0.996396  0.390918  1
  H  H8  1  0.195457  0.503605  0.390918  1
  H  H9  1  0.807022  0.507580  0.614321  1
  H  H10  1  0.807022  0.992421  0.614321  1
  H  H11  1  0.414480  0.249999  0.829181  1
