# generated using pymatgen
data_LaNiIO6
_symmetry_space_group_name_H-M   'P 1'
_cell_length_a   5.25122302
_cell_length_b   5.25132550
_cell_length_c   5.17877501
_cell_angle_alpha   89.99955029
_cell_angle_beta   90.00104980
_cell_angle_gamma   119.99939518
_symmetry_Int_Tables_number   1
_chemical_formula_structural   LaNiIO6
_chemical_formula_sum   'La1 Ni1 I1 O6'
_cell_volume   123.67722254
_cell_formula_units_Z   1
loop_
 _symmetry_equiv_pos_site_id
 _symmetry_equiv_pos_as_xyz
  1  'x, y, z'
loop_
 _atom_site_type_symbol
 _atom_site_label
 _atom_site_symmetry_multiplicity
 _atom_site_fract_x
 _atom_site_fract_y
 _atom_site_fract_z
 _atom_site_occupancy
  La  La0  1  0.000006  0.999999  0.000006  1
  Ni  Ni1  1  0.333324  0.666648  0.500004  1
  I  I2  1  0.666673  0.333348  0.499996  1
  O  O3  1  0.645199  0.025202  0.289789  1
  O  O4  1  0.974794  0.619992  0.289791  1
  O  O5  1  0.379995  0.354808  0.289793  1
  O  O6  1  0.974813  0.354814  0.710204  1
  O  O7  1  0.645192  0.619990  0.710207  1
  O  O8  1  0.380001  0.025201  0.710207  1
