# generated using pymatgen
data_YbDyEr8(In2Pt)4
_symmetry_space_group_name_H-M   'P 1'
_cell_length_a   3.58756100
_cell_length_b   8.15401348
_cell_length_c   18.24199761
_cell_angle_alpha   89.91034010
_cell_angle_beta   90.00000000
_cell_angle_gamma   90.00000000
_symmetry_Int_Tables_number   1
_chemical_formula_structural   YbDyEr8(In2Pt)4
_chemical_formula_sum   'Yb1 Dy1 Er8 In8 Pt4'
_cell_volume   533.63288159
_cell_formula_units_Z   1
loop_
 _symmetry_equiv_pos_site_id
 _symmetry_equiv_pos_as_xyz
  1  'x, y, z'
loop_
 _atom_site_type_symbol
 _atom_site_label
 _atom_site_symmetry_multiplicity
 _atom_site_fract_x
 _atom_site_fract_y
 _atom_site_fract_z
 _atom_site_occupancy
  Yb  Yb0  1  0.000000  0.000000  0.000000  1
  Dy  Dy1  1  0.000000  0.500000  0.500000  1
  Er  Er2  1  0.000000  0.117199  0.414213  1
  Er  Er3  1  0.000000  0.882801  0.585787  1
  Er  Er4  1  0.000000  0.382041  0.914036  1
  Er  Er5  1  0.000000  0.617959  0.085964  1
  Er  Er6  1  0.000000  0.243014  0.220745  1
  Er  Er7  1  0.000000  0.756986  0.779255  1
  Er  Er8  1  0.000000  0.257286  0.720631  1
  Er  Er9  1  0.000000  0.742714  0.279369  1
  In  In10  1  0.500000  0.423073  0.351018  1
  In  In11  1  0.500000  0.576927  0.648982  1
  In  In12  1  0.500000  0.075509  0.850408  1
  In  In13  1  0.500000  0.924491  0.149592  1
  In  In14  1  0.500000  0.293166  0.067295  1
  In  In15  1  0.500000  0.706834  0.932705  1
  In  In16  1  0.500000  0.207340  0.566779  1
  In  In17  1  0.500000  0.792660  0.433221  1
  Pt  Pt18  1  0.500000  0.025124  0.303759  1
  Pt  Pt19  1  0.500000  0.974876  0.696241  1
  Pt  Pt20  1  0.500000  0.476498  0.803127  1
  Pt  Pt21  1  0.500000  0.523502  0.196873  1
