# generated using pymatgen
data_La2AlInRh2
_symmetry_space_group_name_H-M   'P 1'
_cell_length_a   4.19312700
_cell_length_b   7.68809400
_cell_length_c   16.82549400
_cell_angle_alpha   90.00000000
_cell_angle_beta   90.00000000
_cell_angle_gamma   90.00000000
_symmetry_Int_Tables_number   1
_chemical_formula_structural   La2AlInRh2
_chemical_formula_sum   'La8 Al4 In4 Rh8'
_cell_volume   542.40605012
_cell_formula_units_Z   4
loop_
 _symmetry_equiv_pos_site_id
 _symmetry_equiv_pos_as_xyz
  1  'x, y, z'
loop_
 _atom_site_type_symbol
 _atom_site_label
 _atom_site_symmetry_multiplicity
 _atom_site_fract_x
 _atom_site_fract_y
 _atom_site_fract_z
 _atom_site_occupancy
  La  La0  1  0.250000  0.542314  0.784811  1
  La  La1  1  0.750000  0.457686  0.215189  1
  La  La2  1  0.750000  0.957686  0.284811  1
  La  La3  1  0.250000  0.042314  0.715189  1
  La  La4  1  0.250000  0.675728  0.560402  1
  La  La5  1  0.750000  0.324272  0.439598  1
  La  La6  1  0.750000  0.824272  0.060402  1
  La  La7  1  0.250000  0.175728  0.939598  1
  Al  Al8  1  0.250000  0.501112  0.061071  1
  Al  Al9  1  0.750000  0.498888  0.938929  1
  Al  Al10  1  0.750000  0.998888  0.561071  1
  Al  Al11  1  0.250000  0.001112  0.438929  1
  In  In12  1  0.250000  0.628082  0.350508  1
  In  In13  1  0.750000  0.371918  0.649492  1
  In  In14  1  0.750000  0.871918  0.850508  1
  In  In15  1  0.250000  0.128082  0.149492  1
  Rh  Rh16  1  0.250000  0.745109  0.176965  1
  Rh  Rh17  1  0.750000  0.254891  0.823035  1
  Rh  Rh18  1  0.750000  0.754891  0.676965  1
  Rh  Rh19  1  0.250000  0.245109  0.323035  1
  Rh  Rh20  1  0.250000  0.704230  0.935346  1
  Rh  Rh21  1  0.750000  0.295770  0.064654  1
  Rh  Rh22  1  0.750000  0.795770  0.435346  1
  Rh  Rh23  1  0.250000  0.204230  0.564654  1
