# generated using pymatgen
data_Ta9SO25
_symmetry_space_group_name_H-M   'P 1'
_cell_length_a   3.84453071
_cell_length_b   11.21796775
_cell_length_c   11.21796800
_cell_angle_alpha   88.31739335
_cell_angle_beta   80.13333699
_cell_angle_gamma   80.13333766
_symmetry_Int_Tables_number   1
_chemical_formula_structural   Ta9SO25
_chemical_formula_sum   'Ta9 S1 O25'
_cell_volume   469.60058747
_cell_formula_units_Z   1
loop_
 _symmetry_equiv_pos_site_id
 _symmetry_equiv_pos_as_xyz
  1  'x, y, z'
loop_
 _atom_site_type_symbol
 _atom_site_label
 _atom_site_symmetry_multiplicity
 _atom_site_fract_x
 _atom_site_fract_y
 _atom_site_fract_z
 _atom_site_occupancy
  Ta  Ta0  1  0.999994  0.999998  0.999986  1
  Ta  Ta1  1  0.786288  0.324171  0.119841  1
  Ta  Ta2  1  0.128838  0.555227  0.204397  1
  Ta  Ta3  1  0.889451  0.880178  0.324189  1
  Ta  Ta4  1  0.666736  0.204389  0.444793  1
  Ta  Ta5  1  0.316190  0.795631  0.555231  1
  Ta  Ta6  1  0.093950  0.119859  0.675813  1
  Ta  Ta7  1  0.888120  0.444782  0.795608  1
  Ta  Ta8  1  0.230406  0.675829  0.880171  1
  S  S9  1  0.250031  0.500006  0.500000  1
  O  O10  1  0.499978  0.000011  0.000003  1
  O  O11  1  0.188984  0.604775  0.041810  1
  O  O12  1  0.887002  0.167904  0.065109  1
  O  O13  1  0.254354  0.365248  0.142693  1
  O  O14  1  0.944828  0.934898  0.167909  1
  O  O15  1  0.654917  0.509791  0.203466  1
  O  O16  1  0.008740  0.707428  0.270374  1
  O  O17  1  0.720241  0.270384  0.292560  1
  O  O18  1  0.380021  0.857298  0.365250  1
  O  O19  1  0.098340  0.481273  0.390052  1
  O  O20  1  0.769144  0.041814  0.395211  1
  O  O21  1  0.420709  0.609910  0.481301  1
  O  O22  1  0.141552  0.203482  0.490209  1
  O  O23  1  0.835898  0.796505  0.509805  1
  O  O24  1  0.511718  0.390016  0.518765  1
  O  O25  1  0.207105  0.958187  0.604775  1
  O  O26  1  0.969389  0.518743  0.609935  1
  O  O27  1  0.602950  0.142716  0.634770  1
  O  O28  1  0.284136  0.729657  0.707417  1
  O  O29  1  0.986772  0.292581  0.729617  1
  O  O30  1  0.367639  0.490191  0.796508  1
  O  O31  1  0.047880  0.065106  0.832073  1
  O  O32  1  0.762693  0.634721  0.857303  1
  O  O33  1  0.120230  0.832101  0.934900  1
  O  O34  1  0.834767  0.395194  0.958157  1
