# generated using pymatgen
data_DyY12Ho3(InRh)4
_symmetry_space_group_name_H-M   'P 1'
_cell_length_a   9.69024797
_cell_length_b   9.69644431
_cell_length_c   9.67843578
_cell_angle_alpha   59.94837744
_cell_angle_beta   59.98745110
_cell_angle_gamma   60.11402942
_symmetry_Int_Tables_number   1
_chemical_formula_structural   DyY12Ho3(InRh)4
_chemical_formula_sum   'Dy1 Y12 Ho3 In4 Rh4'
_cell_volume   643.27871813
_cell_formula_units_Z   1
loop_
 _symmetry_equiv_pos_site_id
 _symmetry_equiv_pos_as_xyz
  1  'x, y, z'
loop_
 _atom_site_type_symbol
 _atom_site_label
 _atom_site_symmetry_multiplicity
 _atom_site_fract_x
 _atom_site_fract_y
 _atom_site_fract_z
 _atom_site_occupancy
  Dy  Dy0  1  0.549911  0.148426  0.148214  1
  Y  Y1  1  0.690522  0.310085  0.310239  1
  Y  Y2  1  0.690139  0.689968  0.310564  1
  Y  Y3  1  0.309935  0.690573  0.310126  1
  Y  Y4  1  0.937245  0.937280  0.562223  1
  Y  Y5  1  0.147230  0.147223  0.553327  1
  Y  Y6  1  0.560490  0.937690  0.560462  1
  Y  Y7  1  0.152069  0.152061  0.151663  1
  Y  Y8  1  0.310484  0.310528  0.690227  1
  Y  Y9  1  0.937786  0.560474  0.560260  1
  Y  Y10  1  0.559772  0.559891  0.937951  1
  Y  Y11  1  0.562277  0.937612  0.936985  1
  Y  Y12  1  0.937678  0.562250  0.937087  1
  Ho  Ho13  1  0.148483  0.549678  0.148269  1
  Ho  Ho14  1  0.311330  0.689376  0.689364  1
  Ho  Ho15  1  0.689352  0.311463  0.689120  1
  In  In16  1  0.917883  0.917612  0.249133  1
  In  In17  1  0.249087  0.917784  0.918141  1
  In  In18  1  0.917882  0.249079  0.917994  1
  In  In19  1  0.916764  0.916513  0.916935  1
  Rh  Rh20  1  0.356934  0.357511  0.354787  1
  Rh  Rh21  1  0.926644  0.359316  0.360435  1
  Rh  Rh22  1  0.360952  0.361272  0.925956  1
  Rh  Rh23  1  0.359151  0.926334  0.360536  1
