# generated using pymatgen
data_U4Mn3Si2Ni3
_symmetry_space_group_name_H-M   'P 1'
_cell_length_a   5.02909982
_cell_length_b   5.14396353
_cell_length_c   7.65045200
_cell_angle_alpha   90.00000000
_cell_angle_beta   90.00000000
_cell_angle_gamma   117.10872157
_symmetry_Int_Tables_number   1
_chemical_formula_structural   U4Mn3Si2Ni3
_chemical_formula_sum   'U4 Mn3 Si2 Ni3'
_cell_volume   176.17132979
_cell_formula_units_Z   1
loop_
 _symmetry_equiv_pos_site_id
 _symmetry_equiv_pos_as_xyz
  1  'x, y, z'
loop_
 _atom_site_type_symbol
 _atom_site_label
 _atom_site_symmetry_multiplicity
 _atom_site_fract_x
 _atom_site_fract_y
 _atom_site_fract_z
 _atom_site_occupancy
  U  U0  1  0.662278  0.348979  0.423905  1
  U  U1  1  0.342491  0.655736  0.571029  1
  U  U2  1  0.342491  0.655736  0.928971  1
  U  U3  1  0.662278  0.348979  0.076095  1
  Mn  Mn4  1  0.661009  0.834176  0.250000  1
  Mn  Mn5  1  0.837690  0.663321  0.750000  1
  Mn  Mn6  1  0.160742  0.333455  0.250000  1
  Si  Si7  1  0.997633  0.998574  0.999362  1
  Si  Si8  1  0.997633  0.998574  0.500638  1
  Ni  Ni9  1  0.833773  0.168706  0.750000  1
  Ni  Ni10  1  0.168124  0.835983  0.250000  1
  Ni  Ni11  1  0.333857  0.157779  0.750000  1
