# generated using pymatgen
data_Nd6Y10Cd3AgIr4
_symmetry_space_group_name_H-M   'P 1'
_cell_length_a   9.76830460
_cell_length_b   9.76830547
_cell_length_c   9.76830501
_cell_angle_alpha   60.03712041
_cell_angle_beta   60.03711695
_cell_angle_gamma   60.03712276
_symmetry_Int_Tables_number   1
_chemical_formula_structural   Nd6Y10Cd3AgIr4
_chemical_formula_sum   'Nd6 Y10 Cd3 Ag1 Ir4'
_cell_volume   659.64139934
_cell_formula_units_Z   1
loop_
 _symmetry_equiv_pos_site_id
 _symmetry_equiv_pos_as_xyz
  1  'x, y, z'
loop_
 _atom_site_type_symbol
 _atom_site_label
 _atom_site_symmetry_multiplicity
 _atom_site_fract_x
 _atom_site_fract_y
 _atom_site_fract_z
 _atom_site_occupancy
  Nd  Nd0  1  0.936836  0.560022  0.560022  1
  Nd  Nd1  1  0.559652  0.938999  0.938999  1
  Nd  Nd2  1  0.560022  0.936836  0.560022  1
  Nd  Nd3  1  0.938999  0.559652  0.938999  1
  Nd  Nd4  1  0.560022  0.560022  0.936836  1
  Nd  Nd5  1  0.938999  0.938999  0.559652  1
  Y  Y6  1  0.347585  0.347585  0.347585  1
  Y  Y7  1  0.349201  0.349201  0.954998  1
  Y  Y8  1  0.349201  0.954998  0.349201  1
  Y  Y9  1  0.954998  0.349201  0.349201  1
  Y  Y10  1  0.811207  0.188146  0.188146  1
  Y  Y11  1  0.186807  0.811838  0.811838  1
  Y  Y12  1  0.188146  0.811207  0.188146  1
  Y  Y13  1  0.811838  0.186807  0.811838  1
  Y  Y14  1  0.188146  0.188146  0.811207  1
  Y  Y15  1  0.811838  0.811838  0.186807  1
  Cd  Cd16  1  0.580015  0.580015  0.262708  1
  Cd  Cd17  1  0.580015  0.262708  0.580015  1
  Cd  Cd18  1  0.262708  0.580015  0.580015  1
  Ag  Ag19  1  0.581526  0.581526  0.581526  1
  Ir  Ir20  1  0.141431  0.141431  0.141431  1
  Ir  Ir21  1  0.142112  0.142112  0.576583  1
  Ir  Ir22  1  0.142112  0.576583  0.142112  1
  Ir  Ir23  1  0.576583  0.142112  0.142112  1
