# generated using pymatgen
data_Ho16Lu4Ir11Os
_symmetry_space_group_name_H-M   'P 1'
_cell_length_a   10.79806900
_cell_length_b   10.79806900
_cell_length_c   6.35391700
_cell_angle_alpha   90.00000000
_cell_angle_beta   90.00000000
_cell_angle_gamma   90.00000000
_symmetry_Int_Tables_number   1
_chemical_formula_structural   Ho16Lu4Ir11Os
_chemical_formula_sum   'Ho16 Lu4 Ir11 Os1'
_cell_volume   740.85588324
_cell_formula_units_Z   1
loop_
 _symmetry_equiv_pos_site_id
 _symmetry_equiv_pos_as_xyz
  1  'x, y, z'
loop_
 _atom_site_type_symbol
 _atom_site_label
 _atom_site_symmetry_multiplicity
 _atom_site_fract_x
 _atom_site_fract_y
 _atom_site_fract_z
 _atom_site_occupancy
  Ho  Ho0  1  0.291753  0.086688  0.375628  1
  Ho  Ho1  1  0.292109  0.913359  0.879307  1
  Ho  Ho2  1  0.707891  0.086641  0.879307  1
  Ho  Ho3  1  0.708247  0.913312  0.375628  1
  Ho  Ho4  1  0.586641  0.792109  0.879307  1
  Ho  Ho5  1  0.586688  0.208247  0.375628  1
  Ho  Ho6  1  0.413312  0.791753  0.375628  1
  Ho  Ho7  1  0.413359  0.207891  0.879307  1
  Ho  Ho8  1  0.210072  0.412347  0.622200  1
  Ho  Ho9  1  0.210004  0.587505  0.121955  1
  Ho  Ho10  1  0.789996  0.412495  0.121955  1
  Ho  Ho11  1  0.789928  0.587653  0.622200  1
  Ho  Ho12  1  0.912495  0.710004  0.121955  1
  Ho  Ho13  1  0.912347  0.289928  0.622200  1
  Ho  Ho14  1  0.087653  0.710072  0.622200  1
  Ho  Ho15  1  0.087505  0.289996  0.121955  1
  Lu  Lu16  1  0.000000  0.000000  0.499708  1
  Lu  Lu17  1  0.000000  0.000000  0.999734  1
  Lu  Lu18  1  0.500000  0.500000  0.999734  1
  Lu  Lu19  1  0.500000  0.500000  0.499708  1
  Ir  Ir20  1  0.849138  0.151934  0.250274  1
  Ir  Ir21  1  0.849163  0.848255  0.749998  1
  Ir  Ir22  1  0.150837  0.151745  0.749998  1
  Ir  Ir23  1  0.150862  0.848066  0.250274  1
  Ir  Ir24  1  0.651745  0.349163  0.749998  1
  Ir  Ir25  1  0.651934  0.650862  0.250274  1
  Ir  Ir26  1  0.348066  0.349138  0.250274  1
  Ir  Ir27  1  0.348255  0.650837  0.749998  1
  Ir  Ir28  1  0.500000  0.000000  0.622806  1
  Ir  Ir29  1  0.000000  0.500000  0.878016  1
  Ir  Ir30  1  0.000000  0.500000  0.378155  1
  Os  Os31  1  0.500000  0.000000  0.124690  1
