# generated using pymatgen
data_Cs2MoOF5
_symmetry_space_group_name_H-M   'P 1'
_cell_length_a   8.34192607
_cell_length_b   8.34192695
_cell_length_c   7.51244400
_cell_angle_alpha   90.00000000
_cell_angle_beta   90.00000000
_cell_angle_gamma   134.95929534
_symmetry_Int_Tables_number   1
_chemical_formula_structural   Cs2MoOF5
_chemical_formula_sum   'Cs4 Mo2 O2 F10'
_cell_volume   369.91955142
_cell_formula_units_Z   2
loop_
 _symmetry_equiv_pos_site_id
 _symmetry_equiv_pos_as_xyz
  1  'x, y, z'
loop_
 _atom_site_type_symbol
 _atom_site_label
 _atom_site_symmetry_multiplicity
 _atom_site_fract_x
 _atom_site_fract_y
 _atom_site_fract_z
 _atom_site_occupancy
  Cs  Cs0  1  0.558780  0.441220  0.750000  1
  Cs  Cs1  1  0.441220  0.558780  0.250000  1
  Cs  Cs2  1  0.230183  0.769817  0.750000  1
  Cs  Cs3  1  0.769817  0.230183  0.250000  1
  Mo  Mo4  1  0.892846  0.107154  0.750000  1
  Mo  Mo5  1  0.107154  0.892846  0.250000  1
  O  O6  1  0.004984  0.995016  0.750000  1
  O  O7  1  0.995016  0.004984  0.250000  1
  F  F8  1  0.758559  0.241441  0.750000  1
  F  F9  1  0.241441  0.758559  0.250000  1
  F  F10  1  0.652167  0.895715  0.565615  1
  F  F11  1  0.895715  0.652167  0.434385  1
  F  F12  1  0.652167  0.895715  0.934385  1
  F  F13  1  0.895715  0.652167  0.065615  1
  F  F14  1  0.347833  0.104285  0.434385  1
  F  F15  1  0.104285  0.347833  0.565615  1
  F  F16  1  0.347833  0.104285  0.065615  1
  F  F17  1  0.104285  0.347833  0.934385  1
