# generated using pymatgen
data_CePa5(Sn4Pd3)2
_symmetry_space_group_name_H-M   'P 1'
_cell_length_a   8.39211677
_cell_length_b   8.39211734
_cell_length_c   8.39211700
_cell_angle_alpha   109.50248189
_cell_angle_beta   109.45557794
_cell_angle_gamma   109.45558879
_symmetry_Int_Tables_number   1
_chemical_formula_structural   CePa5(Sn4Pd3)2
_chemical_formula_sum   'Ce1 Pa5 Sn8 Pd6'
_cell_volume   454.98041575
_cell_formula_units_Z   1
loop_
 _symmetry_equiv_pos_site_id
 _symmetry_equiv_pos_as_xyz
  1  'x, y, z'
loop_
 _atom_site_type_symbol
 _atom_site_label
 _atom_site_symmetry_multiplicity
 _atom_site_fract_x
 _atom_site_fract_y
 _atom_site_fract_z
 _atom_site_occupancy
  Ce  Ce0  1  0.749965  0.874966  0.124974  1
  Pa  Pa1  1  0.875040  0.123927  0.750854  1
  Pa  Pa2  1  0.126919  0.751417  0.876074  1
  Pa  Pa3  1  0.373671  0.249213  0.624392  1
  Pa  Pa4  1  0.624484  0.375413  0.248622  1
  Pa  Pa5  1  0.249780  0.625204  0.374956  1
  Sn  Sn6  1  0.501356  0.001177  0.823901  1
  Sn  Sn7  1  0.177494  0.176117  0.177658  1
  Sn  Sn8  1  0.502468  0.001701  0.324535  1
  Sn  Sn9  1  0.822714  0.500803  0.998373  1
  Sn  Sn10  1  0.997694  0.322052  0.499337  1
  Sn  Sn11  1  0.322253  0.500153  0.998489  1
  Sn  Sn12  1  0.998480  0.822708  0.499932  1
  Sn  Sn13  1  0.677249  0.675373  0.677916  1
  Pd  Pd14  1  0.879737  0.257531  0.126393  1
  Pd  Pd15  1  0.750298  0.374986  0.625401  1
  Pd  Pd16  1  0.249722  0.124862  0.874735  1
  Pd  Pd17  1  0.620612  0.747375  0.378259  1
  Pd  Pd18  1  0.130977  0.873383  0.252894  1
  Pd  Pd19  1  0.369087  0.621638  0.742305  1
