# generated using pymatgen
data_Nd7Y5Sc8Al12O48
_symmetry_space_group_name_H-M   'P 1'
_cell_length_a   10.89804378
_cell_length_b   10.89226997
_cell_length_c   10.89804387
_cell_angle_alpha   109.51554979
_cell_angle_beta   109.40410594
_cell_angle_gamma   109.51554835
_symmetry_Int_Tables_number   1
_chemical_formula_structural   Nd7Y5Sc8Al12O48
_chemical_formula_sum   'Nd7 Y5 Sc8 Al12 O48'
_cell_volume   995.58347724
_cell_formula_units_Z   1
loop_
 _symmetry_equiv_pos_site_id
 _symmetry_equiv_pos_as_xyz
  1  'x, y, z'
loop_
 _atom_site_type_symbol
 _atom_site_label
 _atom_site_symmetry_multiplicity
 _atom_site_fract_x
 _atom_site_fract_y
 _atom_site_fract_z
 _atom_site_occupancy
  Nd  Nd0  1  0.375097  0.124959  0.250108  1
  Nd  Nd1  1  0.125148  0.375041  0.750138  1
  Nd  Nd2  1  0.375000  0.750000  0.125000  1
  Nd  Nd3  1  0.125000  0.250000  0.375000  1
  Nd  Nd4  1  0.249892  0.375041  0.124903  1
  Nd  Nd5  1  0.749862  0.124959  0.374852  1
  Nd  Nd6  1  0.875000  0.750000  0.625000  1
  Y  Y7  1  0.874707  0.624534  0.248926  1
  Y  Y8  1  0.624392  0.875466  0.750173  1
  Y  Y9  1  0.749827  0.624534  0.875608  1
  Y  Y10  1  0.251074  0.875466  0.625293  1
  Y  Y11  1  0.625000  0.250000  0.875000  1
  Sc  Sc12  1  0.500262  0.999886  0.997259  1
  Sc  Sc13  1  0.997373  0.500114  0.000377  1
  Sc  Sc14  1  0.000283  0.997671  0.498809  1
  Sc  Sc15  1  0.502741  0.500114  0.999738  1
  Sc  Sc16  1  0.501138  0.502329  0.502611  1
  Sc  Sc17  1  0.001191  0.502329  0.499717  1
  Sc  Sc18  1  0.499623  0.999886  0.502627  1
  Sc  Sc19  1  0.997389  0.997671  0.998862  1
  Al  Al20  1  0.124724  0.750000  0.874724  1
  Al  Al21  1  0.872903  0.250000  0.122903  1
  Al  Al22  1  0.626677  0.376200  0.248730  1
  Al  Al23  1  0.749961  0.872786  0.122821  1
  Al  Al24  1  0.872530  0.123800  0.750477  1
  Al  Al25  1  0.250034  0.627214  0.377174  1
  Al  Al26  1  0.749523  0.376200  0.627470  1
  Al  Al27  1  0.251270  0.123800  0.873323  1
  Al  Al28  1  0.122826  0.872786  0.249966  1
  Al  Al29  1  0.377097  0.250000  0.627097  1
  Al  Al30  1  0.625276  0.750000  0.375276  1
  Al  Al31  1  0.377179  0.627214  0.750039  1
  O  O32  1  0.481865  0.380121  0.291675  1
  O  O33  1  0.311441  0.899018  0.019837  1
  O  O34  1  0.601694  0.911631  0.120147  1
  O  O35  1  0.588069  0.189297  0.208186  1
  O  O36  1  0.120419  0.019125  0.209320  1
  O  O37  1  0.189963  0.208858  0.588243  1
  O  O38  1  0.190194  0.480875  0.601294  1
  O  O39  1  0.208518  0.588369  0.190063  1
  O  O40  1  0.379853  0.588369  0.898306  1
  O  O41  1  0.911757  0.291142  0.310037  1
  O  O42  1  0.291814  0.310703  0.911931  1
  O  O43  1  0.208325  0.119879  0.018135  1
  O  O44  1  0.480163  0.600982  0.188559  1
  O  O45  1  0.898256  0.380121  0.588445  1
  O  O46  1  0.018894  0.208858  0.120614  1
  O  O47  1  0.601228  0.189297  0.481111  1
  O  O48  1  0.587577  0.899018  0.379181  1
  O  O49  1  0.018889  0.310703  0.898772  1
  O  O50  1  0.911555  0.119879  0.601744  1
  O  O51  1  0.626721  0.413540  0.100195  1
  O  O52  1  0.120819  0.600982  0.912423  1
  O  O53  1  0.290680  0.480875  0.379581  1
  O  O54  1  0.898706  0.019125  0.309806  1
  O  O55  1  0.309937  0.911631  0.291482  1
  O  O56  1  0.526257  0.627506  0.713562  1
  O  O57  1  0.687268  0.101153  0.973695  1
  O  O58  1  0.399805  0.086460  0.873279  1
  O  O59  1  0.414718  0.813177  0.786819  1
  O  O60  1  0.872350  0.976165  0.789439  1
  O  O61  1  0.810030  0.786895  0.408416  1
  O  O62  1  0.813275  0.523835  0.396185  1
  O  O63  1  0.786817  0.413540  0.813344  1
  O  O64  1  0.686656  0.086460  0.713183  1
  O  O65  1  0.103815  0.976165  0.686725  1
  O  O66  1  0.710561  0.523835  0.627650  1
  O  O67  1  0.621520  0.713105  0.523134  1
  O  O68  1  0.872542  0.398847  0.086114  1
  O  O69  1  0.086056  0.872494  0.398751  1
  O  O70  1  0.973643  0.686823  0.101541  1
  O  O71  1  0.413886  0.101153  0.627458  1
  O  O72  1  0.398459  0.813177  0.526357  1
  O  O73  1  0.976866  0.786895  0.878480  1
  O  O74  1  0.101249  0.627506  0.413944  1
  O  O75  1  0.526305  0.398847  0.812732  1
  O  O76  1  0.786438  0.872494  0.973743  1
  O  O77  1  0.713181  0.686823  0.085282  1
  O  O78  1  0.091584  0.713105  0.689970  1
  O  O79  1  0.379386  0.291142  0.481106  1
