# generated using pymatgen
data_Tb3Cd3SnPbAu
_symmetry_space_group_name_H-M   'P 1'
_cell_length_a   7.51589000
_cell_length_b   7.51589115
_cell_length_c   4.59942900
_cell_angle_alpha   90.00000000
_cell_angle_beta   90.00000000
_cell_angle_gamma   119.99999494
_symmetry_Int_Tables_number   1
_chemical_formula_structural   Tb3Cd3SnPbAu
_chemical_formula_sum   'Tb3 Cd3 Sn1 Pb1 Au1'
_cell_volume   225.00671026
_cell_formula_units_Z   1
loop_
 _symmetry_equiv_pos_site_id
 _symmetry_equiv_pos_as_xyz
  1  'x, y, z'
loop_
 _atom_site_type_symbol
 _atom_site_label
 _atom_site_symmetry_multiplicity
 _atom_site_fract_x
 _atom_site_fract_y
 _atom_site_fract_z
 _atom_site_occupancy
  Tb  Tb0  1  0.595758  0.002880  0.000000  1
  Tb  Tb1  1  0.997120  0.592878  0.000000  1
  Tb  Tb2  1  0.407122  0.404242  0.000000  1
  Cd  Cd3  1  0.238260  0.003594  0.500000  1
  Cd  Cd4  1  0.996406  0.234667  0.500000  1
  Cd  Cd5  1  0.765333  0.761740  0.500000  1
  Sn  Sn6  1  0.666667  0.333333  0.500000  1
  Pb  Pb7  1  0.333333  0.666667  0.500000  1
  Au  Au8  1  0.000000  0.000000  0.000000  1
