# generated using pymatgen
data_Lu2FeSi5Os2
_symmetry_space_group_name_H-M   'P 1'
_cell_length_a   8.14166109
_cell_length_b   8.12911337
_cell_length_c   5.48344015
_cell_angle_alpha   70.32307282
_cell_angle_beta   70.34960076
_cell_angle_gamma   95.32369084
_symmetry_Int_Tables_number   1
_chemical_formula_structural   Lu2FeSi5Os2
_chemical_formula_sum   'Lu4 Fe2 Si10 Os4'
_cell_volume   313.01977085
_cell_formula_units_Z   2
loop_
 _symmetry_equiv_pos_site_id
 _symmetry_equiv_pos_as_xyz
  1  'x, y, z'
loop_
 _atom_site_type_symbol
 _atom_site_label
 _atom_site_symmetry_multiplicity
 _atom_site_fract_x
 _atom_site_fract_y
 _atom_site_fract_z
 _atom_site_occupancy
  Lu  Lu0  1  0.130929  0.408564  0.723211  1
  Lu  Lu1  1  0.597572  0.874916  0.770992  1
  Lu  Lu2  1  0.868917  0.591463  0.260713  1
  Lu  Lu3  1  0.405792  0.131176  0.239960  1
  Fe  Fe4  1  0.998203  0.998474  0.252733  1
  Fe  Fe5  1  0.739816  0.443514  0.906033  1
  Si  Si6  1  0.795657  0.211049  0.236982  1
  Si  Si7  1  0.202146  0.791454  0.746547  1
  Si  Si8  1  0.509087  0.500211  0.236487  1
  Si  Si9  1  0.509330  0.501000  0.752751  1
  Si  Si10  1  0.199558  0.793841  0.258296  1
  Si  Si11  1  0.794473  0.212322  0.757184  1
  Si  Si12  1  0.740375  0.924206  0.181024  1
  Si  Si13  1  0.916482  0.728259  0.664819  1
  Si  Si14  1  0.256527  0.078662  0.847597  1
  Si  Si15  1  0.074600  0.260858  0.318977  1
  Os  Os16  1  0.998888  0.998652  0.749855  1
  Os  Os17  1  0.552687  0.255430  0.599328  1
  Os  Os18  1  0.259535  0.555722  0.091527  1
  Os  Os19  1  0.449428  0.740226  0.404983  1
