# generated using pymatgen
data_Y5PtRh2
_symmetry_space_group_name_H-M   'P 1'
_cell_length_a   10.95098400
_cell_length_b   10.95098400
_cell_length_c   6.39870600
_cell_angle_alpha   90.00000000
_cell_angle_beta   90.00000000
_cell_angle_gamma   90.00000000
_symmetry_Int_Tables_number   1
_chemical_formula_structural   Y5PtRh2
_chemical_formula_sum   'Y20 Pt4 Rh8'
_cell_volume   767.35874192
_cell_formula_units_Z   4
loop_
 _symmetry_equiv_pos_site_id
 _symmetry_equiv_pos_as_xyz
  1  'x, y, z'
loop_
 _atom_site_type_symbol
 _atom_site_label
 _atom_site_symmetry_multiplicity
 _atom_site_fract_x
 _atom_site_fract_y
 _atom_site_fract_z
 _atom_site_occupancy
  Y  Y0  1  0.291021  0.088034  0.380526  1
  Y  Y1  1  0.291021  0.911966  0.880526  1
  Y  Y2  1  0.708979  0.088034  0.880526  1
  Y  Y3  1  0.708979  0.911966  0.380526  1
  Y  Y4  1  0.590286  0.793423  0.874892  1
  Y  Y5  1  0.590286  0.206577  0.374892  1
  Y  Y6  1  0.409714  0.793423  0.374892  1
  Y  Y7  1  0.409714  0.206577  0.874892  1
  Y  Y8  1  0.206577  0.409714  0.625108  1
  Y  Y9  1  0.206577  0.590286  0.125108  1
  Y  Y10  1  0.793423  0.409714  0.125108  1
  Y  Y11  1  0.793423  0.590286  0.625108  1
  Y  Y12  1  0.911966  0.708979  0.119474  1
  Y  Y13  1  0.911966  0.291021  0.619474  1
  Y  Y14  1  0.088034  0.708979  0.619474  1
  Y  Y15  1  0.088034  0.291021  0.119474  1
  Y  Y16  1  0.000000  0.000000  0.500000  1
  Y  Y17  1  0.000000  0.000000  0.000000  1
  Y  Y18  1  0.500000  0.500000  0.000000  1
  Y  Y19  1  0.500000  0.500000  0.500000  1
  Pt  Pt20  1  0.654468  0.345532  0.750000  1
  Pt  Pt21  1  0.654468  0.654468  0.250000  1
  Pt  Pt22  1  0.345532  0.345532  0.250000  1
  Pt  Pt23  1  0.345532  0.654468  0.750000  1
  Rh  Rh24  1  0.844886  0.155114  0.250000  1
  Rh  Rh25  1  0.844886  0.844886  0.750000  1
  Rh  Rh26  1  0.155114  0.155114  0.750000  1
  Rh  Rh27  1  0.155114  0.844886  0.250000  1
  Rh  Rh28  1  0.500000  0.000000  0.125663  1
  Rh  Rh29  1  0.500000  0.000000  0.625663  1
  Rh  Rh30  1  0.000000  0.500000  0.874337  1
  Rh  Rh31  1  0.000000  0.500000  0.374337  1
