# generated using pymatgen
data_Tb4Er3Lu5Co5Bi
_symmetry_space_group_name_H-M   'P 1'
_cell_length_a   8.23305414
_cell_length_b   8.23305501
_cell_length_c   8.22353982
_cell_angle_alpha   111.35933060
_cell_angle_beta   110.54346923
_cell_angle_gamma   106.60026893
_symmetry_Int_Tables_number   1
_chemical_formula_structural   Tb4Er3Lu5Co5Bi
_chemical_formula_sum   'Tb4 Er3 Lu5 Co5 Bi1'
_cell_volume   427.99894641
_cell_formula_units_Z   1
loop_
 _symmetry_equiv_pos_site_id
 _symmetry_equiv_pos_as_xyz
  1  'x, y, z'
loop_
 _atom_site_type_symbol
 _atom_site_label
 _atom_site_symmetry_multiplicity
 _atom_site_fract_x
 _atom_site_fract_y
 _atom_site_fract_z
 _atom_site_occupancy
  Tb  Tb0  1  0.596161  0.792185  0.805131  1
  Tb  Tb1  1  0.404857  0.208841  0.195420  1
  Tb  Tb2  1  0.986580  0.790564  0.195420  1
  Tb  Tb3  1  0.012945  0.208969  0.805131  1
  Er  Er4  1  0.816729  0.710267  0.526996  1
  Er  Er5  1  0.182503  0.289276  0.471778  1
  Er  Er6  1  0.183379  0.710625  0.894005  1
  Lu  Lu7  1  0.817469  0.289333  0.106802  1
  Lu  Lu8  1  0.686896  0.376167  0.690052  1
  Lu  Lu9  1  0.312630  0.623415  0.310305  1
  Lu  Lu10  1  0.686891  0.997675  0.310305  1
  Lu  Lu11  1  0.313885  0.003156  0.690052  1
  Co  Co12  1  0.623644  0.000419  0.624062  1
  Co  Co13  1  0.376513  0.000083  0.376596  1
  Co  Co14  1  0.111860  0.611704  0.498848  1
  Co  Co15  1  0.887144  0.386988  0.498848  1
  Co  Co16  1  0.999977  0.000310  0.000287  1
  Bi  Bi17  1  0.499938  0.500023  0.999961  1
