# generated using pymatgen
data_Ca6TbErSb6
_symmetry_space_group_name_H-M   'P 1'
_cell_length_a   8.14293000
_cell_length_b   8.14337498
_cell_length_c   8.21296423
_cell_angle_alpha   109.49095630
_cell_angle_beta   109.44619536
_cell_angle_gamma   109.02183177
_symmetry_Int_Tables_number   1
_chemical_formula_structural   Ca6TbErSb6
_chemical_formula_sum   'Ca6 Tb1 Er1 Sb6'
_cell_volume   421.57007722
_cell_formula_units_Z   1
loop_
 _symmetry_equiv_pos_site_id
 _symmetry_equiv_pos_as_xyz
  1  'x, y, z'
loop_
 _atom_site_type_symbol
 _atom_site_label
 _atom_site_symmetry_multiplicity
 _atom_site_fract_x
 _atom_site_fract_y
 _atom_site_fract_z
 _atom_site_occupancy
  Ca  Ca0  1  0.999700  0.141031  0.497440  1
  Ca  Ca1  1  0.356693  0.354421  0.357191  1
  Ca  Ca2  1  0.640681  0.499585  0.996962  1
  Ca  Ca3  1  0.854269  0.856888  0.857622  1
  Ca  Ca4  1  0.502598  0.003078  0.645613  1
  Ca  Ca5  1  0.502506  0.001897  0.145472  1
  Tb  Tb6  1  0.999679  0.643357  0.499507  1
  Er  Er7  1  0.142718  0.499854  0.999642  1
  Sb  Sb8  1  0.243851  0.123730  0.871495  1
  Sb  Sb9  1  0.125463  0.864838  0.248919  1
  Sb  Sb10  1  0.761157  0.381690  0.630448  1
  Sb  Sb11  1  0.882591  0.260676  0.127857  1
  Sb  Sb12  1  0.621587  0.743615  0.370545  1
  Sb  Sb13  1  0.366505  0.625338  0.751287  1
