# generated using pymatgen
data_Nd5MnFeO12
_symmetry_space_group_name_H-M   'P 1'
_cell_length_a   7.02186200
_cell_length_b   7.02186287
_cell_length_c   7.53511941
_cell_angle_alpha   74.57604970
_cell_angle_beta   74.57604988
_cell_angle_gamma   50.37913577
_symmetry_Int_Tables_number   1
_chemical_formula_structural   Nd5MnFeO12
_chemical_formula_sum   'Nd5 Mn1 Fe1 O12'
_cell_volume   273.54342642
_cell_formula_units_Z   1
loop_
 _symmetry_equiv_pos_site_id
 _symmetry_equiv_pos_as_xyz
  1  'x, y, z'
loop_
 _atom_site_type_symbol
 _atom_site_label
 _atom_site_symmetry_multiplicity
 _atom_site_fract_x
 _atom_site_fract_y
 _atom_site_fract_z
 _atom_site_occupancy
  Nd  Nd0  1  0.303940  0.308156  0.356056  1
  Nd  Nd1  1  0.691844  0.696060  0.643944  1
  Nd  Nd2  1  0.697060  0.694570  0.161625  1
  Nd  Nd3  1  0.305430  0.302940  0.838375  1
  Nd  Nd4  1  0.996209  0.003791  0.500000  1
  Mn  Mn5  1  0.245082  0.754918  0.000000  1
  Fe  Fe6  1  0.758674  0.241326  0.000000  1
  O  O7  1  0.094548  0.597215  0.579334  1
  O  O8  1  0.997312  0.000677  0.170018  1
  O  O9  1  0.402785  0.905452  0.420666  1
  O  O10  1  0.502596  0.498602  0.169322  1
  O  O11  1  0.102094  0.582665  0.076803  1
  O  O12  1  0.902445  0.403384  0.423103  1
  O  O13  1  0.999323  0.002688  0.829982  1
  O  O14  1  0.596616  0.097554  0.576897  1
  O  O15  1  0.501398  0.497404  0.830678  1
  O  O16  1  0.588611  0.103301  0.076334  1
  O  O17  1  0.417335  0.897906  0.923197  1
  O  O18  1  0.896699  0.411389  0.923666  1
