# generated using pymatgen
data_Sc4Fe6SiGe
_symmetry_space_group_name_H-M   'P 1'
_cell_length_a   4.99860008
_cell_length_b   4.99860025
_cell_length_c   7.95341400
_cell_angle_alpha   90.00296273
_cell_angle_beta   89.99703719
_cell_angle_gamma   119.98798678
_symmetry_Int_Tables_number   1
_chemical_formula_structural   Sc4Fe6SiGe
_chemical_formula_sum   'Sc4 Fe6 Si1 Ge1'
_cell_volume   172.12088849
_cell_formula_units_Z   1
loop_
 _symmetry_equiv_pos_site_id
 _symmetry_equiv_pos_as_xyz
  1  'x, y, z'
loop_
 _atom_site_type_symbol
 _atom_site_label
 _atom_site_symmetry_multiplicity
 _atom_site_fract_x
 _atom_site_fract_y
 _atom_site_fract_z
 _atom_site_occupancy
  Sc  Sc0  1  0.666665  0.333335  0.063470  1
  Sc  Sc1  1  0.333335  0.666665  0.936530  1
  Sc  Sc2  1  0.333335  0.666665  0.564133  1
  Sc  Sc3  1  0.666665  0.333335  0.435867  1
  Fe  Fe4  1  0.827061  0.654114  0.753868  1
  Fe  Fe5  1  0.827074  0.172926  0.753863  1
  Fe  Fe6  1  0.345886  0.172939  0.753868  1
  Fe  Fe7  1  0.172939  0.345886  0.246132  1
  Fe  Fe8  1  0.172926  0.827074  0.246137  1
  Fe  Fe9  1  0.654114  0.827061  0.246132  1
  Si  Si10  1  0.000000  0.000000  0.000000  1
  Ge  Ge11  1  0.000000  0.000000  0.500000  1
