# generated using pymatgen
data_PrNd11(GaI3)4
_symmetry_space_group_name_H-M   'P 1'
_cell_length_a   10.88218676
_cell_length_b   10.88126841
_cell_length_c   10.88482207
_cell_angle_alpha   109.46696075
_cell_angle_beta   109.48789175
_cell_angle_gamma   109.45844466
_symmetry_Int_Tables_number   1
_chemical_formula_structural   PrNd11(GaI3)4
_chemical_formula_sum   'Pr1 Nd11 Ga4 I12'
_cell_volume   992.19509092
_cell_formula_units_Z   1
loop_
 _symmetry_equiv_pos_site_id
 _symmetry_equiv_pos_as_xyz
  1  'x, y, z'
loop_
 _atom_site_type_symbol
 _atom_site_label
 _atom_site_symmetry_multiplicity
 _atom_site_fract_x
 _atom_site_fract_y
 _atom_site_fract_z
 _atom_site_occupancy
  Pr  Pr0  1  0.236208  0.472396  0.486172  1
  Nd  Nd1  1  0.028465  0.264187  0.014157  1
  Nd  Nd2  1  0.749766  0.014019  0.485689  1
  Nd  Nd3  1  0.264203  0.750016  0.235771  1
  Nd  Nd4  1  0.485785  0.750015  0.014271  1
  Nd  Nd5  1  0.749853  0.235716  0.264141  1
  Nd  Nd6  1  0.014201  0.485739  0.750058  1
  Nd  Nd7  1  0.235729  0.264198  0.750066  1
  Nd  Nd8  1  0.485837  0.235731  0.471583  1
  Nd  Nd9  1  0.471604  0.485739  0.235723  1
  Nd  Nd10  1  0.264200  0.014012  0.028253  1
  Nd  Nd11  1  0.014127  0.028197  0.264090  1
  Ga  Ga12  1  0.500034  0.999954  0.249995  1
  Ga  Ga13  1  0.249953  0.499945  0.999919  1
  Ga  Ga14  1  0.249943  0.249575  0.249541  1
  Ga  Ga15  1  0.999597  0.249579  0.500073  1
  I  I16  1  0.757125  0.742832  0.250010  1
  I  I17  1  0.991906  0.507050  0.249010  1
  I  I18  1  0.249969  0.757855  0.743517  1
  I  I19  1  0.757149  0.514292  0.507152  1
  I  I20  1  0.507148  0.249967  0.992829  1
  I  I21  1  0.742805  0.992812  0.985654  1
  I  I22  1  0.992819  0.985651  0.742825  1
  I  I23  1  0.515152  0.507059  0.758044  1
  I  I24  1  0.250012  0.992820  0.507166  1
  I  I25  1  0.742818  0.249958  0.757129  1
  I  I26  1  0.507903  0.757867  0.514356  1
  I  I27  1  0.985689  0.742820  0.992808  1
