# generated using pymatgen
data_La3Yb9PdRu3
_symmetry_space_group_name_H-M   'P 1'
_cell_length_a   6.52951274
_cell_length_b   7.56216371
_cell_length_c   9.63047800
_cell_angle_alpha   90.00000000
_cell_angle_beta   90.00000000
_cell_angle_gamma   89.84014040
_symmetry_Int_Tables_number   1
_chemical_formula_structural   La3Yb9PdRu3
_chemical_formula_sum   'La3 Yb9 Pd1 Ru3'
_cell_volume   475.52461386
_cell_formula_units_Z   1
loop_
 _symmetry_equiv_pos_site_id
 _symmetry_equiv_pos_as_xyz
  1  'x, y, z'
loop_
 _atom_site_type_symbol
 _atom_site_label
 _atom_site_symmetry_multiplicity
 _atom_site_fract_x
 _atom_site_fract_y
 _atom_site_fract_z
 _atom_site_occupancy
  La  La0  1  0.617799  0.059173  0.250000  1
  La  La1  1  0.134819  0.441816  0.750000  1
  La  La2  1  0.364218  0.943191  0.750000  1
  Yb  Yb3  1  0.342960  0.663272  0.067033  1
  Yb  Yb4  1  0.157001  0.175955  0.434470  1
  Yb  Yb5  1  0.661147  0.331996  0.569472  1
  Yb  Yb6  1  0.836492  0.828130  0.930756  1
  Yb  Yb7  1  0.661147  0.331996  0.930528  1
  Yb  Yb8  1  0.836492  0.828130  0.569244  1
  Yb  Yb9  1  0.342960  0.663272  0.432967  1
  Yb  Yb10  1  0.157001  0.175955  0.065530  1
  Yb  Yb11  1  0.859380  0.539752  0.250000  1
  Pd  Pd12  1  0.055322  0.879451  0.250000  1
  Ru  Ru13  1  0.482215  0.353493  0.250000  1
  Ru  Ru14  1  0.981591  0.141328  0.750000  1
  Ru  Ru15  1  0.509451  0.643090  0.750000  1
