# generated using pymatgen
data_TbTm3(ZnSi)4
_symmetry_space_group_name_H-M   'P 1'
_cell_length_a   4.13955200
_cell_length_b   4.13955183
_cell_length_c   15.39786200
_cell_angle_alpha   90.00000000
_cell_angle_beta   90.00000000
_cell_angle_gamma   120.00000133
_symmetry_Int_Tables_number   1
_chemical_formula_structural   TbTm3(ZnSi)4
_chemical_formula_sum   'Tb1 Tm3 Zn4 Si4'
_cell_volume   228.50605699
_cell_formula_units_Z   1
loop_
 _symmetry_equiv_pos_site_id
 _symmetry_equiv_pos_as_xyz
  1  'x, y, z'
loop_
 _atom_site_type_symbol
 _atom_site_label
 _atom_site_symmetry_multiplicity
 _atom_site_fract_x
 _atom_site_fract_y
 _atom_site_fract_z
 _atom_site_occupancy
  Tb  Tb0  1  0.000000  0.000000  0.000000  1
  Tm  Tm1  1  0.000000  0.000000  0.251470  1
  Tm  Tm2  1  0.000000  0.000000  0.500000  1
  Tm  Tm3  1  0.000000  0.000000  0.748530  1
  Zn  Zn4  1  0.666666  0.333333  0.142532  1
  Zn  Zn5  1  0.666666  0.333333  0.359312  1
  Zn  Zn6  1  0.333333  0.666666  0.640688  1
  Zn  Zn7  1  0.333333  0.666666  0.857468  1
  Si  Si8  1  0.333333  0.666666  0.119594  1
  Si  Si9  1  0.333333  0.666666  0.383525  1
  Si  Si10  1  0.666666  0.333333  0.616475  1
  Si  Si11  1  0.666666  0.333333  0.880406  1
