# generated using pymatgen
data_Ac2NiPtO6
_symmetry_space_group_name_H-M   'P 1'
_cell_length_a   5.72857587
_cell_length_b   5.72856980
_cell_length_c   5.82493152
_cell_angle_alpha   120.69498933
_cell_angle_beta   120.69474796
_cell_angle_gamma   59.16535508
_symmetry_Int_Tables_number   1
_chemical_formula_structural   Ac2NiPtO6
_chemical_formula_sum   'Ac2 Ni1 Pt1 O6'
_cell_volume   132.88325248
_cell_formula_units_Z   1
loop_
 _symmetry_equiv_pos_site_id
 _symmetry_equiv_pos_as_xyz
  1  'x, y, z'
loop_
 _atom_site_type_symbol
 _atom_site_label
 _atom_site_symmetry_multiplicity
 _atom_site_fract_x
 _atom_site_fract_y
 _atom_site_fract_z
 _atom_site_occupancy
  Ac  Ac0  1  0.250354  0.250352  0.244006  1
  Ac  Ac1  1  0.749646  0.749648  0.755994  1
  Ni  Ni2  1  0.500000  0.500000  0.000000  1
  Pt  Pt3  1  0.000000  0.000000  0.499999  1
  O  O4  1  0.704991  0.202587  0.205865  1
  O  O5  1  0.202589  0.704991  0.205865  1
  O  O6  1  0.751893  0.751892  0.330369  1
  O  O7  1  0.248107  0.248108  0.669629  1
  O  O8  1  0.797411  0.295008  0.794136  1
  O  O9  1  0.295008  0.797413  0.794136  1
