# generated using pymatgen
data_ZrSc(Ga2Pt)2
_symmetry_space_group_name_H-M   'P 1'
_cell_length_a   5.39195297
_cell_length_b   5.39195357
_cell_length_c   6.48699200
_cell_angle_alpha   90.00000000
_cell_angle_beta   90.00000000
_cell_angle_gamma   133.13289868
_symmetry_Int_Tables_number   1
_chemical_formula_structural   ZrSc(Ga2Pt)2
_chemical_formula_sum   'Zr1 Sc1 Ga4 Pt2'
_cell_volume   137.63266028
_cell_formula_units_Z   1
loop_
 _symmetry_equiv_pos_site_id
 _symmetry_equiv_pos_as_xyz
  1  'x, y, z'
loop_
 _atom_site_type_symbol
 _atom_site_label
 _atom_site_symmetry_multiplicity
 _atom_site_fract_x
 _atom_site_fract_y
 _atom_site_fract_z
 _atom_site_occupancy
  Zr  Zr0  1  0.917178  0.082822  0.250000  1
  Sc  Sc1  1  0.082450  0.917550  0.750000  1
  Ga  Ga2  1  0.626763  0.373237  0.452333  1
  Ga  Ga3  1  0.373752  0.626248  0.546581  1
  Ga  Ga4  1  0.373752  0.626248  0.953419  1
  Ga  Ga5  1  0.626763  0.373237  0.047667  1
  Pt  Pt6  1  0.202609  0.797391  0.250000  1
  Pt  Pt7  1  0.796733  0.203267  0.750000  1
