# generated using pymatgen
data_TmZnCdPt3
_symmetry_space_group_name_H-M   'P 1'
_cell_length_a   5.17639664
_cell_length_b   5.50046526
_cell_length_c   5.50046700
_cell_angle_alpha   60.00000758
_cell_angle_beta   57.90650442
_cell_angle_gamma   57.90651137
_symmetry_Int_Tables_number   1
_chemical_formula_structural   TmZnCdPt3
_chemical_formula_sum   'Tm1 Zn1 Cd1 Pt3'
_cell_volume   107.10716189
_cell_formula_units_Z   1
loop_
 _symmetry_equiv_pos_site_id
 _symmetry_equiv_pos_as_xyz
  1  'x, y, z'
loop_
 _atom_site_type_symbol
 _atom_site_label
 _atom_site_symmetry_multiplicity
 _atom_site_fract_x
 _atom_site_fract_y
 _atom_site_fract_z
 _atom_site_occupancy
  Tm  Tm0  1  0.990970  0.003010  0.003010  1
  Zn  Zn1  1  0.129408  0.623531  0.623531  1
  Cd  Cd2  1  0.245726  0.251425  0.251425  1
  Pt  Pt3  1  0.627965  0.623530  0.623530  1
  Pt  Pt4  1  0.627965  0.623530  0.124975  1
  Pt  Pt5  1  0.627965  0.124975  0.623530  1
