# generated using pymatgen
data_Er2P7(RuRh)6
_symmetry_space_group_name_H-M   'P 1'
_cell_length_a   3.86532707
_cell_length_b   9.53829841
_cell_length_c   9.53869987
_cell_angle_alpha   119.98252299
_cell_angle_beta   90.00314359
_cell_angle_gamma   89.99561942
_symmetry_Int_Tables_number   1
_chemical_formula_structural   Er2P7(RuRh)6
_chemical_formula_sum   'Er2 P7 Ru6 Rh6'
_cell_volume   304.61650055
_cell_formula_units_Z   1
loop_
 _symmetry_equiv_pos_site_id
 _symmetry_equiv_pos_as_xyz
  1  'x, y, z'
loop_
 _atom_site_type_symbol
 _atom_site_label
 _atom_site_symmetry_multiplicity
 _atom_site_fract_x
 _atom_site_fract_y
 _atom_site_fract_z
 _atom_site_occupancy
  Er  Er0  1  0.253118  0.666826  0.333477  1
  Er  Er1  1  0.746882  0.333174  0.666523  1
  P  P2  1  0.500000  0.000000  0.000000  1
  P  P3  1  0.753666  0.882188  0.597020  1
  P  P4  1  0.753782  0.403275  0.285328  1
  P  P5  1  0.753965  0.714779  0.117848  1
  P  P6  1  0.246334  0.117812  0.402980  1
  P  P7  1  0.246218  0.596725  0.714672  1
  P  P8  1  0.246035  0.285221  0.882152  1
  Ru  Ru9  1  0.742992  0.115072  0.851683  1
  Ru  Ru10  1  0.743349  0.148333  0.262976  1
  Ru  Ru11  1  0.743090  0.737025  0.885191  1
  Ru  Ru12  1  0.257008  0.884928  0.148317  1
  Ru  Ru13  1  0.256651  0.851667  0.737024  1
  Ru  Ru14  1  0.256910  0.262975  0.114809  1
  Rh  Rh15  1  0.752768  0.616816  0.552505  1
  Rh  Rh16  1  0.752751  0.447804  0.064634  1
  Rh  Rh17  1  0.752721  0.935849  0.383304  1
  Rh  Rh18  1  0.247232  0.383184  0.447495  1
  Rh  Rh19  1  0.247249  0.552196  0.935366  1
  Rh  Rh20  1  0.247279  0.064151  0.616696  1
