# generated using pymatgen
data_Sc8Al3Zn4Re
_symmetry_space_group_name_H-M   'P 1'
_cell_length_a   9.46934366
_cell_length_b   6.60529193
_cell_length_c   9.46697388
_cell_angle_alpha   134.22022119
_cell_angle_beta   119.11160990
_cell_angle_gamma   45.79410781
_symmetry_Int_Tables_number   1
_chemical_formula_structural   Sc8Al3Zn4Re
_chemical_formula_sum   'Sc8 Al3 Zn4 Re1'
_cell_volume   304.20090035
_cell_formula_units_Z   1
loop_
 _symmetry_equiv_pos_site_id
 _symmetry_equiv_pos_as_xyz
  1  'x, y, z'
loop_
 _atom_site_type_symbol
 _atom_site_label
 _atom_site_symmetry_multiplicity
 _atom_site_fract_x
 _atom_site_fract_y
 _atom_site_fract_z
 _atom_site_occupancy
  Sc  Sc0  1  0.242439  0.006316  0.241496  1
  Sc  Sc1  1  0.757638  0.491202  0.241760  1
  Sc  Sc2  1  0.758727  0.975976  0.241991  1
  Sc  Sc3  1  0.241282  0.493798  0.242310  1
  Sc  Sc4  1  0.758662  0.491832  0.757822  1
  Sc  Sc5  1  0.241525  0.008744  0.757775  1
  Sc  Sc6  1  0.242146  0.523979  0.758444  1
  Sc  Sc7  1  0.757581  0.008096  0.758410  1
  Al  Al8  1  0.500108  0.250116  0.499869  1
  Al  Al9  1  0.499886  0.749934  0.500163  1
  Al  Al10  1  0.000109  0.750077  0.999839  1
  Zn  Zn11  1  0.500167  0.751495  0.000244  1
  Zn  Zn12  1  0.999814  0.748542  0.499769  1
  Zn  Zn13  1  0.000188  0.251435  0.500243  1
  Zn  Zn14  1  0.499818  0.248492  0.999740  1
  Re  Re15  1  0.999912  0.249965  0.000124  1
