# generated using pymatgen
data_Ti12Mo6Pt5Rh
_symmetry_space_group_name_H-M   'P 1'
_cell_length_a   4.43905800
_cell_length_b   6.27899400
_cell_length_c   13.34202700
_cell_angle_alpha   90.00000000
_cell_angle_beta   90.00021062
_cell_angle_gamma   90.00000000
_symmetry_Int_Tables_number   1
_chemical_formula_structural   Ti12Mo6Pt5Rh
_chemical_formula_sum   'Ti12 Mo6 Pt5 Rh1'
_cell_volume   371.87989763
_cell_formula_units_Z   1
loop_
 _symmetry_equiv_pos_site_id
 _symmetry_equiv_pos_as_xyz
  1  'x, y, z'
loop_
 _atom_site_type_symbol
 _atom_site_label
 _atom_site_symmetry_multiplicity
 _atom_site_fract_x
 _atom_site_fract_y
 _atom_site_fract_z
 _atom_site_occupancy
  Ti  Ti0  1  0.499999  0.248393  0.998081  1
  Ti  Ti1  1  0.499999  0.751607  0.998081  1
  Ti  Ti2  1  0.000100  0.249693  0.166424  1
  Ti  Ti3  1  0.000100  0.750306  0.166424  1
  Ti  Ti4  1  0.500100  0.250398  0.333324  1
  Ti  Ti5  1  0.500100  0.749601  0.333324  1
  Ti  Ti6  1  0.999996  0.249696  0.500238  1
  Ti  Ti7  1  0.999996  0.750304  0.500238  1
  Ti  Ti8  1  0.499896  0.248406  0.668596  1
  Ti  Ti9  1  0.499896  0.751593  0.668596  1
  Ti  Ti10  1  0.999900  0.245793  0.833341  1
  Ti  Ti11  1  0.999900  0.754206  0.833341  1
  Mo  Mo12  1  0.000000  0.000000  0.000978  1
  Mo  Mo13  1  0.500090  0.500001  0.166755  1
  Mo  Mo14  1  0.000090  0.000000  0.333351  1
  Mo  Mo15  1  0.499998  0.500001  0.499943  1
  Mo  Mo16  1  0.999910  0.000000  0.665675  1
  Mo  Mo17  1  0.499909  0.500001  0.833298  1
  Pt  Pt18  1  0.999996  0.500001  0.999995  1
  Pt  Pt19  1  0.500108  0.000000  0.166905  1
  Pt  Pt20  1  0.000100  0.500001  0.333329  1
  Pt  Pt21  1  0.500000  0.000000  0.499756  1
  Pt  Pt22  1  0.999899  0.500001  0.666675  1
  Rh  Rh23  1  0.499922  0.000000  0.833335  1
