# generated using pymatgen
data_Tb5YbSmPtI12
_symmetry_space_group_name_H-M   'P 1'
_cell_length_a   9.83875664
_cell_length_b   9.83954430
_cell_length_c   9.85155774
_cell_angle_alpha   107.01951104
_cell_angle_beta   107.09734540
_cell_angle_gamma   106.92997274
_symmetry_Int_Tables_number   1
_chemical_formula_structural   Tb5YbSmPtI12
_chemical_formula_sum   'Tb5 Yb1 Sm1 Pt1 I12'
_cell_volume   793.92595401
_cell_formula_units_Z   1
loop_
 _symmetry_equiv_pos_site_id
 _symmetry_equiv_pos_as_xyz
  1  'x, y, z'
loop_
 _atom_site_type_symbol
 _atom_site_label
 _atom_site_symmetry_multiplicity
 _atom_site_fract_x
 _atom_site_fract_y
 _atom_site_fract_z
 _atom_site_occupancy
  Tb  Tb0  1  0.302553  0.098867  0.026638  1
  Tb  Tb1  1  0.026729  0.302624  0.097912  1
  Tb  Tb2  1  0.900649  0.972919  0.696844  1
  Tb  Tb3  1  0.697044  0.901158  0.972047  1
  Tb  Tb4  1  0.972624  0.696895  0.899811  1
  Yb  Yb5  1  0.499993  0.500046  0.499848  1
  Sm  Sm6  1  0.100346  0.026831  0.307092  1
  Pt  Pt7  1  0.999823  0.999689  0.999606  1
  I  I8  1  0.072355  0.675035  0.221533  1
  I  I9  1  0.225315  0.073898  0.682795  1
  I  I10  1  0.679287  0.223843  0.073154  1
  I  I11  1  0.926743  0.320920  0.775894  1
  I  I12  1  0.770827  0.925104  0.319929  1
  I  I13  1  0.320691  0.776091  0.926777  1
  I  I14  1  0.464211  0.155955  0.382313  1
  I  I15  1  0.382302  0.459394  0.154083  1
  I  I16  1  0.154538  0.386569  0.460061  1
  I  I17  1  0.540356  0.846039  0.617599  1
  I  I18  1  0.617712  0.540567  0.845800  1
  I  I19  1  0.845903  0.617555  0.540262  1
