# generated using pymatgen
data_CaNd18MgIr12
_symmetry_space_group_name_H-M   'P 1'
_cell_length_a   11.24235700
_cell_length_b   11.24235700
_cell_length_c   6.49579200
_cell_angle_alpha   90.00000000
_cell_angle_beta   90.00000000
_cell_angle_gamma   90.00000000
_symmetry_Int_Tables_number   1
_chemical_formula_structural   CaNd18MgIr12
_chemical_formula_sum   'Ca1 Nd18 Mg1 Ir12'
_cell_volume   821.00698934
_cell_formula_units_Z   1
loop_
 _symmetry_equiv_pos_site_id
 _symmetry_equiv_pos_as_xyz
  1  'x, y, z'
loop_
 _atom_site_type_symbol
 _atom_site_label
 _atom_site_symmetry_multiplicity
 _atom_site_fract_x
 _atom_site_fract_y
 _atom_site_fract_z
 _atom_site_occupancy
  Ca  Ca0  1  0.000000  0.000000  0.000000  1
  Nd  Nd1  1  0.089161  0.289380  0.114314  1
  Nd  Nd2  1  0.790490  0.411338  0.115520  1
  Nd  Nd3  1  0.209510  0.588662  0.115520  1
  Nd  Nd4  1  0.910839  0.710620  0.114314  1
  Nd  Nd5  1  0.413002  0.782760  0.386125  1
  Nd  Nd6  1  0.586998  0.217240  0.386125  1
  Nd  Nd7  1  0.292792  0.088257  0.384009  1
  Nd  Nd8  1  0.707208  0.911743  0.384009  1
  Nd  Nd9  1  0.411338  0.209510  0.884480  1
  Nd  Nd10  1  0.710620  0.089161  0.885686  1
  Nd  Nd11  1  0.289380  0.910839  0.885686  1
  Nd  Nd12  1  0.588662  0.790490  0.884480  1
  Nd  Nd13  1  0.088257  0.707208  0.615991  1
  Nd  Nd14  1  0.911743  0.292792  0.615991  1
  Nd  Nd15  1  0.217240  0.413002  0.613875  1
  Nd  Nd16  1  0.782760  0.586998  0.613875  1
  Nd  Nd17  1  0.500000  0.500000  0.000000  1
  Nd  Nd18  1  0.000000  0.000000  0.500000  1
  Mg  Mg19  1  0.500000  0.500000  0.500000  1
  Ir  Ir20  1  0.158107  0.845503  0.258052  1
  Ir  Ir21  1  0.346898  0.348320  0.247463  1
  Ir  Ir22  1  0.653102  0.651680  0.247463  1
  Ir  Ir23  1  0.841893  0.154497  0.258052  1
  Ir  Ir24  1  0.348320  0.653102  0.752537  1
  Ir  Ir25  1  0.154497  0.158107  0.741948  1
  Ir  Ir26  1  0.845503  0.841893  0.741948  1
  Ir  Ir27  1  0.651680  0.346898  0.752537  1
  Ir  Ir28  1  0.000000  0.500000  0.380511  1
  Ir  Ir29  1  0.500000  0.000000  0.121333  1
  Ir  Ir30  1  0.500000  0.000000  0.619489  1
  Ir  Ir31  1  0.000000  0.500000  0.878667  1
