# generated using pymatgen
data_Er10TmLuIr4
_symmetry_space_group_name_H-M   'P 1'
_cell_length_a   6.35066277
_cell_length_b   7.21320228
_cell_length_c   9.08523280
_cell_angle_alpha   90.07065540
_cell_angle_beta   89.97260017
_cell_angle_gamma   89.94940647
_symmetry_Int_Tables_number   1
_chemical_formula_structural   Er10TmLuIr4
_chemical_formula_sum   'Er10 Tm1 Lu1 Ir4'
_cell_volume   416.18140638
_cell_formula_units_Z   1
loop_
 _symmetry_equiv_pos_site_id
 _symmetry_equiv_pos_as_xyz
  1  'x, y, z'
loop_
 _atom_site_type_symbol
 _atom_site_label
 _atom_site_symmetry_multiplicity
 _atom_site_fract_x
 _atom_site_fract_y
 _atom_site_fract_z
 _atom_site_occupancy
  Er  Er0  1  0.172486  0.177391  0.437568  1
  Er  Er1  1  0.672595  0.322413  0.562250  1
  Er  Er2  1  0.828209  0.821963  0.939301  1
  Er  Er3  1  0.671403  0.322475  0.939110  1
  Er  Er4  1  0.827563  0.822371  0.562323  1
  Er  Er5  1  0.327551  0.677430  0.437367  1
  Er  Er6  1  0.871896  0.533790  0.249704  1
  Er  Er7  1  0.627980  0.033619  0.249758  1
  Er  Er8  1  0.128540  0.466615  0.750477  1
  Er  Er9  1  0.371448  0.966356  0.750489  1
  Tm  Tm10  1  0.171812  0.177656  0.061420  1
  Lu  Lu11  1  0.328027  0.677479  0.062052  1
  Ir  Ir12  1  0.043794  0.883396  0.248341  1
  Ir  Ir13  1  0.456849  0.384358  0.248519  1
  Ir  Ir14  1  0.957518  0.116341  0.750661  1
  Ir  Ir15  1  0.542330  0.616349  0.750658  1
