# generated using pymatgen
data_TmTh3As4Pt3Rh
_symmetry_space_group_name_H-M   'P 1'
_cell_length_a   4.32911000
_cell_length_b   4.32910943
_cell_length_c   15.62962000
_cell_angle_alpha   90.00000000
_cell_angle_beta   90.00000000
_cell_angle_gamma   120.00001964
_symmetry_Int_Tables_number   1
_chemical_formula_structural   TmTh3As4Pt3Rh
_chemical_formula_sum   'Tm1 Th3 As4 Pt3 Rh1'
_cell_volume   253.67411271
_cell_formula_units_Z   1
loop_
 _symmetry_equiv_pos_site_id
 _symmetry_equiv_pos_as_xyz
  1  'x, y, z'
loop_
 _atom_site_type_symbol
 _atom_site_label
 _atom_site_symmetry_multiplicity
 _atom_site_fract_x
 _atom_site_fract_y
 _atom_site_fract_z
 _atom_site_occupancy
  Tm  Tm0  1  0.000000  0.000000  0.748532  1
  Th  Th1  1  0.000000  0.000000  0.501746  1
  Th  Th2  1  0.000000  0.000000  0.994985  1
  Th  Th3  1  0.000000  0.000000  0.256218  1
  As  As4  1  0.333333  0.666667  0.880522  1
  As  As5  1  0.666667  0.333333  0.121128  1
  As  As6  1  0.666667  0.333333  0.383248  1
  As  As7  1  0.333333  0.666667  0.617776  1
  Pt  Pt8  1  0.666667  0.333333  0.648230  1
  Pt  Pt9  1  0.666667  0.333333  0.852228  1
  Pt  Pt10  1  0.333333  0.666667  0.128106  1
  Rh  Rh11  1  0.333333  0.666667  0.367281  1
