# generated using pymatgen
data_Pr8Tm11Si16Ag
_symmetry_space_group_name_H-M   'P 1'
_cell_length_a   7.37597363
_cell_length_b   7.74551622
_cell_length_c   14.73962000
_cell_angle_alpha   90.00000000
_cell_angle_beta   90.00000000
_cell_angle_gamma   90.08345156
_symmetry_Int_Tables_number   1
_chemical_formula_structural   Pr8Tm11Si16Ag
_chemical_formula_sum   'Pr8 Tm11 Si16 Ag1'
_cell_volume   842.08425997
_cell_formula_units_Z   1
loop_
 _symmetry_equiv_pos_site_id
 _symmetry_equiv_pos_as_xyz
  1  'x, y, z'
loop_
 _atom_site_type_symbol
 _atom_site_label
 _atom_site_symmetry_multiplicity
 _atom_site_fract_x
 _atom_site_fract_y
 _atom_site_fract_z
 _atom_site_occupancy
  Pr  Pr0  1  0.015783  0.176398  0.402425  1
  Pr  Pr1  1  0.514525  0.325211  0.402527  1
  Pr  Pr2  1  0.487561  0.687918  0.897266  1
  Pr  Pr3  1  0.487561  0.687918  0.602734  1
  Pr  Pr4  1  0.974497  0.825410  0.602754  1
  Pr  Pr5  1  0.974497  0.825410  0.897246  1
  Pr  Pr6  1  0.514525  0.325211  0.097473  1
  Pr  Pr7  1  0.015783  0.176398  0.097575  1
  Tm  Tm8  1  0.334961  0.172726  0.625260  1
  Tm  Tm9  1  0.674154  0.818952  0.375263  1
  Tm  Tm10  1  0.174951  0.677680  0.377646  1
  Tm  Tm11  1  0.823523  0.311962  0.874720  1
  Tm  Tm12  1  0.823523  0.311962  0.625280  1
  Tm  Tm13  1  0.841720  0.491826  0.250000  1
  Tm  Tm14  1  0.340048  0.008460  0.250000  1
  Tm  Tm15  1  0.334961  0.172726  0.874740  1
  Tm  Tm16  1  0.174951  0.677680  0.122354  1
  Tm  Tm17  1  0.674154  0.818952  0.124737  1
  Tm  Tm18  1  0.156980  0.504623  0.750000  1
  Si  Si19  1  0.271221  0.878907  0.750000  1
  Si  Si20  1  0.467878  0.614102  0.250000  1
  Si  Si21  1  0.039209  0.112386  0.750000  1
  Si  Si22  1  0.529950  0.398042  0.750000  1
  Si  Si23  1  0.151704  0.468066  0.540974  1
  Si  Si24  1  0.968110  0.880661  0.250000  1
  Si  Si25  1  0.718378  0.121531  0.250000  1
  Si  Si26  1  0.851087  0.532606  0.035931  1
  Si  Si27  1  0.351305  0.966928  0.039113  1
  Si  Si28  1  0.151704  0.468066  0.959026  1
  Si  Si29  1  0.653025  0.038168  0.530359  1
  Si  Si30  1  0.351305  0.966928  0.460887  1
  Si  Si31  1  0.851087  0.532606  0.464069  1
  Si  Si32  1  0.782012  0.605178  0.750000  1
  Si  Si33  1  0.218979  0.379724  0.250000  1
  Si  Si34  1  0.653025  0.038168  0.969641  1
  Ag  Ag35  1  0.651364  0.000511  0.750000  1
