# generated using pymatgen
data_Y3Er(ScRu)4
_symmetry_space_group_name_H-M   'P 1'
_cell_length_a   4.11791200
_cell_length_b   7.33468954
_cell_length_c   8.67676896
_cell_angle_alpha   89.87915572
_cell_angle_beta   90.00000000
_cell_angle_gamma   90.00000000
_symmetry_Int_Tables_number   1
_chemical_formula_structural   Y3Er(ScRu)4
_chemical_formula_sum   'Y3 Er1 Sc4 Ru4'
_cell_volume   262.06912862
_cell_formula_units_Z   1
loop_
 _symmetry_equiv_pos_site_id
 _symmetry_equiv_pos_as_xyz
  1  'x, y, z'
loop_
 _atom_site_type_symbol
 _atom_site_label
 _atom_site_symmetry_multiplicity
 _atom_site_fract_x
 _atom_site_fract_y
 _atom_site_fract_z
 _atom_site_occupancy
  Y  Y0  1  0.250000  0.975831  0.325903  1
  Y  Y1  1  0.250000  0.476095  0.173177  1
  Y  Y2  1  0.750000  0.023990  0.673996  1
  Er  Er3  1  0.750000  0.524732  0.827015  1
  Sc  Sc4  1  0.250000  0.356269  0.560439  1
  Sc  Sc5  1  0.250000  0.856286  0.939674  1
  Sc  Sc6  1  0.750000  0.642549  0.441721  1
  Sc  Sc7  1  0.750000  0.143854  0.057912  1
  Ru  Ru8  1  0.250000  0.235401  0.877165  1
  Ru  Ru9  1  0.250000  0.727002  0.624499  1
  Ru  Ru10  1  0.750000  0.769323  0.120726  1
  Ru  Ru11  1  0.750000  0.268670  0.377773  1
