# generated using pymatgen
data_Sn4Pd3Rh
_symmetry_space_group_name_H-M   'P 1'
_cell_length_a   3.88654900
_cell_length_b   6.25194953
_cell_length_c   6.48089365
_cell_angle_alpha   89.82308606
_cell_angle_beta   90.00000000
_cell_angle_gamma   90.00000000
_symmetry_Int_Tables_number   1
_chemical_formula_structural   Sn4Pd3Rh
_chemical_formula_sum   'Sn4 Pd3 Rh1'
_cell_volume   157.47529657
_cell_formula_units_Z   1
loop_
 _symmetry_equiv_pos_site_id
 _symmetry_equiv_pos_as_xyz
  1  'x, y, z'
loop_
 _atom_site_type_symbol
 _atom_site_label
 _atom_site_symmetry_multiplicity
 _atom_site_fract_x
 _atom_site_fract_y
 _atom_site_fract_z
 _atom_site_occupancy
  Sn  Sn0  1  0.750000  0.312334  0.914307  1
  Sn  Sn1  1  0.750000  0.804578  0.587329  1
  Sn  Sn2  1  0.250000  0.686202  0.095361  1
  Sn  Sn3  1  0.250000  0.199287  0.404582  1
  Pd  Pd4  1  0.750000  0.988250  0.186988  1
  Pd  Pd5  1  0.250000  0.509723  0.687502  1
  Pd  Pd6  1  0.250000  0.008446  0.812729  1
  Rh  Rh7  1  0.750000  0.491181  0.311203  1
