# generated using pymatgen
data_Yb7Ho(OsC2)4
_symmetry_space_group_name_H-M   'P 1'
_cell_length_a   5.14168300
_cell_length_b   6.45827138
_cell_length_c   10.12979565
_cell_angle_alpha   90.27447518
_cell_angle_beta   90.00000000
_cell_angle_gamma   90.00000000
_symmetry_Int_Tables_number   1
_chemical_formula_structural   Yb7Ho(OsC2)4
_chemical_formula_sum   'Yb7 Ho1 Os4 C8'
_cell_volume   336.37002590
_cell_formula_units_Z   1
loop_
 _symmetry_equiv_pos_site_id
 _symmetry_equiv_pos_as_xyz
  1  'x, y, z'
loop_
 _atom_site_type_symbol
 _atom_site_label
 _atom_site_symmetry_multiplicity
 _atom_site_fract_x
 _atom_site_fract_y
 _atom_site_fract_z
 _atom_site_occupancy
  Yb  Yb0  1  0.750000  0.303665  0.450508  1
  Yb  Yb1  1  0.750000  0.804400  0.050175  1
  Yb  Yb2  1  0.250000  0.193401  0.949078  1
  Yb  Yb3  1  0.250000  0.532304  0.222028  1
  Yb  Yb4  1  0.750000  0.467622  0.778132  1
  Yb  Yb5  1  0.750000  0.969180  0.728171  1
  Yb  Yb6  1  0.250000  0.032633  0.273476  1
  Ho  Ho7  1  0.250000  0.685910  0.552238  1
  Os  Os8  1  0.250000  0.730736  0.853796  1
  Os  Os9  1  0.750000  0.267314  0.146642  1
  Os  Os10  1  0.750000  0.768479  0.355114  1
  Os  Os11  1  0.250000  0.230122  0.644451  1
  C  C12  1  0.250000  0.468590  0.755852  1
  C  C13  1  0.750000  0.532026  0.240976  1
  C  C14  1  0.750000  0.029789  0.259281  1
  C  C15  1  0.250000  0.963460  0.735899  1
  C  C16  1  0.250000  0.798457  0.031038  1
  C  C17  1  0.750000  0.203020  0.968246  1
  C  C18  1  0.750000  0.703236  0.535950  1
  C  C19  1  0.250000  0.315654  0.468951  1
