# generated using pymatgen
data_Sr2MgInAu2
_symmetry_space_group_name_H-M   'P 1'
_cell_length_a   4.57416800
_cell_length_b   7.90229500
_cell_length_c   8.97222900
_cell_angle_alpha   90.00000000
_cell_angle_beta   90.00000000
_cell_angle_gamma   90.00000000
_symmetry_Int_Tables_number   1
_chemical_formula_structural   Sr2MgInAu2
_chemical_formula_sum   'Sr4 Mg2 In2 Au4'
_cell_volume   324.31400187
_cell_formula_units_Z   2
loop_
 _symmetry_equiv_pos_site_id
 _symmetry_equiv_pos_as_xyz
  1  'x, y, z'
loop_
 _atom_site_type_symbol
 _atom_site_label
 _atom_site_symmetry_multiplicity
 _atom_site_fract_x
 _atom_site_fract_y
 _atom_site_fract_z
 _atom_site_occupancy
  Sr  Sr0  1  0.750000  0.966776  0.678820  1
  Sr  Sr1  1  0.250000  0.027634  0.318100  1
  Sr  Sr2  1  0.750000  0.472366  0.818100  1
  Sr  Sr3  1  0.250000  0.533224  0.178820  1
  Mg  Mg4  1  0.750000  0.360587  0.437615  1
  Mg  Mg5  1  0.250000  0.139413  0.937615  1
  In  In6  1  0.250000  0.643093  0.562634  1
  In  In7  1  0.750000  0.856907  0.062634  1
  Au  Au8  1  0.250000  0.775173  0.878432  1
  Au  Au9  1  0.250000  0.269398  0.624398  1
  Au  Au10  1  0.750000  0.724827  0.378432  1
  Au  Au11  1  0.750000  0.230602  0.124398  1
