# generated using pymatgen
data_SrFe2(As6Ir)2
_symmetry_space_group_name_H-M   'P 1'
_cell_length_a   7.38776695
_cell_length_b   7.35276373
_cell_length_c   7.35276359
_cell_angle_alpha   109.33282907
_cell_angle_beta   109.45827862
_cell_angle_gamma   109.43000345
_symmetry_Int_Tables_number   1
_chemical_formula_structural   SrFe2(As6Ir)2
_chemical_formula_sum   'Sr1 Fe2 As12 Ir2'
_cell_volume   308.19091553
_cell_formula_units_Z   1
loop_
 _symmetry_equiv_pos_site_id
 _symmetry_equiv_pos_as_xyz
  1  'x, y, z'
loop_
 _atom_site_type_symbol
 _atom_site_label
 _atom_site_symmetry_multiplicity
 _atom_site_fract_x
 _atom_site_fract_y
 _atom_site_fract_z
 _atom_site_occupancy
  Sr  Sr0  1  0.000000  0.000000  0.000000  1
  Fe  Fe1  1  0.500000  0.500000  0.500000  1
  Fe  Fe2  1  0.500000  0.000000  0.000000  1
  As  As3  1  0.839633  0.644541  0.501546  1
  As  As4  1  0.160367  0.355459  0.498454  1
  As  As5  1  0.160367  0.661913  0.804909  1
  As  As6  1  0.839633  0.338087  0.195091  1
  As  As7  1  0.644162  0.501211  0.839324  1
  As  As8  1  0.355838  0.498789  0.160676  1
  As  As9  1  0.644162  0.804840  0.142951  1
  As  As10  1  0.355838  0.195160  0.857049  1
  As  As11  1  0.502789  0.843523  0.659265  1
  As  As12  1  0.497211  0.156477  0.340735  1
  As  As13  1  0.207242  0.853605  0.353638  1
  As  As14  1  0.792758  0.146395  0.646362  1
  Ir  Ir15  1  0.000000  0.500000  0.000000  1
  Ir  Ir16  1  0.000000  0.000000  0.500000  1
