# generated using pymatgen
data_CaDy6IrBr12
_symmetry_space_group_name_H-M   'P 1'
_cell_length_a   9.30216414
_cell_length_b   9.24262659
_cell_length_c   9.31831405
_cell_angle_alpha   107.12714263
_cell_angle_beta   106.90446350
_cell_angle_gamma   106.99056913
_symmetry_Int_Tables_number   1
_chemical_formula_structural   CaDy6IrBr12
_chemical_formula_sum   'Ca1 Dy6 Ir1 Br12'
_cell_volume   667.07329868
_cell_formula_units_Z   1
loop_
 _symmetry_equiv_pos_site_id
 _symmetry_equiv_pos_as_xyz
  1  'x, y, z'
loop_
 _atom_site_type_symbol
 _atom_site_label
 _atom_site_symmetry_multiplicity
 _atom_site_fract_x
 _atom_site_fract_y
 _atom_site_fract_z
 _atom_site_occupancy
  Ca  Ca0  1  0.500000  0.500000  0.500000  1
  Dy  Dy1  1  0.102337  0.306741  0.023773  1
  Dy  Dy2  1  0.314452  0.023993  0.105986  1
  Dy  Dy3  1  0.025334  0.104914  0.314308  1
  Dy  Dy4  1  0.974667  0.895086  0.685693  1
  Dy  Dy5  1  0.685548  0.976008  0.894014  1
  Dy  Dy6  1  0.897663  0.693259  0.976227  1
  Ir  Ir7  1  0.000000  0.000000  0.000000  1
  Br  Br8  1  0.216457  0.678981  0.071908  1
  Br  Br9  1  0.455445  0.376364  0.157841  1
  Br  Br10  1  0.679478  0.073245  0.218040  1
  Br  Br11  1  0.926641  0.780678  0.319048  1
  Br  Br12  1  0.157819  0.456240  0.375130  1
  Br  Br13  1  0.376404  0.156555  0.456838  1
  Br  Br14  1  0.623596  0.843445  0.543163  1
  Br  Br15  1  0.842182  0.543760  0.624870  1
  Br  Br16  1  0.073360  0.219322  0.680953  1
  Br  Br17  1  0.320523  0.926756  0.781960  1
  Br  Br18  1  0.544555  0.623636  0.842160  1
  Br  Br19  1  0.783543  0.321019  0.928092  1
