# generated using pymatgen
data_Hf4TiSi2GeN
_symmetry_space_group_name_H-M   'P 1'
_cell_length_a   7.80201816
_cell_length_b   7.78961891
_cell_length_c   5.46708782
_cell_angle_alpha   90.03141432
_cell_angle_beta   89.93727119
_cell_angle_gamma   120.05266493
_symmetry_Int_Tables_number   1
_chemical_formula_structural   Hf4TiSi2GeN
_chemical_formula_sum   'Hf8 Ti2 Si4 Ge2 N2'
_cell_volume   287.59337103
_cell_formula_units_Z   2
loop_
 _symmetry_equiv_pos_site_id
 _symmetry_equiv_pos_as_xyz
  1  'x, y, z'
loop_
 _atom_site_type_symbol
 _atom_site_label
 _atom_site_symmetry_multiplicity
 _atom_site_fract_x
 _atom_site_fract_y
 _atom_site_fract_z
 _atom_site_occupancy
  Hf  Hf0  1  0.232404  0.000000  0.250231  1
  Hf  Hf1  1  0.767596  0.000000  0.749769  1
  Hf  Hf2  1  0.002210  0.237764  0.250067  1
  Hf  Hf3  1  0.997790  0.762236  0.749933  1
  Hf  Hf4  1  0.764446  0.762236  0.250067  1
  Hf  Hf5  1  0.235554  0.237764  0.749933  1
  Hf  Hf6  1  0.669404  0.338807  0.500000  1
  Hf  Hf7  1  0.330596  0.661193  0.500000  1
  Ti  Ti8  1  0.330968  0.661936  0.000000  1
  Ti  Ti9  1  0.669032  0.338064  0.000000  1
  Si  Si10  1  0.001115  0.593229  0.234311  1
  Si  Si11  1  0.998885  0.406771  0.765689  1
  Si  Si12  1  0.407886  0.406771  0.234311  1
  Si  Si13  1  0.592114  0.593229  0.765689  1
  Ge  Ge14  1  0.593656  0.000000  0.239184  1
  Ge  Ge15  1  0.406344  0.000000  0.760816  1
  N  N16  1  0.000000  0.000000  0.000000  1
  N  N17  1  0.000000  0.000000  0.500000  1
