# generated using pymatgen
data_ScBe8VFe2
_symmetry_space_group_name_H-M   'P 1'
_cell_length_a   4.28183400
_cell_length_b   4.28183435
_cell_length_c   7.17290900
_cell_angle_alpha   90.00000000
_cell_angle_beta   90.00000000
_cell_angle_gamma   119.99998185
_symmetry_Int_Tables_number   1
_chemical_formula_structural   ScBe8VFe2
_chemical_formula_sum   'Sc1 Be8 V1 Fe2'
_cell_volume   113.89003345
_cell_formula_units_Z   1
loop_
 _symmetry_equiv_pos_site_id
 _symmetry_equiv_pos_as_xyz
  1  'x, y, z'
loop_
 _atom_site_type_symbol
 _atom_site_label
 _atom_site_symmetry_multiplicity
 _atom_site_fract_x
 _atom_site_fract_y
 _atom_site_fract_z
 _atom_site_occupancy
  Sc  Sc0  1  0.333333  0.666667  0.060485  1
  Be  Be1  1  0.000000  0.000000  0.992151  1
  Be  Be2  1  0.000000  0.000000  0.503722  1
  Be  Be3  1  0.832138  0.664275  0.266465  1
  Be  Be4  1  0.167609  0.832391  0.742511  1
  Be  Be5  1  0.664782  0.832391  0.742511  1
  Be  Be6  1  0.335725  0.167862  0.266465  1
  Be  Be7  1  0.832138  0.167862  0.266465  1
  Be  Be8  1  0.167609  0.335218  0.742511  1
  V  V9  1  0.666667  0.333333  0.571190  1
  Fe  Fe10  1  0.666667  0.333333  0.901272  1
  Fe  Fe11  1  0.333333  0.666667  0.444254  1
