# generated using pymatgen
data_Sc12Cu2RhI16
_symmetry_space_group_name_H-M   'P 1'
_cell_length_a   9.25407744
_cell_length_b   12.24849568
_cell_length_c   12.91125800
_cell_angle_alpha   116.87089955
_cell_angle_beta   101.09518476
_cell_angle_gamma   100.51340763
_symmetry_Int_Tables_number   1
_chemical_formula_structural   Sc12Cu2RhI16
_chemical_formula_sum   'Sc12 Cu2 Rh1 I16'
_cell_volume   1218.85742783
_cell_formula_units_Z   1
loop_
 _symmetry_equiv_pos_site_id
 _symmetry_equiv_pos_as_xyz
  1  'x, y, z'
loop_
 _atom_site_type_symbol
 _atom_site_label
 _atom_site_symmetry_multiplicity
 _atom_site_fract_x
 _atom_site_fract_y
 _atom_site_fract_z
 _atom_site_occupancy
  Sc  Sc0  1  0.092613  0.281644  0.366399  1
  Sc  Sc1  1  0.904499  0.720295  0.634717  1
  Sc  Sc2  1  0.779330  0.534929  0.335954  1
  Sc  Sc3  1  0.216563  0.465388  0.662250  1
  Sc  Sc4  1  0.270152  0.718564  0.633354  1
  Sc  Sc5  1  0.725300  0.279288  0.365320  1
  Sc  Sc6  1  0.146109  0.534791  0.337486  1
  Sc  Sc7  1  0.850503  0.464823  0.664204  1
  Sc  Sc8  1  0.415261  0.367494  0.286468  1
  Sc  Sc9  1  0.593968  0.632484  0.713514  1
  Sc  Sc10  1  0.465864  0.317557  0.520932  1
  Sc  Sc11  1  0.543356  0.682511  0.479027  1
  Cu  Cu12  1  0.982691  0.499877  0.500209  1
  Cu  Cu13  1  0.353597  0.499952  0.499835  1
  Rh  Rh14  1  0.659076  0.499790  0.500025  1
  I  I15  1  0.390341  0.728525  0.868003  1
  I  I16  1  0.608937  0.268041  0.126387  1
  I  I17  1  0.181822  0.945921  0.772250  1
  I  I18  1  0.820186  0.054028  0.227765  1
  I  I19  1  0.339160  0.109233  0.261293  1
  I  I20  1  0.655894  0.890805  0.738675  1
  I  I21  1  0.560129  0.437782  0.790614  1
  I  I22  1  0.435133  0.562380  0.209497  1
  I  I23  1  0.303018  0.814999  0.463634  1
  I  I24  1  0.697371  0.180239  0.537096  1
  I  I25  1  0.169877  0.185453  0.536026  1
  I  I26  1  0.832908  0.819489  0.463437  1
  I  I27  1  0.929108  0.571752  0.169278  1
  I  I28  1  0.073330  0.428319  0.830698  1
  I  I29  1  0.921650  0.731732  0.873659  1
  I  I30  1  0.082252  0.271914  0.131994  1
