# generated using pymatgen
data_Nd5ErZn4Pt13
_symmetry_space_group_name_H-M   'P 1'
_cell_length_a   8.37080197
_cell_length_b   8.37080173
_cell_length_c   8.37080195
_cell_angle_alpha   109.51037269
_cell_angle_beta   109.51037172
_cell_angle_gamma   109.39294579
_symmetry_Int_Tables_number   1
_chemical_formula_structural   Nd5ErZn4Pt13
_chemical_formula_sum   'Nd5 Er1 Zn4 Pt13'
_cell_volume   451.52176754
_cell_formula_units_Z   1
loop_
 _symmetry_equiv_pos_site_id
 _symmetry_equiv_pos_as_xyz
  1  'x, y, z'
loop_
 _atom_site_type_symbol
 _atom_site_label
 _atom_site_symmetry_multiplicity
 _atom_site_fract_x
 _atom_site_fract_y
 _atom_site_fract_z
 _atom_site_occupancy
  Nd  Nd0  1  0.301194  0.000270  0.300924  1
  Nd  Nd1  1  0.000270  0.301194  0.300924  1
  Nd  Nd2  1  0.297806  0.297806  0.000000  1
  Nd  Nd3  1  0.699346  0.000270  0.699076  1
  Nd  Nd4  1  0.000270  0.699346  0.699076  1
  Er  Er5  1  0.693568  0.693568  0.000000  1
  Zn  Zn6  1  0.001031  0.001031  0.499089  1
  Zn  Zn7  1  0.001031  0.501942  0.000000  1
  Zn  Zn8  1  0.501942  0.001031  0.000000  1
  Zn  Zn9  1  0.501942  0.501942  0.500911  1
  Pt  Pt10  1  0.334664  0.334664  0.666744  1
  Pt  Pt11  1  0.672298  0.998226  0.325929  1
  Pt  Pt12  1  0.998226  0.672298  0.325929  1
  Pt  Pt13  1  0.667918  0.334664  0.000000  1
  Pt  Pt14  1  0.329402  0.659604  0.330203  1
  Pt  Pt15  1  0.999198  0.329402  0.669797  1
  Pt  Pt16  1  0.334664  0.667918  0.000000  1
  Pt  Pt17  1  0.329402  0.999198  0.669797  1
  Pt  Pt18  1  0.659604  0.329402  0.330203  1
  Pt  Pt19  1  0.667918  0.667918  0.333256  1
  Pt  Pt20  1  0.672298  0.346370  0.674071  1
  Pt  Pt21  1  0.346370  0.672298  0.674071  1
  Pt  Pt22  1  0.989638  0.989638  0.000000  1
