# generated using pymatgen
data_Tm2Si4Tc3
_symmetry_space_group_name_H-M   'P 1'
_cell_length_a   6.76367000
_cell_length_b   6.72460807
_cell_length_c   6.76092240
_cell_angle_alpha   69.98088948
_cell_angle_beta   90.00000000
_cell_angle_gamma   90.00000000
_symmetry_Int_Tables_number   1
_chemical_formula_structural   Tm2Si4Tc3
_chemical_formula_sum   'Tm4 Si8 Tc6'
_cell_volume   288.92718417
_cell_formula_units_Z   2
loop_
 _symmetry_equiv_pos_site_id
 _symmetry_equiv_pos_as_xyz
  1  'x, y, z'
loop_
 _atom_site_type_symbol
 _atom_site_label
 _atom_site_symmetry_multiplicity
 _atom_site_fract_x
 _atom_site_fract_y
 _atom_site_fract_z
 _atom_site_occupancy
  Tm  Tm0  1  0.332100  0.557752  0.808162  1
  Tm  Tm1  1  0.832100  0.942248  0.191838  1
  Tm  Tm2  1  0.667900  0.442248  0.191838  1
  Tm  Tm3  1  0.167900  0.057752  0.808162  1
  Si  Si4  1  0.550441  0.876859  0.897979  1
  Si  Si5  1  0.050441  0.623141  0.102021  1
  Si  Si6  1  0.449559  0.123141  0.102021  1
  Si  Si7  1  0.949559  0.376859  0.897979  1
  Si  Si8  1  0.141655  0.867990  0.487712  1
  Si  Si9  1  0.641655  0.632010  0.512288  1
  Si  Si10  1  0.858345  0.132010  0.512288  1
  Si  Si11  1  0.358345  0.367990  0.487712  1
  Tc  Tc12  1  0.500000  0.000000  0.500000  1
  Tc  Tc13  1  0.000000  0.500000  0.500000  1
  Tc  Tc14  1  0.850405  0.757708  0.762797  1
  Tc  Tc15  1  0.350405  0.742292  0.237203  1
  Tc  Tc16  1  0.149595  0.242292  0.237203  1
  Tc  Tc17  1  0.649595  0.257708  0.762797  1
