# generated using pymatgen
data_TbNd3(Sn5Pt3)2
_symmetry_space_group_name_H-M   'P 1'
_cell_length_a   13.68414568
_cell_length_b   13.68414664
_cell_length_c   7.53020705
_cell_angle_alpha   89.88550473
_cell_angle_beta   90.11449515
_cell_angle_gamma   160.93660944
_symmetry_Int_Tables_number   1
_chemical_formula_structural   TbNd3(Sn5Pt3)2
_chemical_formula_sum   'Tb1 Nd3 Sn10 Pt6'
_cell_volume   460.54948456
_cell_formula_units_Z   1
loop_
 _symmetry_equiv_pos_site_id
 _symmetry_equiv_pos_as_xyz
  1  'x, y, z'
loop_
 _atom_site_type_symbol
 _atom_site_label
 _atom_site_symmetry_multiplicity
 _atom_site_fract_x
 _atom_site_fract_y
 _atom_site_fract_z
 _atom_site_occupancy
  Tb  Tb0  1  0.523491  0.476509  0.239767  1
  Nd  Nd1  1  0.173014  0.826986  0.752577  1
  Nd  Nd2  1  0.826888  0.173112  0.252814  1
  Nd  Nd3  1  0.477135  0.522865  0.737849  1
  Sn  Sn4  1  0.879771  0.120229  0.734453  1
  Sn  Sn5  1  0.120237  0.879763  0.234426  1
  Sn  Sn6  1  0.702165  0.297835  0.047852  1
  Sn  Sn7  1  0.297169  0.702831  0.548427  1
  Sn  Sn8  1  0.598617  0.401383  0.609489  1
  Sn  Sn9  1  0.401772  0.598228  0.108583  1
  Sn  Sn10  1  0.953056  0.046944  0.397442  1
  Sn  Sn11  1  0.047547  0.952453  0.897356  1
  Sn  Sn12  1  0.289629  0.710371  0.977333  1
  Sn  Sn13  1  0.710142  0.289858  0.477463  1
  Pt  Pt14  1  0.051122  0.948878  0.513629  1
  Pt  Pt15  1  0.950239  0.049761  0.024167  1
  Pt  Pt16  1  0.776118  0.223882  0.770173  1
  Pt  Pt17  1  0.223708  0.776292  0.270080  1
  Pt  Pt18  1  0.396505  0.603495  0.477596  1
  Pt  Pt19  1  0.601676  0.398324  0.984521  1
