# generated using pymatgen
data_K3LiCdCoH9
_symmetry_space_group_name_H-M   'P 1'
_cell_length_a   7.82342091
_cell_length_b   7.82342217
_cell_length_c   7.82342154
_cell_angle_alpha   43.23659769
_cell_angle_beta   43.23658775
_cell_angle_gamma   43.23660811
_symmetry_Int_Tables_number   1
_chemical_formula_structural   K3LiCdCoH9
_chemical_formula_sum   'K3 Li1 Cd1 Co1 H9'
_cell_volume   203.75964662
_cell_formula_units_Z   1
loop_
 _symmetry_equiv_pos_site_id
 _symmetry_equiv_pos_as_xyz
  1  'x, y, z'
loop_
 _atom_site_type_symbol
 _atom_site_label
 _atom_site_symmetry_multiplicity
 _atom_site_fract_x
 _atom_site_fract_y
 _atom_site_fract_z
 _atom_site_occupancy
  K  K0  1  0.991314  0.991314  0.991314  1
  K  K1  1  0.783215  0.783215  0.783215  1
  K  K2  1  0.214486  0.214486  0.214486  1
  Li  Li3  1  0.616398  0.616398  0.616398  1
  Cd  Cd4  1  0.376051  0.376051  0.376051  1
  Co  Co5  1  0.500480  0.500480  0.500480  1
  H  H6  1  0.996093  0.503778  0.503778  1
  H  H7  1  0.503778  0.996093  0.503778  1
  H  H8  1  0.503778  0.503778  0.996093  1
  H  H9  1  0.727958  0.329070  0.329070  1
  H  H10  1  0.329070  0.727958  0.329070  1
  H  H11  1  0.329070  0.329070  0.727958  1
  H  H12  1  0.670467  0.670467  0.287371  1
  H  H13  1  0.670467  0.287371  0.670467  1
  H  H14  1  0.287371  0.670467  0.670467  1
