# generated using pymatgen
data_Ca10HfTcN10
_symmetry_space_group_name_H-M   'P 1'
_cell_length_a   6.97403037
_cell_length_b   6.97402979
_cell_length_c   8.96313128
_cell_angle_alpha   80.43334603
_cell_angle_beta   80.43333744
_cell_angle_gamma   59.79971674
_symmetry_Int_Tables_number   1
_chemical_formula_structural   Ca10HfTcN10
_chemical_formula_sum   'Ca10 Hf1 Tc1 N10'
_cell_volume   369.78278854
_cell_formula_units_Z   1
loop_
 _symmetry_equiv_pos_site_id
 _symmetry_equiv_pos_as_xyz
  1  'x, y, z'
loop_
 _atom_site_type_symbol
 _atom_site_label
 _atom_site_symmetry_multiplicity
 _atom_site_fract_x
 _atom_site_fract_y
 _atom_site_fract_z
 _atom_site_occupancy
  Ca  Ca0  1  0.876474  0.352822  0.827358  1
  Ca  Ca1  1  0.874497  0.874497  0.818494  1
  Ca  Ca2  1  0.738235  0.738235  0.532995  1
  Ca  Ca3  1  0.750113  0.251126  0.509841  1
  Ca  Ca4  1  0.629173  0.137448  0.148342  1
  Ca  Ca5  1  0.352822  0.876474  0.827358  1
  Ca  Ca6  1  0.251126  0.750113  0.509841  1
  Ca  Ca7  1  0.241514  0.241514  0.500311  1
  Ca  Ca8  1  0.140720  0.140720  0.157417  1
  Ca  Ca9  1  0.137448  0.629173  0.148342  1
  Hf  Hf10  1  0.369556  0.369556  0.778671  1
  Tc  Tc11  1  0.632205  0.632205  0.228506  1
  N  N12  1  0.903408  0.474048  0.317047  1
  N  N13  1  0.995397  0.995397  0.015750  1
  N  N14  1  0.675896  0.675896  0.024532  1
  N  N15  1  0.542364  0.542364  0.688823  1
  N  N16  1  0.474048  0.903408  0.317047  1
  N  N17  1  0.543667  0.076290  0.672347  1
  N  N18  1  0.476478  0.476478  0.296722  1
  N  N19  1  0.319028  0.319028  0.009547  1
  N  N20  1  0.061830  0.061830  0.644171  1
  N  N21  1  0.076290  0.543667  0.672347  1
