# generated using pymatgen
data_HgF18
_symmetry_space_group_name_H-M   'P 1'
_cell_length_a   6.88197096
_cell_length_b   10.11309734
_cell_length_c   10.55530102
_cell_angle_alpha   92.53124884
_cell_angle_beta   95.08488611
_cell_angle_gamma   71.61117904
_symmetry_Int_Tables_number   1
_chemical_formula_structural   HgF18
_chemical_formula_sum   'Hg2 F36'
_cell_volume   694.27082478
_cell_formula_units_Z   2
loop_
 _symmetry_equiv_pos_site_id
 _symmetry_equiv_pos_as_xyz
  1  'x, y, z'
loop_
 _atom_site_type_symbol
 _atom_site_label
 _atom_site_symmetry_multiplicity
 _atom_site_fract_x
 _atom_site_fract_y
 _atom_site_fract_z
 _atom_site_occupancy
  Hg  Hg0  1  0.719947  0.784611  0.806334  1
  Hg  Hg1  1  0.280053  0.215389  0.193666  1
  F  F2  1  0.328689  0.389133  0.902673  1
  F  F3  1  0.671311  0.610867  0.097327  1
  F  F4  1  0.301666  0.275162  0.575499  1
  F  F5  1  0.698334  0.724838  0.424501  1
  F  F6  1  0.865975  0.219418  0.823002  1
  F  F7  1  0.134025  0.780582  0.176998  1
  F  F8  1  0.664113  0.852612  0.050371  1
  F  F9  1  0.335887  0.147388  0.949629  1
  F  F10  1  0.925608  0.628678  0.894409  1
  F  F11  1  0.074392  0.371322  0.105591  1
  F  F12  1  0.438858  0.448802  0.825668  1
  F  F13  1  0.561142  0.551198  0.174332  1
  F  F14  1  0.636108  0.648168  0.698094  1
  F  F15  1  0.363892  0.351832  0.301906  1
  F  F16  1  0.773364  0.004566  0.515316  1
  F  F17  1  0.226636  0.995434  0.484684  1
  F  F18  1  0.265735  0.196939  0.675081  1
  F  F19  1  0.734265  0.803061  0.324919  1
  F  F20  1  0.808439  0.090853  0.620428  1
  F  F21  1  0.191561  0.909147  0.379572  1
  F  F22  1  0.802131  0.927213  0.913889  1
  F  F23  1  0.197869  0.072787  0.086111  1
  F  F24  1  0.886113  0.355291  0.821707  1
  F  F25  1  0.113887  0.644709  0.178293  1
  F  F26  1  0.214376  0.755229  0.904128  1
  F  F27  1  0.785624  0.244771  0.095872  1
  F  F28  1  0.518481  0.936487  0.711862  1
  F  F29  1  0.481519  0.063513  0.288138  1
  F  F30  1  0.077870  0.757548  0.587448  1
  F  F31  1  0.922130  0.242452  0.412552  1
  F  F32  1  0.156222  0.624332  0.645716  1
  F  F33  1  0.843778  0.375668  0.354284  1
  F  F34  1  0.274002  0.861373  0.847818  1
  F  F35  1  0.725998  0.138627  0.152182  1
  F  F36  1  0.522352  0.439785  0.538085  1
  F  F37  1  0.477648  0.560215  0.461915  1
