# generated using pymatgen
data_Cs2Tc(OF2)2
_symmetry_space_group_name_H-M   'P 1'
_cell_length_a   8.08130600
_cell_length_b   8.08130537
_cell_length_c   7.29550900
_cell_angle_alpha   90.00000000
_cell_angle_beta   90.00000000
_cell_angle_gamma   134.39665488
_symmetry_Int_Tables_number   1
_chemical_formula_structural   Cs2Tc(OF2)2
_chemical_formula_sum   'Cs4 Tc2 O4 F8'
_cell_volume   340.43101690
_cell_formula_units_Z   2
loop_
 _symmetry_equiv_pos_site_id
 _symmetry_equiv_pos_as_xyz
  1  'x, y, z'
loop_
 _atom_site_type_symbol
 _atom_site_label
 _atom_site_symmetry_multiplicity
 _atom_site_fract_x
 _atom_site_fract_y
 _atom_site_fract_z
 _atom_site_occupancy
  Cs  Cs0  1  0.445429  0.545928  0.250000  1
  Cs  Cs1  1  0.545928  0.445429  0.750000  1
  Cs  Cs2  1  0.747945  0.210388  0.250000  1
  Cs  Cs3  1  0.210388  0.747945  0.750000  1
  Tc  Tc4  1  0.114565  0.886269  0.250000  1
  Tc  Tc5  1  0.886269  0.114565  0.750000  1
  O  O6  1  0.050579  0.281821  0.940984  1
  O  O7  1  0.281821  0.050579  0.059016  1
  O  O8  1  0.281821  0.050579  0.440984  1
  O  O9  1  0.050579  0.281821  0.559016  1
  F  F10  1  0.959744  0.991484  0.250000  1
  F  F11  1  0.991484  0.959744  0.750000  1
  F  F12  1  0.860377  0.622263  0.075481  1
  F  F13  1  0.622263  0.860377  0.924519  1
  F  F14  1  0.622263  0.860377  0.575481  1
  F  F15  1  0.860377  0.622263  0.424519  1
  F  F16  1  0.230596  0.734574  0.250000  1
  F  F17  1  0.734574  0.230596  0.750000  1
