# generated using pymatgen
data_LaTb9(In2Au)4
_symmetry_space_group_name_H-M   'P 1'
_cell_length_a   3.68346700
_cell_length_b   8.25906850
_cell_length_c   18.54838900
_cell_angle_alpha   90.05272362
_cell_angle_beta   90.00000000
_cell_angle_gamma   90.00000000
_symmetry_Int_Tables_number   1
_chemical_formula_structural   LaTb9(In2Au)4
_chemical_formula_sum   'La1 Tb9 In8 Au4'
_cell_volume   564.27896734
_cell_formula_units_Z   1
loop_
 _symmetry_equiv_pos_site_id
 _symmetry_equiv_pos_as_xyz
  1  'x, y, z'
loop_
 _atom_site_type_symbol
 _atom_site_label
 _atom_site_symmetry_multiplicity
 _atom_site_fract_x
 _atom_site_fract_y
 _atom_site_fract_z
 _atom_site_occupancy
  La  La0  1  0.500000  0.000000  0.000000  1
  Tb  Tb1  1  0.500000  0.236955  0.782975  1
  Tb  Tb2  1  0.500000  0.763045  0.217025  1
  Tb  Tb3  1  0.500000  0.264132  0.284776  1
  Tb  Tb4  1  0.500000  0.735868  0.715224  1
  Tb  Tb5  1  0.500000  0.121287  0.579515  1
  Tb  Tb6  1  0.500000  0.878713  0.420485  1
  Tb  Tb7  1  0.500000  0.375420  0.080391  1
  Tb  Tb8  1  0.500000  0.624580  0.919609  1
  Tb  Tb9  1  0.500000  0.500000  0.500000  1
  In  In10  1  0.000000  0.082449  0.151113  1
  In  In11  1  0.000000  0.917551  0.848887  1
  In  In12  1  0.000000  0.419265  0.646997  1
  In  In13  1  0.000000  0.580735  0.353003  1
  In  In14  1  0.000000  0.208940  0.433567  1
  In  In15  1  0.000000  0.791060  0.566433  1
  In  In16  1  0.000000  0.299078  0.931646  1
  In  In17  1  0.000000  0.700922  0.068354  1
  Au  Au18  1  0.000000  0.027567  0.696027  1
  Au  Au19  1  0.000000  0.972433  0.303973  1
  Au  Au20  1  0.000000  0.472134  0.197605  1
  Au  Au21  1  0.000000  0.527866  0.802395  1
