# generated using pymatgen
data_InSnRh3S2
_symmetry_space_group_name_H-M   'P 1'
_cell_length_a   5.65107972
_cell_length_b   5.65107984
_cell_length_c   5.65108039
_cell_angle_alpha   60.27981175
_cell_angle_beta   60.27981447
_cell_angle_gamma   60.27980640
_symmetry_Int_Tables_number   1
_chemical_formula_structural   InSnRh3S2
_chemical_formula_sum   'In1 Sn1 Rh3 S2'
_cell_volume   128.41653882
_cell_formula_units_Z   1
loop_
 _symmetry_equiv_pos_site_id
 _symmetry_equiv_pos_as_xyz
  1  'x, y, z'
loop_
 _atom_site_type_symbol
 _atom_site_label
 _atom_site_symmetry_multiplicity
 _atom_site_fract_x
 _atom_site_fract_y
 _atom_site_fract_z
 _atom_site_occupancy
  In  In0  1  0.500000  0.500000  0.500000  1
  Sn  Sn1  1  0.000000  0.000000  0.000000  1
  Rh  Rh2  1  0.500000  0.500000  0.000000  1
  Rh  Rh3  1  0.000000  0.500000  0.500000  1
  Rh  Rh4  1  0.500000  0.000000  0.500000  1
  S  S5  1  0.785357  0.785357  0.785357  1
  S  S6  1  0.214643  0.214643  0.214643  1
