# generated using pymatgen
data_TbIrF7
_symmetry_space_group_name_H-M   'P 1'
_cell_length_a   5.58450900
_cell_length_b   8.97045818
_cell_length_c   11.99437613
_cell_angle_alpha   62.35013153
_cell_angle_beta   90.00000000
_cell_angle_gamma   90.00000000
_symmetry_Int_Tables_number   1
_chemical_formula_structural   TbIrF7
_chemical_formula_sum   'Tb4 Ir4 F28'
_cell_volume   532.24668237
_cell_formula_units_Z   4
loop_
 _symmetry_equiv_pos_site_id
 _symmetry_equiv_pos_as_xyz
  1  'x, y, z'
loop_
 _atom_site_type_symbol
 _atom_site_label
 _atom_site_symmetry_multiplicity
 _atom_site_fract_x
 _atom_site_fract_y
 _atom_site_fract_z
 _atom_site_occupancy
  Tb  Tb0  1  0.260351  0.813932  0.264762  1
  Tb  Tb1  1  0.739649  0.186068  0.735238  1
  Tb  Tb2  1  0.760351  0.186068  0.235238  1
  Tb  Tb3  1  0.239649  0.813932  0.764762  1
  Ir  Ir4  1  0.757425  0.726170  0.043254  1
  Ir  Ir5  1  0.242575  0.273830  0.956746  1
  Ir  Ir6  1  0.257425  0.273830  0.456746  1
  Ir  Ir7  1  0.742575  0.726170  0.543254  1
  F  F8  1  0.940839  0.707261  0.414917  1
  F  F9  1  0.059161  0.292739  0.585083  1
  F  F10  1  0.440839  0.292739  0.085083  1
  F  F11  1  0.559161  0.707261  0.914917  1
  F  F12  1  0.468145  0.729647  0.136080  1
  F  F13  1  0.531855  0.270353  0.863920  1
  F  F14  1  0.968145  0.270353  0.363920  1
  F  F15  1  0.031855  0.729647  0.636080  1
  F  F16  1  0.952441  0.743773  0.173518  1
  F  F17  1  0.047559  0.256227  0.826482  1
  F  F18  1  0.452441  0.256227  0.326482  1
  F  F19  1  0.547559  0.743773  0.673518  1
  F  F20  1  0.766698  0.481563  0.139699  1
  F  F21  1  0.233302  0.518437  0.860301  1
  F  F22  1  0.266698  0.518437  0.360301  1
  F  F23  1  0.733302  0.481563  0.639699  1
  F  F24  1  0.945883  0.281007  0.044532  1
  F  F25  1  0.054117  0.718993  0.955468  1
  F  F26  1  0.445883  0.718993  0.455468  1
  F  F27  1  0.554117  0.281007  0.544532  1
  F  F28  1  0.740096  0.971143  0.449149  1
  F  F29  1  0.259904  0.028857  0.550851  1
  F  F30  1  0.240096  0.028857  0.050851  1
  F  F31  1  0.759904  0.971143  0.949149  1
  F  F32  1  0.586651  0.969945  0.231040  1
  F  F33  1  0.413349  0.030055  0.768960  1
  F  F34  1  0.086651  0.030055  0.268960  1
  F  F35  1  0.913349  0.969945  0.731040  1
