# generated using pymatgen
data_Li4DyY3Si8
_symmetry_space_group_name_H-M   'P 1'
_cell_length_a   3.79439600
_cell_length_b   7.59359187
_cell_length_c   10.18614816
_cell_angle_alpha   90.01716143
_cell_angle_beta   90.00000000
_cell_angle_gamma   90.00000000
_symmetry_Int_Tables_number   1
_chemical_formula_structural   Li4DyY3Si8
_chemical_formula_sum   'Li4 Dy1 Y3 Si8'
_cell_volume   293.49443750
_cell_formula_units_Z   1
loop_
 _symmetry_equiv_pos_site_id
 _symmetry_equiv_pos_as_xyz
  1  'x, y, z'
loop_
 _atom_site_type_symbol
 _atom_site_label
 _atom_site_symmetry_multiplicity
 _atom_site_fract_x
 _atom_site_fract_y
 _atom_site_fract_z
 _atom_site_occupancy
  Li  Li0  1  0.250000  0.989825  0.391847  1
  Li  Li1  1  0.750000  0.010719  0.607962  1
  Li  Li2  1  0.250000  0.489779  0.108566  1
  Li  Li3  1  0.750000  0.509099  0.891929  1
  Dy  Dy4  1  0.750000  0.361264  0.363768  1
  Y  Y5  1  0.250000  0.139618  0.863789  1
  Y  Y6  1  0.750000  0.860115  0.136361  1
  Y  Y7  1  0.250000  0.639758  0.635933  1
  Si  Si8  1  0.750000  0.267955  0.069013  1
  Si  Si9  1  0.250000  0.731297  0.931630  1
  Si  Si10  1  0.750000  0.768006  0.431514  1
  Si  Si11  1  0.250000  0.233381  0.567005  1
  Si  Si12  1  0.750000  0.842789  0.820454  1
  Si  Si13  1  0.250000  0.157077  0.180439  1
  Si  Si14  1  0.750000  0.343450  0.678907  1
  Si  Si15  1  0.250000  0.655864  0.320881  1
