# generated using pymatgen
data_Sm4Lu16AlBi11
_symmetry_space_group_name_H-M   'P 1'
_cell_length_a   8.12001099
_cell_length_b   9.36561800
_cell_length_c   11.84921800
_cell_angle_alpha   90.00000000
_cell_angle_beta   90.26060461
_cell_angle_gamma   90.00000000
_symmetry_Int_Tables_number   1
_chemical_formula_structural   Sm4Lu16AlBi11
_chemical_formula_sum   'Sm4 Lu16 Al1 Bi11'
_cell_volume   901.11092383
_cell_formula_units_Z   1
loop_
 _symmetry_equiv_pos_site_id
 _symmetry_equiv_pos_as_xyz
  1  'x, y, z'
loop_
 _atom_site_type_symbol
 _atom_site_label
 _atom_site_symmetry_multiplicity
 _atom_site_fract_x
 _atom_site_fract_y
 _atom_site_fract_z
 _atom_site_occupancy
  Sm  Sm0  1  0.314785  0.250000  0.219264  1
  Sm  Sm1  1  0.812312  0.250000  0.281591  1
  Sm  Sm2  1  0.678340  0.750000  0.786078  1
  Sm  Sm3  1  0.188530  0.750000  0.721985  1
  Lu  Lu4  1  0.353466  0.750000  0.208405  1
  Lu  Lu5  1  0.850984  0.750000  0.282171  1
  Lu  Lu6  1  0.649831  0.250000  0.781218  1
  Lu  Lu7  1  0.150768  0.250000  0.719602  1
  Lu  Lu8  1  0.683362  0.572151  0.057758  1
  Lu  Lu9  1  0.191752  0.933026  0.437462  1
  Lu  Lu10  1  0.309443  0.053823  0.940479  1
  Lu  Lu11  1  0.808463  0.433418  0.561161  1
  Lu  Lu12  1  0.309443  0.446177  0.940479  1
  Lu  Lu13  1  0.808463  0.066582  0.561161  1
  Lu  Lu14  1  0.683362  0.927849  0.057758  1
  Lu  Lu15  1  0.191752  0.566974  0.437462  1
  Lu  Lu16  1  0.478697  0.250000  0.490030  1
  Lu  Lu17  1  0.980854  0.250000  0.009608  1
  Lu  Lu18  1  0.522511  0.750000  0.510539  1
  Lu  Lu19  1  0.033913  0.750000  0.990559  1
  Al  Al20  1  0.404032  0.750000  0.962300  1
  Bi  Bi21  1  0.902677  0.750000  0.539769  1
  Bi  Bi22  1  0.598644  0.250000  0.037725  1
  Bi  Bi23  1  0.098756  0.250000  0.462326  1
  Bi  Bi24  1  0.563407  0.991898  0.327605  1
  Bi  Bi25  1  0.061683  0.506504  0.173905  1
  Bi  Bi26  1  0.436185  0.492542  0.673251  1
  Bi  Bi27  1  0.936157  0.006929  0.826795  1
  Bi  Bi28  1  0.436185  0.007458  0.673251  1
  Bi  Bi29  1  0.936157  0.493071  0.826795  1
  Bi  Bi30  1  0.563407  0.508102  0.327605  1
  Bi  Bi31  1  0.061683  0.993496  0.173905  1
