# generated using pymatgen
data_PuZr8N10
_symmetry_space_group_name_H-M   'P 1'
_cell_length_a   5.68215683
_cell_length_b   5.68215795
_cell_length_c   10.38797850
_cell_angle_alpha   90.20468465
_cell_angle_beta   90.20467396
_cell_angle_gamma   47.68241357
_symmetry_Int_Tables_number   1
_chemical_formula_structural   PuZr8N10
_chemical_formula_sum   'Pu1 Zr8 N10'
_cell_volume   247.99794136
_cell_formula_units_Z   1
loop_
 _symmetry_equiv_pos_site_id
 _symmetry_equiv_pos_as_xyz
  1  'x, y, z'
loop_
 _atom_site_type_symbol
 _atom_site_label
 _atom_site_symmetry_multiplicity
 _atom_site_fract_x
 _atom_site_fract_y
 _atom_site_fract_z
 _atom_site_occupancy
  Pu  Pu0  1  0.500000  0.500000  0.500000  1
  Zr  Zr1  1  0.698859  0.698859  0.093512  1
  Zr  Zr2  1  0.410556  0.410556  0.187655  1
  Zr  Zr3  1  0.589444  0.589444  0.812345  1
  Zr  Zr4  1  0.301141  0.301141  0.906488  1
  Zr  Zr5  1  0.105278  0.105278  0.289894  1
  Zr  Zr6  1  0.798808  0.798808  0.395518  1
  Zr  Zr7  1  0.201192  0.201192  0.604482  1
  Zr  Zr8  1  0.894722  0.894722  0.710106  1
  N  N9  1  0.396849  0.396849  0.707035  1
  N  N10  1  0.299500  0.299500  0.395125  1
  N  N11  1  0.104128  0.104128  0.792274  1
  N  N12  1  0.000000  0.000000  0.500000  1
  N  N13  1  0.700500  0.700500  0.604875  1
  N  N14  1  0.895872  0.895872  0.207726  1
  N  N15  1  0.603151  0.603151  0.292965  1
  N  N16  1  0.786723  0.786723  0.896153  1
  N  N17  1  0.500000  0.500000  0.000000  1
  N  N18  1  0.213277  0.213277  0.103847  1
