# generated using pymatgen
data_Hf3HgPd4
_symmetry_space_group_name_H-M   'P 1'
_cell_length_a   3.47913600
_cell_length_b   3.47913600
_cell_length_c   12.11642600
_cell_angle_alpha   90.00000000
_cell_angle_beta   90.00000000
_cell_angle_gamma   90.00000000
_symmetry_Int_Tables_number   1
_chemical_formula_structural   Hf3HgPd4
_chemical_formula_sum   'Hf3 Hg1 Pd4'
_cell_volume   146.66191307
_cell_formula_units_Z   1
loop_
 _symmetry_equiv_pos_site_id
 _symmetry_equiv_pos_as_xyz
  1  'x, y, z'
loop_
 _atom_site_type_symbol
 _atom_site_label
 _atom_site_symmetry_multiplicity
 _atom_site_fract_x
 _atom_site_fract_y
 _atom_site_fract_z
 _atom_site_occupancy
  Hf  Hf0  1  0.000000  0.000000  0.152566  1
  Hf  Hf1  1  0.500000  0.500000  0.500000  1
  Hf  Hf2  1  0.000000  0.000000  0.847434  1
  Hg  Hg3  1  0.500000  0.500000  0.000000  1
  Pd  Pd4  1  0.500000  0.500000  0.254074  1
  Pd  Pd5  1  0.000000  0.000000  0.383332  1
  Pd  Pd6  1  0.000000  0.000000  0.616668  1
  Pd  Pd7  1  0.500000  0.500000  0.745926  1
