# generated using pymatgen
data_Dy3TmGa18(Ir2Pt)2
_symmetry_space_group_name_H-M   'P 1'
_cell_length_a   7.62399205
_cell_length_b   7.62409570
_cell_length_c   9.47435501
_cell_angle_alpha   90.00178143
_cell_angle_beta   90.00178757
_cell_angle_gamma   119.87906417
_symmetry_Int_Tables_number   1
_chemical_formula_structural   Dy3TmGa18(Ir2Pt)2
_chemical_formula_sum   'Dy3 Tm1 Ga18 Ir4 Pt2'
_cell_volume   477.50619843
_cell_formula_units_Z   1
loop_
 _symmetry_equiv_pos_site_id
 _symmetry_equiv_pos_as_xyz
  1  'x, y, z'
loop_
 _atom_site_type_symbol
 _atom_site_label
 _atom_site_symmetry_multiplicity
 _atom_site_fract_x
 _atom_site_fract_y
 _atom_site_fract_z
 _atom_site_occupancy
  Dy  Dy0  1  0.996442  0.670456  0.250087  1
  Dy  Dy1  1  0.003261  0.329341  0.749909  1
  Dy  Dy2  1  0.670330  0.996379  0.250084  1
  Tm  Tm3  1  0.329443  0.003253  0.749914  1
  Ga  Ga4  1  0.132216  0.132138  0.250004  1
  Ga  Ga5  1  0.868157  0.867911  0.749999  1
  Ga  Ga6  1  0.998481  0.337966  0.081478  1
  Ga  Ga7  1  0.002136  0.662759  0.918266  1
  Ga  Ga8  1  0.002182  0.662811  0.581712  1
  Ga  Ga9  1  0.337877  0.998435  0.418918  1
  Ga  Ga10  1  0.998417  0.337894  0.418539  1
  Ga  Ga11  1  0.661590  0.001588  0.581737  1
  Ga  Ga12  1  0.661524  0.001554  0.918239  1
  Ga  Ga13  1  0.337960  0.998482  0.081107  1
  Ga  Ga14  1  0.335685  0.335142  0.568265  1
  Ga  Ga15  1  0.664356  0.664370  0.432130  1
  Ga  Ga16  1  0.664454  0.664456  0.067946  1
  Ga  Ga17  1  0.335612  0.335075  0.931647  1
  Ga  Ga18  1  0.337221  0.546989  0.249989  1
  Ga  Ga19  1  0.662387  0.452549  0.750018  1
  Ga  Ga20  1  0.546955  0.337179  0.249994  1
  Ga  Ga21  1  0.452923  0.662936  0.750008  1
  Ir  Ir22  1  0.671233  0.328663  0.999748  1
  Ir  Ir23  1  0.328758  0.671408  0.999747  1
  Ir  Ir24  1  0.328767  0.671405  0.500253  1
  Ir  Ir25  1  0.671199  0.328656  0.500266  1
  Pt  Pt26  1  0.000221  0.000116  0.999744  1
  Pt  Pt27  1  0.000212  0.000091  0.500255  1
