# generated using pymatgen
data_Sr3CaMo8(P2O9)4
_symmetry_space_group_name_H-M   'P 1'
_cell_length_a   6.78877700
_cell_length_b   7.58276294
_cell_length_c   15.15298422
_cell_angle_alpha   90.18634937
_cell_angle_beta   90.00000000
_cell_angle_gamma   90.00000000
_symmetry_Int_Tables_number   1
_chemical_formula_structural   Sr3CaMo8(P2O9)4
_chemical_formula_sum   'Sr3 Ca1 Mo8 P8 O36'
_cell_volume   780.03644718
_cell_formula_units_Z   1
loop_
 _symmetry_equiv_pos_site_id
 _symmetry_equiv_pos_as_xyz
  1  'x, y, z'
loop_
 _atom_site_type_symbol
 _atom_site_label
 _atom_site_symmetry_multiplicity
 _atom_site_fract_x
 _atom_site_fract_y
 _atom_site_fract_z
 _atom_site_occupancy
  Sr  Sr0  1  0.750000  0.897214  0.781327  1
  Sr  Sr1  1  0.750000  0.602736  0.280882  1
  Sr  Sr2  1  0.250000  0.397623  0.719183  1
  Ca  Ca3  1  0.250000  0.092366  0.222386  1
  Mo  Mo4  1  0.750000  0.361503  0.876715  1
  Mo  Mo5  1  0.250000  0.638622  0.123381  1
  Mo  Mo6  1  0.250000  0.862902  0.622399  1
  Mo  Mo7  1  0.750000  0.137569  0.376320  1
  Mo  Mo8  1  0.499563  0.001378  0.001649  1
  Mo  Mo9  1  0.499953  0.499835  0.499369  1
  Mo  Mo10  1  0.000047  0.499835  0.499369  1
  Mo  Mo11  1  0.000437  0.001378  0.001649  1
  P  P12  1  0.250000  0.367619  0.931804  1
  P  P13  1  0.750000  0.633397  0.068497  1
  P  P14  1  0.750000  0.867596  0.567851  1
  P  P15  1  0.250000  0.131320  0.428429  1
  P  P16  1  0.750000  0.397103  0.688669  1
  P  P17  1  0.750000  0.101774  0.191280  1
  P  P18  1  0.250000  0.898585  0.811263  1
  P  P19  1  0.250000  0.603012  0.310453  1
  O  O20  1  0.062799  0.601995  0.368607  1
  O  O21  1  0.562634  0.399077  0.630576  1
  O  O22  1  0.941216  0.098586  0.135019  1
  O  O23  1  0.437140  0.900367  0.869641  1
  O  O24  1  0.937366  0.399077  0.630576  1
  O  O25  1  0.437201  0.601995  0.368607  1
  O  O26  1  0.062860  0.900367  0.869641  1
  O  O27  1  0.558784  0.098586  0.135019  1
  O  O28  1  0.250000  0.315723  0.478555  1
  O  O29  1  0.750000  0.683189  0.517830  1
  O  O30  1  0.750000  0.817834  0.018944  1
  O  O31  1  0.250000  0.184303  0.982208  1
  O  O32  1  0.750000  0.118217  0.939192  1
  O  O33  1  0.250000  0.885542  0.064498  1
  O  O34  1  0.250000  0.617140  0.561729  1
  O  O35  1  0.750000  0.382394  0.437647  1
  O  O36  1  0.750000  0.228733  0.748068  1
  O  O37  1  0.250000  0.773007  0.251565  1
  O  O38  1  0.250000  0.730467  0.751034  1
  O  O39  1  0.750000  0.271560  0.249789  1
  O  O40  1  0.429371  0.125497  0.364561  1
  O  O41  1  0.930843  0.872950  0.630443  1
  O  O42  1  0.569187  0.628351  0.131008  1
  O  O43  1  0.069246  0.371894  0.869075  1
  O  O44  1  0.569157  0.872950  0.630443  1
  O  O45  1  0.070629  0.125497  0.364561  1
  O  O46  1  0.430754  0.371894  0.869075  1
  O  O47  1  0.930813  0.628351  0.131008  1
  O  O48  1  0.750000  0.485742  0.001424  1
  O  O49  1  0.250000  0.052226  0.742154  1
  O  O50  1  0.250000  0.448411  0.241481  1
  O  O51  1  0.750000  0.551068  0.758131  1
  O  O52  1  0.750000  0.014677  0.501062  1
  O  O53  1  0.250000  0.984724  0.495794  1
  O  O54  1  0.250000  0.516471  0.998130  1
  O  O55  1  0.750000  0.947771  0.260030  1
