# generated using pymatgen
data_TbYCo4(PRh)6
_symmetry_space_group_name_H-M   'P 1'
_cell_length_a   3.80323300
_cell_length_b   10.67494501
_cell_length_c   12.23774401
_cell_angle_alpha   89.99573892
_cell_angle_beta   90.00000000
_cell_angle_gamma   90.00000000
_symmetry_Int_Tables_number   1
_chemical_formula_structural   TbYCo4(PRh)6
_chemical_formula_sum   'Tb2 Y2 Co8 P12 Rh12'
_cell_volume   496.84387719
_cell_formula_units_Z   2
loop_
 _symmetry_equiv_pos_site_id
 _symmetry_equiv_pos_as_xyz
  1  'x, y, z'
loop_
 _atom_site_type_symbol
 _atom_site_label
 _atom_site_symmetry_multiplicity
 _atom_site_fract_x
 _atom_site_fract_y
 _atom_site_fract_z
 _atom_site_occupancy
  Tb  Tb0  1  0.250000  0.916730  0.208741  1
  Tb  Tb1  1  0.750000  0.083270  0.791259  1
  Y  Y2  1  0.750000  0.416739  0.291234  1
  Y  Y3  1  0.250000  0.583261  0.708766  1
  Co  Co4  1  0.250000  0.615667  0.196826  1
  Co  Co5  1  0.750000  0.384333  0.803174  1
  Co  Co6  1  0.750000  0.115707  0.303201  1
  Co  Co7  1  0.250000  0.884293  0.696799  1
  Co  Co8  1  0.250000  0.036139  0.432895  1
  Co  Co9  1  0.750000  0.963861  0.567105  1
  Co  Co10  1  0.750000  0.536103  0.067113  1
  Co  Co11  1  0.250000  0.463897  0.932887  1
  P  P12  1  0.250000  0.069225  0.610522  1
  P  P13  1  0.750000  0.930775  0.389478  1
  P  P14  1  0.750000  0.569266  0.889428  1
  P  P15  1  0.250000  0.430734  0.110572  1
  P  P16  1  0.250000  0.225165  0.371050  1
  P  P17  1  0.750000  0.774835  0.628950  1
  P  P18  1  0.750000  0.725111  0.128941  1
  P  P19  1  0.250000  0.274889  0.871059  1
  P  P20  1  0.250000  0.899668  0.881633  1
  P  P21  1  0.750000  0.100332  0.118367  1
  P  P22  1  0.750000  0.399734  0.618380  1
  P  P23  1  0.250000  0.600266  0.381620  1
  Rh  Rh24  1  0.250000  0.784154  0.491195  1
  Rh  Rh25  1  0.750000  0.215846  0.508805  1
  Rh  Rh26  1  0.750000  0.284120  0.008777  1
  Rh  Rh27  1  0.250000  0.715880  0.991223  1
  Rh  Rh28  1  0.250000  0.091497  0.979873  1
  Rh  Rh29  1  0.750000  0.908503  0.020127  1
  Rh  Rh30  1  0.750000  0.591501  0.520239  1
  Rh  Rh31  1  0.250000  0.408499  0.479761  1
  Rh  Rh32  1  0.250000  0.274154  0.679969  1
  Rh  Rh33  1  0.750000  0.725846  0.320031  1
  Rh  Rh34  1  0.750000  0.774054  0.820001  1
  Rh  Rh35  1  0.250000  0.225946  0.179999  1
