# generated using pymatgen
data_Ca2GdUN4
_symmetry_space_group_name_H-M   'P 1'
_cell_length_a   6.11953325
_cell_length_b   6.12000685
_cell_length_c   4.90617501
_cell_angle_alpha   66.37891526
_cell_angle_beta   66.37398504
_cell_angle_gamma   47.26218252
_symmetry_Int_Tables_number   1
_chemical_formula_structural   Ca2GdUN4
_chemical_formula_sum   'Ca2 Gd1 U1 N4'
_cell_volume   121.35932913
_cell_formula_units_Z   1
loop_
 _symmetry_equiv_pos_site_id
 _symmetry_equiv_pos_as_xyz
  1  'x, y, z'
loop_
 _atom_site_type_symbol
 _atom_site_label
 _atom_site_symmetry_multiplicity
 _atom_site_fract_x
 _atom_site_fract_y
 _atom_site_fract_z
 _atom_site_occupancy
  Ca  Ca0  1  0.247433  0.252567  0.252567  1
  Ca  Ca1  1  0.497590  0.502410  0.502410  1
  Gd  Gd2  1  0.747429  0.752571  0.752571  1
  U  U3  1  0.998501  0.001499  0.001499  1
  N  N4  1  0.989274  0.994294  0.515732  1
  N  N5  1  0.208287  0.213284  0.791709  1
  N  N6  1  0.500700  0.515732  0.994294  1
  N  N7  1  0.786721  0.791709  0.213284  1
