# generated using pymatgen
data_Ho3TaB4(Ru5W)2
_symmetry_space_group_name_H-M   'P 1'
_cell_length_a   9.57185947
_cell_length_b   9.57186078
_cell_length_c   3.08915400
_cell_angle_alpha   90.00000000
_cell_angle_beta   90.00000000
_cell_angle_gamma   90.24055497
_symmetry_Int_Tables_number   1
_chemical_formula_structural   Ho3TaB4(Ru5W)2
_chemical_formula_sum   'Ho3 Ta1 B4 Ru10 W2'
_cell_volume   283.02735893
_cell_formula_units_Z   1
loop_
 _symmetry_equiv_pos_site_id
 _symmetry_equiv_pos_as_xyz
  1  'x, y, z'
loop_
 _atom_site_type_symbol
 _atom_site_label
 _atom_site_symmetry_multiplicity
 _atom_site_fract_x
 _atom_site_fract_y
 _atom_site_fract_z
 _atom_site_occupancy
  Ho  Ho0  1  0.824287  0.675215  0.000000  1
  Ho  Ho1  1  0.175215  0.324287  0.000000  1
  Ho  Ho2  1  0.325397  0.825397  0.000000  1
  Ta  Ta3  1  0.676194  0.176194  0.000000  1
  B  B4  1  0.622454  0.881197  0.000000  1
  B  B5  1  0.381197  0.122454  0.000000  1
  B  B6  1  0.118440  0.618440  0.000000  1
  B  B7  1  0.876990  0.376990  0.000000  1
  Ru  Ru8  1  0.570461  0.719248  0.500000  1
  Ru  Ru9  1  0.440639  0.282378  0.500000  1
  Ru  Ru10  1  0.068175  0.783143  0.500000  1
  Ru  Ru11  1  0.917397  0.211839  0.500000  1
  Ru  Ru12  1  0.283143  0.568175  0.500000  1
  Ru  Ru13  1  0.711839  0.417397  0.500000  1
  Ru  Ru14  1  0.219248  0.070461  0.500000  1
  Ru  Ru15  1  0.782378  0.940639  0.500000  1
  Ru  Ru16  1  0.509546  0.009546  0.500000  1
  Ru  Ru17  1  0.996250  0.496250  0.500000  1
  W  W18  1  0.497913  0.502835  0.000000  1
  W  W19  1  0.002835  0.997913  0.000000  1
