# generated using pymatgen
data_YTa8GaS16
_symmetry_space_group_name_H-M   'P 1'
_cell_length_a   6.70872800
_cell_length_b   6.70872724
_cell_length_c   14.10231800
_cell_angle_alpha   90.00000000
_cell_angle_beta   90.00000000
_cell_angle_gamma   120.00000374
_symmetry_Int_Tables_number   1
_chemical_formula_structural   YTa8GaS16
_chemical_formula_sum   'Y1 Ta8 Ga1 S16'
_cell_volume   549.66924500
_cell_formula_units_Z   1
loop_
 _symmetry_equiv_pos_site_id
 _symmetry_equiv_pos_as_xyz
  1  'x, y, z'
loop_
 _atom_site_type_symbol
 _atom_site_label
 _atom_site_symmetry_multiplicity
 _atom_site_fract_x
 _atom_site_fract_y
 _atom_site_fract_z
 _atom_site_occupancy
  Y  Y0  1  0.000000  0.000000  0.500000  1
  Ta  Ta1  1  0.503543  0.496457  0.746979  1
  Ta  Ta2  1  0.007085  0.503543  0.253021  1
  Ta  Ta3  1  0.496457  0.992915  0.253021  1
  Ta  Ta4  1  0.503543  0.007085  0.746979  1
  Ta  Ta5  1  0.992915  0.496457  0.746979  1
  Ta  Ta6  1  0.496457  0.503543  0.253021  1
  Ta  Ta7  1  0.000000  0.000000  0.743650  1
  Ta  Ta8  1  0.000000  0.000000  0.256350  1
  Ga  Ga9  1  0.000000  0.000000  0.000000  1
  S  S10  1  0.830653  0.169347  0.365463  1
  S  S11  1  0.830653  0.661305  0.365463  1
  S  S12  1  0.338695  0.169347  0.365463  1
  S  S13  1  0.669623  0.834811  0.854551  1
  S  S14  1  0.169347  0.338695  0.634537  1
  S  S15  1  0.165189  0.834811  0.854551  1
  S  S16  1  0.165189  0.330377  0.854551  1
  S  S17  1  0.834811  0.165189  0.145449  1
  S  S18  1  0.330377  0.165189  0.145449  1
  S  S19  1  0.661305  0.830653  0.634537  1
  S  S20  1  0.333333  0.666667  0.142035  1
  S  S21  1  0.666667  0.333333  0.634890  1
  S  S22  1  0.666667  0.333333  0.857965  1
  S  S23  1  0.333333  0.666667  0.365110  1
  S  S24  1  0.834811  0.669623  0.145449  1
  S  S25  1  0.169347  0.830653  0.634537  1
