# generated using pymatgen
data_Tb7HoHf9Si16W3
_symmetry_space_group_name_H-M   'P 1'
_cell_length_a   7.19366978
_cell_length_b   7.19304131
_cell_length_c   13.16896829
_cell_angle_alpha   90.13818028
_cell_angle_beta   90.11731422
_cell_angle_gamma   90.06949912
_symmetry_Int_Tables_number   1
_chemical_formula_structural   Tb7HoHf9Si16W3
_chemical_formula_sum   'Tb7 Ho1 Hf9 Si16 W3'
_cell_volume   681.41597264
_cell_formula_units_Z   1
loop_
 _symmetry_equiv_pos_site_id
 _symmetry_equiv_pos_as_xyz
  1  'x, y, z'
loop_
 _atom_site_type_symbol
 _atom_site_label
 _atom_site_symmetry_multiplicity
 _atom_site_fract_x
 _atom_site_fract_y
 _atom_site_fract_z
 _atom_site_occupancy
  Tb  Tb0  1  0.003458  0.656644  0.714829  1
  Tb  Tb1  1  0.154860  0.499501  0.463898  1
  Tb  Tb2  1  0.500402  0.845035  0.035946  1
  Tb  Tb3  1  0.846089  0.501941  0.967858  1
  Tb  Tb4  1  0.497970  0.153972  0.532243  1
  Tb  Tb5  1  0.343334  0.996528  0.785182  1
  Tb  Tb6  1  0.655922  0.000964  0.284507  1
  Ho  Ho7  1  0.999906  0.344509  0.215234  1
  Hf  Hf8  1  0.675293  0.324719  0.750008  1
  Hf  Hf9  1  0.146827  0.992942  0.373347  1
  Hf  Hf10  1  0.854703  0.004851  0.876583  1
  Hf  Hf11  1  0.506054  0.649598  0.621313  1
  Hf  Hf12  1  0.350331  0.493970  0.878684  1
  Hf  Hf13  1  0.492706  0.352247  0.125541  1
  Hf  Hf14  1  0.647944  0.507206  0.374397  1
  Hf  Hf15  1  0.995245  0.145360  0.623420  1
  Hf  Hf16  1  0.007220  0.853334  0.126570  1
  Si  Si17  1  0.360178  0.298191  0.316280  1
  Si  Si18  1  0.637875  0.705112  0.817176  1
  Si  Si19  1  0.203042  0.861569  0.565594  1
  Si  Si20  1  0.138400  0.796977  0.934375  1
  Si  Si21  1  0.798222  0.138761  0.067465  1
  Si  Si22  1  0.861839  0.202498  0.432843  1
  Si  Si23  1  0.294879  0.362166  0.682832  1
  Si  Si24  1  0.702273  0.638681  0.183535  1
  Si  Si25  1  0.295444  0.050891  0.184119  1
  Si  Si26  1  0.705021  0.947559  0.682082  1
  Si  Si27  1  0.449176  0.795305  0.432249  1
  Si  Si28  1  0.204245  0.550233  0.068126  1
  Si  Si29  1  0.547144  0.203026  0.936136  1
  Si  Si30  1  0.797041  0.452907  0.563832  1
  Si  Si31  1  0.052416  0.294989  0.817915  1
  Si  Si32  1  0.949637  0.703406  0.315650  1
  W  W33  1  0.176570  0.175522  0.001788  1
  W  W34  1  0.824661  0.823224  0.498490  1
  W  W35  1  0.323674  0.675663  0.249953  1
