# generated using pymatgen
data_TiNb5Al4CuTcC2
_symmetry_space_group_name_H-M   'P 1'
_cell_length_a   8.29467187
_cell_length_b   8.29467168
_cell_length_c   8.27454800
_cell_angle_alpha   60.08023021
_cell_angle_beta   60.08023096
_cell_angle_gamma   59.83955280
_symmetry_Int_Tables_number   1
_chemical_formula_structural   TiNb5Al4CuTcC2
_chemical_formula_sum   'Ti2 Nb10 Al8 Cu2 Tc2 C4'
_cell_volume   402.55260138
_cell_formula_units_Z   2
loop_
 _symmetry_equiv_pos_site_id
 _symmetry_equiv_pos_as_xyz
  1  'x, y, z'
loop_
 _atom_site_type_symbol
 _atom_site_label
 _atom_site_symmetry_multiplicity
 _atom_site_fract_x
 _atom_site_fract_y
 _atom_site_fract_z
 _atom_site_occupancy
  Ti  Ti0  1  0.313361  0.314687  0.678806  1
  Ti  Ti1  1  0.556853  0.571194  0.935313  1
  Nb  Nb2  1  0.938196  0.937430  0.568385  1
  Nb  Nb3  1  0.687832  0.313432  0.313249  1
  Nb  Nb4  1  0.307557  0.691803  0.694538  1
  Nb  Nb5  1  0.694011  0.681615  0.312570  1
  Nb  Nb6  1  0.694756  0.312469  0.680312  1
  Nb  Nb7  1  0.310207  0.683477  0.308728  1
  Nb  Nb8  1  0.552413  0.941272  0.566523  1
  Nb  Nb9  1  0.564512  0.936751  0.936568  1
  Nb  Nb10  1  0.943898  0.555462  0.558197  1
  Nb  Nb11  1  0.937537  0.569688  0.937531  1
  Al  Al12  1  0.913066  0.254680  0.919341  1
  Al  Al13  1  0.337086  0.330659  0.995320  1
  Al  Al14  1  0.002819  0.329265  0.329895  1
  Al  Al15  1  0.337870  0.329712  0.332545  1
  Al  Al16  1  0.250129  0.917455  0.920288  1
  Al  Al17  1  0.911979  0.920105  0.920735  1
  Al  Al18  1  0.912906  0.918682  0.254489  1
  Al  Al19  1  0.336078  0.995511  0.331318  1
  Cu  Cu20  1  0.624345  0.125870  0.125046  1
  Cu  Cu21  1  0.125261  0.124954  0.124130  1
  Tc  Tc22  1  0.126504  0.623572  0.124991  1
  Tc  Tc23  1  0.125066  0.125009  0.626428  1
  C  C24  1  0.619015  0.127963  0.626545  1
  C  C25  1  0.623524  0.623455  0.122037  1
  C  C26  1  0.128914  0.619609  0.625782  1
  C  C27  1  0.624305  0.624218  0.630391  1
