# generated using pymatgen
data_Tb2Al8Co3Si
_symmetry_space_group_name_H-M   'P 1'
_cell_length_a   7.35769647
_cell_length_b   7.35769732
_cell_length_c   9.20236700
_cell_angle_alpha   90.00000000
_cell_angle_beta   90.00000000
_cell_angle_gamma   119.27751883
_symmetry_Int_Tables_number   1
_chemical_formula_structural   Tb2Al8Co3Si
_chemical_formula_sum   'Tb4 Al16 Co6 Si2'
_cell_volume   434.54014175
_cell_formula_units_Z   2
loop_
 _symmetry_equiv_pos_site_id
 _symmetry_equiv_pos_as_xyz
  1  'x, y, z'
loop_
 _atom_site_type_symbol
 _atom_site_label
 _atom_site_symmetry_multiplicity
 _atom_site_fract_x
 _atom_site_fract_y
 _atom_site_fract_z
 _atom_site_occupancy
  Tb  Tb0  1  0.993646  0.676960  0.250000  1
  Tb  Tb1  1  0.006354  0.323040  0.750000  1
  Tb  Tb2  1  0.676960  0.993646  0.250000  1
  Tb  Tb3  1  0.323040  0.006354  0.750000  1
  Al  Al4  1  0.334663  0.334663  0.545889  1
  Al  Al5  1  0.665337  0.665337  0.045889  1
  Al  Al6  1  0.334663  0.334663  0.954111  1
  Al  Al7  1  0.665337  0.665337  0.454111  1
  Al  Al8  1  0.336358  0.554577  0.250000  1
  Al  Al9  1  0.663642  0.445423  0.750000  1
  Al  Al10  1  0.554577  0.336358  0.250000  1
  Al  Al11  1  0.445423  0.663642  0.750000  1
  Al  Al12  1  0.999358  0.336532  0.073137  1
  Al  Al13  1  0.000642  0.663468  0.573137  1
  Al  Al14  1  0.336532  0.999358  0.426863  1
  Al  Al15  1  0.663468  0.000642  0.926863  1
  Al  Al16  1  0.000642  0.663468  0.926863  1
  Al  Al17  1  0.999358  0.336532  0.426863  1
  Al  Al18  1  0.663468  0.000642  0.573137  1
  Al  Al19  1  0.336532  0.999358  0.073137  1
  Co  Co20  1  0.000000  0.000000  0.000000  1
  Co  Co21  1  0.000000  0.000000  0.500000  1
  Co  Co22  1  0.670924  0.329076  0.000000  1
  Co  Co23  1  0.329076  0.670924  0.500000  1
  Co  Co24  1  0.329076  0.670924  0.000000  1
  Co  Co25  1  0.670924  0.329076  0.500000  1
  Si  Si26  1  0.124721  0.124721  0.250000  1
  Si  Si27  1  0.875279  0.875279  0.750000  1
