# generated using pymatgen
data_DySc7Ti11Si16Rh
_symmetry_space_group_name_H-M   'P 1'
_cell_length_a   6.88382501
_cell_length_b   6.87836707
_cell_length_c   12.57012411
_cell_angle_alpha   89.88162334
_cell_angle_beta   90.06188074
_cell_angle_gamma   89.76949681
_symmetry_Int_Tables_number   1
_chemical_formula_structural   DySc7Ti11Si16Rh
_chemical_formula_sum   'Dy1 Sc7 Ti11 Si16 Rh1'
_cell_volume   595.18234108
_cell_formula_units_Z   1
loop_
 _symmetry_equiv_pos_site_id
 _symmetry_equiv_pos_as_xyz
  1  'x, y, z'
loop_
 _atom_site_type_symbol
 _atom_site_label
 _atom_site_symmetry_multiplicity
 _atom_site_fract_x
 _atom_site_fract_y
 _atom_site_fract_z
 _atom_site_occupancy
  Dy  Dy0  1  0.342689  0.002894  0.468662  1
  Sc  Sc1  1  0.997009  0.658305  0.032012  1
  Sc  Sc2  1  0.000502  0.343894  0.532807  1
  Sc  Sc3  1  0.657812  0.996894  0.967612  1
  Sc  Sc4  1  0.156155  0.502824  0.783282  1
  Sc  Sc5  1  0.843384  0.499161  0.282441  1
  Sc  Sc6  1  0.502616  0.156612  0.217005  1
  Sc  Sc7  1  0.499540  0.842901  0.715716  1
  Ti  Ti8  1  0.345325  0.505166  0.376127  1
  Ti  Ti9  1  0.851357  0.999829  0.372542  1
  Ti  Ti10  1  0.004001  0.147398  0.124699  1
  Ti  Ti11  1  0.000694  0.852017  0.628546  1
  Ti  Ti12  1  0.507355  0.347214  0.625330  1
  Ti  Ti13  1  0.146827  0.004736  0.874823  1
  Ti  Ti14  1  0.825484  0.173939  0.749254  1
  Ti  Ti15  1  0.171912  0.824366  0.251170  1
  Ti  Ti16  1  0.326584  0.326797  0.000095  1
  Ti  Ti17  1  0.495046  0.646710  0.125384  1
  Ti  Ti18  1  0.646973  0.495062  0.873134  1
  Si  Si19  1  0.041242  0.705143  0.436803  1
  Si  Si20  1  0.952049  0.297706  0.934622  1
  Si  Si21  1  0.715887  0.049605  0.564549  1
  Si  Si22  1  0.202135  0.454769  0.183368  1
  Si  Si23  1  0.795525  0.551088  0.683008  1
  Si  Si24  1  0.453447  0.201804  0.816412  1
  Si  Si25  1  0.553676  0.790684  0.314825  1
  Si  Si26  1  0.297302  0.952421  0.065379  1
  Si  Si27  1  0.796084  0.860393  0.179606  1
  Si  Si28  1  0.289532  0.627345  0.573382  1
  Si  Si29  1  0.705986  0.362769  0.069813  1
  Si  Si30  1  0.637878  0.300296  0.429699  1
  Si  Si31  1  0.362830  0.706615  0.929438  1
  Si  Si32  1  0.133817  0.209111  0.316655  1
  Si  Si33  1  0.204140  0.140384  0.682913  1
  Si  Si34  1  0.859887  0.795919  0.819880  1
  Rh  Rh35  1  0.677321  0.667230  0.499008  1
