# generated using pymatgen
data_Pa2Mn10Ni2P7
_symmetry_space_group_name_H-M   'P 1'
_cell_length_a   9.24021399
_cell_length_b   9.19438602
_cell_length_c   3.64185000
_cell_angle_alpha   90.00000000
_cell_angle_beta   90.00000000
_cell_angle_gamma   120.00951271
_symmetry_Int_Tables_number   1
_chemical_formula_structural   Pa2Mn10Ni2P7
_chemical_formula_sum   'Pa2 Mn10 Ni2 P7'
_cell_volume   267.92658597
_cell_formula_units_Z   1
loop_
 _symmetry_equiv_pos_site_id
 _symmetry_equiv_pos_as_xyz
  1  'x, y, z'
loop_
 _atom_site_type_symbol
 _atom_site_label
 _atom_site_symmetry_multiplicity
 _atom_site_fract_x
 _atom_site_fract_y
 _atom_site_fract_z
 _atom_site_occupancy
  Pa  Pa0  1  0.999760  0.004109  0.000000  1
  Pa  Pa1  1  0.333532  0.659200  0.500000  1
  Mn  Mn2  1  0.301290  0.396622  0.000000  1
  Mn  Mn3  1  0.893180  0.454769  0.500000  1
  Mn  Mn4  1  0.092760  0.701908  0.000000  1
  Mn  Mn5  1  0.546281  0.441013  0.500000  1
  Mn  Mn6  1  0.390420  0.177215  0.000000  1
  Mn  Mn7  1  0.794303  0.612749  0.000000  1
  Mn  Mn8  1  0.229383  0.943640  0.500000  1
  Mn  Mn9  1  0.047870  0.275839  0.500000  1
  Mn  Mn10  1  0.717304  0.771120  0.500000  1
  Mn  Mn11  1  0.563962  0.113458  0.500000  1
  Ni  Ni12  1  0.819157  0.213243  0.000000  1
  Ni  Ni13  1  0.603691  0.901014  0.000000  1
  P  P14  1  0.665292  0.337846  0.000000  1
  P  P15  1  0.076965  0.440186  0.000000  1
  P  P16  1  0.262786  0.217502  0.500000  1
  P  P17  1  0.780262  0.043174  0.500000  1
  P  P18  1  0.951307  0.741686  0.500000  1
  P  P19  1  0.561362  0.631171  0.000000  1
  P  P20  1  0.369133  0.922535  0.000000  1
