# generated using pymatgen
data_U2Co3Si7Ir9
_symmetry_space_group_name_H-M   'P 1'
_cell_length_a   3.84593200
_cell_length_b   9.51797636
_cell_length_c   9.51797700
_cell_angle_alpha   119.99999180
_cell_angle_beta   90.00000000
_cell_angle_gamma   90.00000000
_symmetry_Int_Tables_number   1
_chemical_formula_structural   U2Co3Si7Ir9
_chemical_formula_sum   'U2 Co3 Si7 Ir9'
_cell_volume   301.73211815
_cell_formula_units_Z   1
loop_
 _symmetry_equiv_pos_site_id
 _symmetry_equiv_pos_as_xyz
  1  'x, y, z'
loop_
 _atom_site_type_symbol
 _atom_site_label
 _atom_site_symmetry_multiplicity
 _atom_site_fract_x
 _atom_site_fract_y
 _atom_site_fract_z
 _atom_site_occupancy
  U  U0  1  0.000000  0.666667  0.333333  1
  U  U1  1  0.500000  0.333333  0.666667  1
  Co  Co2  1  0.000000  0.875363  0.151362  1
  Co  Co3  1  0.000000  0.275999  0.124637  1
  Co  Co4  1  0.000000  0.848638  0.724001  1
  Si  Si5  1  0.000000  0.000000  0.000000  1
  Si  Si6  1  0.500000  0.714064  0.108810  1
  Si  Si7  1  0.500000  0.394746  0.285936  1
  Si  Si8  1  0.500000  0.891190  0.605254  1
  Si  Si9  1  0.000000  0.606618  0.711734  1
  Si  Si10  1  0.000000  0.105116  0.393382  1
  Si  Si11  1  0.000000  0.288266  0.894884  1
  Ir  Ir12  1  0.000000  0.558858  0.931761  1
  Ir  Ir13  1  0.000000  0.372902  0.441142  1
  Ir  Ir14  1  0.000000  0.068239  0.627098  1
  Ir  Ir15  1  0.500000  0.778960  0.897641  1
  Ir  Ir16  1  0.500000  0.118682  0.221040  1
  Ir  Ir17  1  0.500000  0.102359  0.881318  1
  Ir  Ir18  1  0.500000  0.934629  0.378576  1
  Ir  Ir19  1  0.500000  0.443944  0.065371  1
  Ir  Ir20  1  0.500000  0.621424  0.556056  1
