# generated using pymatgen
data_Lu11ScRh3I16
_symmetry_space_group_name_H-M   'P 1'
_cell_length_a   9.43588583
_cell_length_b   12.59263504
_cell_length_c   13.23313050
_cell_angle_alpha   116.57237412
_cell_angle_beta   101.07697272
_cell_angle_gamma   100.41177275
_symmetry_Int_Tables_number   1
_chemical_formula_structural   Lu11ScRh3I16
_chemical_formula_sum   'Lu11 Sc1 Rh3 I16'
_cell_volume   1314.86591200
_cell_formula_units_Z   1
loop_
 _symmetry_equiv_pos_site_id
 _symmetry_equiv_pos_as_xyz
  1  'x, y, z'
loop_
 _atom_site_type_symbol
 _atom_site_label
 _atom_site_symmetry_multiplicity
 _atom_site_fract_x
 _atom_site_fract_y
 _atom_site_fract_z
 _atom_site_occupancy
  Lu  Lu0  1  0.090022  0.276858  0.362797  1
  Lu  Lu1  1  0.907968  0.724996  0.636689  1
  Lu  Lu2  1  0.783813  0.535899  0.337223  1
  Lu  Lu3  1  0.214712  0.466253  0.662784  1
  Lu  Lu4  1  0.274141  0.725174  0.636364  1
  Lu  Lu5  1  0.728086  0.276443  0.363038  1
  Lu  Lu6  1  0.146316  0.536098  0.336921  1
  Lu  Lu7  1  0.856163  0.466051  0.663155  1
  Lu  Lu8  1  0.409667  0.365985  0.283932  1
  Lu  Lu9  1  0.590364  0.634028  0.716190  1
  Lu  Lu10  1  0.461259  0.317325  0.520940  1
  Sc  Sc11  1  0.537447  0.675784  0.480341  1
  Rh  Rh12  1  0.000009  0.500763  0.499820  1
  Rh  Rh13  1  0.341303  0.500155  0.499937  1
  Rh  Rh14  1  0.658812  0.499920  0.500094  1
  I  I15  1  0.391705  0.734053  0.876926  1
  I  I16  1  0.608701  0.267519  0.122808  1
  I  I17  1  0.183546  0.953698  0.775965  1
  I  I18  1  0.816125  0.046617  0.222632  1
  I  I19  1  0.340416  0.105260  0.259063  1
  I  I20  1  0.657372  0.890044  0.735569  1
  I  I21  1  0.563191  0.436538  0.793969  1
  I  I22  1  0.438706  0.565596  0.212041  1
  I  I23  1  0.309140  0.819793  0.461943  1
  I  I24  1  0.699302  0.178102  0.538208  1
  I  I25  1  0.165297  0.178469  0.537637  1
  I  I26  1  0.825181  0.819335  0.462237  1
  I  I27  1  0.927304  0.573930  0.165272  1
  I  I28  1  0.073536  0.427825  0.835698  1
  I  I29  1  0.923734  0.733685  0.877196  1
  I  I30  1  0.076662  0.267802  0.122611  1
