# generated using pymatgen
data_PrHo2Si5PPd20
_symmetry_space_group_name_H-M   'P 1'
_cell_length_a   8.72565894
_cell_length_b   8.72507372
_cell_length_c   8.72507313
_cell_angle_alpha   59.98000869
_cell_angle_beta   59.99777689
_cell_angle_gamma   59.99777777
_symmetry_Int_Tables_number   1
_chemical_formula_structural   PrHo2Si5PPd20
_chemical_formula_sum   'Pr1 Ho2 Si5 P1 Pd20'
_cell_volume   469.61414781
_cell_formula_units_Z   1
loop_
 _symmetry_equiv_pos_site_id
 _symmetry_equiv_pos_as_xyz
  1  'x, y, z'
loop_
 _atom_site_type_symbol
 _atom_site_label
 _atom_site_symmetry_multiplicity
 _atom_site_fract_x
 _atom_site_fract_y
 _atom_site_fract_z
 _atom_site_occupancy
  Pr  Pr0  1  0.249321  0.250679  0.250679  1
  Ho  Ho1  1  0.749193  0.750807  0.750807  1
  Ho  Ho2  1  0.000651  0.999349  0.999349  1
  Si  Si3  1  0.267126  0.732874  0.732874  1
  Si  Si4  1  0.265483  0.734505  0.267021  1
  Si  Si5  1  0.732991  0.267021  0.734505  1
  Si  Si6  1  0.265483  0.267021  0.734505  1
  Si  Si7  1  0.732991  0.734505  0.267021  1
  P  P8  1  0.735092  0.264908  0.264908  1
  Pd  Pd9  1  0.387945  0.386081  0.386081  1
  Pd  Pd10  1  0.617461  0.617229  0.617229  1
  Pd  Pd11  1  0.386314  0.385972  0.841399  1
  Pd  Pd12  1  0.386314  0.841399  0.385972  1
  Pd  Pd13  1  0.617335  0.616040  0.149287  1
  Pd  Pd14  1  0.617335  0.149287  0.616040  1
  Pd  Pd15  1  0.839893  0.386081  0.386081  1
  Pd  Pd16  1  0.148080  0.617229  0.617229  1
  Pd  Pd17  1  0.347760  0.998065  0.998065  1
  Pd  Pd18  1  0.656112  0.998065  0.998065  1
  Pd  Pd19  1  0.999779  0.345982  0.654461  1
  Pd  Pd20  1  0.999779  0.654461  0.345982  1
  Pd  Pd21  1  0.997419  0.346457  0.000307  1
  Pd  Pd22  1  0.655818  0.000307  0.346457  1
  Pd  Pd23  1  0.999087  0.655725  0.998731  1
  Pd  Pd24  1  0.346458  0.998731  0.655725  1
  Pd  Pd25  1  0.997419  0.000307  0.346457  1
  Pd  Pd26  1  0.999087  0.998731  0.655725  1
  Pd  Pd27  1  0.655818  0.346457  0.000307  1
  Pd  Pd28  1  0.346458  0.655725  0.998731  1
