# generated using pymatgen
data_Gd2Ho4OsO12
_symmetry_space_group_name_H-M   'P 1'
_cell_length_a   6.50059393
_cell_length_b   6.47437920
_cell_length_c   6.49418498
_cell_angle_alpha   98.78724571
_cell_angle_beta   98.65911935
_cell_angle_gamma   98.54143576
_symmetry_Int_Tables_number   1
_chemical_formula_structural   Gd2Ho4OsO12
_chemical_formula_sum   'Gd2 Ho4 Os1 O12'
_cell_volume   262.88821040
_cell_formula_units_Z   1
loop_
 _symmetry_equiv_pos_site_id
 _symmetry_equiv_pos_as_xyz
  1  'x, y, z'
loop_
 _atom_site_type_symbol
 _atom_site_label
 _atom_site_symmetry_multiplicity
 _atom_site_fract_x
 _atom_site_fract_y
 _atom_site_fract_z
 _atom_site_occupancy
  Gd  Gd0  1  0.391852  0.687956  0.857896  1
  Gd  Gd1  1  0.142545  0.609967  0.313007  1
  Ho  Ho2  1  0.854835  0.386361  0.684103  1
  Ho  Ho3  1  0.610695  0.310958  0.143696  1
  Ho  Ho4  1  0.317786  0.145209  0.610312  1
  Ho  Ho5  1  0.686301  0.855899  0.390744  1
  Os  Os6  1  0.999375  0.001342  0.999266  1
  O  O7  1  0.923841  0.034047  0.702626  1
  O  O8  1  0.960623  0.296299  0.068756  1
  O  O9  1  0.591781  0.176816  0.432969  1
  O  O10  1  0.820204  0.564955  0.411430  1
  O  O11  1  0.295303  0.076520  0.961607  1
  O  O12  1  0.568669  0.403415  0.822901  1
  O  O13  1  0.437904  0.588702  0.179789  1
  O  O14  1  0.704545  0.931182  0.043090  1
  O  O15  1  0.175608  0.429849  0.592538  1
  O  O16  1  0.412263  0.824927  0.565699  1
  O  O17  1  0.030299  0.705186  0.923871  1
  O  O18  1  0.075572  0.970411  0.295701  1
