# generated using pymatgen
data_Th10SiAgPb6
_symmetry_space_group_name_H-M   'P 1'
_cell_length_a   9.67967200
_cell_length_b   9.67967263
_cell_length_c   6.65119500
_cell_angle_alpha   90.00000000
_cell_angle_beta   90.00000000
_cell_angle_gamma   120.00000469
_symmetry_Int_Tables_number   1
_chemical_formula_structural   Th10SiAgPb6
_chemical_formula_sum   'Th10 Si1 Ag1 Pb6'
_cell_volume   539.69898665
_cell_formula_units_Z   1
loop_
 _symmetry_equiv_pos_site_id
 _symmetry_equiv_pos_as_xyz
  1  'x, y, z'
loop_
 _atom_site_type_symbol
 _atom_site_label
 _atom_site_symmetry_multiplicity
 _atom_site_fract_x
 _atom_site_fract_y
 _atom_site_fract_z
 _atom_site_occupancy
  Th  Th0  1  0.666667  0.333333  0.500000  1
  Th  Th1  1  0.333333  0.666667  0.500000  1
  Th  Th2  1  0.333333  0.666667  0.000000  1
  Th  Th3  1  0.666667  0.333333  0.000000  1
  Th  Th4  1  0.735898  0.735898  0.234949  1
  Th  Th5  1  0.264102  0.000000  0.234949  1
  Th  Th6  1  0.000000  0.264102  0.234949  1
  Th  Th7  1  0.264102  0.264102  0.765051  1
  Th  Th8  1  0.735898  0.000000  0.765051  1
  Th  Th9  1  0.000000  0.735898  0.765051  1
  Si  Si10  1  0.000000  0.000000  0.000000  1
  Ag  Ag11  1  0.000000  0.000000  0.500000  1
  Pb  Pb12  1  0.383083  0.383083  0.257073  1
  Pb  Pb13  1  0.616917  0.000000  0.257073  1
  Pb  Pb14  1  0.000000  0.616917  0.257073  1
  Pb  Pb15  1  0.616917  0.616917  0.742927  1
  Pb  Pb16  1  0.383083  0.000000  0.742927  1
  Pb  Pb17  1  0.000000  0.383083  0.742927  1
