# generated using pymatgen
data_Yb2GaCuIr2
_symmetry_space_group_name_H-M   'P 1'
_cell_length_a   5.13083384
_cell_length_b   5.35622000
_cell_length_c   5.35622025
_cell_angle_alpha   63.32467616
_cell_angle_beta   58.81405123
_cell_angle_gamma   58.81404490
_symmetry_Int_Tables_number   1
_chemical_formula_structural   Yb2GaCuIr2
_chemical_formula_sum   'Yb2 Ga1 Cu1 Ir2'
_cell_volume   104.39078228
_cell_formula_units_Z   1
loop_
 _symmetry_equiv_pos_site_id
 _symmetry_equiv_pos_as_xyz
  1  'x, y, z'
loop_
 _atom_site_type_symbol
 _atom_site_label
 _atom_site_symmetry_multiplicity
 _atom_site_fract_x
 _atom_site_fract_y
 _atom_site_fract_z
 _atom_site_occupancy
  Yb  Yb0  1  0.128376  0.119270  0.119270  1
  Yb  Yb1  1  0.871624  0.880730  0.880730  1
  Ga  Ga2  1  0.000000  0.500000  0.500000  1
  Cu  Cu3  1  0.500000  0.500000  0.500000  1
  Ir  Ir4  1  0.500000  0.000000  0.500000  1
  Ir  Ir5  1  0.500000  0.500000  0.000000  1
