# generated using pymatgen
data_Li4YbHo3Si8
_symmetry_space_group_name_H-M   'P 1'
_cell_length_a   3.78463400
_cell_length_b   7.67714697
_cell_length_c   10.20258908
_cell_angle_alpha   89.61753075
_cell_angle_beta   90.00000000
_cell_angle_gamma   90.00000000
_symmetry_Int_Tables_number   1
_chemical_formula_structural   Li4YbHo3Si8
_chemical_formula_sum   'Li4 Yb1 Ho3 Si8'
_cell_volume   296.43157446
_cell_formula_units_Z   1
loop_
 _symmetry_equiv_pos_site_id
 _symmetry_equiv_pos_as_xyz
  1  'x, y, z'
loop_
 _atom_site_type_symbol
 _atom_site_label
 _atom_site_symmetry_multiplicity
 _atom_site_fract_x
 _atom_site_fract_y
 _atom_site_fract_z
 _atom_site_occupancy
  Li  Li0  1  0.250000  0.994912  0.393068  1
  Li  Li1  1  0.250000  0.487661  0.109042  1
  Li  Li2  1  0.750000  0.011944  0.608994  1
  Li  Li3  1  0.750000  0.509672  0.893261  1
  Yb  Yb4  1  0.750000  0.360178  0.364219  1
  Ho  Ho5  1  0.250000  0.133701  0.863492  1
  Ho  Ho6  1  0.250000  0.636413  0.634998  1
  Ho  Ho7  1  0.750000  0.864033  0.133763  1
  Si  Si8  1  0.250000  0.237529  0.571299  1
  Si  Si9  1  0.250000  0.734274  0.933131  1
  Si  Si10  1  0.750000  0.772205  0.432229  1
  Si  Si11  1  0.750000  0.260077  0.063314  1
  Si  Si12  1  0.250000  0.659245  0.322318  1
  Si  Si13  1  0.250000  0.151822  0.175066  1
  Si  Si14  1  0.750000  0.344449  0.683394  1
  Si  Si15  1  0.750000  0.841885  0.818410  1
