# generated using pymatgen
data_LiZnSbO4
_symmetry_space_group_name_H-M   'P 1'
_cell_length_a   6.12456200
_cell_length_b   6.12453502
_cell_length_c   8.58945400
_cell_angle_alpha   89.99973014
_cell_angle_beta   89.99998238
_cell_angle_gamma   89.99809154
_symmetry_Int_Tables_number   1
_chemical_formula_structural   LiZnSbO4
_chemical_formula_sum   'Li4 Zn4 Sb4 O16'
_cell_volume   322.19123067
_cell_formula_units_Z   4
loop_
 _symmetry_equiv_pos_site_id
 _symmetry_equiv_pos_as_xyz
  1  'x, y, z'
loop_
 _atom_site_type_symbol
 _atom_site_label
 _atom_site_symmetry_multiplicity
 _atom_site_fract_x
 _atom_site_fract_y
 _atom_site_fract_z
 _atom_site_occupancy
  Li  Li0  1  0.999994  0.208329  0.000013  1
  Li  Li1  1  0.999999  0.791667  0.500006  1
  Li  Li2  1  0.208301  0.999994  0.249979  1
  Li  Li3  1  0.791697  0.000006  0.749983  1
  Zn  Zn4  1  0.750684  0.249290  0.375000  1
  Zn  Zn5  1  0.750655  0.750686  0.125005  1
  Zn  Zn6  1  0.249344  0.249314  0.625002  1
  Zn  Zn7  1  0.249318  0.750712  0.875000  1
  Sb  Sb8  1  0.228082  0.500005  0.249999  1
  Sb  Sb9  1  0.500007  0.228106  0.000001  1
  Sb  Sb10  1  0.499991  0.771895  0.500002  1
  Sb  Sb11  1  0.771919  0.499995  0.750000  1
  O  O12  1  0.019031  0.260654  0.251098  1
  O  O13  1  0.019016  0.739354  0.248894  1
  O  O14  1  0.260661  0.019048  0.998899  1
  O  O15  1  0.260644  0.980968  0.501113  1
  O  O16  1  0.739354  0.019033  0.001113  1
  O  O17  1  0.739341  0.980953  0.498899  1
  O  O18  1  0.980986  0.260648  0.748891  1
  O  O19  1  0.980973  0.739340  0.751101  1
  O  O20  1  0.268247  0.478392  0.014641  1
  O  O21  1  0.268217  0.521633  0.485360  1
  O  O22  1  0.478367  0.268233  0.235364  1
  O  O23  1  0.478338  0.731792  0.264638  1
  O  O24  1  0.521661  0.268208  0.764638  1
  O  O25  1  0.521634  0.731769  0.735364  1
  O  O26  1  0.731757  0.521615  0.514639  1
  O  O27  1  0.731786  0.478362  0.985362  1
