# generated using pymatgen
data_Y4Al18RePt5
_symmetry_space_group_name_H-M   'P 1'
_cell_length_a   7.62777787
_cell_length_b   7.62777745
_cell_length_c   9.48328018
_cell_angle_alpha   90.14859417
_cell_angle_beta   90.14859893
_cell_angle_gamma   119.86852753
_symmetry_Int_Tables_number   1
_chemical_formula_structural   Y4Al18RePt5
_chemical_formula_sum   'Y4 Al18 Re1 Pt5'
_cell_volume   478.46841827
_cell_formula_units_Z   1
loop_
 _symmetry_equiv_pos_site_id
 _symmetry_equiv_pos_as_xyz
  1  'x, y, z'
loop_
 _atom_site_type_symbol
 _atom_site_label
 _atom_site_symmetry_multiplicity
 _atom_site_fract_x
 _atom_site_fract_y
 _atom_site_fract_z
 _atom_site_occupancy
  Y  Y0  1  0.993045  0.666447  0.247941  1
  Y  Y1  1  0.002910  0.330415  0.751758  1
  Y  Y2  1  0.669585  0.997090  0.248242  1
  Y  Y3  1  0.333553  0.006955  0.752059  1
  Al  Al4  1  0.128407  0.129804  0.249768  1
  Al  Al5  1  0.870196  0.871593  0.750232  1
  Al  Al6  1  0.998466  0.333781  0.074173  1
  Al  Al7  1  0.995400  0.660287  0.925461  1
  Al  Al8  1  0.000253  0.668059  0.577717  1
  Al  Al9  1  0.331941  0.999747  0.422283  1
  Al  Al10  1  0.000573  0.334470  0.423809  1
  Al  Al11  1  0.665530  0.999427  0.576191  1
  Al  Al12  1  0.666219  0.001534  0.925827  1
  Al  Al13  1  0.339713  0.004600  0.074539  1
  Al  Al14  1  0.333625  0.335003  0.559674  1
  Al  Al15  1  0.664997  0.666375  0.440326  1
  Al  Al16  1  0.667637  0.660890  0.053764  1
  Al  Al17  1  0.339110  0.332363  0.946236  1
  Al  Al18  1  0.337216  0.545811  0.249598  1
  Al  Al19  1  0.661372  0.454662  0.753204  1
  Al  Al20  1  0.545338  0.338628  0.246796  1
  Al  Al21  1  0.454189  0.662784  0.750402  1
  Re  Re22  1  0.672903  0.327097  0.000000  1
  Pt  Pt23  1  0.328500  0.671500  0.000000  1
  Pt  Pt24  1  0.327265  0.672735  0.500000  1
  Pt  Pt25  1  0.671596  0.328404  0.500000  1
  Pt  Pt26  1  0.001026  0.998974  0.000000  1
  Pt  Pt27  1  0.999431  0.000569  0.500000  1
