# generated using pymatgen
data_Ce3Ga2HgRh3
_symmetry_space_group_name_H-M   'P 1'
_cell_length_a   7.41779400
_cell_length_b   7.46771287
_cell_length_c   3.95132900
_cell_angle_alpha   90.00000000
_cell_angle_beta   90.00000000
_cell_angle_gamma   120.22285711
_symmetry_Int_Tables_number   1
_chemical_formula_structural   Ce3Ga2HgRh3
_chemical_formula_sum   'Ce3 Ga2 Hg1 Rh3'
_cell_volume   189.12830939
_cell_formula_units_Z   1
loop_
 _symmetry_equiv_pos_site_id
 _symmetry_equiv_pos_as_xyz
  1  'x, y, z'
loop_
 _atom_site_type_symbol
 _atom_site_label
 _atom_site_symmetry_multiplicity
 _atom_site_fract_x
 _atom_site_fract_y
 _atom_site_fract_z
 _atom_site_occupancy
  Ce  Ce0  1  0.420013  0.413320  0.500000  1
  Ce  Ce1  1  0.579987  0.993308  0.500000  1
  Ce  Ce2  1  0.000000  0.600845  0.500000  1
  Ga  Ga3  1  0.745894  0.749053  0.000000  1
  Ga  Ga4  1  0.254106  0.003160  0.000000  1
  Hg  Hg5  1  0.000000  0.250178  0.000000  1
  Rh  Rh6  1  0.000000  0.957743  0.500000  1
  Rh  Rh7  1  0.650269  0.341330  0.000000  1
  Rh  Rh8  1  0.349731  0.691062  0.000000  1
