# generated using pymatgen
data_Rb4TiSiSe6
_symmetry_space_group_name_H-M   'P 1'
_cell_length_a   7.26750657
_cell_length_b   7.84947666
_cell_length_c   9.04760080
_cell_angle_alpha   74.02645043
_cell_angle_beta   69.07560859
_cell_angle_gamma   65.76617583
_symmetry_Int_Tables_number   1
_chemical_formula_structural   Rb4TiSiSe6
_chemical_formula_sum   'Rb4 Ti1 Si1 Se6'
_cell_volume   434.57012700
_cell_formula_units_Z   1
loop_
 _symmetry_equiv_pos_site_id
 _symmetry_equiv_pos_as_xyz
  1  'x, y, z'
loop_
 _atom_site_type_symbol
 _atom_site_label
 _atom_site_symmetry_multiplicity
 _atom_site_fract_x
 _atom_site_fract_y
 _atom_site_fract_z
 _atom_site_occupancy
  Rb  Rb0  1  0.655549  0.454177  0.689219  1
  Rb  Rb1  1  0.340523  0.552717  0.311140  1
  Rb  Rb2  1  0.903118  0.802656  0.875485  1
  Rb  Rb3  1  0.089305  0.198113  0.131714  1
  Ti  Ti4  1  0.377118  0.053114  0.669007  1
  Si  Si5  1  0.627643  0.944376  0.324461  1
  Se  Se6  1  0.280723  0.959623  0.476078  1
  Se  Se7  1  0.736147  0.030764  0.503396  1
  Se  Se8  1  0.376320  0.831740  0.904567  1
  Se  Se9  1  0.620247  0.166447  0.105797  1
  Se  Se10  1  0.174371  0.364124  0.722562  1
  Se  Se11  1  0.818934  0.642148  0.286575  1
