# generated using pymatgen
data_Ta2Be2B4W3
_symmetry_space_group_name_H-M   'P 1'
_cell_length_a   11.60046522
_cell_length_b   11.60046548
_cell_length_c   3.21607400
_cell_angle_alpha   90.00000000
_cell_angle_beta   90.00000000
_cell_angle_gamma   164.25012149
_symmetry_Int_Tables_number   1
_chemical_formula_structural   Ta2Be2B4W3
_chemical_formula_sum   'Ta2 Be2 B4 W3'
_cell_volume   117.47573113
_cell_formula_units_Z   1
loop_
 _symmetry_equiv_pos_site_id
 _symmetry_equiv_pos_as_xyz
  1  'x, y, z'
loop_
 _atom_site_type_symbol
 _atom_site_label
 _atom_site_symmetry_multiplicity
 _atom_site_fract_x
 _atom_site_fract_y
 _atom_site_fract_z
 _atom_site_occupancy
  Ta  Ta0  1  0.617246  0.382754  0.000000  1
  Ta  Ta1  1  0.001033  0.998967  0.000000  1
  Be  Be2  1  0.458707  0.541293  0.500000  1
  Be  Be3  1  0.274025  0.725975  0.000000  1
  B  B4  1  0.542092  0.457908  0.500000  1
  B  B5  1  0.726566  0.273434  0.000000  1
  B  B6  1  0.083085  0.916915  0.500000  1
  B  B7  1  0.913017  0.086983  0.500000  1
  W  W8  1  0.195047  0.804953  0.500000  1
  W  W9  1  0.806541  0.193459  0.500000  1
  W  W10  1  0.382639  0.617361  0.000000  1
