# generated using pymatgen
data_Eu4Al3Ga(SiGe)2
_symmetry_space_group_name_H-M   'P 1'
_cell_length_a   4.28585900
_cell_length_b   4.28585945
_cell_length_c   17.54498300
_cell_angle_alpha   90.00000000
_cell_angle_beta   90.00000000
_cell_angle_gamma   120.00000426
_symmetry_Int_Tables_number   1
_chemical_formula_structural   Eu4Al3Ga(SiGe)2
_chemical_formula_sum   'Eu4 Al3 Ga1 Si2 Ge2'
_cell_volume   279.09969925
_cell_formula_units_Z   1
loop_
 _symmetry_equiv_pos_site_id
 _symmetry_equiv_pos_as_xyz
  1  'x, y, z'
loop_
 _atom_site_type_symbol
 _atom_site_label
 _atom_site_symmetry_multiplicity
 _atom_site_fract_x
 _atom_site_fract_y
 _atom_site_fract_z
 _atom_site_occupancy
  Eu  Eu0  1  0.000000  0.000000  0.499716  1
  Eu  Eu1  1  0.000000  0.000000  0.999963  1
  Eu  Eu2  1  0.000000  0.000000  0.251738  1
  Eu  Eu3  1  0.000000  0.000000  0.747258  1
  Al  Al4  1  0.666667  0.333333  0.364209  1
  Al  Al5  1  0.333333  0.666667  0.637270  1
  Al  Al6  1  0.333333  0.666667  0.856342  1
  Ga  Ga7  1  0.666667  0.333333  0.150598  1
  Si  Si8  1  0.333333  0.666667  0.381202  1
  Si  Si9  1  0.666667  0.333333  0.616262  1
  Ge  Ge10  1  0.666667  0.333333  0.884126  1
  Ge  Ge11  1  0.333333  0.666667  0.111316  1
