# generated using pymatgen
data_Hf6TaCo17P12
_symmetry_space_group_name_H-M   'P 1'
_cell_length_a   3.61337500
_cell_length_b   10.33683700
_cell_length_c   11.97355500
_cell_angle_alpha   90.00000000
_cell_angle_beta   90.00000000
_cell_angle_gamma   90.00000000
_symmetry_Int_Tables_number   1
_chemical_formula_structural   Hf6TaCo17P12
_chemical_formula_sum   'Hf6 Ta1 Co17 P12'
_cell_volume   447.22267702
_cell_formula_units_Z   1
loop_
 _symmetry_equiv_pos_site_id
 _symmetry_equiv_pos_as_xyz
  1  'x, y, z'
loop_
 _atom_site_type_symbol
 _atom_site_label
 _atom_site_symmetry_multiplicity
 _atom_site_fract_x
 _atom_site_fract_y
 _atom_site_fract_z
 _atom_site_occupancy
  Hf  Hf0  1  0.000000  0.500000  0.534029  1
  Hf  Hf1  1  0.500000  0.000000  0.473032  1
  Hf  Hf2  1  0.500000  0.823101  0.208840  1
  Hf  Hf3  1  0.500000  0.176899  0.208840  1
  Hf  Hf4  1  0.000000  0.678010  0.793766  1
  Hf  Hf5  1  0.000000  0.321990  0.793766  1
  Ta  Ta6  1  0.500000  0.500000  0.159723  1
  Co  Co7  1  0.000000  0.500000  0.987084  1
  Co  Co8  1  0.500000  0.000000  0.014235  1
  Co  Co9  1  0.500000  0.298220  0.435166  1
  Co  Co10  1  0.500000  0.701780  0.435166  1
  Co  Co11  1  0.000000  0.199285  0.566760  1
  Co  Co12  1  0.000000  0.800715  0.566760  1
  Co  Co13  1  0.500000  0.875259  0.706071  1
  Co  Co14  1  0.500000  0.124741  0.706071  1
  Co  Co15  1  0.000000  0.626144  0.295336  1
  Co  Co16  1  0.000000  0.373856  0.295336  1
  Co  Co17  1  0.500000  0.330037  0.988546  1
  Co  Co18  1  0.500000  0.669963  0.988546  1
  Co  Co19  1  0.000000  0.164600  0.003696  1
  Co  Co20  1  0.000000  0.835400  0.003696  1
  Co  Co21  1  0.000000  0.000000  0.832367  1
  Co  Co22  1  0.500000  0.500000  0.702459  1
  Co  Co23  1  0.000000  0.000000  0.296411  1
  P  P24  1  0.500000  0.316361  0.619181  1
  P  P25  1  0.500000  0.683639  0.619181  1
  P  P26  1  0.000000  0.181013  0.383459  1
  P  P27  1  0.000000  0.818987  0.383459  1
  P  P28  1  0.500000  0.500000  0.877695  1
  P  P29  1  0.000000  0.000000  0.120590  1
  P  P30  1  0.500000  0.848662  0.885946  1
  P  P31  1  0.500000  0.151338  0.885946  1
  P  P32  1  0.000000  0.665826  0.108434  1
  P  P33  1  0.000000  0.334174  0.108434  1
  P  P34  1  0.500000  0.500000  0.366016  1
  P  P35  1  0.000000  0.000000  0.645958  1
