# generated using pymatgen
data_Pa3(ZnPt2)2
_symmetry_space_group_name_H-M   'P 1'
_cell_length_a   3.79080000
_cell_length_b   7.63139333
_cell_length_c   7.29751943
_cell_angle_alpha   121.52536255
_cell_angle_beta   90.00000000
_cell_angle_gamma   90.00000000
_symmetry_Int_Tables_number   1
_chemical_formula_structural   Pa3(ZnPt2)2
_chemical_formula_sum   'Pa3 Zn2 Pt4'
_cell_volume   179.95250243
_cell_formula_units_Z   1
loop_
 _symmetry_equiv_pos_site_id
 _symmetry_equiv_pos_as_xyz
  1  'x, y, z'
loop_
 _atom_site_type_symbol
 _atom_site_label
 _atom_site_symmetry_multiplicity
 _atom_site_fract_x
 _atom_site_fract_y
 _atom_site_fract_z
 _atom_site_occupancy
  Pa  Pa0  1  0.000000  0.411531  0.000000  1
  Pa  Pa1  1  0.000000  0.608594  0.621579  1
  Pa  Pa2  1  0.000000  0.987016  0.378421  1
  Zn  Zn3  1  0.500000  0.260321  0.258496  1
  Zn  Zn4  1  0.500000  0.001824  0.741504  1
  Pt  Pt5  1  0.500000  0.656051  0.349487  1
  Pt  Pt6  1  0.500000  0.306564  0.650513  1
  Pt  Pt7  1  0.000000  0.031935  0.000000  1
  Pt  Pt8  1  0.500000  0.736262  0.000000  1
