# generated using pymatgen
data_P(S8I)3
_symmetry_space_group_name_H-M   'P 1'
_cell_length_a   15.11599917
_cell_length_b   15.11599973
_cell_length_c   15.11599800
_cell_angle_alpha   118.76464836
_cell_angle_beta   118.76465073
_cell_angle_gamma   118.76464912
_symmetry_Int_Tables_number   1
_chemical_formula_structural   P(S8I)3
_chemical_formula_sum   'P1 S24 I3'
_cell_volume   991.68272795
_cell_formula_units_Z   1
loop_
 _symmetry_equiv_pos_site_id
 _symmetry_equiv_pos_as_xyz
  1  'x, y, z'
loop_
 _atom_site_type_symbol
 _atom_site_label
 _atom_site_symmetry_multiplicity
 _atom_site_fract_x
 _atom_site_fract_y
 _atom_site_fract_z
 _atom_site_occupancy
  P  P0  1  0.776821  0.776821  0.776821  1
  S  S1  1  0.804935  0.522305  0.522305  1
  S  S2  1  0.522305  0.522305  0.804935  1
  S  S3  1  0.522305  0.804935  0.522305  1
  S  S4  1  0.243329  0.372214  0.632592  1
  S  S5  1  0.358816  0.957322  0.358816  1
  S  S6  1  0.358816  0.358816  0.957322  1
  S  S7  1  0.957322  0.358816  0.358816  1
  S  S8  1  0.128168  0.740677  0.257200  1
  S  S9  1  0.257200  0.128168  0.740677  1
  S  S10  1  0.740677  0.257200  0.128168  1
  S  S11  1  0.740677  0.128168  0.257200  1
  S  S12  1  0.257200  0.740677  0.128168  1
  S  S13  1  0.128168  0.257200  0.740677  1
  S  S14  1  0.348690  0.880426  0.531175  1
  S  S15  1  0.531175  0.348690  0.880426  1
  S  S16  1  0.880426  0.531175  0.348690  1
  S  S17  1  0.880426  0.348690  0.531175  1
  S  S18  1  0.531175  0.880426  0.348690  1
  S  S19  1  0.348690  0.531175  0.880426  1
  S  S20  1  0.243329  0.632592  0.372214  1
  S  S21  1  0.372214  0.243329  0.632592  1
  S  S22  1  0.632592  0.372214  0.243329  1
  S  S23  1  0.632592  0.243329  0.372214  1
  S  S24  1  0.372214  0.632592  0.243329  1
  I  I25  1  0.885121  0.034958  0.034958  1
  I  I26  1  0.034958  0.034958  0.885121  1
  I  I27  1  0.034958  0.885121  0.034958  1
