# generated using pymatgen
data_Tb5TmAl24(RuRh3)2
_symmetry_space_group_name_H-M   'P 1'
_cell_length_a   8.82829294
_cell_length_b   8.80015184
_cell_length_c   9.53680400
_cell_angle_alpha   90.00000000
_cell_angle_beta   90.00000000
_cell_angle_gamma   119.89460916
_symmetry_Int_Tables_number   1
_chemical_formula_structural   Tb5TmAl24(RuRh3)2
_chemical_formula_sum   'Tb5 Tm1 Al24 Ru2 Rh6'
_cell_volume   642.33357914
_cell_formula_units_Z   1
loop_
 _symmetry_equiv_pos_site_id
 _symmetry_equiv_pos_as_xyz
  1  'x, y, z'
loop_
 _atom_site_type_symbol
 _atom_site_label
 _atom_site_symmetry_multiplicity
 _atom_site_fract_x
 _atom_site_fract_y
 _atom_site_fract_z
 _atom_site_occupancy
  Tb  Tb0  1  0.808504  0.191646  0.250000  1
  Tb  Tb1  1  0.808504  0.616857  0.250000  1
  Tb  Tb2  1  0.617470  0.808736  0.750000  1
  Tb  Tb3  1  0.190881  0.808347  0.750000  1
  Tb  Tb4  1  0.190881  0.382534  0.750000  1
  Tm  Tm5  1  0.385456  0.192728  0.250000  1
  Al  Al6  1  0.437474  0.875762  0.250000  1
  Al  Al7  1  0.124737  0.562368  0.250000  1
  Al  Al8  1  0.437474  0.561712  0.250000  1
  Al  Al9  1  0.562075  0.124836  0.750000  1
  Al  Al10  1  0.875398  0.437699  0.750000  1
  Al  Al11  1  0.562075  0.437238  0.750000  1
  Al  Al12  1  0.164131  0.837389  0.423045  1
  Al  Al13  1  0.164131  0.326745  0.423045  1
  Al  Al14  1  0.672791  0.836397  0.423699  1
  Al  Al15  1  0.836109  0.163399  0.576206  1
  Al  Al16  1  0.836109  0.672708  0.576206  1
  Al  Al17  1  0.327079  0.163538  0.575221  1
  Al  Al18  1  0.836109  0.163399  0.923794  1
  Al  Al19  1  0.836109  0.672708  0.923794  1
  Al  Al20  1  0.327079  0.163538  0.924779  1
  Al  Al21  1  0.164131  0.837389  0.076955  1
  Al  Al22  1  0.164131  0.326745  0.076955  1
  Al  Al23  1  0.672791  0.836397  0.076301  1
  Al  Al24  1  0.332862  0.666432  0.528740  1
  Al  Al25  1  0.666293  0.333146  0.470347  1
  Al  Al26  1  0.666293  0.333146  0.029653  1
  Al  Al27  1  0.332862  0.666432  0.971260  1
  Al  Al28  1  0.002368  0.001184  0.250000  1
  Al  Al29  1  0.999555  0.999778  0.750000  1
  Ru  Ru30  1  0.000014  0.000007  0.499710  1
  Ru  Ru31  1  0.000014  0.000007  0.000290  1
  Rh  Rh32  1  0.499658  0.000213  0.499474  1
  Rh  Rh33  1  0.999740  0.499870  0.499745  1
  Rh  Rh34  1  0.499658  0.499444  0.499474  1
  Rh  Rh35  1  0.499658  0.000213  0.000526  1
  Rh  Rh36  1  0.999740  0.499870  0.000255  1
  Rh  Rh37  1  0.499658  0.499444  0.000526  1
