# generated using pymatgen
data_Lu10Ru3Rh
_symmetry_space_group_name_H-M   'P 1'
_cell_length_a   6.19455348
_cell_length_b   7.21536884
_cell_length_c   8.26773135
_cell_angle_alpha   96.83709807
_cell_angle_beta   112.05719656
_cell_angle_gamma   90.11998039
_symmetry_Int_Tables_number   1
_chemical_formula_structural   Lu10Ru3Rh
_chemical_formula_sum   'Lu10 Ru3 Rh1'
_cell_volume   339.61237819
_cell_formula_units_Z   1
loop_
 _symmetry_equiv_pos_site_id
 _symmetry_equiv_pos_as_xyz
  1  'x, y, z'
loop_
 _atom_site_type_symbol
 _atom_site_label
 _atom_site_symmetry_multiplicity
 _atom_site_fract_x
 _atom_site_fract_y
 _atom_site_fract_z
 _atom_site_occupancy
  Lu  Lu0  1  0.524987  0.084531  0.815091  1
  Lu  Lu1  1  0.475689  0.917556  0.183431  1
  Lu  Lu2  1  0.709858  0.415313  0.183573  1
  Lu  Lu3  1  0.289269  0.583556  0.810854  1
  Lu  Lu4  1  0.293033  0.313602  0.436905  1
  Lu  Lu5  1  0.708500  0.683867  0.566201  1
  Lu  Lu6  1  0.855128  0.182613  0.563596  1
  Lu  Lu7  1  0.141661  0.819832  0.437900  1
  Lu  Lu8  1  0.080602  0.248160  0.998315  1
  Lu  Lu9  1  0.918266  0.750900  0.999830  1
  Ru  Ru10  1  0.677009  0.424201  0.780680  1
  Ru  Ru11  1  0.105854  0.921814  0.781115  1
  Ru  Ru12  1  0.896848  0.077243  0.219562  1
  Rh  Rh13  1  0.323295  0.576813  0.222948  1
