# generated using pymatgen
data_Ta2TiRe2Si3Mo
_symmetry_space_group_name_H-M   'P 1'
_cell_length_a   6.87043773
_cell_length_b   6.83365705
_cell_length_c   3.31613900
_cell_angle_alpha   90.00000000
_cell_angle_beta   90.00000000
_cell_angle_gamma   119.54209326
_symmetry_Int_Tables_number   1
_chemical_formula_structural   Ta2TiRe2Si3Mo
_chemical_formula_sum   'Ta2 Ti1 Re2 Si3 Mo1'
_cell_volume   135.45231101
_cell_formula_units_Z   1
loop_
 _symmetry_equiv_pos_site_id
 _symmetry_equiv_pos_as_xyz
  1  'x, y, z'
loop_
 _atom_site_type_symbol
 _atom_site_label
 _atom_site_symmetry_multiplicity
 _atom_site_fract_x
 _atom_site_fract_y
 _atom_site_fract_z
 _atom_site_occupancy
  Ta  Ta0  1  0.406865  0.404917  0.500000  1
  Ta  Ta1  1  0.596309  0.993378  0.500000  1
  Ti  Ti2  1  0.995201  0.598039  0.500000  1
  Re  Re3  1  0.260723  0.002432  0.000000  1
  Re  Re4  1  0.000554  0.259703  0.000000  1
  Si  Si5  1  0.671259  0.333832  0.000000  1
  Si  Si6  1  0.324347  0.663910  0.000000  1
  Si  Si7  1  0.002232  0.000647  0.500000  1
  Mo  Mo8  1  0.742512  0.743143  0.000000  1
