# generated using pymatgen
data_Lu4TcMo2Os5
_symmetry_space_group_name_H-M   'P 1'
_cell_length_a   5.30380222
_cell_length_b   5.32506399
_cell_length_c   8.94259400
_cell_angle_alpha   90.00000000
_cell_angle_beta   90.00000000
_cell_angle_gamma   120.95882899
_symmetry_Int_Tables_number   1
_chemical_formula_structural   Lu4TcMo2Os5
_chemical_formula_sum   'Lu4 Tc1 Mo2 Os5'
_cell_volume   216.58512185
_cell_formula_units_Z   1
loop_
 _symmetry_equiv_pos_site_id
 _symmetry_equiv_pos_as_xyz
  1  'x, y, z'
loop_
 _atom_site_type_symbol
 _atom_site_label
 _atom_site_symmetry_multiplicity
 _atom_site_fract_x
 _atom_site_fract_y
 _atom_site_fract_z
 _atom_site_occupancy
  Lu  Lu0  1  0.336465  0.667255  0.435775  1
  Lu  Lu1  1  0.667705  0.335345  0.562380  1
  Lu  Lu2  1  0.667705  0.335345  0.937620  1
  Lu  Lu3  1  0.336465  0.667255  0.064225  1
  Tc  Tc4  1  0.170396  0.829440  0.750000  1
  Mo  Mo5  1  0.166759  0.334802  0.750000  1
  Mo  Mo6  1  0.332880  0.165725  0.250000  1
  Os  Os7  1  0.825077  0.653146  0.250000  1
  Os  Os8  1  0.651418  0.826407  0.750000  1
  Os  Os9  1  0.010126  0.006777  0.000471  1
  Os  Os10  1  0.824878  0.171728  0.250000  1
  Os  Os11  1  0.010126  0.006777  0.499529  1
