# generated using pymatgen
data_TbYReB8Mo
_symmetry_space_group_name_H-M   'P 1'
_cell_length_a   3.62587300
_cell_length_b   6.01200345
_cell_length_c   11.63074208
_cell_angle_alpha   89.95329977
_cell_angle_beta   90.00000000
_cell_angle_gamma   90.00000000
_symmetry_Int_Tables_number   1
_chemical_formula_structural   TbYReB8Mo
_chemical_formula_sum   'Tb2 Y2 Re2 B16 Mo2'
_cell_volume   253.53568255
_cell_formula_units_Z   2
loop_
 _symmetry_equiv_pos_site_id
 _symmetry_equiv_pos_as_xyz
  1  'x, y, z'
loop_
 _atom_site_type_symbol
 _atom_site_label
 _atom_site_symmetry_multiplicity
 _atom_site_fract_x
 _atom_site_fract_y
 _atom_site_fract_z
 _atom_site_occupancy
  Tb  Tb0  1  0.000000  0.127320  0.149512  1
  Tb  Tb1  1  0.000000  0.872680  0.850488  1
  Y  Y2  1  0.000000  0.626548  0.349314  1
  Y  Y3  1  0.000000  0.373452  0.650686  1
  Re  Re4  1  0.000000  0.634031  0.086696  1
  Re  Re5  1  0.000000  0.365969  0.913304  1
  B  B6  1  0.500000  0.477221  0.191204  1
  B  B7  1  0.500000  0.522779  0.808796  1
  B  B8  1  0.500000  0.975840  0.305982  1
  B  B9  1  0.500000  0.024160  0.694018  1
  B  B10  1  0.500000  0.288639  0.313598  1
  B  B11  1  0.500000  0.711361  0.686402  1
  B  B12  1  0.500000  0.784955  0.184117  1
  B  B13  1  0.500000  0.215045  0.815883  1
  B  B14  1  0.500000  0.366871  0.467683  1
  B  B15  1  0.500000  0.633129  0.532317  1
  B  B16  1  0.500000  0.862723  0.031005  1
  B  B17  1  0.500000  0.137277  0.968995  1
  B  B18  1  0.500000  0.386923  0.047095  1
  B  B19  1  0.500000  0.613077  0.952905  1
  B  B20  1  0.500000  0.885268  0.452549  1
  B  B21  1  0.500000  0.114732  0.547451  1
  Mo  Mo22  1  0.000000  0.128868  0.415400  1
  Mo  Mo23  1  0.000000  0.871132  0.584600  1
