# generated using pymatgen
data_Ba3InRhO6
_symmetry_space_group_name_H-M   'P 1'
_cell_length_a   7.13102334
_cell_length_b   7.13090310
_cell_length_c   7.13088065
_cell_angle_alpha   92.28989106
_cell_angle_beta   92.29195848
_cell_angle_gamma   92.29272215
_symmetry_Int_Tables_number   1
_chemical_formula_structural   Ba3InRhO6
_chemical_formula_sum   'Ba6 In2 Rh2 O12'
_cell_volume   361.71597240
_cell_formula_units_Z   2
loop_
 _symmetry_equiv_pos_site_id
 _symmetry_equiv_pos_as_xyz
  1  'x, y, z'
loop_
 _atom_site_type_symbol
 _atom_site_label
 _atom_site_symmetry_multiplicity
 _atom_site_fract_x
 _atom_site_fract_y
 _atom_site_fract_z
 _atom_site_occupancy
  Ba  Ba0  1  0.617970  0.882032  0.249911  1
  Ba  Ba1  1  0.250045  0.618014  0.881994  1
  Ba  Ba2  1  0.881912  0.249938  0.618067  1
  Ba  Ba3  1  0.382035  0.117966  0.750100  1
  Ba  Ba4  1  0.749948  0.381968  0.118005  1
  Ba  Ba5  1  0.118063  0.750055  0.381935  1
  In  In6  1  0.249888  0.249989  0.249987  1
  In  In7  1  0.750067  0.749998  0.749974  1
  Rh  Rh8  1  0.999964  0.000038  0.000033  1
  Rh  Rh9  1  0.500022  0.500027  0.499997  1
  O  O10  1  0.279836  0.968284  0.098338  1
  O  O11  1  0.098258  0.279823  0.968260  1
  O  O12  1  0.968146  0.098254  0.279808  1
  O  O13  1  0.531748  0.220181  0.401752  1
  O  O14  1  0.401688  0.531816  0.220221  1
  O  O15  1  0.220125  0.401818  0.531920  1
  O  O16  1  0.720231  0.031715  0.901664  1
  O  O17  1  0.901786  0.720166  0.031747  1
  O  O18  1  0.031888  0.901731  0.720142  1
  O  O19  1  0.468251  0.779817  0.598266  1
  O  O20  1  0.598289  0.468178  0.779784  1
  O  O21  1  0.779840  0.598189  0.468097  1
