# generated using pymatgen
data_Cs3KHf6CBr18
_symmetry_space_group_name_H-M   'P 1'
_cell_length_a   10.72185823
_cell_length_b   11.01450563
_cell_length_c   11.12385600
_cell_angle_alpha   118.27661731
_cell_angle_beta   100.51601977
_cell_angle_gamma   104.20541020
_symmetry_Int_Tables_number   1
_chemical_formula_structural   Cs3KHf6CBr18
_chemical_formula_sum   'Cs3 K1 Hf6 C1 Br18'
_cell_volume   1050.63044297
_cell_formula_units_Z   1
loop_
 _symmetry_equiv_pos_site_id
 _symmetry_equiv_pos_as_xyz
  1  'x, y, z'
loop_
 _atom_site_type_symbol
 _atom_site_label
 _atom_site_symmetry_multiplicity
 _atom_site_fract_x
 _atom_site_fract_y
 _atom_site_fract_z
 _atom_site_occupancy
  Cs  Cs0  1  0.192304  0.725314  0.562398  1
  Cs  Cs1  1  0.836571  0.964065  0.769225  1
  Cs  Cs2  1  0.161215  0.037801  0.231218  1
  K  K3  1  0.817635  0.275438  0.440378  1
  Hf  Hf4  1  0.357551  0.448111  0.787287  1
  Hf  Hf5  1  0.371347  0.615334  0.122164  1
  Hf  Hf6  1  0.636826  0.723388  0.045033  1
  Hf  Hf7  1  0.642177  0.549938  0.212229  1
  Hf  Hf8  1  0.363987  0.277921  0.956929  1
  Hf  Hf9  1  0.629380  0.386267  0.876587  1
  C  C10  1  0.500523  0.500203  0.000047  1
  Br  Br11  1  0.811682  0.427432  0.103177  1
  Br  Br12  1  0.517039  0.692320  0.388569  1
  Br  Br13  1  0.191477  0.002248  0.902571  1
  Br  Br14  1  0.189211  0.572210  0.894332  1
  Br  Br15  1  0.820982  0.817343  0.299663  1
  Br  Br16  1  0.505106  0.302507  0.196924  1
  Br  Br17  1  0.784754  0.247413  0.717124  1
  Br  Br18  1  0.179813  0.181047  0.702260  1
  Br  Br19  1  0.508818  0.890424  0.190083  1
  Br  Br20  1  0.806609  0.627972  0.911447  1
  Br  Br21  1  0.213632  0.754459  0.268695  1
  Br  Br22  1  0.168678  0.378900  0.521778  1
  Br  Br23  1  0.495331  0.696511  0.802609  1
  Br  Br24  1  0.807355  0.007041  0.109122  1
  Br  Br25  1  0.482669  0.308336  0.611003  1
  Br  Br26  1  0.194299  0.375297  0.090095  1
  Br  Br27  1  0.819307  0.603255  0.475626  1
  Br  Br28  1  0.493720  0.111500  0.811426  1
