# generated using pymatgen
data_Ta6OsPt
_symmetry_space_group_name_H-M   'P 1'
_cell_length_a   5.18540400
_cell_length_b   5.18540400
_cell_length_c   5.18540400
_cell_angle_alpha   90.00000000
_cell_angle_beta   90.00000000
_cell_angle_gamma   89.99998895
_symmetry_Int_Tables_number   1
_chemical_formula_structural   Ta6OsPt
_chemical_formula_sum   'Ta6 Os1 Pt1'
_cell_volume   139.42729284
_cell_formula_units_Z   1
loop_
 _symmetry_equiv_pos_site_id
 _symmetry_equiv_pos_as_xyz
  1  'x, y, z'
loop_
 _atom_site_type_symbol
 _atom_site_label
 _atom_site_symmetry_multiplicity
 _atom_site_fract_x
 _atom_site_fract_y
 _atom_site_fract_z
 _atom_site_occupancy
  Ta  Ta0  1  0.499999  0.500002  0.998274  1
  Ta  Ta1  1  0.251724  0.000000  0.250000  1
  Ta  Ta2  1  0.748274  0.000000  0.250002  1
  Ta  Ta3  1  0.499999  0.500002  0.501725  1
  Ta  Ta4  1  0.000000  0.248275  0.749999  1
  Ta  Ta5  1  0.000000  0.751726  0.749999  1
  Os  Os6  1  0.499999  0.000000  0.749999  1
  Pt  Pt7  1  0.000000  0.500002  0.250000  1
