# generated using pymatgen
data_MnNb6Tc5Ge6
_symmetry_space_group_name_H-M   'P 1'
_cell_length_a   7.64449744
_cell_length_b   7.65011462
_cell_length_c   7.65011340
_cell_angle_alpha   127.64169116
_cell_angle_beta   123.66908507
_cell_angle_gamma   80.51257992
_symmetry_Int_Tables_number   1
_chemical_formula_structural   MnNb6Tc5Ge6
_chemical_formula_sum   'Mn1 Nb6 Tc5 Ge6'
_cell_volume   284.40432010
_cell_formula_units_Z   1
loop_
 _symmetry_equiv_pos_site_id
 _symmetry_equiv_pos_as_xyz
  1  'x, y, z'
loop_
 _atom_site_type_symbol
 _atom_site_label
 _atom_site_symmetry_multiplicity
 _atom_site_fract_x
 _atom_site_fract_y
 _atom_site_fract_z
 _atom_site_occupancy
  Mn  Mn0  1  0.000000  0.249169  0.249169  1
  Nb  Nb1  1  0.551987  0.101137  0.044335  1
  Nb  Nb2  1  0.448013  0.492348  0.549150  1
  Nb  Nb3  1  0.963530  0.495808  0.023566  1
  Nb  Nb4  1  0.036470  0.060036  0.532277  1
  Nb  Nb5  1  0.750953  0.911219  0.659555  1
  Nb  Nb6  1  0.249047  0.908601  0.160267  1
  Tc  Tc7  1  0.163944  0.749594  0.662146  1
  Tc  Tc8  1  0.836056  0.498201  0.585650  1
  Tc  Tc9  1  0.587819  0.747336  0.084451  1
  Tc  Tc10  1  0.412181  0.496631  0.159517  1
  Tc  Tc11  1  0.500000  0.245642  0.745642  1
  Ge  Ge12  1  0.336008  0.825704  0.496770  1
  Ge  Ge13  1  0.663992  0.160761  0.489696  1
  Ge  Ge14  1  0.831202  0.835807  0.997138  1
  Ge  Ge15  1  0.168798  0.165936  0.004605  1
  Ge  Ge16  1  0.781896  0.528611  0.251351  1
  Ge  Ge17  1  0.218104  0.469455  0.746717  1
