# generated using pymatgen
data_Nb4Ga3TcC
_symmetry_space_group_name_H-M   'P 1'
_cell_length_a   7.71462700
_cell_length_b   7.71462642
_cell_length_c   5.31487300
_cell_angle_alpha   90.00000000
_cell_angle_beta   90.00000000
_cell_angle_gamma   120.00000679
_symmetry_Int_Tables_number   1
_chemical_formula_structural   Nb4Ga3TcC
_chemical_formula_sum   'Nb8 Ga6 Tc2 C2'
_cell_volume   273.93865956
_cell_formula_units_Z   2
loop_
 _symmetry_equiv_pos_site_id
 _symmetry_equiv_pos_as_xyz
  1  'x, y, z'
loop_
 _atom_site_type_symbol
 _atom_site_label
 _atom_site_symmetry_multiplicity
 _atom_site_fract_x
 _atom_site_fract_y
 _atom_site_fract_z
 _atom_site_occupancy
  Nb  Nb0  1  0.231289  0.000000  0.256446  1
  Nb  Nb1  1  0.768711  0.000000  0.743554  1
  Nb  Nb2  1  0.000000  0.231289  0.256446  1
  Nb  Nb3  1  0.000000  0.768711  0.743554  1
  Nb  Nb4  1  0.768711  0.768711  0.256446  1
  Nb  Nb5  1  0.231289  0.231289  0.743554  1
  Nb  Nb6  1  0.666667  0.333333  0.500000  1
  Nb  Nb7  1  0.333333  0.666667  0.500000  1
  Ga  Ga8  1  0.591065  0.000000  0.233311  1
  Ga  Ga9  1  0.408935  0.000000  0.766689  1
  Ga  Ga10  1  0.000000  0.591065  0.233311  1
  Ga  Ga11  1  0.000000  0.408935  0.766689  1
  Ga  Ga12  1  0.408935  0.408935  0.233311  1
  Ga  Ga13  1  0.591065  0.591065  0.766689  1
  Tc  Tc14  1  0.333333  0.666667  0.000000  1
  Tc  Tc15  1  0.666667  0.333333  0.000000  1
  C  C16  1  0.000000  0.000000  0.000000  1
  C  C17  1  0.000000  0.000000  0.500000  1
