# generated using pymatgen
data_Sc3ZnCo2Sn3
_symmetry_space_group_name_H-M   'P 1'
_cell_length_a   7.32738102
_cell_length_b   7.32717426
_cell_length_c   7.12256900
_cell_angle_alpha   89.99977806
_cell_angle_beta   90.00316439
_cell_angle_gamma   120.00235443
_symmetry_Int_Tables_number   1
_chemical_formula_structural   Sc3ZnCo2Sn3
_chemical_formula_sum   'Sc6 Zn2 Co4 Sn6'
_cell_volume   331.16336554
_cell_formula_units_Z   2
loop_
 _symmetry_equiv_pos_site_id
 _symmetry_equiv_pos_as_xyz
  1  'x, y, z'
loop_
 _atom_site_type_symbol
 _atom_site_label
 _atom_site_symmetry_multiplicity
 _atom_site_fract_x
 _atom_site_fract_y
 _atom_site_fract_z
 _atom_site_occupancy
  Sc  Sc0  1  0.380061  0.975066  0.249973  1
  Sc  Sc1  1  0.594994  0.619941  0.249965  1
  Sc  Sc2  1  0.024949  0.404990  0.249969  1
  Sc  Sc3  1  0.378766  0.972715  0.750034  1
  Sc  Sc4  1  0.593938  0.621232  0.750034  1
  Sc  Sc5  1  0.027293  0.406048  0.750032  1
  Zn  Zn6  1  0.666673  0.333334  0.994395  1
  Zn  Zn7  1  0.666668  0.333334  0.505600  1
  Co  Co8  1  0.333324  0.666662  0.001380  1
  Co  Co9  1  0.333322  0.666660  0.498625  1
  Co  Co10  1  0.000003  0.000012  0.249979  1
  Co  Co11  1  0.999996  0.000004  0.750019  1
  Sn  Sn12  1  0.736352  0.002098  0.000206  1
  Sn  Sn13  1  0.265744  0.263630  0.499805  1
  Sn  Sn14  1  0.997878  0.734246  0.499782  1
  Sn  Sn15  1  0.997902  0.734246  0.000199  1
  Sn  Sn16  1  0.265755  0.263659  0.000212  1
  Sn  Sn17  1  0.736382  0.002122  0.499790  1
