# generated using pymatgen
data_Sr10Al4Si13Ge
_symmetry_space_group_name_H-M   'P 1'
_cell_length_a   6.40812831
_cell_length_b   6.40812803
_cell_length_c   17.82325214
_cell_angle_alpha   81.43931460
_cell_angle_beta   81.43931671
_cell_angle_gamma   99.63223445
_symmetry_Int_Tables_number   1
_chemical_formula_structural   Sr10Al4Si13Ge
_chemical_formula_sum   'Sr10 Al4 Si13 Ge1'
_cell_volume   702.11326853
_cell_formula_units_Z   1
loop_
 _symmetry_equiv_pos_site_id
 _symmetry_equiv_pos_as_xyz
  1  'x, y, z'
loop_
 _atom_site_type_symbol
 _atom_site_label
 _atom_site_symmetry_multiplicity
 _atom_site_fract_x
 _atom_site_fract_y
 _atom_site_fract_z
 _atom_site_occupancy
  Sr  Sr0  1  0.750694  0.248432  0.000472  1
  Sr  Sr1  1  0.121253  0.569336  0.788359  1
  Sr  Sr2  1  0.293214  0.706867  0.499943  1
  Sr  Sr3  1  0.760831  0.760831  0.641503  1
  Sr  Sr4  1  0.240749  0.240749  0.357377  1
  Sr  Sr5  1  0.569336  0.121253  0.788359  1
  Sr  Sr6  1  0.248432  0.750694  0.000472  1
  Sr  Sr7  1  0.706867  0.293214  0.499943  1
  Sr  Sr8  1  0.429885  0.879300  0.211733  1
  Sr  Sr9  1  0.879300  0.429885  0.211733  1
  Al  Al10  1  0.223512  0.223512  0.071961  1
  Al  Al11  1  0.932206  0.932206  0.264280  1
  Al  Al12  1  0.066945  0.066945  0.736082  1
  Al  Al13  1  0.776801  0.776801  0.929298  1
  Si  Si14  1  0.356434  0.356434  0.641121  1
  Si  Si15  1  0.300964  0.300964  0.930790  1
  Si  Si16  1  0.928627  0.928627  0.129596  1
  Si  Si17  1  0.643368  0.643368  0.358957  1
  Si  Si18  1  0.416428  0.416428  0.157010  1
  Si  Si19  1  0.070149  0.070149  0.870987  1
  Si  Si20  1  0.821893  0.821893  0.453162  1
  Si  Si21  1  0.338393  0.961585  0.640247  1
  Si  Si22  1  0.661365  0.038288  0.359871  1
  Si  Si23  1  0.178354  0.178354  0.546738  1
  Si  Si24  1  0.961585  0.338393  0.640247  1
  Si  Si25  1  0.038288  0.661365  0.359871  1
  Si  Si26  1  0.695557  0.695557  0.070339  1
  Ge  Ge27  1  0.588570  0.588570  0.839553  1
