# generated using pymatgen
data_Dy4TmRu3
_symmetry_space_group_name_H-M   'P 1'
_cell_length_a   10.77497700
_cell_length_b   10.77497700
_cell_length_c   6.34974500
_cell_angle_alpha   90.00000000
_cell_angle_beta   90.00000000
_cell_angle_gamma   90.00000000
_symmetry_Int_Tables_number   1
_chemical_formula_structural   Dy4TmRu3
_chemical_formula_sum   'Dy16 Tm4 Ru12'
_cell_volume   737.20621584
_cell_formula_units_Z   4
loop_
 _symmetry_equiv_pos_site_id
 _symmetry_equiv_pos_as_xyz
  1  'x, y, z'
loop_
 _atom_site_type_symbol
 _atom_site_label
 _atom_site_symmetry_multiplicity
 _atom_site_fract_x
 _atom_site_fract_y
 _atom_site_fract_z
 _atom_site_occupancy
  Dy  Dy0  1  0.291368  0.086587  0.376850  1
  Dy  Dy1  1  0.291368  0.913413  0.876850  1
  Dy  Dy2  1  0.708632  0.086587  0.876850  1
  Dy  Dy3  1  0.708632  0.913413  0.376850  1
  Dy  Dy4  1  0.586587  0.791368  0.876850  1
  Dy  Dy5  1  0.586587  0.208632  0.376850  1
  Dy  Dy6  1  0.413413  0.791368  0.376850  1
  Dy  Dy7  1  0.413413  0.208632  0.876850  1
  Dy  Dy8  1  0.208632  0.413413  0.623150  1
  Dy  Dy9  1  0.208632  0.586587  0.123150  1
  Dy  Dy10  1  0.791368  0.413413  0.123150  1
  Dy  Dy11  1  0.791368  0.586587  0.623150  1
  Dy  Dy12  1  0.913413  0.708632  0.123150  1
  Dy  Dy13  1  0.913413  0.291368  0.623150  1
  Dy  Dy14  1  0.086587  0.708632  0.623150  1
  Dy  Dy15  1  0.086587  0.291368  0.123150  1
  Tm  Tm16  1  0.000000  0.000000  0.500000  1
  Tm  Tm17  1  0.000000  0.000000  0.000000  1
  Tm  Tm18  1  0.500000  0.500000  0.000000  1
  Tm  Tm19  1  0.500000  0.500000  0.500000  1
  Ru  Ru20  1  0.847891  0.152109  0.250000  1
  Ru  Ru21  1  0.847891  0.847891  0.750000  1
  Ru  Ru22  1  0.152109  0.152109  0.750000  1
  Ru  Ru23  1  0.152109  0.847891  0.250000  1
  Ru  Ru24  1  0.652109  0.347891  0.750000  1
  Ru  Ru25  1  0.652109  0.652109  0.250000  1
  Ru  Ru26  1  0.347891  0.347891  0.250000  1
  Ru  Ru27  1  0.347891  0.652109  0.750000  1
  Ru  Ru28  1  0.500000  0.000000  0.123584  1
  Ru  Ru29  1  0.500000  0.000000  0.623584  1
  Ru  Ru30  1  0.000000  0.500000  0.876416  1
  Ru  Ru31  1  0.000000  0.500000  0.376416  1
