# generated using pymatgen
data_Lu4Ge4As2Ir6Ru
_symmetry_space_group_name_H-M   'P 1'
_cell_length_a   7.21109323
_cell_length_b   7.21101640
_cell_length_c   7.21101773
_cell_angle_alpha   109.21709352
_cell_angle_beta   109.59821913
_cell_angle_gamma   109.59821759
_symmetry_Int_Tables_number   1
_chemical_formula_structural   Lu4Ge4As2Ir6Ru
_chemical_formula_sum   'Lu4 Ge4 As2 Ir6 Ru1'
_cell_volume   288.64774743
_cell_formula_units_Z   1
loop_
 _symmetry_equiv_pos_site_id
 _symmetry_equiv_pos_as_xyz
  1  'x, y, z'
loop_
 _atom_site_type_symbol
 _atom_site_label
 _atom_site_symmetry_multiplicity
 _atom_site_fract_x
 _atom_site_fract_y
 _atom_site_fract_z
 _atom_site_occupancy
  Lu  Lu0  1  0.000000  0.001328  0.496681  1
  Lu  Lu1  1  0.000000  0.503319  0.998672  1
  Lu  Lu2  1  0.500000  0.001161  0.998839  1
  Lu  Lu3  1  0.500000  0.501161  0.498839  1
  Ge  Ge4  1  0.000000  0.317227  0.313881  1
  Ge  Ge5  1  0.307912  0.309911  0.998001  1
  Ge  Ge6  1  0.692088  0.001999  0.690089  1
  Ge  Ge7  1  0.000000  0.686119  0.682773  1
  As  As8  1  0.680155  0.681500  0.998656  1
  As  As9  1  0.319845  0.001344  0.318500  1
  Ir  Ir10  1  0.751544  0.250731  0.500813  1
  Ir  Ir11  1  0.747432  0.499103  0.248329  1
  Ir  Ir12  1  0.500000  0.249063  0.750937  1
  Ir  Ir13  1  0.248456  0.499187  0.749269  1
  Ir  Ir14  1  0.252568  0.751671  0.500897  1
  Ir  Ir15  1  0.500000  0.749063  0.250937  1
  Ru  Ru16  1  0.000000  0.996114  0.003886  1
