# generated using pymatgen
data_Sr2ZnFe2Te2(PO7)2
_symmetry_space_group_name_H-M   'P 1'
_cell_length_a   7.97977900
_cell_length_b   5.29546581
_cell_length_c   15.53204800
_cell_angle_alpha   89.67764457
_cell_angle_beta   90.00000000
_cell_angle_gamma   90.00000000
_symmetry_Int_Tables_number   1
_chemical_formula_structural   Sr2ZnFe2Te2(PO7)2
_chemical_formula_sum   'Sr4 Zn2 Fe4 Te4 P4 O28'
_cell_volume   656.32187983
_cell_formula_units_Z   2
loop_
 _symmetry_equiv_pos_site_id
 _symmetry_equiv_pos_as_xyz
  1  'x, y, z'
loop_
 _atom_site_type_symbol
 _atom_site_label
 _atom_site_symmetry_multiplicity
 _atom_site_fract_x
 _atom_site_fract_y
 _atom_site_fract_z
 _atom_site_occupancy
  Sr  Sr0  1  0.443123  0.500879  0.200617  1
  Sr  Sr1  1  0.943123  0.499121  0.299383  1
  Sr  Sr2  1  0.554728  0.498163  0.797474  1
  Sr  Sr3  1  0.054728  0.501837  0.702526  1
  Zn  Zn4  1  0.894095  0.988472  0.881809  1
  Zn  Zn5  1  0.394095  0.011528  0.618191  1
  Fe  Fe6  1  0.110740  0.012215  0.117912  1
  Fe  Fe7  1  0.610740  0.987785  0.382088  1
  Fe  Fe8  1  0.500106  0.996482  0.998925  1
  Fe  Fe9  1  0.000106  0.003518  0.501075  1
  Te  Te10  1  0.226298  0.488150  0.988971  1
  Te  Te11  1  0.726298  0.511850  0.511029  1
  Te  Te12  1  0.778343  0.506446  0.006724  1
  Te  Te13  1  0.278343  0.493554  0.493276  1
  P  P14  1  0.233052  0.054657  0.307309  1
  P  P15  1  0.733052  0.945343  0.192691  1
  P  P16  1  0.765819  0.950247  0.692975  1
  P  P17  1  0.265819  0.049753  0.807025  1
  O  O18  1  0.174590  0.212375  0.225799  1
  O  O19  1  0.674590  0.787625  0.274201  1
  O  O20  1  0.819243  0.796256  0.776008  1
  O  O21  1  0.319243  0.203744  0.723992  1
  O  O22  1  0.266053  0.754581  0.069114  1
  O  O23  1  0.766053  0.245419  0.430886  1
  O  O24  1  0.739150  0.243572  0.924471  1
  O  O25  1  0.239150  0.756428  0.575529  1
  O  O26  1  0.384958  0.289000  0.055179  1
  O  O27  1  0.884958  0.711000  0.444821  1
  O  O28  1  0.609249  0.697248  0.944608  1
  O  O29  1  0.109249  0.302752  0.555392  1
  O  O30  1  0.410464  0.162345  0.327615  1
  O  O31  1  0.910464  0.837655  0.172385  1
  O  O32  1  0.589858  0.839034  0.670483  1
  O  O33  1  0.089858  0.160966  0.829517  1
  O  O34  1  0.108936  0.124304  0.379970  1
  O  O35  1  0.608936  0.875696  0.120030  1
  O  O36  1  0.893623  0.877379  0.622144  1
  O  O37  1  0.393623  0.122621  0.877856  1
  O  O38  1  0.234160  0.769848  0.287824  1
  O  O39  1  0.734160  0.230152  0.212176  1
  O  O40  1  0.763386  0.236075  0.709625  1
  O  O41  1  0.263386  0.763925  0.790375  1
  O  O42  1  0.043708  0.296212  0.037312  1
  O  O43  1  0.543708  0.703788  0.462688  1
  O  O44  1  0.956317  0.709888  0.958770  1
  O  O45  1  0.456317  0.290112  0.541230  1
