# generated using pymatgen
data_Ca19YbHg12
_symmetry_space_group_name_H-M   'P 1'
_cell_length_a   8.27356300
_cell_length_b   8.27356300
_cell_length_c   14.82865600
_cell_angle_alpha   90.00000000
_cell_angle_beta   90.00000000
_cell_angle_gamma   90.00000000
_symmetry_Int_Tables_number   1
_chemical_formula_structural   Ca19YbHg12
_chemical_formula_sum   'Ca19 Yb1 Hg12'
_cell_volume   1015.04885784
_cell_formula_units_Z   1
loop_
 _symmetry_equiv_pos_site_id
 _symmetry_equiv_pos_as_xyz
  1  'x, y, z'
loop_
 _atom_site_type_symbol
 _atom_site_label
 _atom_site_symmetry_multiplicity
 _atom_site_fract_x
 _atom_site_fract_y
 _atom_site_fract_z
 _atom_site_occupancy
  Ca  Ca0  1  0.666286  0.161256  0.101267  1
  Ca  Ca1  1  0.164654  0.663561  0.602258  1
  Ca  Ca2  1  0.333714  0.838744  0.101267  1
  Ca  Ca3  1  0.835346  0.336439  0.602258  1
  Ca  Ca4  1  0.838744  0.666286  0.101267  1
  Ca  Ca5  1  0.336439  0.164654  0.602258  1
  Ca  Ca6  1  0.161256  0.333714  0.101267  1
  Ca  Ca7  1  0.663561  0.835346  0.602258  1
  Ca  Ca8  1  0.838584  0.333703  0.898868  1
  Ca  Ca9  1  0.336391  0.835561  0.397596  1
  Ca  Ca10  1  0.161416  0.666297  0.898868  1
  Ca  Ca11  1  0.663609  0.164439  0.397596  1
  Ca  Ca12  1  0.666297  0.838584  0.898868  1
  Ca  Ca13  1  0.164439  0.336391  0.397596  1
  Ca  Ca14  1  0.333703  0.161416  0.898868  1
  Ca  Ca15  1  0.835561  0.663609  0.397596  1
  Ca  Ca16  1  0.500000  0.500000  0.754056  1
  Ca  Ca17  1  0.000000  0.000000  0.748843  1
  Ca  Ca18  1  0.500000  0.500000  0.245963  1
  Yb  Yb19  1  0.000000  0.000000  0.250994  1
  Hg  Hg20  1  0.500000  0.500000  0.499897  1
  Hg  Hg21  1  0.500000  0.500000  0.000108  1
  Hg  Hg22  1  0.000000  0.000000  0.499450  1
  Hg  Hg23  1  0.634978  0.135265  0.750901  1
  Hg  Hg24  1  0.134717  0.636515  0.249132  1
  Hg  Hg25  1  0.865283  0.363485  0.249132  1
  Hg  Hg26  1  0.365022  0.864735  0.750901  1
  Hg  Hg27  1  0.864735  0.634978  0.750901  1
  Hg  Hg28  1  0.363485  0.134717  0.249132  1
  Hg  Hg29  1  0.135265  0.365022  0.750901  1
  Hg  Hg30  1  0.636515  0.865283  0.249132  1
  Hg  Hg31  1  0.000000  0.000000  0.000608  1
