# generated using pymatgen
data_ErTa2SbPb4O13
_symmetry_space_group_name_H-M   'P 1'
_cell_length_a   7.69654169
_cell_length_b   7.66332236
_cell_length_c   7.69654091
_cell_angle_alpha   59.65085798
_cell_angle_beta   59.52672803
_cell_angle_gamma   59.65085137
_symmetry_Int_Tables_number   1
_chemical_formula_structural   ErTa2SbPb4O13
_chemical_formula_sum   'Er1 Ta2 Sb1 Pb4 O13'
_cell_volume   318.14134454
_cell_formula_units_Z   1
loop_
 _symmetry_equiv_pos_site_id
 _symmetry_equiv_pos_as_xyz
  1  'x, y, z'
loop_
 _atom_site_type_symbol
 _atom_site_label
 _atom_site_symmetry_multiplicity
 _atom_site_fract_x
 _atom_site_fract_y
 _atom_site_fract_z
 _atom_site_occupancy
  Er  Er0  1  0.503125  0.498532  0.503125  1
  Ta  Ta1  1  0.003329  0.502155  0.501308  1
  Ta  Ta2  1  0.501308  0.502155  0.003329  1
  Sb  Sb3  1  0.499568  0.001328  0.499568  1
  Pb  Pb4  1  0.005401  0.993398  0.005401  1
  Pb  Pb5  1  0.500194  0.012474  0.002012  1
  Pb  Pb6  1  0.002012  0.012474  0.500194  1
  Pb  Pb7  1  0.015072  0.497491  0.015072  1
  O  O8  1  0.861863  0.407224  0.408669  1
  O  O9  1  0.420066  0.808596  0.809370  1
  O  O10  1  0.408669  0.407224  0.861863  1
  O  O11  1  0.809370  0.808596  0.420066  1
  O  O12  1  0.797991  0.433028  0.797991  1
  O  O13  1  0.415380  0.855843  0.415380  1
  O  O14  1  0.157316  0.577055  0.571718  1
  O  O15  1  0.574830  0.191029  0.187910  1
  O  O16  1  0.571718  0.577055  0.157316  1
  O  O17  1  0.187910  0.191029  0.574830  1
  O  O18  1  0.186579  0.578312  0.186579  1
  O  O19  1  0.580117  0.150049  0.580117  1
  O  O20  1  0.123179  0.119950  0.123179  1
