# generated using pymatgen
data_Sr3MgTiN4
_symmetry_space_group_name_H-M   'P 1'
_cell_length_a   6.06896800
_cell_length_b   9.81666100
_cell_length_c   10.46250100
_cell_angle_alpha   90.00000000
_cell_angle_beta   90.00000000
_cell_angle_gamma   90.00000000
_symmetry_Int_Tables_number   1
_chemical_formula_structural   Sr3MgTiN4
_chemical_formula_sum   'Sr12 Mg4 Ti4 N16'
_cell_volume   623.32443752
_cell_formula_units_Z   4
loop_
 _symmetry_equiv_pos_site_id
 _symmetry_equiv_pos_as_xyz
  1  'x, y, z'
loop_
 _atom_site_type_symbol
 _atom_site_label
 _atom_site_symmetry_multiplicity
 _atom_site_fract_x
 _atom_site_fract_y
 _atom_site_fract_z
 _atom_site_occupancy
  Sr  Sr0  1  0.750000  0.404834  0.000000  1
  Sr  Sr1  1  0.112324  0.914822  0.847452  1
  Sr  Sr2  1  0.387676  0.585178  0.347452  1
  Sr  Sr3  1  0.887676  0.085178  0.152548  1
  Sr  Sr4  1  0.887676  0.414822  0.347452  1
  Sr  Sr5  1  0.750000  0.095166  0.500000  1
  Sr  Sr6  1  0.387676  0.914822  0.152548  1
  Sr  Sr7  1  0.612324  0.414822  0.652548  1
  Sr  Sr8  1  0.250000  0.595166  0.000000  1
  Sr  Sr9  1  0.112324  0.585178  0.652548  1
  Sr  Sr10  1  0.612324  0.085178  0.847452  1
  Sr  Sr11  1  0.250000  0.904834  0.500000  1
  Mg  Mg12  1  0.155227  0.250000  0.750000  1
  Mg  Mg13  1  0.844773  0.750000  0.250000  1
  Mg  Mg14  1  0.344773  0.250000  0.250000  1
  Mg  Mg15  1  0.655227  0.750000  0.750000  1
  Ti  Ti16  1  0.750000  0.764949  0.500000  1
  Ti  Ti17  1  0.750000  0.735051  0.000000  1
  Ti  Ti18  1  0.250000  0.264949  0.000000  1
  Ti  Ti19  1  0.250000  0.235051  0.500000  1
  N  N20  1  0.987211  0.660930  0.413871  1
  N  N21  1  0.381275  0.372743  0.865900  1
  N  N22  1  0.881275  0.872743  0.634100  1
  N  N23  1  0.012789  0.160930  0.913871  1
  N  N24  1  0.487211  0.160930  0.086129  1
  N  N25  1  0.487211  0.339070  0.413871  1
  N  N26  1  0.987211  0.839070  0.086129  1
  N  N27  1  0.012789  0.339070  0.586129  1
  N  N28  1  0.881275  0.627257  0.865900  1
  N  N29  1  0.512789  0.660930  0.586129  1
  N  N30  1  0.618725  0.627257  0.134100  1
  N  N31  1  0.381275  0.127257  0.634100  1
  N  N32  1  0.618725  0.872743  0.365900  1
  N  N33  1  0.118725  0.372743  0.134100  1
  N  N34  1  0.118725  0.127257  0.365900  1
  N  N35  1  0.512789  0.839070  0.913871  1
