# generated using pymatgen
data_La6Th2ZnPd24
_symmetry_space_group_name_H-M   'P 1'
_cell_length_a   8.55928651
_cell_length_b   8.55928651
_cell_length_c   8.55928651
_cell_angle_alpha   89.84562655
_cell_angle_beta   89.84562655
_cell_angle_gamma   89.84562655
_symmetry_Int_Tables_number   1
_chemical_formula_structural   La6Th2ZnPd24
_chemical_formula_sum   'La6 Th2 Zn1 Pd24'
_cell_volume   627.05837386
_cell_formula_units_Z   1
loop_
 _symmetry_equiv_pos_site_id
 _symmetry_equiv_pos_as_xyz
  1  'x, y, z'
loop_
 _atom_site_type_symbol
 _atom_site_label
 _atom_site_symmetry_multiplicity
 _atom_site_fract_x
 _atom_site_fract_y
 _atom_site_fract_z
 _atom_site_occupancy
  La  La0  1  0.748884  0.748884  0.251138  1
  La  La1  1  0.748884  0.251138  0.748884  1
  La  La2  1  0.251116  0.251116  0.748862  1
  La  La3  1  0.251116  0.748862  0.251116  1
  La  La4  1  0.251138  0.748884  0.748884  1
  La  La5  1  0.748862  0.251116  0.251116  1
  Th  Th6  1  0.251801  0.251801  0.251801  1
  Th  Th7  1  0.748199  0.748199  0.748199  1
  Zn  Zn8  1  0.000000  0.000000  0.000000  1
  Pd  Pd9  1  0.261703  0.498232  0.002609  1
  Pd  Pd10  1  0.738297  0.501768  0.997391  1
  Pd  Pd11  1  0.002609  0.261703  0.498232  1
  Pd  Pd12  1  0.498232  0.261703  0.002609  1
  Pd  Pd13  1  0.997391  0.738297  0.501768  1
  Pd  Pd14  1  0.501768  0.738297  0.997391  1
  Pd  Pd15  1  0.498232  0.002609  0.261703  1
  Pd  Pd16  1  0.261703  0.002609  0.498232  1
  Pd  Pd17  1  0.501768  0.997391  0.738297  1
  Pd  Pd18  1  0.738297  0.997391  0.501768  1
  Pd  Pd19  1  0.002609  0.498232  0.261703  1
  Pd  Pd20  1  0.997391  0.501768  0.738297  1
  Pd  Pd21  1  0.254025  0.497766  0.497766  1
  Pd  Pd22  1  0.745975  0.502234  0.502234  1
  Pd  Pd23  1  0.497766  0.254025  0.497766  1
  Pd  Pd24  1  0.502234  0.745975  0.502234  1
  Pd  Pd25  1  0.497766  0.497766  0.254025  1
  Pd  Pd26  1  0.502234  0.502234  0.745975  1
  Pd  Pd27  1  0.295630  0.002181  0.002181  1
  Pd  Pd28  1  0.704370  0.997819  0.997819  1
  Pd  Pd29  1  0.002181  0.295630  0.002181  1
  Pd  Pd30  1  0.997819  0.704370  0.997819  1
  Pd  Pd31  1  0.002181  0.002181  0.295630  1
  Pd  Pd32  1  0.997819  0.997819  0.704370  1
