# generated using pymatgen
data_TbEr4Bi2Te
_symmetry_space_group_name_H-M   'P 1'
_cell_length_a   8.18309000
_cell_length_b   9.48182700
_cell_length_c   11.93245100
_cell_angle_alpha   90.00000000
_cell_angle_beta   90.00000000
_cell_angle_gamma   90.00000000
_symmetry_Int_Tables_number   1
_chemical_formula_structural   TbEr4Bi2Te
_chemical_formula_sum   'Tb4 Er16 Bi8 Te4'
_cell_volume   925.84655407
_cell_formula_units_Z   4
loop_
 _symmetry_equiv_pos_site_id
 _symmetry_equiv_pos_as_xyz
  1  'x, y, z'
loop_
 _atom_site_type_symbol
 _atom_site_label
 _atom_site_symmetry_multiplicity
 _atom_site_fract_x
 _atom_site_fract_y
 _atom_site_fract_z
 _atom_site_occupancy
  Tb  Tb0  1  0.319588  0.250000  0.217269  1
  Tb  Tb1  1  0.819588  0.250000  0.282731  1
  Tb  Tb2  1  0.680412  0.750000  0.782731  1
  Tb  Tb3  1  0.180412  0.750000  0.717269  1
  Er  Er4  1  0.354421  0.750000  0.215103  1
  Er  Er5  1  0.854421  0.750000  0.284897  1
  Er  Er6  1  0.645579  0.250000  0.784897  1
  Er  Er7  1  0.145579  0.250000  0.715103  1
  Er  Er8  1  0.689144  0.563810  0.057943  1
  Er  Er9  1  0.189144  0.936190  0.442057  1
  Er  Er10  1  0.310856  0.063810  0.942057  1
  Er  Er11  1  0.810856  0.436190  0.557943  1
  Er  Er12  1  0.310856  0.436190  0.942057  1
  Er  Er13  1  0.810856  0.063810  0.557943  1
  Er  Er14  1  0.689144  0.936190  0.057943  1
  Er  Er15  1  0.189144  0.563810  0.442057  1
  Er  Er16  1  0.477561  0.250000  0.489125  1
  Er  Er17  1  0.977561  0.250000  0.010875  1
  Er  Er18  1  0.522439  0.750000  0.510875  1
  Er  Er19  1  0.022439  0.750000  0.989125  1
  Bi  Bi20  1  0.569167  0.994614  0.326385  1
  Bi  Bi21  1  0.069167  0.505386  0.173615  1
  Bi  Bi22  1  0.430833  0.494614  0.673615  1
  Bi  Bi23  1  0.930833  0.005386  0.826385  1
  Bi  Bi24  1  0.430833  0.005386  0.673615  1
  Bi  Bi25  1  0.930833  0.494614  0.826385  1
  Bi  Bi26  1  0.569167  0.505386  0.326385  1
  Bi  Bi27  1  0.069167  0.994614  0.173615  1
  Te  Te28  1  0.404040  0.750000  0.959068  1
  Te  Te29  1  0.904040  0.750000  0.540932  1
  Te  Te30  1  0.595960  0.250000  0.040932  1
  Te  Te31  1  0.095960  0.250000  0.459068  1
