# generated using pymatgen
data_Dy6Co2P12Rh15W
_symmetry_space_group_name_H-M   'P 1'
_cell_length_a   3.88000200
_cell_length_b   11.12060100
_cell_length_c   12.81918600
_cell_angle_alpha   90.00000000
_cell_angle_beta   90.00000000
_cell_angle_gamma   90.00000000
_symmetry_Int_Tables_number   1
_chemical_formula_structural   Dy6Co2P12Rh15W
_chemical_formula_sum   'Dy6 Co2 P12 Rh15 W1'
_cell_volume   553.12164940
_cell_formula_units_Z   1
loop_
 _symmetry_equiv_pos_site_id
 _symmetry_equiv_pos_as_xyz
  1  'x, y, z'
loop_
 _atom_site_type_symbol
 _atom_site_label
 _atom_site_symmetry_multiplicity
 _atom_site_fract_x
 _atom_site_fract_y
 _atom_site_fract_z
 _atom_site_occupancy
  Dy  Dy0  1  0.000000  0.500000  0.520366  1
  Dy  Dy1  1  0.500000  0.000000  0.477377  1
  Dy  Dy2  1  0.500000  0.815364  0.203208  1
  Dy  Dy3  1  0.500000  0.184636  0.203208  1
  Dy  Dy4  1  0.000000  0.682871  0.800112  1
  Dy  Dy5  1  0.000000  0.317129  0.800112  1
  Co  Co6  1  0.000000  0.500000  0.990863  1
  Co  Co7  1  0.500000  0.000000  0.020400  1
  P  P8  1  0.500000  0.500000  0.880127  1
  P  P9  1  0.000000  0.000000  0.119209  1
  P  P10  1  0.500000  0.500000  0.346153  1
  P  P11  1  0.000000  0.000000  0.649926  1
  P  P12  1  0.500000  0.315829  0.619572  1
  P  P13  1  0.500000  0.684171  0.619572  1
  P  P14  1  0.000000  0.185336  0.381102  1
  P  P15  1  0.000000  0.814664  0.381102  1
  P  P16  1  0.500000  0.854979  0.893815  1
  P  P17  1  0.500000  0.145021  0.893815  1
  P  P18  1  0.000000  0.649657  0.106206  1
  P  P19  1  0.000000  0.350343  0.106206  1
  Rh  Rh20  1  0.000000  0.000000  0.833913  1
  Rh  Rh21  1  0.500000  0.500000  0.701863  1
  Rh  Rh22  1  0.000000  0.000000  0.296821  1
  Rh  Rh23  1  0.500000  0.334764  0.989210  1
  Rh  Rh24  1  0.500000  0.665236  0.989210  1
  Rh  Rh25  1  0.000000  0.163607  0.009383  1
  Rh  Rh26  1  0.000000  0.836393  0.009383  1
  Rh  Rh27  1  0.500000  0.293516  0.431812  1
  Rh  Rh28  1  0.500000  0.706484  0.431812  1
  Rh  Rh29  1  0.000000  0.204052  0.569784  1
  Rh  Rh30  1  0.000000  0.795948  0.569784  1
  Rh  Rh31  1  0.500000  0.873788  0.711518  1
  Rh  Rh32  1  0.500000  0.126212  0.711518  1
  Rh  Rh33  1  0.000000  0.625334  0.287859  1
  Rh  Rh34  1  0.000000  0.374666  0.287859  1
  W  W35  1  0.500000  0.500000  0.155820  1
