# generated using pymatgen
data_Dy4Sn10(PdRh)3
_symmetry_space_group_name_H-M   'P 1'
_cell_length_a   13.54414621
_cell_length_b   13.54414645
_cell_length_c   7.42538336
_cell_angle_alpha   90.06863858
_cell_angle_beta   89.93136102
_cell_angle_gamma   161.22711459
_symmetry_Int_Tables_number   1
_chemical_formula_structural   Dy4Sn10(PdRh)3
_chemical_formula_sum   'Dy4 Sn10 Pd3 Rh3'
_cell_volume   438.36080739
_cell_formula_units_Z   1
loop_
 _symmetry_equiv_pos_site_id
 _symmetry_equiv_pos_as_xyz
  1  'x, y, z'
loop_
 _atom_site_type_symbol
 _atom_site_label
 _atom_site_symmetry_multiplicity
 _atom_site_fract_x
 _atom_site_fract_y
 _atom_site_fract_z
 _atom_site_occupancy
  Dy  Dy0  1  0.174157  0.825843  0.754422  1
  Dy  Dy1  1  0.826761  0.173239  0.254959  1
  Dy  Dy2  1  0.475457  0.524543  0.736280  1
  Dy  Dy3  1  0.524574  0.475426  0.236096  1
  Sn  Sn4  1  0.880580  0.119420  0.725089  1
  Sn  Sn5  1  0.120841  0.879159  0.227075  1
  Sn  Sn6  1  0.702533  0.297467  0.052406  1
  Sn  Sn7  1  0.296072  0.703928  0.543866  1
  Sn  Sn8  1  0.597449  0.402551  0.618084  1
  Sn  Sn9  1  0.402127  0.597873  0.118187  1
  Sn  Sn10  1  0.951677  0.048323  0.398864  1
  Sn  Sn11  1  0.048511  0.951489  0.898688  1
  Sn  Sn12  1  0.290533  0.709467  0.982646  1
  Sn  Sn13  1  0.708800  0.291200  0.473852  1
  Pd  Pd14  1  0.049660  0.950340  0.514904  1
  Pd  Pd15  1  0.950413  0.049587  0.015518  1
  Pd  Pd16  1  0.776439  0.223561  0.770248  1
  Rh  Rh17  1  0.223920  0.776080  0.267864  1
  Rh  Rh18  1  0.395284  0.604716  0.484498  1
  Rh  Rh19  1  0.604211  0.395789  0.982452  1
