# generated using pymatgen
data_ErTmFe4(PIr)6
_symmetry_space_group_name_H-M   'P 1'
_cell_length_a   3.84689200
_cell_length_b   10.48560900
_cell_length_c   12.28947300
_cell_angle_alpha   90.00000000
_cell_angle_beta   90.00000000
_cell_angle_gamma   90.00000000
_symmetry_Int_Tables_number   1
_chemical_formula_structural   ErTmFe4(PIr)6
_chemical_formula_sum   'Er2 Tm2 Fe8 P12 Ir12'
_cell_volume   495.72053848
_cell_formula_units_Z   2
loop_
 _symmetry_equiv_pos_site_id
 _symmetry_equiv_pos_as_xyz
  1  'x, y, z'
loop_
 _atom_site_type_symbol
 _atom_site_label
 _atom_site_symmetry_multiplicity
 _atom_site_fract_x
 _atom_site_fract_y
 _atom_site_fract_z
 _atom_site_occupancy
  Er  Er0  1  0.250000  0.578943  0.712870  1
  Er  Er1  1  0.250000  0.921057  0.212870  1
  Tm  Tm2  1  0.750000  0.421067  0.287108  1
  Tm  Tm3  1  0.750000  0.078933  0.787108  1
  Fe  Fe4  1  0.250000  0.875101  0.697637  1
  Fe  Fe5  1  0.250000  0.624899  0.197637  1
  Fe  Fe6  1  0.750000  0.125293  0.302502  1
  Fe  Fe7  1  0.750000  0.374707  0.802502  1
  Fe  Fe8  1  0.250000  0.457322  0.936083  1
  Fe  Fe9  1  0.250000  0.042678  0.436083  1
  Fe  Fe10  1  0.750000  0.542517  0.064151  1
  Fe  Fe11  1  0.750000  0.957483  0.564151  1
  P  P12  1  0.250000  0.441718  0.112372  1
  P  P13  1  0.250000  0.058282  0.612372  1
  P  P14  1  0.750000  0.558247  0.887913  1
  P  P15  1  0.750000  0.941753  0.387913  1
  P  P16  1  0.250000  0.271024  0.862856  1
  P  P17  1  0.250000  0.228976  0.362856  1
  P  P18  1  0.750000  0.728810  0.137049  1
  P  P19  1  0.750000  0.771190  0.637049  1
  P  P20  1  0.250000  0.599839  0.376595  1
  P  P21  1  0.250000  0.900161  0.876595  1
  P  P22  1  0.750000  0.399946  0.623253  1
  P  P23  1  0.750000  0.100054  0.123253  1
  Ir  Ir24  1  0.250000  0.718754  0.990534  1
  Ir  Ir25  1  0.250000  0.781246  0.490534  1
  Ir  Ir26  1  0.750000  0.281214  0.009423  1
  Ir  Ir27  1  0.750000  0.218786  0.509423  1
  Ir  Ir28  1  0.250000  0.409351  0.473690  1
  Ir  Ir29  1  0.250000  0.090649  0.973690  1
  Ir  Ir30  1  0.750000  0.590612  0.525812  1
  Ir  Ir31  1  0.750000  0.909388  0.025812  1
  Ir  Ir32  1  0.250000  0.232766  0.173640  1
  Ir  Ir33  1  0.250000  0.267234  0.673640  1
  Ir  Ir34  1  0.750000  0.767628  0.826513  1
  Ir  Ir35  1  0.750000  0.732372  0.326513  1
