# generated using pymatgen
data_Nd17Er3Sn11Sb5
_symmetry_space_group_name_H-M   'P 1'
_cell_length_a   8.31963290
_cell_length_b   8.34720541
_cell_length_c   15.89879143
_cell_angle_alpha   89.88683402
_cell_angle_beta   90.17083434
_cell_angle_gamma   90.06185607
_symmetry_Int_Tables_number   1
_chemical_formula_structural   Nd17Er3Sn11Sb5
_chemical_formula_sum   'Nd17 Er3 Sn11 Sb5'
_cell_volume   1104.09476081
_cell_formula_units_Z   1
loop_
 _symmetry_equiv_pos_site_id
 _symmetry_equiv_pos_as_xyz
  1  'x, y, z'
loop_
 _atom_site_type_symbol
 _atom_site_label
 _atom_site_symmetry_multiplicity
 _atom_site_fract_x
 _atom_site_fract_y
 _atom_site_fract_z
 _atom_site_occupancy
  Nd  Nd0  1  0.035759  0.174720  0.396691  1
  Nd  Nd1  1  0.374019  0.839676  0.120299  1
  Nd  Nd2  1  0.125241  0.338265  0.619166  1
  Nd  Nd3  1  0.469623  0.678047  0.899161  1
  Nd  Nd4  1  0.873783  0.661228  0.121663  1
  Nd  Nd5  1  0.126526  0.338380  0.880488  1
  Nd  Nd6  1  0.466022  0.677654  0.603184  1
  Nd  Nd7  1  0.622968  0.159480  0.619607  1
  Nd  Nd8  1  0.796612  0.501570  0.749703  1
  Nd  Nd9  1  0.876391  0.661311  0.379893  1
  Nd  Nd10  1  0.029694  0.177703  0.102716  1
  Nd  Nd11  1  0.968936  0.821903  0.898543  1
  Nd  Nd12  1  0.625065  0.161015  0.880725  1
  Nd  Nd13  1  0.530894  0.325216  0.103694  1
  Nd  Nd14  1  0.375779  0.839869  0.380302  1
  Nd  Nd15  1  0.968435  0.824821  0.603559  1
  Nd  Nd16  1  0.531801  0.321478  0.397289  1
  Er  Er17  1  0.204624  0.499913  0.247971  1
  Er  Er18  1  0.705007  0.999994  0.247507  1
  Er  Er19  1  0.294853  0.000115  0.748818  1
  Sn  Sn20  1  0.662977  0.859031  0.750587  1
  Sn  Sn21  1  0.835575  0.353559  0.251330  1
  Sn  Sn22  1  0.569185  0.620900  0.251736  1
  Sn  Sn23  1  0.217798  0.529700  0.046167  1
  Sn  Sn24  1  0.426932  0.378053  0.749996  1
  Sn  Sn25  1  0.168741  0.646079  0.750531  1
  Sn  Sn26  1  0.930673  0.118846  0.750360  1
  Sn  Sn27  1  0.280463  0.028186  0.546333  1
  Sn  Sn28  1  0.717930  0.970213  0.046275  1
  Sn  Sn29  1  0.335509  0.145687  0.250369  1
  Sn  Sn30  1  0.070205  0.879354  0.250900  1
  Sb  Sb31  1  0.777668  0.471783  0.544441  1
  Sb  Sb32  1  0.719654  0.973443  0.451809  1
  Sb  Sb33  1  0.219547  0.526014  0.451152  1
  Sb  Sb34  1  0.282086  0.026584  0.951607  1
  Sb  Sb35  1  0.783027  0.470212  0.955428  1
