# generated using pymatgen
data_Sc4MnB12Rh
_symmetry_space_group_name_H-M   'P 1'
_cell_length_a   8.85133800
_cell_length_b   11.16624400
_cell_length_c   3.42310000
_cell_angle_alpha   90.00000000
_cell_angle_beta   90.00000000
_cell_angle_gamma   90.00000000
_symmetry_Int_Tables_number   1
_chemical_formula_structural   Sc4MnB12Rh
_chemical_formula_sum   'Sc8 Mn2 B24 Rh2'
_cell_volume   338.32619565
_cell_formula_units_Z   2
loop_
 _symmetry_equiv_pos_site_id
 _symmetry_equiv_pos_as_xyz
  1  'x, y, z'
loop_
 _atom_site_type_symbol
 _atom_site_label
 _atom_site_symmetry_multiplicity
 _atom_site_fract_x
 _atom_site_fract_y
 _atom_site_fract_z
 _atom_site_occupancy
  Sc  Sc0  1  0.318892  0.077052  0.000000  1
  Sc  Sc1  1  0.944006  0.125468  0.000000  1
  Sc  Sc2  1  0.444005  0.374532  0.000000  1
  Sc  Sc3  1  0.818892  0.422947  0.000000  1
  Sc  Sc4  1  0.180296  0.593553  0.000000  1
  Sc  Sc5  1  0.556381  0.630474  0.000000  1
  Sc  Sc6  1  0.056381  0.869525  0.000000  1
  Sc  Sc7  1  0.680296  0.906447  0.000000  1
  Mn  Mn8  1  0.861126  0.680000  0.000000  1
  Mn  Mn9  1  0.361127  0.819999  0.000000  1
  B  B10  1  0.102493  0.027007  0.499999  1
  B  B11  1  0.552663  0.062937  0.499999  1
  B  B12  1  0.752325  0.076124  0.499999  1
  B  B13  1  0.130572  0.179753  0.499999  1
  B  B14  1  0.479102  0.212812  0.499999  1
  B  B15  1  0.794184  0.237021  0.499999  1
  B  B16  1  0.294184  0.262979  0.499999  1
  B  B17  1  0.979101  0.287188  0.499999  1
  B  B18  1  0.630572  0.320246  0.499999  1
  B  B19  1  0.252324  0.423877  0.499999  1
  B  B20  1  0.052663  0.437063  0.499999  1
  B  B21  1  0.602492  0.472994  0.499999  1
  B  B22  1  0.397670  0.528779  0.499999  1
  B  B23  1  0.945602  0.567308  0.499999  1
  B  B24  1  0.749877  0.581646  0.499999  1
  B  B25  1  0.370011  0.685032  0.499999  1
  B  B26  1  0.018562  0.712082  0.499999  1
  B  B27  1  0.707360  0.735384  0.499999  1
  B  B28  1  0.207361  0.764616  0.499999  1
  B  B29  1  0.518562  0.787917  0.499999  1
  B  B30  1  0.870011  0.814968  0.499999  1
  B  B31  1  0.249878  0.918353  0.499999  1
  B  B32  1  0.445601  0.932691  0.499999  1
  B  B33  1  0.897670  0.971220  0.499999  1
  Rh  Rh34  1  0.638878  0.179772  0.000000  1
  Rh  Rh35  1  0.138878  0.320228  0.000000  1
