# generated using pymatgen
data_Tb2GaNi8Ge
_symmetry_space_group_name_H-M   'P 1'
_cell_length_a   4.89417500
_cell_length_b   4.89417444
_cell_length_c   7.98717300
_cell_angle_alpha   90.00000000
_cell_angle_beta   90.00000000
_cell_angle_gamma   118.01389992
_symmetry_Int_Tables_number   1
_chemical_formula_structural   Tb2GaNi8Ge
_chemical_formula_sum   'Tb2 Ga1 Ni8 Ge1'
_cell_volume   168.90049408
_cell_formula_units_Z   1
loop_
 _symmetry_equiv_pos_site_id
 _symmetry_equiv_pos_as_xyz
  1  'x, y, z'
loop_
 _atom_site_type_symbol
 _atom_site_label
 _atom_site_symmetry_multiplicity
 _atom_site_fract_x
 _atom_site_fract_y
 _atom_site_fract_z
 _atom_site_occupancy
  Tb  Tb0  1  0.000000  0.000000  0.753741  1
  Tb  Tb1  1  0.000000  0.000000  0.246259  1
  Ga  Ga2  1  0.500000  0.500000  0.500000  1
  Ni  Ni3  1  0.666373  0.333627  0.749119  1
  Ni  Ni4  1  0.666373  0.333627  0.250881  1
  Ni  Ni5  1  0.333627  0.666373  0.749119  1
  Ni  Ni6  1  0.500000  0.000000  0.500000  1
  Ni  Ni7  1  0.000000  0.500000  0.000000  1
  Ni  Ni8  1  0.500000  0.000000  0.000000  1
  Ni  Ni9  1  0.333627  0.666373  0.250881  1
  Ni  Ni10  1  0.000000  0.500000  0.500000  1
  Ge  Ge11  1  0.500000  0.500000  0.000000  1
