# generated using pymatgen
data_Tb2Dy(GaCo2)4
_symmetry_space_group_name_H-M   'P 1'
_cell_length_a   7.25083500
_cell_length_b   8.50354749
_cell_length_c   8.50271402
_cell_angle_alpha   120.00324321
_cell_angle_beta   89.99668621
_cell_angle_gamma   89.99999983
_symmetry_Int_Tables_number   1
_chemical_formula_structural   Tb2Dy(GaCo2)4
_chemical_formula_sum   'Tb4 Dy2 Ga8 Co16'
_cell_volume   454.00660692
_cell_formula_units_Z   2
loop_
 _symmetry_equiv_pos_site_id
 _symmetry_equiv_pos_as_xyz
  1  'x, y, z'
loop_
 _atom_site_type_symbol
 _atom_site_label
 _atom_site_symmetry_multiplicity
 _atom_site_fract_x
 _atom_site_fract_y
 _atom_site_fract_z
 _atom_site_occupancy
  Tb  Tb0  1  0.784755  0.475017  0.950034  1
  Tb  Tb1  1  0.784734  0.475029  0.525028  1
  Tb  Tb2  1  0.284671  0.525291  0.050582  1
  Tb  Tb3  1  0.784734  0.049998  0.525028  1
  Dy  Dy4  1  0.284888  0.524985  0.475162  1
  Dy  Dy5  1  0.284888  0.950178  0.475162  1
  Ga  Ga6  1  0.963660  0.666775  0.333548  1
  Ga  Ga7  1  0.463179  0.333215  0.666431  1
  Ga  Ga8  1  0.574002  0.830179  0.660360  1
  Ga  Ga9  1  0.574121  0.830525  0.169957  1
  Ga  Ga10  1  0.074750  0.169777  0.339553  1
  Ga  Ga11  1  0.574121  0.339430  0.169957  1
  Ga  Ga12  1  0.074634  0.169465  0.830034  1
  Ga  Ga13  1  0.074634  0.660570  0.830034  1
  Co  Co14  1  0.621892  0.666685  0.333369  1
  Co  Co15  1  0.122762  0.333235  0.666471  1
  Co  Co16  1  0.754434  0.101608  0.203216  1
  Co  Co17  1  0.754482  0.101625  0.898424  1
  Co  Co18  1  0.254409  0.898153  0.796306  1
  Co  Co19  1  0.754482  0.796797  0.898424  1
  Co  Co20  1  0.254414  0.898377  0.101785  1
  Co  Co21  1  0.254414  0.203409  0.101785  1
  Co  Co22  1  0.945878  0.836720  0.673439  1
  Co  Co23  1  0.945876  0.836807  0.163269  1
  Co  Co24  1  0.445254  0.163374  0.326748  1
  Co  Co25  1  0.945876  0.326462  0.163269  1
  Co  Co26  1  0.445481  0.162973  0.836318  1
  Co  Co27  1  0.445481  0.673345  0.836318  1
  Co  Co28  1  0.001781  0.000035  0.000071  1
  Co  Co29  1  0.501504  0.999959  0.999919  1
