# generated using pymatgen
data_Mn5CoSi2
_symmetry_space_group_name_H-M   'P 1'
_cell_length_a   3.98315200
_cell_length_b   3.98315108
_cell_length_c   6.89432235
_cell_angle_alpha   73.20956813
_cell_angle_beta   90.00000000
_cell_angle_gamma   119.99999101
_symmetry_Int_Tables_number   1
_chemical_formula_structural   Mn5CoSi2
_chemical_formula_sum   'Mn5 Co1 Si2'
_cell_volume   89.30229839
_cell_formula_units_Z   1
loop_
 _symmetry_equiv_pos_site_id
 _symmetry_equiv_pos_as_xyz
  1  'x, y, z'
loop_
 _atom_site_type_symbol
 _atom_site_label
 _atom_site_symmetry_multiplicity
 _atom_site_fract_x
 _atom_site_fract_y
 _atom_site_fract_z
 _atom_site_occupancy
  Mn  Mn0  1  0.500406  0.000812  0.498782  1
  Mn  Mn1  1  0.251335  0.502669  0.245996  1
  Mn  Mn2  1  0.748524  0.497049  0.754427  1
  Mn  Mn3  1  0.874747  0.749494  0.375758  1
  Mn  Mn4  1  0.375114  0.750226  0.874660  1
  Co  Co5  1  0.999667  0.999335  0.000998  1
  Si  Si6  1  0.624434  0.248868  0.126698  1
  Si  Si7  1  0.125774  0.251547  0.622679  1
