# generated using pymatgen
data_NaSc2S3
_symmetry_space_group_name_H-M   'P 1'
_cell_length_a   3.72930218
_cell_length_b   3.72364797
_cell_length_c   9.66889650
_cell_angle_alpha   90.00000028
_cell_angle_beta   90.13179578
_cell_angle_gamma   119.94986003
_symmetry_Int_Tables_number   1
_chemical_formula_structural   NaSc2S3
_chemical_formula_sum   'Na1 Sc2 S3'
_cell_volume   116.33795012
_cell_formula_units_Z   1
loop_
 _symmetry_equiv_pos_site_id
 _symmetry_equiv_pos_as_xyz
  1  'x, y, z'
loop_
 _atom_site_type_symbol
 _atom_site_label
 _atom_site_symmetry_multiplicity
 _atom_site_fract_x
 _atom_site_fract_y
 _atom_site_fract_z
 _atom_site_occupancy
  Na  Na0  1  0.999999  0.000000  0.500000  1
  Sc  Sc1  1  0.334495  0.667247  0.159044  1
  Sc  Sc2  1  0.665505  0.332752  0.840956  1
  S  S3  1  0.000000  0.000000  0.000000  1
  S  S4  1  0.670807  0.335405  0.306194  1
  S  S5  1  0.329192  0.664597  0.693806  1
