# generated using pymatgen
data_Tb2SmGa8Ag3
_symmetry_space_group_name_H-M   'P 1'
_cell_length_a   4.36951493
_cell_length_b   8.40602045
_cell_length_c   8.40602137
_cell_angle_alpha   69.34075238
_cell_angle_beta   74.93563620
_cell_angle_gamma   74.93562865
_symmetry_Int_Tables_number   1
_chemical_formula_structural   Tb2SmGa8Ag3
_chemical_formula_sum   'Tb2 Sm1 Ga8 Ag3'
_cell_volume   274.09559176
_cell_formula_units_Z   1
loop_
 _symmetry_equiv_pos_site_id
 _symmetry_equiv_pos_as_xyz
  1  'x, y, z'
loop_
 _atom_site_type_symbol
 _atom_site_label
 _atom_site_symmetry_multiplicity
 _atom_site_fract_x
 _atom_site_fract_y
 _atom_site_fract_z
 _atom_site_occupancy
  Tb  Tb0  1  0.200223  0.799777  0.799777  1
  Tb  Tb1  1  0.799777  0.200223  0.200223  1
  Sm  Sm2  1  0.500000  0.500000  0.500000  1
  Ga  Ga3  1  0.355821  0.361451  0.926906  1
  Ga  Ga4  1  0.644179  0.638549  0.073094  1
  Ga  Ga5  1  0.355821  0.926906  0.361451  1
  Ga  Ga6  1  0.644179  0.073094  0.638549  1
  Ga  Ga7  1  0.159193  0.472708  0.208906  1
  Ga  Ga8  1  0.840807  0.527292  0.791094  1
  Ga  Ga9  1  0.159193  0.208906  0.472708  1
  Ga  Ga10  1  0.840807  0.791094  0.527292  1
  Ag  Ag11  1  0.500000  0.000000  0.000000  1
  Ag  Ag12  1  0.000000  0.805681  0.194319  1
  Ag  Ag13  1  0.000000  0.194319  0.805681  1
