# generated using pymatgen
data_Nb12Ni8W4C3N
_symmetry_space_group_name_H-M   'P 1'
_cell_length_a   8.20640731
_cell_length_b   8.19554644
_cell_length_c   8.20640700
_cell_angle_alpha   59.95614973
_cell_angle_beta   59.99999720
_cell_angle_gamma   59.95614833
_symmetry_Int_Tables_number   1
_chemical_formula_structural   Nb12Ni8W4C3N
_chemical_formula_sum   'Nb12 Ni8 W4 C3 N1'
_cell_volume   390.01459320
_cell_formula_units_Z   1
loop_
 _symmetry_equiv_pos_site_id
 _symmetry_equiv_pos_as_xyz
  1  'x, y, z'
loop_
 _atom_site_type_symbol
 _atom_site_label
 _atom_site_symmetry_multiplicity
 _atom_site_fract_x
 _atom_site_fract_y
 _atom_site_fract_z
 _atom_site_occupancy
  Nb  Nb0  1  0.437198  0.062571  0.063033  1
  Nb  Nb1  1  0.063285  0.436930  0.436499  1
  Nb  Nb2  1  0.063285  0.436930  0.063285  1
  Nb  Nb3  1  0.063033  0.062571  0.437198  1
  Nb  Nb4  1  0.437198  0.062571  0.437198  1
  Nb  Nb5  1  0.436499  0.436930  0.063285  1
  Nb  Nb6  1  0.186715  0.813070  0.186715  1
  Nb  Nb7  1  0.812802  0.187429  0.812802  1
  Nb  Nb8  1  0.812802  0.187429  0.186967  1
  Nb  Nb9  1  0.186967  0.187429  0.812802  1
  Nb  Nb10  1  0.186715  0.813070  0.813501  1
  Nb  Nb11  1  0.813501  0.813070  0.186715  1
  Ni  Ni12  1  0.828640  0.828264  0.828640  1
  Ni  Ni13  1  0.828640  0.828264  0.514453  1
  Ni  Ni14  1  0.514453  0.828264  0.828640  1
  Ni  Ni15  1  0.828497  0.514507  0.828497  1
  Ni  Ni16  1  0.421360  0.421736  0.421360  1
  Ni  Ni17  1  0.421360  0.421736  0.735547  1
  Ni  Ni18  1  0.421503  0.735493  0.421503  1
  Ni  Ni19  1  0.735547  0.421736  0.421360  1
  W  W20  1  0.625000  0.625000  0.625000  1
  W  W21  1  0.625000  0.625000  0.125000  1
  W  W22  1  0.125000  0.625000  0.625000  1
  W  W23  1  0.625000  0.125000  0.625000  1
  C  C24  1  0.125000  0.125000  0.125000  1
  C  C25  1  0.125000  0.125000  0.625000  1
  C  C26  1  0.625000  0.125000  0.125000  1
  N  N27  1  0.125000  0.625000  0.125000  1
