# generated using pymatgen
data_Ba3Tb2ReO9
_symmetry_space_group_name_H-M   'P 1'
_cell_length_a   6.11240100
_cell_length_b   6.11239991
_cell_length_c   14.84587200
_cell_angle_alpha   90.00000000
_cell_angle_beta   90.00000000
_cell_angle_gamma   120.00001130
_symmetry_Int_Tables_number   1
_chemical_formula_structural   Ba3Tb2ReO9
_chemical_formula_sum   'Ba6 Tb4 Re2 O18'
_cell_volume   480.35232044
_cell_formula_units_Z   2
loop_
 _symmetry_equiv_pos_site_id
 _symmetry_equiv_pos_as_xyz
  1  'x, y, z'
loop_
 _atom_site_type_symbol
 _atom_site_label
 _atom_site_symmetry_multiplicity
 _atom_site_fract_x
 _atom_site_fract_y
 _atom_site_fract_z
 _atom_site_occupancy
  Ba  Ba0  1  0.333333  0.666667  0.090291  1
  Ba  Ba1  1  0.666667  0.333333  0.909709  1
  Ba  Ba2  1  0.333333  0.666667  0.590291  1
  Ba  Ba3  1  0.666667  0.333333  0.409709  1
  Ba  Ba4  1  0.000000  0.000000  0.250000  1
  Ba  Ba5  1  0.000000  0.000000  0.750000  1
  Tb  Tb6  1  0.333333  0.666667  0.834662  1
  Tb  Tb7  1  0.666667  0.333333  0.165338  1
  Tb  Tb8  1  0.333333  0.666667  0.334662  1
  Tb  Tb9  1  0.666667  0.333333  0.665338  1
  Re  Re10  1  0.000000  0.000000  0.000000  1
  Re  Re11  1  0.000000  0.000000  0.500000  1
  O  O12  1  0.888463  0.699103  0.574452  1
  O  O13  1  0.000000  0.552104  0.250000  1
  O  O14  1  0.189360  0.300897  0.925548  1
  O  O15  1  0.888463  0.189360  0.074452  1
  O  O16  1  0.810640  0.111537  0.574452  1
  O  O17  1  0.810640  0.699103  0.074452  1
  O  O18  1  0.699103  0.810640  0.425548  1
  O  O19  1  0.447896  0.000000  0.750000  1
  O  O20  1  0.552104  0.552104  0.750000  1
  O  O21  1  0.300897  0.189360  0.574452  1
  O  O22  1  0.111537  0.300897  0.425548  1
  O  O23  1  0.189360  0.888463  0.425548  1
  O  O24  1  0.300897  0.111537  0.074452  1
  O  O25  1  0.552104  0.000000  0.250000  1
  O  O26  1  0.447896  0.447896  0.250000  1
  O  O27  1  0.000000  0.447896  0.750000  1
  O  O28  1  0.111537  0.810640  0.925548  1
  O  O29  1  0.699103  0.888463  0.925548  1
