# generated using pymatgen
data_Li2Sn2Ir3Pd
_symmetry_space_group_name_H-M   'P 1'
_cell_length_a   4.41018115
_cell_length_b   6.27471000
_cell_length_c   8.80131929
_cell_angle_alpha   90.00000000
_cell_angle_beta   90.02947754
_cell_angle_gamma   90.00000000
_symmetry_Int_Tables_number   1
_chemical_formula_structural   Li2Sn2Ir3Pd
_chemical_formula_sum   'Li4 Sn4 Ir6 Pd2'
_cell_volume   243.55542409
_cell_formula_units_Z   2
loop_
 _symmetry_equiv_pos_site_id
 _symmetry_equiv_pos_as_xyz
  1  'x, y, z'
loop_
 _atom_site_type_symbol
 _atom_site_label
 _atom_site_symmetry_multiplicity
 _atom_site_fract_x
 _atom_site_fract_y
 _atom_site_fract_z
 _atom_site_occupancy
  Li  Li0  1  0.240349  0.749999  0.126123  1
  Li  Li1  1  0.740487  0.249999  0.375566  1
  Li  Li2  1  0.259767  0.749999  0.622751  1
  Li  Li3  1  0.759493  0.249999  0.875723  1
  Sn  Sn4  1  0.240937  0.249999  0.129845  1
  Sn  Sn5  1  0.740981  0.749999  0.375787  1
  Sn  Sn6  1  0.259200  0.249999  0.618593  1
  Sn  Sn7  1  0.758523  0.749999  0.875685  1
  Ir  Ir8  1  0.741554  0.499626  0.123793  1
  Ir  Ir9  1  0.741554  0.000374  0.123793  1
  Ir  Ir10  1  0.241463  0.996461  0.374366  1
  Ir  Ir11  1  0.241463  0.503539  0.374366  1
  Ir  Ir12  1  0.758691  0.499525  0.627429  1
  Ir  Ir13  1  0.758691  0.000475  0.627429  1
  Pd  Pd14  1  0.258422  0.002771  0.874373  1
  Pd  Pd15  1  0.258422  0.497229  0.874373  1
