# generated using pymatgen
data_Hf4TiNb3Sb4
_symmetry_space_group_name_H-M   'P 1'
_cell_length_a   3.76346300
_cell_length_b   7.34962709
_cell_length_c   8.98617059
_cell_angle_alpha   90.48149132
_cell_angle_beta   90.00000000
_cell_angle_gamma   90.00000000
_symmetry_Int_Tables_number   1
_chemical_formula_structural   Hf4TiNb3Sb4
_chemical_formula_sum   'Hf4 Ti1 Nb3 Sb4'
_cell_volume   248.54914773
_cell_formula_units_Z   1
loop_
 _symmetry_equiv_pos_site_id
 _symmetry_equiv_pos_as_xyz
  1  'x, y, z'
loop_
 _atom_site_type_symbol
 _atom_site_label
 _atom_site_symmetry_multiplicity
 _atom_site_fract_x
 _atom_site_fract_y
 _atom_site_fract_z
 _atom_site_occupancy
  Hf  Hf0  1  0.250000  0.056335  0.658319  1
  Hf  Hf1  1  0.250000  0.549640  0.837791  1
  Hf  Hf2  1  0.750000  0.444355  0.161237  1
  Hf  Hf3  1  0.750000  0.942554  0.339987  1
  Ti  Ti4  1  0.750000  0.873394  0.940445  1
  Nb  Nb5  1  0.250000  0.633277  0.438881  1
  Nb  Nb6  1  0.750000  0.370620  0.561685  1
  Nb  Nb7  1  0.250000  0.130937  0.061058  1
  Sb  Sb8  1  0.250000  0.249008  0.357117  1
  Sb  Sb9  1  0.250000  0.749704  0.137497  1
  Sb  Sb10  1  0.750000  0.752567  0.648261  1
  Sb  Sb11  1  0.750000  0.247609  0.857722  1
