# generated using pymatgen
data_Pr3Nd2Y3(CdIr)2
_symmetry_space_group_name_H-M   'P 1'
_cell_length_a   9.86962204
_cell_length_b   9.86962115
_cell_length_c   9.86962200
_cell_angle_alpha   60.00000386
_cell_angle_beta   60.00000683
_cell_angle_gamma   59.99999965
_symmetry_Int_Tables_number   1
_chemical_formula_structural   Pr3Nd2Y3(CdIr)2
_chemical_formula_sum   'Pr6 Nd4 Y6 Cd4 Ir4'
_cell_volume   679.80845206
_cell_formula_units_Z   2
loop_
 _symmetry_equiv_pos_site_id
 _symmetry_equiv_pos_as_xyz
  1  'x, y, z'
loop_
 _atom_site_type_symbol
 _atom_site_label
 _atom_site_symmetry_multiplicity
 _atom_site_fract_x
 _atom_site_fract_y
 _atom_site_fract_z
 _atom_site_occupancy
  Pr  Pr0  1  0.940415  0.559585  0.559585  1
  Pr  Pr1  1  0.559585  0.940415  0.940415  1
  Pr  Pr2  1  0.559585  0.940415  0.559585  1
  Pr  Pr3  1  0.940415  0.559585  0.940415  1
  Pr  Pr4  1  0.559585  0.559585  0.940415  1
  Pr  Pr5  1  0.940415  0.940415  0.559585  1
  Nd  Nd6  1  0.349634  0.349634  0.349634  1
  Nd  Nd7  1  0.349634  0.349634  0.951097  1
  Nd  Nd8  1  0.349634  0.951097  0.349634  1
  Nd  Nd9  1  0.951097  0.349634  0.349634  1
  Y  Y10  1  0.813267  0.186733  0.186733  1
  Y  Y11  1  0.186733  0.813267  0.813267  1
  Y  Y12  1  0.186733  0.813267  0.186733  1
  Y  Y13  1  0.813267  0.186733  0.813267  1
  Y  Y14  1  0.186733  0.186733  0.813267  1
  Y  Y15  1  0.813267  0.813267  0.186733  1
  Cd  Cd16  1  0.579632  0.579632  0.579632  1
  Cd  Cd17  1  0.579632  0.579632  0.261103  1
  Cd  Cd18  1  0.579632  0.261103  0.579632  1
  Cd  Cd19  1  0.261103  0.579632  0.579632  1
  Ir  Ir20  1  0.140006  0.140006  0.140006  1
  Ir  Ir21  1  0.140006  0.140006  0.579982  1
  Ir  Ir22  1  0.140006  0.579982  0.140006  1
  Ir  Ir23  1  0.579982  0.140006  0.140006  1
