# generated using pymatgen
data_Dy2Th(Co3P2)3
_symmetry_space_group_name_H-M   'P 1'
_cell_length_a   3.73727400
_cell_length_b   10.56758800
_cell_length_c   12.24088900
_cell_angle_alpha   90.00000000
_cell_angle_beta   90.00000000
_cell_angle_gamma   90.00000000
_symmetry_Int_Tables_number   1
_chemical_formula_structural   Dy2Th(Co3P2)3
_chemical_formula_sum   'Dy4 Th2 Co18 P12'
_cell_volume   483.44132589
_cell_formula_units_Z   2
loop_
 _symmetry_equiv_pos_site_id
 _symmetry_equiv_pos_as_xyz
  1  'x, y, z'
loop_
 _atom_site_type_symbol
 _atom_site_label
 _atom_site_symmetry_multiplicity
 _atom_site_fract_x
 _atom_site_fract_y
 _atom_site_fract_z
 _atom_site_occupancy
  Dy  Dy0  1  0.500000  0.815917  0.204031  1
  Dy  Dy1  1  0.500000  0.184083  0.204031  1
  Dy  Dy2  1  0.000000  0.684083  0.795969  1
  Dy  Dy3  1  0.000000  0.315917  0.795969  1
  Th  Th4  1  0.000000  0.500000  0.525108  1
  Th  Th5  1  0.500000  0.000000  0.474892  1
  Co  Co6  1  0.500000  0.500000  0.156260  1
  Co  Co7  1  0.000000  0.000000  0.843740  1
  Co  Co8  1  0.500000  0.500000  0.703272  1
  Co  Co9  1  0.000000  0.000000  0.296728  1
  Co  Co10  1  0.000000  0.500000  0.985960  1
  Co  Co11  1  0.500000  0.000000  0.014040  1
  Co  Co12  1  0.500000  0.333566  0.994988  1
  Co  Co13  1  0.500000  0.666434  0.994988  1
  Co  Co14  1  0.000000  0.166434  0.005012  1
  Co  Co15  1  0.000000  0.833566  0.005012  1
  Co  Co16  1  0.500000  0.298935  0.429505  1
  Co  Co17  1  0.500000  0.701065  0.429505  1
  Co  Co18  1  0.000000  0.201065  0.570495  1
  Co  Co19  1  0.000000  0.798935  0.570495  1
  Co  Co20  1  0.500000  0.880270  0.712997  1
  Co  Co21  1  0.500000  0.119730  0.712997  1
  Co  Co22  1  0.000000  0.619730  0.287003  1
  Co  Co23  1  0.000000  0.380270  0.287003  1
  P  P24  1  0.500000  0.500000  0.882629  1
  P  P25  1  0.000000  0.000000  0.117371  1
  P  P26  1  0.500000  0.500000  0.338743  1
  P  P27  1  0.000000  0.000000  0.661257  1
  P  P28  1  0.500000  0.305697  0.618389  1
  P  P29  1  0.500000  0.694303  0.618389  1
  P  P30  1  0.000000  0.194303  0.381611  1
  P  P31  1  0.000000  0.805697  0.381611  1
  P  P32  1  0.500000  0.846796  0.895027  1
  P  P33  1  0.500000  0.153204  0.895027  1
  P  P34  1  0.000000  0.653204  0.104973  1
  P  P35  1  0.000000  0.346796  0.104973  1
