# generated using pymatgen
data_Er12InFe2Co2Ag
_symmetry_space_group_name_H-M   'P 1'
_cell_length_a   8.28215383
_cell_length_b   8.28215458
_cell_length_c   8.28215424
_cell_angle_alpha   110.78901116
_cell_angle_beta   110.35086287
_cell_angle_gamma   107.29576368
_symmetry_Int_Tables_number   1
_chemical_formula_structural   Er12InFe2Co2Ag
_chemical_formula_sum   'Er12 In1 Fe2 Co2 Ag1'
_cell_volume   436.85148572
_cell_formula_units_Z   1
loop_
 _symmetry_equiv_pos_site_id
 _symmetry_equiv_pos_as_xyz
  1  'x, y, z'
loop_
 _atom_site_type_symbol
 _atom_site_label
 _atom_site_symmetry_multiplicity
 _atom_site_fract_x
 _atom_site_fract_y
 _atom_site_fract_z
 _atom_site_occupancy
  Er  Er0  1  0.187439  0.291264  0.478703  1
  Er  Er1  1  0.812561  0.708736  0.521297  1
  Er  Er2  1  0.187439  0.708736  0.896175  1
  Er  Er3  1  0.812561  0.291264  0.103825  1
  Er  Er4  1  0.314711  0.617274  0.302562  1
  Er  Er5  1  0.685289  0.382726  0.697438  1
  Er  Er6  1  0.314711  0.012149  0.697438  1
  Er  Er7  1  0.685289  0.987851  0.302562  1
  Er  Er8  1  0.430256  0.223415  0.206841  1
  Er  Er9  1  0.569744  0.776585  0.793159  1
  Er  Er10  1  0.016573  0.223415  0.793159  1
  Er  Er11  1  0.983427  0.776585  0.206841  1
  In  In12  1  0.500000  0.500000  0.000000  1
  Fe  Fe13  1  0.108997  0.608997  0.500000  1
  Fe  Fe14  1  0.891003  0.391003  0.500000  1
  Co  Co15  1  0.380257  0.000000  0.380257  1
  Co  Co16  1  0.619743  0.000000  0.619743  1
  Ag  Ag17  1  0.000000  0.000000  0.000000  1
