# generated using pymatgen
data_Ti3V2Si2B4Mo5
_symmetry_space_group_name_H-M   'P 1'
_cell_length_a   7.01971850
_cell_length_b   6.98902903
_cell_length_c   6.99772223
_cell_angle_alpha   129.41064012
_cell_angle_beta   129.48666611
_cell_angle_gamma   74.23906357
_symmetry_Int_Tables_number   1
_chemical_formula_structural   Ti3V2Si2B4Mo5
_chemical_formula_sum   'Ti3 V2 Si2 B4 Mo5'
_cell_volume   199.62718913
_cell_formula_units_Z   1
loop_
 _symmetry_equiv_pos_site_id
 _symmetry_equiv_pos_as_xyz
  1  'x, y, z'
loop_
 _atom_site_type_symbol
 _atom_site_label
 _atom_site_symmetry_multiplicity
 _atom_site_fract_x
 _atom_site_fract_y
 _atom_site_fract_z
 _atom_site_occupancy
  Ti  Ti0  1  0.804441  0.972026  0.500164  1
  Ti  Ti1  1  0.305958  0.807352  0.834008  1
  Ti  Ti2  1  0.195609  0.028168  0.500983  1
  V  V3  1  0.998967  0.000218  0.000889  1
  V  V4  1  0.498881  0.500077  0.000381  1
  Si  Si5  1  0.749832  0.749353  0.999205  1
  Si  Si6  1  0.249723  0.249849  0.000201  1
  B  B7  1  0.382821  0.880819  0.262959  1
  B  B8  1  0.884418  0.619788  0.501573  1
  B  B9  1  0.617903  0.117388  0.737042  1
  B  B10  1  0.117062  0.381933  0.499591  1
  Mo  Mo11  1  0.535182  0.692228  0.499527  1
  Mo  Mo12  1  0.034864  0.533111  0.840279  1
  Mo  Mo13  1  0.695936  0.194240  0.163543  1
  Mo  Mo14  1  0.965488  0.467756  0.159965  1
  Mo  Mo15  1  0.462914  0.305695  0.499689  1
