# generated using pymatgen
data_Dy19LuSi15Rh
_symmetry_space_group_name_H-M   'P 1'
_cell_length_a   7.43683525
_cell_length_b   7.67115699
_cell_length_c   14.57414063
_cell_angle_alpha   89.69724315
_cell_angle_beta   89.63488989
_cell_angle_gamma   90.20272593
_symmetry_Int_Tables_number   1
_chemical_formula_structural   Dy19LuSi15Rh
_chemical_formula_sum   'Dy19 Lu1 Si15 Rh1'
_cell_volume   831.40826119
_cell_formula_units_Z   1
loop_
 _symmetry_equiv_pos_site_id
 _symmetry_equiv_pos_as_xyz
  1  'x, y, z'
loop_
 _atom_site_type_symbol
 _atom_site_label
 _atom_site_symmetry_multiplicity
 _atom_site_fract_x
 _atom_site_fract_y
 _atom_site_fract_z
 _atom_site_occupancy
  Dy  Dy0  1  0.147194  0.510253  0.247544  1
  Dy  Dy1  1  0.848018  0.488090  0.758064  1
  Dy  Dy2  1  0.352893  0.009935  0.752228  1
  Dy  Dy3  1  0.973549  0.817110  0.098135  1
  Dy  Dy4  1  0.471109  0.682748  0.400997  1
  Dy  Dy5  1  0.528539  0.321464  0.900797  1
  Dy  Dy6  1  0.030086  0.184475  0.599694  1
  Dy  Dy7  1  0.028903  0.184560  0.901791  1
  Dy  Dy8  1  0.530012  0.317669  0.598817  1
  Dy  Dy9  1  0.473818  0.682555  0.099886  1
  Dy  Dy10  1  0.968876  0.817331  0.400063  1
  Dy  Dy11  1  0.683633  0.812049  0.882646  1
  Dy  Dy12  1  0.179118  0.681668  0.621827  1
  Dy  Dy13  1  0.816901  0.333979  0.118064  1
  Dy  Dy14  1  0.315959  0.177674  0.375964  1
  Dy  Dy15  1  0.321536  0.179187  0.123729  1
  Dy  Dy16  1  0.818224  0.319341  0.377268  1
  Dy  Dy17  1  0.176642  0.675701  0.878388  1
  Dy  Dy18  1  0.683162  0.818934  0.622236  1
  Lu  Lu19  1  0.648878  0.992557  0.248932  1
  Si  Si20  1  0.763898  0.631452  0.251716  1
  Si  Si21  1  0.266950  0.872658  0.250750  1
  Si  Si22  1  0.733462  0.123380  0.748757  1
  Si  Si23  1  0.235629  0.372974  0.746637  1
  Si  Si24  1  0.017939  0.105776  0.248616  1
  Si  Si25  1  0.522776  0.396712  0.251508  1
  Si  Si26  1  0.472487  0.605714  0.746692  1
  Si  Si27  1  0.976942  0.897396  0.748399  1
  Si  Si28  1  0.354927  0.972064  0.539825  1
  Si  Si29  1  0.646924  0.027031  0.042829  1
  Si  Si30  1  0.146964  0.470546  0.459886  1
  Si  Si31  1  0.155505  0.472097  0.041227  1
  Si  Si32  1  0.643234  0.027640  0.458577  1
  Si  Si33  1  0.353489  0.969206  0.961537  1
  Si  Si34  1  0.855043  0.528533  0.538765  1
  Rh  Rh35  1  0.856782  0.519538  0.957214  1
