# generated using pymatgen
data_Dy3Er5Ti11Si16Mo
_symmetry_space_group_name_H-M   'P 1'
_cell_length_a   7.01682149
_cell_length_b   7.01787179
_cell_length_c   12.89717917
_cell_angle_alpha   90.02524797
_cell_angle_beta   89.95769602
_cell_angle_gamma   89.99441096
_symmetry_Int_Tables_number   1
_chemical_formula_structural   Dy3Er5Ti11Si16Mo
_chemical_formula_sum   'Dy3 Er5 Ti11 Si16 Mo1'
_cell_volume   635.09753752
_cell_formula_units_Z   1
loop_
 _symmetry_equiv_pos_site_id
 _symmetry_equiv_pos_as_xyz
  1  'x, y, z'
loop_
 _atom_site_type_symbol
 _atom_site_label
 _atom_site_symmetry_multiplicity
 _atom_site_fract_x
 _atom_site_fract_y
 _atom_site_fract_z
 _atom_site_occupancy
  Dy  Dy0  1  0.503104  0.160367  0.217356  1
  Dy  Dy1  1  0.498811  0.839924  0.715652  1
  Dy  Dy2  1  0.341421  0.001526  0.467208  1
  Er  Er3  1  0.997260  0.659555  0.032945  1
  Er  Er4  1  0.000858  0.342152  0.532860  1
  Er  Er5  1  0.659741  0.997159  0.967062  1
  Er  Er6  1  0.160032  0.502402  0.782569  1
  Er  Er7  1  0.840257  0.499481  0.284640  1
  Ti  Ti8  1  0.348167  0.507908  0.375299  1
  Ti  Ti9  1  0.846328  0.990925  0.376871  1
  Ti  Ti10  1  0.007453  0.151968  0.123886  1
  Ti  Ti11  1  0.991016  0.846220  0.623196  1
  Ti  Ti12  1  0.508096  0.348195  0.624809  1
  Ti  Ti13  1  0.151719  0.007676  0.876112  1
  Ti  Ti14  1  0.826276  0.172843  0.749591  1
  Ti  Ti15  1  0.172331  0.825848  0.250341  1
  Ti  Ti16  1  0.326916  0.327152  0.999938  1
  Ti  Ti17  1  0.492856  0.651638  0.126544  1
  Ti  Ti18  1  0.651664  0.492868  0.873484  1
  Si  Si19  1  0.046217  0.708310  0.435083  1
  Si  Si20  1  0.952973  0.291906  0.934891  1
  Si  Si21  1  0.709726  0.047176  0.564826  1
  Si  Si22  1  0.207317  0.454253  0.185050  1
  Si  Si23  1  0.792400  0.546640  0.684452  1
  Si  Si24  1  0.453671  0.208338  0.815124  1
  Si  Si25  1  0.547570  0.791031  0.315422  1
  Si  Si26  1  0.291497  0.952519  0.064860  1
  Si  Si27  1  0.798293  0.869109  0.184386  1
  Si  Si28  1  0.298241  0.628722  0.565608  1
  Si  Si29  1  0.702876  0.370029  0.065486  1
  Si  Si30  1  0.630223  0.299328  0.434439  1
  Si  Si31  1  0.369533  0.702351  0.934375  1
  Si  Si32  1  0.129241  0.202752  0.315566  1
  Si  Si33  1  0.201752  0.130718  0.684432  1
  Si  Si34  1  0.870217  0.797775  0.815756  1
  Mo  Mo35  1  0.673947  0.673235  0.499883  1
