# generated using pymatgen
data_Yb2Sc2TcB12Ir
_symmetry_space_group_name_H-M   'P 1'
_cell_length_a   3.53962700
_cell_length_b   9.01429183
_cell_length_c   11.39314347
_cell_angle_alpha   90.11533489
_cell_angle_beta   90.00000000
_cell_angle_gamma   90.00000000
_symmetry_Int_Tables_number   1
_chemical_formula_structural   Yb2Sc2TcB12Ir
_chemical_formula_sum   'Yb4 Sc4 Tc2 B24 Ir2'
_cell_volume   363.52292111
_cell_formula_units_Z   2
loop_
 _symmetry_equiv_pos_site_id
 _symmetry_equiv_pos_as_xyz
  1  'x, y, z'
loop_
 _atom_site_type_symbol
 _atom_site_label
 _atom_site_symmetry_multiplicity
 _atom_site_fract_x
 _atom_site_fract_y
 _atom_site_fract_z
 _atom_site_occupancy
  Yb  Yb0  1  0.500000  0.320741  0.414023  1
  Yb  Yb1  1  0.500000  0.679259  0.585977  1
  Yb  Yb2  1  0.500000  0.176556  0.915479  1
  Yb  Yb3  1  0.500000  0.823444  0.084521  1
  Sc  Sc4  1  0.500000  0.440798  0.128147  1
  Sc  Sc5  1  0.500000  0.559202  0.871853  1
  Sc  Sc6  1  0.500000  0.052997  0.630307  1
  Sc  Sc7  1  0.500000  0.947003  0.369693  1
  Tc  Tc8  1  0.500000  0.141341  0.183337  1
  Tc  Tc9  1  0.500000  0.858659  0.816663  1
  B  B10  1  0.000000  0.095405  0.474507  1
  B  B11  1  0.000000  0.904595  0.525493  1
  B  B12  1  0.000000  0.404272  0.973855  1
  B  B13  1  0.000000  0.595728  0.026145  1
  B  B14  1  0.000000  0.129797  0.317932  1
  B  B15  1  0.000000  0.870203  0.682068  1
  B  B16  1  0.000000  0.370382  0.817039  1
  B  B17  1  0.000000  0.629618  0.182961  1
  B  B18  1  0.000000  0.053725  0.067424  1
  B  B19  1  0.000000  0.946275  0.932576  1
  B  B20  1  0.000000  0.444916  0.566937  1
  B  B21  1  0.000000  0.555084  0.433063  1
  B  B22  1  0.000000  0.481953  0.287167  1
  B  B23  1  0.000000  0.518047  0.712833  1
  B  B24  1  0.000000  0.019169  0.786477  1
  B  B25  1  0.000000  0.980831  0.213523  1
  B  B26  1  0.000000  0.253342  0.081479  1
  B  B27  1  0.000000  0.746658  0.918521  1
  B  B28  1  0.000000  0.247094  0.581571  1
  B  B29  1  0.000000  0.752906  0.418429  1
  B  B30  1  0.000000  0.295627  0.236124  1
  B  B31  1  0.000000  0.704373  0.763876  1
  B  B32  1  0.000000  0.205957  0.735570  1
  B  B33  1  0.000000  0.794043  0.264430  1
  Ir  Ir34  1  0.500000  0.359340  0.681208  1
  Ir  Ir35  1  0.500000  0.640660  0.318792  1
