# generated using pymatgen
data_Sr6Mn2FeMoO14
_symmetry_space_group_name_H-M   'P 1'
_cell_length_a   5.61223936
_cell_length_b   5.61225430
_cell_length_c   10.57176318
_cell_angle_alpha   89.99797255
_cell_angle_beta   105.39766555
_cell_angle_gamma   90.00665566
_symmetry_Int_Tables_number   1
_chemical_formula_structural   Sr6Mn2FeMoO14
_chemical_formula_sum   'Sr6 Mn2 Fe1 Mo1 O14'
_cell_volume   321.03015986
_cell_formula_units_Z   1
loop_
 _symmetry_equiv_pos_site_id
 _symmetry_equiv_pos_as_xyz
  1  'x, y, z'
loop_
 _atom_site_type_symbol
 _atom_site_label
 _atom_site_symmetry_multiplicity
 _atom_site_fract_x
 _atom_site_fract_y
 _atom_site_fract_z
 _atom_site_occupancy
  Sr  Sr0  1  0.811708  0.500005  0.623383  1
  Sr  Sr1  1  0.312700  0.999990  0.625556  1
  Sr  Sr2  1  0.679703  0.000012  0.359307  1
  Sr  Sr3  1  0.181696  0.499988  0.363278  1
  Sr  Sr4  1  0.509516  0.999987  0.018963  1
  Sr  Sr5  1  0.010159  0.500004  0.020182  1
  Mn  Mn6  1  0.598104  0.499995  0.196022  1
  Mn  Mn7  1  0.101319  0.000001  0.202520  1
  Fe  Fe8  1  0.403361  0.500004  0.806901  1
  Mo  Mo9  1  0.904270  0.000000  0.808735  1
  O  O10  1  0.805862  0.999985  0.611862  1
  O  O11  1  0.304745  0.500030  0.609941  1
  O  O12  1  0.693734  0.499959  0.387176  1
  O  O13  1  0.194720  0.000031  0.389102  1
  O  O14  1  0.500049  0.500019  0.000007  1
  O  O15  1  0.998211  0.999990  0.996627  1
  O  O16  1  0.658854  0.757078  0.804318  1
  O  O17  1  0.145302  0.242932  0.804376  1
  O  O18  1  0.145264  0.757170  0.804353  1
  O  O19  1  0.658865  0.242829  0.804284  1
  O  O20  1  0.849039  0.754336  0.190841  1
  O  O21  1  0.341936  0.245642  0.190804  1
  O  O22  1  0.341856  0.754344  0.190730  1
  O  O23  1  0.849026  0.245669  0.190728  1
