# generated using pymatgen
data_Gd5InPb2O
_symmetry_space_group_name_H-M   'P 1'
_cell_length_a   9.30973443
_cell_length_b   9.30973466
_cell_length_c   9.23529100
_cell_angle_alpha   125.56996115
_cell_angle_beta   125.56995459
_cell_angle_gamma   81.13596399
_symmetry_Int_Tables_number   1
_chemical_formula_structural   Gd5InPb2O
_chemical_formula_sum   'Gd10 In2 Pb4 O2'
_cell_volume   508.63350630
_cell_formula_units_Z   2
loop_
 _symmetry_equiv_pos_site_id
 _symmetry_equiv_pos_as_xyz
  1  'x, y, z'
loop_
 _atom_site_type_symbol
 _atom_site_label
 _atom_site_symmetry_multiplicity
 _atom_site_fract_x
 _atom_site_fract_y
 _atom_site_fract_z
 _atom_site_occupancy
  Gd  Gd0  1  0.991949  0.195147  0.500000  1
  Gd  Gd1  1  0.800306  0.300306  0.806050  1
  Gd  Gd2  1  0.505744  0.005744  0.806050  1
  Gd  Gd3  1  0.494256  0.994256  0.193950  1
  Gd  Gd4  1  0.008051  0.804853  0.500000  1
  Gd  Gd5  1  0.500000  0.500000  0.000000  1
  Gd  Gd6  1  0.199694  0.699694  0.193950  1
  Gd  Gd7  1  0.695147  0.491949  0.500000  1
  Gd  Gd8  1  0.304853  0.508051  0.500000  1
  Gd  Gd9  1  0.000000  0.000000  0.000000  1
  In  In10  1  0.865725  0.365725  0.231450  1
  In  In11  1  0.134275  0.634275  0.768550  1
  Pb  Pb12  1  0.349580  0.150420  0.500000  1
  Pb  Pb13  1  0.750000  0.750000  0.000000  1
  Pb  Pb14  1  0.650420  0.849580  0.500000  1
  Pb  Pb15  1  0.250000  0.250000  0.000000  1
  O  O16  1  0.745217  0.245217  0.500000  1
  O  O17  1  0.254783  0.754783  0.500000  1
