# generated using pymatgen
data_Zr3Ti3BeTe2
_symmetry_space_group_name_H-M   'P 1'
_cell_length_a   7.24376900
_cell_length_b   7.24376927
_cell_length_c   3.81111700
_cell_angle_alpha   90.00000000
_cell_angle_beta   90.00000000
_cell_angle_gamma   120.00000332
_symmetry_Int_Tables_number   1
_chemical_formula_structural   Zr3Ti3BeTe2
_chemical_formula_sum   'Zr3 Ti3 Be1 Te2'
_cell_volume   173.18572823
_cell_formula_units_Z   1
loop_
 _symmetry_equiv_pos_site_id
 _symmetry_equiv_pos_as_xyz
  1  'x, y, z'
loop_
 _atom_site_type_symbol
 _atom_site_label
 _atom_site_symmetry_multiplicity
 _atom_site_fract_x
 _atom_site_fract_y
 _atom_site_fract_z
 _atom_site_occupancy
  Zr  Zr0  1  0.391608  0.000000  0.000000  1
  Zr  Zr1  1  0.000000  0.391608  0.000000  1
  Zr  Zr2  1  0.608392  0.608392  0.000000  1
  Ti  Ti3  1  0.776265  0.000000  0.500000  1
  Ti  Ti4  1  0.223735  0.223735  0.500000  1
  Ti  Ti5  1  0.000000  0.776265  0.500000  1
  Be  Be6  1  0.000000  0.000000  0.000000  1
  Te  Te7  1  0.666667  0.333334  0.500000  1
  Te  Te8  1  0.333333  0.666666  0.500000  1
