# generated using pymatgen
data_AcZnCuNi3
_symmetry_space_group_name_H-M   'P 1'
_cell_length_a   5.16350292
_cell_length_b   5.27222986
_cell_length_c   4.06945500
_cell_angle_alpha   90.00000000
_cell_angle_beta   90.00000000
_cell_angle_gamma   120.69903635
_symmetry_Int_Tables_number   1
_chemical_formula_structural   AcZnCuNi3
_chemical_formula_sum   'Ac1 Zn1 Cu1 Ni3'
_cell_volume   95.25838044
_cell_formula_units_Z   1
loop_
 _symmetry_equiv_pos_site_id
 _symmetry_equiv_pos_as_xyz
  1  'x, y, z'
loop_
 _atom_site_type_symbol
 _atom_site_label
 _atom_site_symmetry_multiplicity
 _atom_site_fract_x
 _atom_site_fract_y
 _atom_site_fract_z
 _atom_site_occupancy
  Ac  Ac0  1  0.334318  0.667159  0.000000  1
  Zn  Zn1  1  0.330861  0.165431  0.500000  1
  Cu  Cu2  1  0.677120  0.338559  0.000000  1
  Ni  Ni3  1  0.990341  0.995170  0.000000  1
  Ni  Ni4  1  0.833680  0.164457  0.500000  1
  Ni  Ni5  1  0.833680  0.669224  0.500000  1
