# generated using pymatgen
data_Ba4TcIrO10
_symmetry_space_group_name_H-M   'P 1'
_cell_length_a   5.80405800
_cell_length_b   7.45417006
_cell_length_c   11.66226938
_cell_angle_alpha   91.24942697
_cell_angle_beta   90.00000000
_cell_angle_gamma   90.00000000
_symmetry_Int_Tables_number   1
_chemical_formula_structural   Ba4TcIrO10
_chemical_formula_sum   'Ba8 Tc2 Ir2 O20'
_cell_volume   504.44153783
_cell_formula_units_Z   2
loop_
 _symmetry_equiv_pos_site_id
 _symmetry_equiv_pos_as_xyz
  1  'x, y, z'
loop_
 _atom_site_type_symbol
 _atom_site_label
 _atom_site_symmetry_multiplicity
 _atom_site_fract_x
 _atom_site_fract_y
 _atom_site_fract_z
 _atom_site_occupancy
  Ba  Ba0  1  0.750000  0.162150  0.573410  1
  Ba  Ba1  1  0.250000  0.837850  0.426590  1
  Ba  Ba2  1  0.750000  0.678411  0.915008  1
  Ba  Ba3  1  0.250000  0.321589  0.084992  1
  Ba  Ba4  1  0.250000  0.026360  0.784301  1
  Ba  Ba5  1  0.750000  0.973640  0.215699  1
  Ba  Ba6  1  0.250000  0.529107  0.703705  1
  Ba  Ba7  1  0.750000  0.470893  0.296295  1
  Tc  Tc8  1  0.250000  0.823268  0.062704  1
  Tc  Tc9  1  0.750000  0.176732  0.937296  1
  Ir  Ir10  1  0.250000  0.328639  0.436442  1
  Ir  Ir11  1  0.750000  0.671361  0.563558  1
  O  O12  1  0.484994  0.674852  0.111395  1
  O  O13  1  0.984994  0.325148  0.888605  1
  O  O14  1  0.008819  0.171396  0.380243  1
  O  O15  1  0.508819  0.828604  0.619757  1
  O  O16  1  0.515006  0.325148  0.888605  1
  O  O17  1  0.015006  0.674852  0.111395  1
  O  O18  1  0.991181  0.828604  0.619757  1
  O  O19  1  0.491181  0.171396  0.380243  1
  O  O20  1  0.750000  0.270900  0.091015  1
  O  O21  1  0.250000  0.729100  0.908985  1
  O  O22  1  0.750000  0.787408  0.410780  1
  O  O23  1  0.250000  0.212592  0.589220  1
  O  O24  1  0.000000  0.500000  0.500000  1
  O  O25  1  0.500000  0.500000  0.500000  1
  O  O26  1  0.500000  0.000000  0.000000  1
  O  O27  1  0.000000  0.000000  0.000000  1
  O  O28  1  0.250000  0.468221  0.299701  1
  O  O29  1  0.750000  0.531779  0.700299  1
  O  O30  1  0.250000  0.976453  0.187370  1
  O  O31  1  0.750000  0.023547  0.812630  1
