# generated using pymatgen
data_CaPr2(TmSn2)2
_symmetry_space_group_name_H-M   'P 1'
_cell_length_a   8.00532100
_cell_length_b   8.38570500
_cell_length_c   15.66847400
_cell_angle_alpha   90.00000000
_cell_angle_beta   90.00000000
_cell_angle_gamma   90.00000000
_symmetry_Int_Tables_number   1
_chemical_formula_structural   CaPr2(TmSn2)2
_chemical_formula_sum   'Ca4 Pr8 Tm8 Sn16'
_cell_volume   1051.82873869
_cell_formula_units_Z   4
loop_
 _symmetry_equiv_pos_site_id
 _symmetry_equiv_pos_as_xyz
  1  'x, y, z'
loop_
 _atom_site_type_symbol
 _atom_site_label
 _atom_site_symmetry_multiplicity
 _atom_site_fract_x
 _atom_site_fract_y
 _atom_site_fract_z
 _atom_site_occupancy
  Ca  Ca0  1  0.166895  0.499029  0.750000  1
  Ca  Ca1  1  0.666895  0.000971  0.750000  1
  Ca  Ca2  1  0.833105  0.500971  0.250000  1
  Ca  Ca3  1  0.333105  0.999029  0.250000  1
  Pr  Pr4  1  0.495205  0.320483  0.905256  1
  Pr  Pr5  1  0.995205  0.179517  0.594744  1
  Pr  Pr6  1  0.504795  0.679517  0.405256  1
  Pr  Pr7  1  0.004795  0.820483  0.094744  1
  Pr  Pr8  1  0.504795  0.679517  0.094744  1
  Pr  Pr9  1  0.004795  0.820483  0.405256  1
  Pr  Pr10  1  0.495205  0.320483  0.594744  1
  Pr  Pr11  1  0.995205  0.179517  0.905256  1
  Tm  Tm12  1  0.335259  0.828277  0.875745  1
  Tm  Tm13  1  0.835259  0.671723  0.624255  1
  Tm  Tm14  1  0.664741  0.171723  0.375745  1
  Tm  Tm15  1  0.164741  0.328277  0.124255  1
  Tm  Tm16  1  0.664741  0.171723  0.124255  1
  Tm  Tm17  1  0.164741  0.328277  0.375745  1
  Tm  Tm18  1  0.335259  0.828277  0.624255  1
  Tm  Tm19  1  0.835259  0.671723  0.875745  1
  Sn  Sn20  1  0.324608  0.039410  0.037701  1
  Sn  Sn21  1  0.824608  0.460590  0.462299  1
  Sn  Sn22  1  0.675392  0.960590  0.537701  1
  Sn  Sn23  1  0.175392  0.539410  0.962299  1
  Sn  Sn24  1  0.675392  0.960590  0.962299  1
  Sn  Sn25  1  0.175392  0.539410  0.537701  1
  Sn  Sn26  1  0.324608  0.039410  0.462299  1
  Sn  Sn27  1  0.824608  0.460590  0.037701  1
  Sn  Sn28  1  0.535658  0.616777  0.750000  1
  Sn  Sn29  1  0.035658  0.883223  0.750000  1
  Sn  Sn30  1  0.464342  0.383223  0.250000  1
  Sn  Sn31  1  0.964342  0.116777  0.250000  1
  Sn  Sn32  1  0.296060  0.134619  0.750000  1
  Sn  Sn33  1  0.796060  0.365381  0.750000  1
  Sn  Sn34  1  0.703940  0.865381  0.250000  1
  Sn  Sn35  1  0.203940  0.634619  0.250000  1
