# generated using pymatgen
data_Gd4Y(FeB3)2
_symmetry_space_group_name_H-M   'P 1'
_cell_length_a   5.40099337
_cell_length_b   5.40099227
_cell_length_c   8.37994000
_cell_angle_alpha   71.20051020
_cell_angle_beta   71.20051419
_cell_angle_gamma   59.99999228
_symmetry_Int_Tables_number   1
_chemical_formula_structural   Gd4Y(FeB3)2
_chemical_formula_sum   'Gd4 Y1 Fe2 B6'
_cell_volume   196.49651175
_cell_formula_units_Z   1
loop_
 _symmetry_equiv_pos_site_id
 _symmetry_equiv_pos_as_xyz
  1  'x, y, z'
loop_
 _atom_site_type_symbol
 _atom_site_label
 _atom_site_symmetry_multiplicity
 _atom_site_fract_x
 _atom_site_fract_y
 _atom_site_fract_z
 _atom_site_occupancy
  Gd  Gd0  1  0.251402  0.251402  0.245794  1
  Gd  Gd1  1  0.748598  0.748598  0.754206  1
  Gd  Gd2  1  0.416266  0.416266  0.751199  1
  Gd  Gd3  1  0.583734  0.583734  0.248801  1
  Y  Y4  1  0.000000  0.000000  0.000000  1
  Fe  Fe5  1  0.119366  0.119366  0.641900  1
  Fe  Fe6  1  0.880634  0.880634  0.358100  1
  B  B7  1  0.167955  0.832045  0.500000  1
  B  B8  1  0.832045  0.500000  0.500000  1
  B  B9  1  0.500000  0.167955  0.500000  1
  B  B10  1  0.167955  0.500000  0.500000  1
  B  B11  1  0.500000  0.832045  0.500000  1
  B  B12  1  0.832045  0.167955  0.500000  1
