# generated using pymatgen
data_Sr2Mn2TeO4
_symmetry_space_group_name_H-M   'P 1'
_cell_length_a   6.41955500
_cell_length_b   9.86875000
_cell_length_c   10.55470700
_cell_angle_alpha   90.00000000
_cell_angle_beta   90.00000000
_cell_angle_gamma   90.00000000
_symmetry_Int_Tables_number   1
_chemical_formula_structural   Sr2Mn2TeO4
_chemical_formula_sum   'Sr8 Mn8 Te4 O16'
_cell_volume   668.67217743
_cell_formula_units_Z   4
loop_
 _symmetry_equiv_pos_site_id
 _symmetry_equiv_pos_as_xyz
  1  'x, y, z'
loop_
 _atom_site_type_symbol
 _atom_site_label
 _atom_site_symmetry_multiplicity
 _atom_site_fract_x
 _atom_site_fract_y
 _atom_site_fract_z
 _atom_site_occupancy
  Sr  Sr0  1  0.232843  0.871790  0.455319  1
  Sr  Sr1  1  0.267157  0.371790  0.044681  1
  Sr  Sr2  1  0.767157  0.128210  0.955319  1
  Sr  Sr3  1  0.732843  0.628210  0.544681  1
  Sr  Sr4  1  0.767157  0.128210  0.544681  1
  Sr  Sr5  1  0.732843  0.628210  0.955319  1
  Sr  Sr6  1  0.232843  0.871790  0.044681  1
  Sr  Sr7  1  0.267157  0.371790  0.455319  1
  Mn  Mn8  1  0.731775  0.875864  0.250000  1
  Mn  Mn9  1  0.768225  0.375864  0.250000  1
  Mn  Mn10  1  0.268225  0.124136  0.750000  1
  Mn  Mn11  1  0.231775  0.624136  0.750000  1
  Mn  Mn12  1  0.541818  0.620507  0.250000  1
  Mn  Mn13  1  0.958182  0.120507  0.250000  1
  Mn  Mn14  1  0.458182  0.379493  0.750000  1
  Mn  Mn15  1  0.041818  0.879493  0.750000  1
  Te  Te16  1  0.422603  0.119547  0.250000  1
  Te  Te17  1  0.077397  0.619547  0.250000  1
  Te  Te18  1  0.577397  0.880453  0.750000  1
  Te  Te19  1  0.922603  0.380453  0.750000  1
  O  O20  1  0.600548  0.476315  0.371535  1
  O  O21  1  0.899452  0.976315  0.128465  1
  O  O22  1  0.399452  0.523685  0.871535  1
  O  O23  1  0.100548  0.023685  0.628465  1
  O  O24  1  0.399452  0.523685  0.628465  1
  O  O25  1  0.100548  0.023685  0.871535  1
  O  O26  1  0.600548  0.476315  0.128465  1
  O  O27  1  0.899452  0.976315  0.371535  1
  O  O28  1  0.576160  0.767045  0.373377  1
  O  O29  1  0.923840  0.267045  0.126623  1
  O  O30  1  0.423840  0.232955  0.873377  1
  O  O31  1  0.076160  0.732955  0.626623  1
  O  O32  1  0.423840  0.232955  0.626623  1
  O  O33  1  0.076160  0.732955  0.873377  1
  O  O34  1  0.576160  0.767045  0.126623  1
  O  O35  1  0.923840  0.267045  0.373377  1
