# generated using pymatgen
data_Sm5Co16(TcAs4)3
_symmetry_space_group_name_H-M   'P 1'
_cell_length_a   12.55549700
_cell_length_b   12.55549781
_cell_length_c   3.87243800
_cell_angle_alpha   90.00000000
_cell_angle_beta   90.00000000
_cell_angle_gamma   120.00000051
_symmetry_Int_Tables_number   1
_chemical_formula_structural   Sm5Co16(TcAs4)3
_chemical_formula_sum   'Sm5 Co16 Tc3 As12'
_cell_volume   528.66790763
_cell_formula_units_Z   1
loop_
 _symmetry_equiv_pos_site_id
 _symmetry_equiv_pos_as_xyz
  1  'x, y, z'
loop_
 _atom_site_type_symbol
 _atom_site_label
 _atom_site_symmetry_multiplicity
 _atom_site_fract_x
 _atom_site_fract_y
 _atom_site_fract_z
 _atom_site_occupancy
  Sm  Sm0  1  0.666667  0.333333  0.000000  1
  Sm  Sm1  1  0.333333  0.666667  0.000000  1
  Sm  Sm2  1  0.814116  0.814116  0.500000  1
  Sm  Sm3  1  0.185884  0.000000  0.500000  1
  Sm  Sm4  1  0.000000  0.185884  0.500000  1
  Co  Co5  1  0.876536  0.357789  0.500000  1
  Co  Co6  1  0.642211  0.518748  0.500000  1
  Co  Co7  1  0.481252  0.123464  0.500000  1
  Co  Co8  1  0.357789  0.876536  0.500000  1
  Co  Co9  1  0.518748  0.642211  0.500000  1
  Co  Co10  1  0.123464  0.481252  0.500000  1
  Co  Co11  1  0.801503  0.178853  0.000000  1
  Co  Co12  1  0.821147  0.622649  0.000000  1
  Co  Co13  1  0.377351  0.198497  0.000000  1
  Co  Co14  1  0.178853  0.801503  0.000000  1
  Co  Co15  1  0.622649  0.821147  0.000000  1
  Co  Co16  1  0.198497  0.377351  0.000000  1
  Co  Co17  1  0.282861  0.282861  0.500000  1
  Co  Co18  1  0.717139  0.000000  0.500000  1
  Co  Co19  1  0.000000  0.717139  0.500000  1
  Co  Co20  1  0.000000  0.000000  0.000000  1
  Tc  Tc21  1  0.441554  0.441554  0.000000  1
  Tc  Tc22  1  0.558446  0.000000  0.000000  1
  Tc  Tc23  1  0.000000  0.558446  0.000000  1
  As  As24  1  0.685403  0.165056  0.500000  1
  As  As25  1  0.834944  0.520347  0.500000  1
  As  As26  1  0.479653  0.314597  0.500000  1
  As  As27  1  0.165056  0.685403  0.500000  1
  As  As28  1  0.520347  0.834944  0.500000  1
  As  As29  1  0.314597  0.479653  0.500000  1
  As  As30  1  0.180194  0.180194  0.000000  1
  As  As31  1  0.819806  0.000000  0.000000  1
  As  As32  1  0.000000  0.819806  0.000000  1
  As  As33  1  0.635139  0.635139  0.000000  1
  As  As34  1  0.364861  0.000000  0.000000  1
  As  As35  1  0.000000  0.364861  0.000000  1
