# generated using pymatgen
data_Yb6PrY(Si3Ag)4
_symmetry_space_group_name_H-M   'P 1'
_cell_length_a   8.36947400
_cell_length_b   8.36947441
_cell_length_c   8.28333800
_cell_angle_alpha   90.00000000
_cell_angle_beta   90.00000000
_cell_angle_gamma   120.00000627
_symmetry_Int_Tables_number   1
_chemical_formula_structural   Yb6PrY(Si3Ag)4
_chemical_formula_sum   'Yb6 Pr1 Y1 Si12 Ag4'
_cell_volume   502.49568622
_cell_formula_units_Z   1
loop_
 _symmetry_equiv_pos_site_id
 _symmetry_equiv_pos_as_xyz
  1  'x, y, z'
loop_
 _atom_site_type_symbol
 _atom_site_label
 _atom_site_symmetry_multiplicity
 _atom_site_fract_x
 _atom_site_fract_y
 _atom_site_fract_z
 _atom_site_occupancy
  Yb  Yb0  1  0.499577  0.500423  0.750000  1
  Yb  Yb1  1  0.500441  0.499559  0.250000  1
  Yb  Yb2  1  0.000845  0.500423  0.750000  1
  Yb  Yb3  1  0.999118  0.499559  0.250000  1
  Yb  Yb4  1  0.499577  0.999155  0.750000  1
  Yb  Yb5  1  0.500441  0.000882  0.250000  1
  Pr  Pr6  1  0.000000  0.000000  0.250000  1
  Y  Y7  1  0.000000  0.000000  0.750000  1
  Si  Si8  1  0.838548  0.161452  0.995801  1
  Si  Si9  1  0.161458  0.838542  0.996125  1
  Si  Si10  1  0.322904  0.161452  0.995801  1
  Si  Si11  1  0.161458  0.838542  0.503875  1
  Si  Si12  1  0.677085  0.838542  0.996125  1
  Si  Si13  1  0.838548  0.161452  0.504199  1
  Si  Si14  1  0.838548  0.677096  0.995801  1
  Si  Si15  1  0.677085  0.838542  0.503875  1
  Si  Si16  1  0.161458  0.322915  0.996125  1
  Si  Si17  1  0.322904  0.161452  0.504199  1
  Si  Si18  1  0.161458  0.322915  0.503875  1
  Si  Si19  1  0.838548  0.677096  0.504199  1
  Ag  Ag20  1  0.666667  0.333333  0.998600  1
  Ag  Ag21  1  0.333333  0.666667  0.001012  1
  Ag  Ag22  1  0.333333  0.666667  0.498988  1
  Ag  Ag23  1  0.666667  0.333333  0.501400  1
