# generated using pymatgen
data_K4Th6ReI18
_symmetry_space_group_name_H-M   'P 1'
_cell_length_a   11.78211012
_cell_length_b   11.87865775
_cell_length_c   11.97528200
_cell_angle_alpha   118.60858847
_cell_angle_beta   100.31660070
_cell_angle_gamma   103.54648246
_symmetry_Int_Tables_number   1
_chemical_formula_structural   K4Th6ReI18
_chemical_formula_sum   'K4 Th6 Re1 I18'
_cell_volume   1344.59178750
_cell_formula_units_Z   1
loop_
 _symmetry_equiv_pos_site_id
 _symmetry_equiv_pos_as_xyz
  1  'x, y, z'
loop_
 _atom_site_type_symbol
 _atom_site_label
 _atom_site_symmetry_multiplicity
 _atom_site_fract_x
 _atom_site_fract_y
 _atom_site_fract_z
 _atom_site_occupancy
  K  K0  1  0.643345  0.535830  0.224041  1
  K  K1  1  0.356655  0.464170  0.775959  1
  K  K2  1  0.678782  0.225306  0.564328  1
  K  K3  1  0.321218  0.774694  0.435672  1
  Th  Th4  1  0.162431  0.060475  0.248391  1
  Th  Th5  1  0.837569  0.939525  0.751609  1
  Th  Th6  1  0.853288  0.139077  0.145748  1
  Th  Th7  1  0.146712  0.860923  0.854252  1
  Th  Th8  1  0.150167  0.247556  0.045752  1
  Th  Th9  1  0.849833  0.752444  0.954248  1
  Re  Re10  1  0.000000  0.000000  0.000000  1
  I  I11  1  0.011212  0.433854  0.211512  1
  I  I12  1  0.988788  0.566146  0.788488  1
  I  I13  1  0.344534  0.351329  0.329030  1
  I  I14  1  0.655466  0.648671  0.670970  1
  I  I15  1  0.337399  0.536338  0.102236  1
  I  I16  1  0.662601  0.463662  0.897764  1
  I  I17  1  0.007844  0.786695  0.222610  1
  I  I18  1  0.992156  0.213305  0.777390  1
  I  I19  1  0.694399  0.298484  0.310678  1
  I  I20  1  0.305601  0.701516  0.689322  1
  I  I21  1  0.329224  0.129258  0.892768  1
  I  I22  1  0.670776  0.870742  0.107232  1
  I  I23  1  0.019653  0.219636  0.434939  1
  I  I24  1  0.980347  0.780364  0.565061  1
  I  I25  1  0.336257  0.913394  0.113703  1
  I  I26  1  0.663743  0.086606  0.886297  1
  I  I27  1  0.353812  0.124799  0.525588  1
  I  I28  1  0.646188  0.875201  0.474412  1
