# generated using pymatgen
data_Er3(Sn2Rh)2
_symmetry_space_group_name_H-M   'P 1'
_cell_length_a   7.48631700
_cell_length_b   7.48631751
_cell_length_c   4.18788600
_cell_angle_alpha   90.00000000
_cell_angle_beta   90.00000000
_cell_angle_gamma   120.00000218
_symmetry_Int_Tables_number   1
_chemical_formula_structural   Er3(Sn2Rh)2
_chemical_formula_sum   'Er3 Sn4 Rh2'
_cell_volume   203.26468367
_cell_formula_units_Z   1
loop_
 _symmetry_equiv_pos_site_id
 _symmetry_equiv_pos_as_xyz
  1  'x, y, z'
loop_
 _atom_site_type_symbol
 _atom_site_label
 _atom_site_symmetry_multiplicity
 _atom_site_fract_x
 _atom_site_fract_y
 _atom_site_fract_z
 _atom_site_occupancy
  Er  Er0  1  0.690424  0.939809  0.500000  1
  Er  Er1  1  0.249384  0.309576  0.500000  1
  Er  Er2  1  0.060191  0.750616  0.500000  1
  Sn  Sn3  1  0.904277  0.312796  0.000000  1
  Sn  Sn4  1  0.408520  0.095723  0.000000  1
  Sn  Sn5  1  0.687204  0.591480  0.000000  1
  Sn  Sn6  1  0.333333  0.666667  0.000000  1
  Rh  Rh7  1  0.666667  0.333333  0.500000  1
  Rh  Rh8  1  0.000000  0.000000  0.000000  1
