# generated using pymatgen
data_Cs2Mn(CdS2)2
_symmetry_space_group_name_H-M   'P 1'
_cell_length_a   9.92337429
_cell_length_b   9.92337417
_cell_length_c   9.92337436
_cell_angle_alpha   143.77702878
_cell_angle_beta   105.08008580
_cell_angle_gamma   86.16448539
_symmetry_Int_Tables_number   1
_chemical_formula_structural   Cs2Mn(CdS2)2
_chemical_formula_sum   'Cs4 Mn2 Cd4 S8'
_cell_volume   539.77065941
_cell_formula_units_Z   2
loop_
 _symmetry_equiv_pos_site_id
 _symmetry_equiv_pos_as_xyz
  1  'x, y, z'
loop_
 _atom_site_type_symbol
 _atom_site_label
 _atom_site_symmetry_multiplicity
 _atom_site_fract_x
 _atom_site_fract_y
 _atom_site_fract_z
 _atom_site_occupancy
  Cs  Cs0  1  0.119980  0.237201  0.358865  1
  Cs  Cs1  1  0.380020  0.738885  0.117220  1
  Cs  Cs2  1  0.621664  0.262799  0.882780  1
  Cs  Cs3  1  0.878336  0.761115  0.641135  1
  Mn  Mn4  1  0.978124  0.750000  0.228124  1
  Mn  Mn5  1  0.521876  0.750000  0.771876  1
  Cd  Cd6  1  0.250000  0.750000  0.500000  1
  Cd  Cd7  1  0.750000  0.250000  0.500000  1
  Cd  Cd8  1  0.472616  0.250000  0.222616  1
  Cd  Cd9  1  0.027384  0.250000  0.777384  1
  S  S10  1  0.491537  0.644993  0.434052  1
  S  S11  1  0.008463  0.442515  0.153457  1
  S  S12  1  0.289059  0.855007  0.846543  1
  S  S13  1  0.210941  0.057485  0.565948  1
  S  S14  1  0.710767  0.111001  0.126924  1
  S  S15  1  0.789233  0.916157  0.400235  1
  S  S16  1  0.984077  0.583843  0.873076  1
  S  S17  1  0.515923  0.388999  0.599765  1
