# generated using pymatgen
data_Tb3Y3(Ir7Rh2)2
_symmetry_space_group_name_H-M   'P 1'
_cell_length_a   5.31607200
_cell_length_b   5.31607339
_cell_length_c   17.49275800
_cell_angle_alpha   90.00000000
_cell_angle_beta   90.00000000
_cell_angle_gamma   119.99999138
_symmetry_Int_Tables_number   1
_chemical_formula_structural   Tb3Y3(Ir7Rh2)2
_chemical_formula_sum   'Tb3 Y3 Ir14 Rh4'
_cell_volume   428.12518772
_cell_formula_units_Z   1
loop_
 _symmetry_equiv_pos_site_id
 _symmetry_equiv_pos_as_xyz
  1  'x, y, z'
loop_
 _atom_site_type_symbol
 _atom_site_label
 _atom_site_symmetry_multiplicity
 _atom_site_fract_x
 _atom_site_fract_y
 _atom_site_fract_z
 _atom_site_occupancy
  Tb  Tb0  1  0.333333  0.666667  0.959101  1
  Tb  Tb1  1  0.333333  0.666667  0.749879  1
  Tb  Tb2  1  0.666667  0.333333  0.249999  1
  Y  Y3  1  0.666667  0.333333  0.041290  1
  Y  Y4  1  0.666667  0.333333  0.458742  1
  Y  Y5  1  0.333333  0.666667  0.540924  1
  Ir  Ir6  1  0.167534  0.832466  0.373993  1
  Ir  Ir7  1  0.167534  0.335067  0.373993  1
  Ir  Ir8  1  0.664933  0.832466  0.373993  1
  Ir  Ir9  1  0.832450  0.167550  0.625415  1
  Ir  Ir10  1  0.832450  0.664899  0.625415  1
  Ir  Ir11  1  0.335101  0.167550  0.625415  1
  Ir  Ir12  1  0.832475  0.167525  0.874539  1
  Ir  Ir13  1  0.832475  0.664950  0.874539  1
  Ir  Ir14  1  0.335050  0.167525  0.874539  1
  Ir  Ir15  1  0.167498  0.832502  0.126061  1
  Ir  Ir16  1  0.167498  0.334996  0.126061  1
  Ir  Ir17  1  0.665004  0.832502  0.126061  1
  Ir  Ir18  1  0.000000  0.000000  0.499660  1
  Ir  Ir19  1  0.000000  0.000000  0.000382  1
  Rh  Rh20  1  0.333333  0.666667  0.250002  1
  Rh  Rh21  1  0.666667  0.333333  0.749999  1
  Rh  Rh22  1  0.000000  0.000000  0.250030  1
  Rh  Rh23  1  0.000000  0.000000  0.749966  1
