# generated using pymatgen
data_Tm4Sc16Bi5Sb7
_symmetry_space_group_name_H-M   'P 1'
_cell_length_a   7.75709463
_cell_length_b   8.94317087
_cell_length_c   11.41024242
_cell_angle_alpha   89.97078444
_cell_angle_beta   89.93109060
_cell_angle_gamma   90.08690570
_symmetry_Int_Tables_number   1
_chemical_formula_structural   Tm4Sc16Bi5Sb7
_chemical_formula_sum   'Tm4 Sc16 Bi5 Sb7'
_cell_volume   791.56142101
_cell_formula_units_Z   1
loop_
 _symmetry_equiv_pos_site_id
 _symmetry_equiv_pos_as_xyz
  1  'x, y, z'
loop_
 _atom_site_type_symbol
 _atom_site_label
 _atom_site_symmetry_multiplicity
 _atom_site_fract_x
 _atom_site_fract_y
 _atom_site_fract_z
 _atom_site_occupancy
  Tm  Tm0  1  0.182629  0.243457  0.781324  1
  Tm  Tm1  1  0.820268  0.752678  0.219164  1
  Tm  Tm2  1  0.315177  0.753624  0.282542  1
  Tm  Tm3  1  0.682772  0.243657  0.718273  1
  Sc  Sc4  1  0.022621  0.244848  0.511116  1
  Sc  Sc5  1  0.977743  0.755282  0.489160  1
  Sc  Sc6  1  0.477171  0.752716  0.009743  1
  Sc  Sc7  1  0.521264  0.247326  0.986705  1
  Sc  Sc8  1  0.346847  0.247279  0.283745  1
  Sc  Sc9  1  0.649652  0.756183  0.717308  1
  Sc  Sc10  1  0.149311  0.756107  0.782465  1
  Sc  Sc11  1  0.854213  0.246745  0.218050  1
  Sc  Sc12  1  0.189232  0.064125  0.061604  1
  Sc  Sc13  1  0.809709  0.936106  0.935637  1
  Sc  Sc14  1  0.307952  0.936698  0.562591  1
  Sc  Sc15  1  0.810010  0.565723  0.938843  1
  Sc  Sc16  1  0.693660  0.063639  0.440174  1
  Sc  Sc17  1  0.189802  0.434127  0.060626  1
  Sc  Sc18  1  0.690338  0.434229  0.439163  1
  Sc  Sc19  1  0.309265  0.565840  0.561078  1
  Bi  Bi20  1  0.935370  0.508505  0.672264  1
  Bi  Bi21  1  0.565080  0.008968  0.172479  1
  Bi  Bi22  1  0.064547  0.491220  0.328477  1
  Bi  Bi23  1  0.564579  0.491330  0.172129  1
  Bi  Bi24  1  0.434962  0.508546  0.827056  1
  Sb  Sb25  1  0.404748  0.250120  0.534345  1
  Sb  Sb26  1  0.595380  0.749943  0.465704  1
  Sb  Sb27  1  0.095705  0.749802  0.033755  1
  Sb  Sb28  1  0.903945  0.250137  0.965912  1
  Sb  Sb29  1  0.063848  0.009071  0.328292  1
  Sb  Sb30  1  0.936197  0.990941  0.671449  1
  Sb  Sb31  1  0.436003  0.991030  0.828829  1
