# generated using pymatgen
data_Tb2Tm3IrOs
_symmetry_space_group_name_H-M   'P 1'
_cell_length_a   6.35496116
_cell_length_b   7.27963380
_cell_length_c   8.31435700
_cell_angle_alpha   96.70813694
_cell_angle_beta   112.46802084
_cell_angle_gamma   89.99999750
_symmetry_Int_Tables_number   1
_chemical_formula_structural   Tb2Tm3IrOs
_chemical_formula_sum   'Tb4 Tm6 Ir2 Os2'
_cell_volume   352.58921122
_cell_formula_units_Z   2
loop_
 _symmetry_equiv_pos_site_id
 _symmetry_equiv_pos_as_xyz
  1  'x, y, z'
loop_
 _atom_site_type_symbol
 _atom_site_label
 _atom_site_symmetry_multiplicity
 _atom_site_fract_x
 _atom_site_fract_y
 _atom_site_fract_z
 _atom_site_occupancy
  Tb  Tb0  1  0.968384  0.918072  0.183037  1
  Tb  Tb1  1  0.785346  0.581928  0.816963  1
  Tb  Tb2  1  0.026947  0.080484  0.813118  1
  Tb  Tb3  1  0.213831  0.419516  0.186882  1
  Tm  Tm4  1  0.650470  0.816781  0.439656  1
  Tm  Tm5  1  0.210815  0.683219  0.560344  1
  Tm  Tm6  1  0.352551  0.179813  0.561976  1
  Tm  Tm7  1  0.790575  0.320187  0.438024  1
  Tm  Tm8  1  0.422348  0.750000  0.000000  1
  Tm  Tm9  1  0.578374  0.250000  0.000000  1
  Ir  Ir10  1  0.178516  0.424362  0.778673  1
  Ir  Ir11  1  0.399842  0.075638  0.221327  1
  Os  Os12  1  0.820163  0.574352  0.218324  1
  Os  Os13  1  0.601838  0.925648  0.781676  1
