# generated using pymatgen
data_Tb3TmMoOs7
_symmetry_space_group_name_H-M   'P 1'
_cell_length_a   5.47661512
_cell_length_b   5.28079726
_cell_length_c   8.90502841
_cell_angle_alpha   90.02779217
_cell_angle_beta   90.00375495
_cell_angle_gamma   121.11529839
_symmetry_Int_Tables_number   1
_chemical_formula_structural   Tb3TmMoOs7
_chemical_formula_sum   'Tb3 Tm1 Mo1 Os7'
_cell_volume   220.48864124
_cell_formula_units_Z   1
loop_
 _symmetry_equiv_pos_site_id
 _symmetry_equiv_pos_as_xyz
  1  'x, y, z'
loop_
 _atom_site_type_symbol
 _atom_site_label
 _atom_site_symmetry_multiplicity
 _atom_site_fract_x
 _atom_site_fract_y
 _atom_site_fract_z
 _atom_site_occupancy
  Tb  Tb0  1  0.669987  0.339730  0.563271  1
  Tb  Tb1  1  0.333402  0.667708  0.433985  1
  Tb  Tb2  1  0.333402  0.667704  0.065705  1
  Tm  Tm3  1  0.670551  0.340834  0.936844  1
  Mo  Mo4  1  0.166478  0.332073  0.750958  1
  Os  Os5  1  0.004264  0.010122  0.497526  1
  Os  Os6  1  0.003771  0.009167  0.002114  1
  Os  Os7  1  0.173226  0.825962  0.751461  1
  Os  Os8  1  0.653498  0.826700  0.751445  1
  Os  Os9  1  0.823089  0.646474  0.248588  1
  Os  Os10  1  0.828103  0.166187  0.249102  1
  Os  Os11  1  0.340226  0.167337  0.249001  1
