# generated using pymatgen
data_CePr3P4
_symmetry_space_group_name_H-M   'P 1'
_cell_length_a   8.35879200
_cell_length_b   4.17314500
_cell_length_c   5.89105300
_cell_angle_alpha   90.00000000
_cell_angle_beta   89.99903389
_cell_angle_gamma   90.00000000
_symmetry_Int_Tables_number   1
_chemical_formula_structural   CePr3P4
_chemical_formula_sum   'Ce1 Pr3 P4'
_cell_volume   205.49436784
_cell_formula_units_Z   1
loop_
 _symmetry_equiv_pos_site_id
 _symmetry_equiv_pos_as_xyz
  1  'x, y, z'
loop_
 _atom_site_type_symbol
 _atom_site_label
 _atom_site_symmetry_multiplicity
 _atom_site_fract_x
 _atom_site_fract_y
 _atom_site_fract_z
 _atom_site_occupancy
  Ce  Ce0  1  0.875167  0.249999  0.750207  1
  Pr  Pr1  1  0.126686  0.749999  0.249822  1
  Pr  Pr2  1  0.622959  0.749999  0.250180  1
  Pr  Pr3  1  0.375176  0.249999  0.749810  1
  P  P4  1  0.374788  0.249999  0.249794  1
  P  P5  1  0.874788  0.249999  0.250192  1
  P  P6  1  0.117210  0.749999  0.749817  1
  P  P7  1  0.633227  0.749999  0.750181  1
