# generated using pymatgen
data_Tb3HoIr4F28
_symmetry_space_group_name_H-M   'P 1'
_cell_length_a   5.57652307
_cell_length_b   8.95597901
_cell_length_c   11.98008621
_cell_angle_alpha   62.56776885
_cell_angle_beta   89.98418821
_cell_angle_gamma   89.99083974
_symmetry_Int_Tables_number   1
_chemical_formula_structural   Tb3HoIr4F28
_chemical_formula_sum   'Tb3 Ho1 Ir4 F28'
_cell_volume   531.04636342
_cell_formula_units_Z   1
loop_
 _symmetry_equiv_pos_site_id
 _symmetry_equiv_pos_as_xyz
  1  'x, y, z'
loop_
 _atom_site_type_symbol
 _atom_site_label
 _atom_site_symmetry_multiplicity
 _atom_site_fract_x
 _atom_site_fract_y
 _atom_site_fract_z
 _atom_site_occupancy
  Tb  Tb0  1  0.740305  0.186983  0.734018  1
  Tb  Tb1  1  0.759484  0.185502  0.234339  1
  Tb  Tb2  1  0.239978  0.812979  0.765624  1
  Ho  Ho3  1  0.259984  0.813313  0.265741  1
  Ir  Ir4  1  0.757148  0.726640  0.045057  1
  Ir  Ir5  1  0.243824  0.272929  0.956539  1
  Ir  Ir6  1  0.256654  0.274626  0.455557  1
  Ir  Ir7  1  0.742967  0.726462  0.542853  1
  F  F8  1  0.944884  0.705896  0.416150  1
  F  F9  1  0.055571  0.295092  0.583165  1
  F  F10  1  0.443779  0.293925  0.083538  1
  F  F11  1  0.555158  0.705961  0.917981  1
  F  F12  1  0.470462  0.730811  0.139691  1
  F  F13  1  0.532493  0.269769  0.862406  1
  F  F14  1  0.969109  0.269741  0.361919  1
  F  F15  1  0.030866  0.729694  0.637725  1
  F  F16  1  0.956379  0.746827  0.173755  1
  F  F17  1  0.047726  0.253553  0.827272  1
  F  F18  1  0.453838  0.254657  0.326279  1
  F  F19  1  0.545636  0.745927  0.672020  1
  F  F20  1  0.766776  0.482825  0.141606  1
  F  F21  1  0.234260  0.517095  0.859455  1
  F  F22  1  0.265574  0.519191  0.358689  1
  F  F23  1  0.732740  0.482173  0.640131  1
  F  F24  1  0.948006  0.281637  0.045070  1
  F  F25  1  0.050799  0.718091  0.955676  1
  F  F26  1  0.447088  0.718646  0.453276  1
  F  F27  1  0.551765  0.282892  0.544073  1
  F  F28  1  0.742468  0.971130  0.449248  1
  F  F29  1  0.258298  0.030161  0.549741  1
  F  F30  1  0.242612  0.028568  0.050757  1
  F  F31  1  0.758670  0.970574  0.950607  1
  F  F32  1  0.578974  0.970202  0.231941  1
  F  F33  1  0.417004  0.028990  0.768339  1
  F  F34  1  0.082165  0.025813  0.268356  1
  F  F35  1  0.916550  0.970728  0.731403  1
