# generated using pymatgen
data_Rb4Mn5CdSe8
_symmetry_space_group_name_H-M   'P 1'
_cell_length_a   9.87134032
_cell_length_b   9.88333366
_cell_length_c   9.87134028
_cell_angle_alpha   142.93802608
_cell_angle_beta   105.35820728
_cell_angle_gamma   86.34612350
_symmetry_Int_Tables_number   1
_chemical_formula_structural   Rb4Mn5CdSe8
_chemical_formula_sum   'Rb4 Mn5 Cd1 Se8'
_cell_volume   541.33434624
_cell_formula_units_Z   1
loop_
 _symmetry_equiv_pos_site_id
 _symmetry_equiv_pos_as_xyz
  1  'x, y, z'
loop_
 _atom_site_type_symbol
 _atom_site_label
 _atom_site_symmetry_multiplicity
 _atom_site_fract_x
 _atom_site_fract_y
 _atom_site_fract_z
 _atom_site_occupancy
  Rb  Rb0  1  0.122110  0.237199  0.359690  1
  Rb  Rb1  1  0.376604  0.735732  0.113709  1
  Rb  Rb2  1  0.622491  0.262801  0.884910  1
  Rb  Rb3  1  0.877976  0.764268  0.640872  1
  Mn  Mn4  1  0.978804  0.750000  0.228804  1
  Mn  Mn5  1  0.478307  0.250000  0.228307  1
  Mn  Mn6  1  0.751509  0.250000  0.501509  1
  Mn  Mn7  1  0.251982  0.750000  0.501982  1
  Mn  Mn8  1  0.022239  0.250000  0.772239  1
  Cd  Cd9  1  0.525409  0.750000  0.775409  1
  Se  Se10  1  0.218832  0.071952  0.586664  1
  Se  Se11  1  0.272665  0.878390  0.859911  1
  Se  Se12  1  0.014711  0.428048  0.146880  1
  Se  Se13  1  0.481521  0.621610  0.394275  1
  Se  Se14  1  0.780956  0.926947  0.412190  1
  Se  Se15  1  0.726267  0.149424  0.161797  1
  Se  Se16  1  0.985243  0.573053  0.854009  1
  Se  Se17  1  0.512373  0.350576  0.576843  1
