# generated using pymatgen
data_Ba2TcNiN4
_symmetry_space_group_name_H-M   'P 1'
_cell_length_a   5.96990400
_cell_length_b   6.53462882
_cell_length_c   7.91723719
_cell_angle_alpha   66.51100408
_cell_angle_beta   90.00000000
_cell_angle_gamma   90.00000000
_symmetry_Int_Tables_number   1
_chemical_formula_structural   Ba2TcNiN4
_chemical_formula_sum   'Ba4 Tc2 Ni2 N8'
_cell_volume   283.26699226
_cell_formula_units_Z   2
loop_
 _symmetry_equiv_pos_site_id
 _symmetry_equiv_pos_as_xyz
  1  'x, y, z'
loop_
 _atom_site_type_symbol
 _atom_site_label
 _atom_site_symmetry_multiplicity
 _atom_site_fract_x
 _atom_site_fract_y
 _atom_site_fract_z
 _atom_site_occupancy
  Ba  Ba0  1  0.250000  0.265876  0.048173  1
  Ba  Ba1  1  0.750000  0.734124  0.951827  1
  Ba  Ba2  1  0.750000  0.841906  0.406356  1
  Ba  Ba3  1  0.250000  0.158094  0.593644  1
  Tc  Tc4  1  0.250000  0.687306  0.222447  1
  Tc  Tc5  1  0.750000  0.312694  0.777553  1
  Ni  Ni6  1  0.750000  0.358540  0.392951  1
  Ni  Ni7  1  0.250000  0.641460  0.607049  1
  N  N8  1  0.502505  0.496600  0.727766  1
  N  N9  1  0.002505  0.503400  0.272234  1
  N  N10  1  0.497495  0.503400  0.272234  1
  N  N11  1  0.997495  0.496600  0.727766  1
  N  N12  1  0.750000  0.138763  0.631105  1
  N  N13  1  0.250000  0.861237  0.368895  1
  N  N14  1  0.750000  0.126319  0.018686  1
  N  N15  1  0.250000  0.873681  0.981314  1
