# generated using pymatgen
data_Hf16ZrFePt6
_symmetry_space_group_name_H-M   'P 1'
_cell_length_a   8.83739732
_cell_length_b   8.83739894
_cell_length_c   8.83739800
_cell_angle_alpha   59.54539972
_cell_angle_beta   59.54540106
_cell_angle_gamma   59.54539761
_symmetry_Int_Tables_number   1
_chemical_formula_structural   Hf16ZrFePt6
_chemical_formula_sum   'Hf16 Zr1 Fe1 Pt6'
_cell_volume   482.99878433
_cell_formula_units_Z   1
loop_
 _symmetry_equiv_pos_site_id
 _symmetry_equiv_pos_as_xyz
  1  'x, y, z'
loop_
 _atom_site_type_symbol
 _atom_site_label
 _atom_site_symmetry_multiplicity
 _atom_site_fract_x
 _atom_site_fract_y
 _atom_site_fract_z
 _atom_site_occupancy
  Hf  Hf0  1  0.127654  0.127654  0.127654  1
  Hf  Hf1  1  0.676553  0.100067  0.100067  1
  Hf  Hf2  1  0.100067  0.676553  0.100067  1
  Hf  Hf3  1  0.100067  0.100067  0.676553  1
  Hf  Hf4  1  0.683158  0.312013  0.683158  1
  Hf  Hf5  1  0.945412  0.556857  0.556857  1
  Hf  Hf6  1  0.569529  0.939544  0.939544  1
  Hf  Hf7  1  0.939544  0.569529  0.939544  1
  Hf  Hf8  1  0.556857  0.556857  0.945412  1
  Hf  Hf9  1  0.939544  0.939544  0.569529  1
  Hf  Hf10  1  0.683158  0.683158  0.312013  1
  Hf  Hf11  1  0.312013  0.683158  0.683158  1
  Hf  Hf12  1  0.675748  0.313651  0.313651  1
  Hf  Hf13  1  0.313651  0.313651  0.675748  1
  Hf  Hf14  1  0.556857  0.945412  0.556857  1
  Hf  Hf15  1  0.313651  0.675748  0.313651  1
  Zr  Zr16  1  0.328141  0.328141  0.328141  1
  Fe  Fe17  1  0.892973  0.892973  0.892973  1
  Pt  Pt18  1  0.302958  0.906865  0.906865  1
  Pt  Pt19  1  0.906865  0.302958  0.906865  1
  Pt  Pt20  1  0.906865  0.906865  0.302958  1
  Pt  Pt21  1  0.349538  0.969662  0.349538  1
  Pt  Pt22  1  0.349538  0.349538  0.969662  1
  Pt  Pt23  1  0.969662  0.349538  0.349538  1
