# generated using pymatgen
data_Y3ZrAl16(SiIr3)2
_symmetry_space_group_name_H-M   'P 1'
_cell_length_a   7.52945864
_cell_length_b   7.51214013
_cell_length_c   9.31103200
_cell_angle_alpha   90.00000000
_cell_angle_beta   90.00000000
_cell_angle_gamma   119.61722260
_symmetry_Int_Tables_number   1
_chemical_formula_structural   Y3ZrAl16(SiIr3)2
_chemical_formula_sum   'Y3 Zr1 Al16 Si2 Ir6'
_cell_volume   457.84462459
_cell_formula_units_Z   1
loop_
 _symmetry_equiv_pos_site_id
 _symmetry_equiv_pos_as_xyz
  1  'x, y, z'
loop_
 _atom_site_type_symbol
 _atom_site_label
 _atom_site_symmetry_multiplicity
 _atom_site_fract_x
 _atom_site_fract_y
 _atom_site_fract_z
 _atom_site_occupancy
  Y  Y0  1  0.006150  0.324899  0.750000  1
  Y  Y1  1  0.674835  0.993985  0.250000  1
  Y  Y2  1  0.325146  0.006195  0.750000  1
  Zr  Zr3  1  0.992923  0.674404  0.250000  1
  Al  Al4  1  0.000663  0.339255  0.077873  1
  Al  Al5  1  0.999651  0.663800  0.928339  1
  Al  Al6  1  0.999651  0.663800  0.571661  1
  Al  Al7  1  0.333913  0.999080  0.421421  1
  Al  Al8  1  0.000663  0.339255  0.422127  1
  Al  Al9  1  0.663306  0.998365  0.576101  1
  Al  Al10  1  0.663306  0.998365  0.923899  1
  Al  Al11  1  0.333913  0.999080  0.078579  1
  Al  Al12  1  0.335835  0.335849  0.554592  1
  Al  Al13  1  0.667245  0.664881  0.440210  1
  Al  Al14  1  0.667245  0.664881  0.059790  1
  Al  Al15  1  0.335835  0.335849  0.945408  1
  Al  Al16  1  0.331017  0.548385  0.250000  1
  Al  Al17  1  0.666205  0.453505  0.750000  1
  Al  Al18  1  0.553455  0.339596  0.250000  1
  Al  Al19  1  0.451089  0.663269  0.750000  1
  Si  Si20  1  0.126889  0.124191  0.250000  1
  Si  Si21  1  0.870524  0.868811  0.750000  1
  Ir  Ir22  1  0.672252  0.328386  0.000936  1
  Ir  Ir23  1  0.328842  0.672461  0.001242  1
  Ir  Ir24  1  0.328842  0.672461  0.498758  1
  Ir  Ir25  1  0.672252  0.328386  0.499064  1
  Ir  Ir26  1  0.999175  0.999301  0.001802  1
  Ir  Ir27  1  0.999175  0.999301  0.498198  1
