# generated using pymatgen
data_AlCu3Sn5(RhS8)2
_symmetry_space_group_name_H-M   'P 1'
_cell_length_a   7.34757900
_cell_length_b   7.26993572
_cell_length_c   10.33013556
_cell_angle_alpha   90.23201633
_cell_angle_beta   90.00000000
_cell_angle_gamma   90.00000000
_symmetry_Int_Tables_number   1
_chemical_formula_structural   AlCu3Sn5(RhS8)2
_chemical_formula_sum   'Al1 Cu3 Sn5 Rh2 S16'
_cell_volume   551.79440860
_cell_formula_units_Z   1
loop_
 _symmetry_equiv_pos_site_id
 _symmetry_equiv_pos_as_xyz
  1  'x, y, z'
loop_
 _atom_site_type_symbol
 _atom_site_label
 _atom_site_symmetry_multiplicity
 _atom_site_fract_x
 _atom_site_fract_y
 _atom_site_fract_z
 _atom_site_occupancy
  Al  Al0  1  0.000000  0.252408  0.745735  1
  Cu  Cu1  1  0.000000  0.999327  0.127464  1
  Cu  Cu2  1  0.500000  0.499050  0.631044  1
  Cu  Cu3  1  0.500000  0.999807  0.864483  1
  Sn  Sn4  1  0.500000  0.741421  0.251942  1
  Sn  Sn5  1  0.758749  0.008790  0.505521  1
  Sn  Sn6  1  0.249078  0.494742  0.996778  1
  Sn  Sn7  1  0.241251  0.008790  0.505521  1
  Sn  Sn8  1  0.750922  0.494742  0.996778  1
  Rh  Rh9  1  0.500000  0.247631  0.245685  1
  Rh  Rh10  1  0.000000  0.755063  0.752111  1
  S  S11  1  0.000000  0.261725  0.513173  1
  S  S12  1  0.500000  0.749097  0.997620  1
  S  S13  1  0.000000  0.756781  0.522029  1
  S  S14  1  0.500000  0.245764  0.012715  1
  S  S15  1  0.224469  0.001483  0.752602  1
  S  S16  1  0.729548  0.477008  0.244394  1
  S  S17  1  0.775531  0.001483  0.752602  1
  S  S18  1  0.270452  0.477008  0.244394  1
  S  S19  1  0.500000  0.756612  0.502923  1
  S  S20  1  0.000000  0.244478  0.985009  1
  S  S21  1  0.500000  0.250883  0.482449  1
  S  S22  1  0.000000  0.745745  0.986523  1
  S  S23  1  0.265629  0.010418  0.252978  1
  S  S24  1  0.776200  0.504664  0.749775  1
  S  S25  1  0.734371  0.010418  0.252978  1
  S  S26  1  0.223800  0.504664  0.749775  1
