# generated using pymatgen
data_Er4Al18ZnOs2Rh3
_symmetry_space_group_name_H-M   'P 1'
_cell_length_a   7.55549979
_cell_length_b   7.55550022
_cell_length_c   9.45733387
_cell_angle_alpha   89.95488748
_cell_angle_beta   89.95488118
_cell_angle_gamma   119.16139463
_symmetry_Int_Tables_number   1
_chemical_formula_structural   Er4Al18ZnOs2Rh3
_chemical_formula_sum   'Er4 Al18 Zn1 Os2 Rh3'
_cell_volume   471.44768402
_cell_formula_units_Z   1
loop_
 _symmetry_equiv_pos_site_id
 _symmetry_equiv_pos_as_xyz
  1  'x, y, z'
loop_
 _atom_site_type_symbol
 _atom_site_label
 _atom_site_symmetry_multiplicity
 _atom_site_fract_x
 _atom_site_fract_y
 _atom_site_fract_z
 _atom_site_occupancy
  Er  Er0  1  0.991003  0.674512  0.750379  1
  Er  Er1  1  0.003002  0.321811  0.250380  1
  Er  Er2  1  0.678189  0.996998  0.749620  1
  Er  Er3  1  0.325488  0.008997  0.249621  1
  Al  Al4  1  0.131665  0.129408  0.750814  1
  Al  Al5  1  0.870592  0.868335  0.249186  1
  Al  Al6  1  0.011481  0.338131  0.578945  1
  Al  Al7  1  0.007832  0.672774  0.421896  1
  Al  Al8  1  0.002187  0.664474  0.073304  1
  Al  Al9  1  0.335526  0.997813  0.926696  1
  Al  Al10  1  0.000779  0.335731  0.925177  1
  Al  Al11  1  0.664269  0.999221  0.074823  1
  Al  Al12  1  0.661869  0.988519  0.421055  1
  Al  Al13  1  0.327226  0.992168  0.578104  1
  Al  Al14  1  0.330534  0.331071  0.047034  1
  Al  Al15  1  0.668929  0.669466  0.952966  1
  Al  Al16  1  0.666802  0.673068  0.555416  1
  Al  Al17  1  0.326932  0.333198  0.444584  1
  Al  Al18  1  0.343617  0.555943  0.751546  1
  Al  Al19  1  0.656562  0.451552  0.241988  1
  Al  Al20  1  0.548448  0.343438  0.758012  1
  Al  Al21  1  0.444057  0.656383  0.248454  1
  Zn  Zn22  1  0.673304  0.326696  0.500000  1
  Os  Os23  1  0.999181  0.000819  0.500000  1
  Os  Os24  1  0.000291  0.999709  0.000000  1
  Rh  Rh25  1  0.328942  0.671058  0.500000  1
  Rh  Rh26  1  0.328745  0.671255  0.000000  1
  Rh  Rh27  1  0.672548  0.327452  0.000000  1
