# generated using pymatgen
data_Sm6Al17Si7Os8
_symmetry_space_group_name_H-M   'P 1'
_cell_length_a   8.75020892
_cell_length_b   8.73762317
_cell_length_c   9.56300000
_cell_angle_alpha   90.00000000
_cell_angle_beta   90.00000000
_cell_angle_gamma   120.14835466
_symmetry_Int_Tables_number   1
_chemical_formula_structural   Sm6Al17Si7Os8
_chemical_formula_sum   'Sm6 Al17 Si7 Os8'
_cell_volume   632.24491011
_cell_formula_units_Z   1
loop_
 _symmetry_equiv_pos_site_id
 _symmetry_equiv_pos_as_xyz
  1  'x, y, z'
loop_
 _atom_site_type_symbol
 _atom_site_label
 _atom_site_symmetry_multiplicity
 _atom_site_fract_x
 _atom_site_fract_y
 _atom_site_fract_z
 _atom_site_occupancy
  Sm  Sm0  1  0.191089  0.384556  0.250000  1
  Sm  Sm1  1  0.808663  0.617106  0.750000  1
  Sm  Sm2  1  0.614419  0.808993  0.250000  1
  Sm  Sm3  1  0.384551  0.189556  0.750000  1
  Sm  Sm4  1  0.193874  0.807500  0.250000  1
  Sm  Sm5  1  0.804620  0.190158  0.750000  1
  Al  Al6  1  0.164587  0.330080  0.577101  1
  Al  Al7  1  0.834026  0.670749  0.421913  1
  Al  Al8  1  0.670875  0.834813  0.576599  1
  Al  Al9  1  0.834026  0.670749  0.078087  1
  Al  Al10  1  0.330060  0.166122  0.423115  1
  Al  Al11  1  0.164587  0.330080  0.922899  1
  Al  Al12  1  0.163818  0.834124  0.575567  1
  Al  Al13  1  0.330060  0.166122  0.076885  1
  Al  Al14  1  0.835338  0.164277  0.422534  1
  Al  Al15  1  0.670875  0.834813  0.923401  1
  Al  Al16  1  0.835338  0.164277  0.077466  1
  Al  Al17  1  0.163818  0.834124  0.924433  1
  Al  Al18  1  0.127234  0.566408  0.750000  1
  Al  Al19  1  0.565226  0.434544  0.250000  1
  Al  Al20  1  0.438336  0.567143  0.750000  1
  Al  Al21  1  0.999551  0.999299  0.250000  1
  Al  Al22  1  0.999796  0.000701  0.750000  1
  Si  Si23  1  0.333323  0.664532  0.035830  1
  Si  Si24  1  0.666416  0.335683  0.963403  1
  Si  Si25  1  0.666416  0.335683  0.536597  1
  Si  Si26  1  0.333323  0.664532  0.464170  1
  Si  Si27  1  0.565801  0.125931  0.250000  1
  Si  Si28  1  0.435859  0.871737  0.750000  1
  Si  Si29  1  0.873558  0.434036  0.250000  1
  Os  Os30  1  0.501061  0.001368  0.000938  1
  Os  Os31  1  0.997807  0.499034  0.006311  1
  Os  Os32  1  0.501061  0.001368  0.499062  1
  Os  Os33  1  0.500775  0.500018  0.000290  1
  Os  Os34  1  0.997807  0.499034  0.493689  1
  Os  Os35  1  0.500775  0.500018  0.499710  1
  Os  Os36  1  0.000625  0.000364  0.999887  1
  Os  Os37  1  0.000625  0.000364  0.500113  1
