# generated using pymatgen
data_Al2Sn2Se5
_symmetry_space_group_name_H-M   'P 1'
_cell_length_a   6.68266400
_cell_length_b   11.50856300
_cell_length_c   13.20279800
_cell_angle_alpha   90.00000000
_cell_angle_beta   90.00000000
_cell_angle_gamma   90.00000000
_symmetry_Int_Tables_number   1
_chemical_formula_structural   Al2Sn2Se5
_chemical_formula_sum   'Al8 Sn8 Se20'
_cell_volume   1015.39893560
_cell_formula_units_Z   4
loop_
 _symmetry_equiv_pos_site_id
 _symmetry_equiv_pos_as_xyz
  1  'x, y, z'
loop_
 _atom_site_type_symbol
 _atom_site_label
 _atom_site_symmetry_multiplicity
 _atom_site_fract_x
 _atom_site_fract_y
 _atom_site_fract_z
 _atom_site_occupancy
  Al  Al0  1  0.647593  0.115174  0.768512  1
  Al  Al1  1  0.352407  0.615174  0.231488  1
  Al  Al2  1  0.852407  0.115174  0.268512  1
  Al  Al3  1  0.147593  0.615174  0.731488  1
  Al  Al4  1  0.151645  0.280728  0.819231  1
  Al  Al5  1  0.848355  0.780728  0.180769  1
  Al  Al6  1  0.348355  0.280728  0.319231  1
  Al  Al7  1  0.651645  0.780728  0.680769  1
  Sn  Sn8  1  0.544349  0.481567  0.539531  1
  Sn  Sn9  1  0.455651  0.981567  0.460469  1
  Sn  Sn10  1  0.955651  0.481567  0.039531  1
  Sn  Sn11  1  0.044349  0.981567  0.960469  1
  Sn  Sn12  1  0.550816  0.257644  0.014609  1
  Sn  Sn13  1  0.449184  0.757644  0.985391  1
  Sn  Sn14  1  0.949184  0.257644  0.514609  1
  Sn  Sn15  1  0.050816  0.757644  0.485391  1
  Se  Se16  1  0.473745  0.965674  0.673665  1
  Se  Se17  1  0.526255  0.465674  0.326335  1
  Se  Se18  1  0.026255  0.965674  0.173665  1
  Se  Se19  1  0.973745  0.465674  0.826335  1
  Se  Se20  1  0.504375  0.804114  0.227074  1
  Se  Se21  1  0.495625  0.304114  0.772926  1
  Se  Se22  1  0.995625  0.804114  0.727074  1
  Se  Se23  1  0.004375  0.304114  0.272926  1
  Se  Se24  1  0.140148  0.535051  0.560890  1
  Se  Se25  1  0.859852  0.035051  0.439110  1
  Se  Se26  1  0.359852  0.535051  0.060890  1
  Se  Se27  1  0.640148  0.035051  0.939110  1
  Se  Se28  1  0.638134  0.722050  0.504402  1
  Se  Se29  1  0.361866  0.222050  0.495598  1
  Se  Se30  1  0.861866  0.722050  0.004402  1
  Se  Se31  1  0.138134  0.222050  0.995598  1
  Se  Se32  1  0.990878  0.138397  0.711832  1
  Se  Se33  1  0.009122  0.638397  0.288168  1
  Se  Se34  1  0.509122  0.138397  0.211832  1
  Se  Se35  1  0.490878  0.638397  0.788168  1
