# generated using pymatgen
data_Tm2BeRu2
_symmetry_space_group_name_H-M   'P 1'
_cell_length_a   5.47397156
_cell_length_b   5.47397122
_cell_length_c   5.47397115
_cell_angle_alpha   143.52107977
_cell_angle_beta   111.14173122
_cell_angle_gamma   80.51718145
_symmetry_Int_Tables_number   1
_chemical_formula_structural   Tm2BeRu2
_chemical_formula_sum   'Tm2 Be1 Ru2'
_cell_volume   88.60207378
_cell_formula_units_Z   1
loop_
 _symmetry_equiv_pos_site_id
 _symmetry_equiv_pos_as_xyz
  1  'x, y, z'
loop_
 _atom_site_type_symbol
 _atom_site_label
 _atom_site_symmetry_multiplicity
 _atom_site_fract_x
 _atom_site_fract_y
 _atom_site_fract_z
 _atom_site_occupancy
  Tm  Tm0  1  0.703077  0.203078  0.499999  1
  Tm  Tm1  1  0.296922  0.796923  0.500001  1
  Be  Be2  1  0.000000  0.000000  0.000000  1
  Ru  Ru3  1  0.754158  0.500000  0.254158  1
  Ru  Ru4  1  0.245841  0.500001  0.745842  1
