# generated using pymatgen
data_Tm4Lu4Ti12Si15Pb
_symmetry_space_group_name_H-M   'P 1'
_cell_length_a   7.06890795
_cell_length_b   7.02230371
_cell_length_c   12.92856742
_cell_angle_alpha   89.98356974
_cell_angle_beta   89.69540041
_cell_angle_gamma   89.90416267
_symmetry_Int_Tables_number   1
_chemical_formula_structural   Tm4Lu4Ti12Si15Pb
_chemical_formula_sum   'Tm4 Lu4 Ti12 Si15 Pb1'
_cell_volume   641.76433458
_cell_formula_units_Z   1
loop_
 _symmetry_equiv_pos_site_id
 _symmetry_equiv_pos_as_xyz
  1  'x, y, z'
loop_
 _atom_site_type_symbol
 _atom_site_label
 _atom_site_symmetry_multiplicity
 _atom_site_fract_x
 _atom_site_fract_y
 _atom_site_fract_z
 _atom_site_occupancy
  Tm  Tm0  1  0.344757  0.997598  0.459805  1
  Tm  Tm1  1  0.507848  0.834249  0.718782  1
  Tm  Tm2  1  0.501938  0.159865  0.216880  1
  Tm  Tm3  1  0.841396  0.497402  0.281764  1
  Lu  Lu4  1  0.158778  0.511144  0.786961  1
  Lu  Lu5  1  0.661710  0.996598  0.969484  1
  Lu  Lu6  1  0.989272  0.351146  0.525771  1
  Lu  Lu7  1  0.999723  0.658893  0.034156  1
  Ti  Ti8  1  0.326083  0.326701  0.001331  1
  Ti  Ti9  1  0.174057  0.825978  0.249477  1
  Ti  Ti10  1  0.813836  0.175302  0.752928  1
  Ti  Ti11  1  0.672576  0.672404  0.499381  1
  Ti  Ti12  1  0.151715  0.007308  0.884254  1
  Ti  Ti13  1  0.493396  0.649690  0.126312  1
  Ti  Ti14  1  0.516678  0.355733  0.626682  1
  Ti  Ti15  1  0.653912  0.494520  0.876557  1
  Ti  Ti16  1  0.347548  0.508934  0.372823  1
  Ti  Ti17  1  0.847352  0.993311  0.375309  1
  Ti  Ti18  1  0.009126  0.150917  0.123632  1
  Ti  Ti19  1  0.977495  0.832360  0.618277  1
  Si  Si20  1  0.369612  0.703824  0.935216  1
  Si  Si21  1  0.628876  0.296973  0.431738  1
  Si  Si22  1  0.704908  0.368203  0.067656  1
  Si  Si23  1  0.296034  0.631493  0.566543  1
  Si  Si24  1  0.797150  0.868502  0.182699  1
  Si  Si25  1  0.130692  0.203421  0.315907  1
  Si  Si26  1  0.870192  0.799535  0.817884  1
  Si  Si27  1  0.294146  0.952039  0.067058  1
  Si  Si28  1  0.549965  0.789668  0.313030  1
  Si  Si29  1  0.461390  0.209630  0.822135  1
  Si  Si30  1  0.796144  0.543257  0.687480  1
  Si  Si31  1  0.208259  0.453440  0.184857  1
  Si  Si32  1  0.705621  0.048464  0.564281  1
  Si  Si33  1  0.952913  0.293179  0.935495  1
  Si  Si34  1  0.047647  0.709957  0.432283  1
  Pb  Pb35  1  0.197256  0.128359  0.675173  1
