# generated using pymatgen
data_TmHf3NbRe24
_symmetry_space_group_name_H-M   'P 1'
_cell_length_a   8.47482767
_cell_length_b   8.47519080
_cell_length_c   8.47519100
_cell_angle_alpha   109.47208639
_cell_angle_beta   109.47035847
_cell_angle_gamma   109.47035634
_symmetry_Int_Tables_number   1
_chemical_formula_structural   TmHf3NbRe24
_chemical_formula_sum   'Tm1 Hf3 Nb1 Re24'
_cell_volume   468.61110584
_cell_formula_units_Z   1
loop_
 _symmetry_equiv_pos_site_id
 _symmetry_equiv_pos_as_xyz
  1  'x, y, z'
loop_
 _atom_site_type_symbol
 _atom_site_label
 _atom_site_symmetry_multiplicity
 _atom_site_fract_x
 _atom_site_fract_y
 _atom_site_fract_z
 _atom_site_occupancy
  Tm  Tm0  1  0.999083  0.000000  0.000000  1
  Hf  Hf1  1  0.000124  0.628778  0.000000  1
  Hf  Hf2  1  0.000124  0.000000  0.628778  1
  Hf  Hf3  1  0.371346  0.371222  0.371222  1
  Nb  Nb4  1  0.628203  0.000000  0.000000  1
  Re  Re5  1  0.398987  0.681239  0.000000  1
  Re  Re6  1  0.717749  0.318761  0.318761  1
  Re  Re7  1  0.398987  0.000000  0.681239  1
  Re  Re8  1  0.676676  0.396609  0.000000  1
  Re  Re9  1  0.001081  0.396505  0.677242  1
  Re  Re10  1  0.323839  0.719263  0.322758  1
  Re  Re11  1  0.323839  0.322758  0.719263  1
  Re  Re12  1  0.001081  0.677242  0.396505  1
  Re  Re13  1  0.676676  0.000000  0.396609  1
  Re  Re14  1  0.604576  0.603495  0.280737  1
  Re  Re15  1  0.280067  0.603391  0.603391  1
  Re  Re16  1  0.604576  0.280737  0.603495  1
  Re  Re17  1  0.377200  0.194608  0.000000  1
  Re  Re18  1  0.182591  0.805392  0.805392  1
  Re  Re19  1  0.377200  0.000000  0.194608  1
  Re  Re20  1  0.193554  0.377043  0.000000  1
  Re  Re21  1  0.999205  0.376539  0.194891  1
  Re  Re22  1  0.804314  0.181648  0.805109  1
  Re  Re23  1  0.804314  0.805109  0.181648  1
  Re  Re24  1  0.999205  0.194891  0.376539  1
  Re  Re25  1  0.193554  0.000000  0.377043  1
  Re  Re26  1  0.622666  0.623461  0.818352  1
  Re  Re27  1  0.816511  0.622957  0.622957  1
  Re  Re28  1  0.622666  0.818352  0.623461  1
