# generated using pymatgen
data_DySi(AsRh2)3
_symmetry_space_group_name_H-M   'P 1'
_cell_length_a   7.20737800
_cell_length_b   7.20737848
_cell_length_c   3.81990900
_cell_angle_alpha   90.00000000
_cell_angle_beta   90.00000000
_cell_angle_gamma   119.99999778
_symmetry_Int_Tables_number   1
_chemical_formula_structural   DySi(AsRh2)3
_chemical_formula_sum   'Dy1 Si1 As3 Rh6'
_cell_volume   171.84554867
_cell_formula_units_Z   1
loop_
 _symmetry_equiv_pos_site_id
 _symmetry_equiv_pos_as_xyz
  1  'x, y, z'
loop_
 _atom_site_type_symbol
 _atom_site_label
 _atom_site_symmetry_multiplicity
 _atom_site_fract_x
 _atom_site_fract_y
 _atom_site_fract_z
 _atom_site_occupancy
  Dy  Dy0  1  0.000000  0.000000  0.000000  1
  Si  Si1  1  0.333333  0.666667  0.000000  1
  As  As2  1  0.809561  0.619121  0.500000  1
  As  As3  1  0.380879  0.190439  0.500000  1
  As  As4  1  0.809561  0.190439  0.500000  1
  Rh  Rh5  1  0.531368  0.062738  0.000000  1
  Rh  Rh6  1  0.597730  0.798865  0.500000  1
  Rh  Rh7  1  0.201135  0.402270  0.500000  1
  Rh  Rh8  1  0.531368  0.468632  0.000000  1
  Rh  Rh9  1  0.201135  0.798865  0.500000  1
  Rh  Rh10  1  0.937262  0.468632  0.000000  1
