# generated using pymatgen
data_Ce2Dy4MgCo17P12
_symmetry_space_group_name_H-M   'P 1'
_cell_length_a   3.72697400
_cell_length_b   10.61681000
_cell_length_c   12.23249800
_cell_angle_alpha   90.00000000
_cell_angle_beta   90.00000000
_cell_angle_gamma   90.00000000
_symmetry_Int_Tables_number   1
_chemical_formula_structural   Ce2Dy4MgCo17P12
_chemical_formula_sum   'Ce2 Dy4 Mg1 Co17 P12'
_cell_volume   484.02251251
_cell_formula_units_Z   1
loop_
 _symmetry_equiv_pos_site_id
 _symmetry_equiv_pos_as_xyz
  1  'x, y, z'
loop_
 _atom_site_type_symbol
 _atom_site_label
 _atom_site_symmetry_multiplicity
 _atom_site_fract_x
 _atom_site_fract_y
 _atom_site_fract_z
 _atom_site_occupancy
  Ce  Ce0  1  0.000000  0.500000  0.530406  1
  Ce  Ce1  1  0.500000  0.000000  0.473551  1
  Dy  Dy2  1  0.500000  0.818967  0.205685  1
  Dy  Dy3  1  0.500000  0.181033  0.205685  1
  Dy  Dy4  1  0.000000  0.684841  0.796075  1
  Dy  Dy5  1  0.000000  0.315159  0.796075  1
  Mg  Mg6  1  0.500000  0.500000  0.151515  1
  Co  Co7  1  0.000000  0.000000  0.839875  1
  Co  Co8  1  0.500000  0.500000  0.700152  1
  Co  Co9  1  0.000000  0.000000  0.299683  1
  Co  Co10  1  0.000000  0.500000  0.984600  1
  Co  Co11  1  0.500000  0.000000  0.014674  1
  Co  Co12  1  0.500000  0.329607  0.992271  1
  Co  Co13  1  0.500000  0.670393  0.992271  1
  Co  Co14  1  0.000000  0.162668  0.002477  1
  Co  Co15  1  0.000000  0.837332  0.002477  1
  Co  Co16  1  0.500000  0.296711  0.432691  1
  Co  Co17  1  0.500000  0.703289  0.432691  1
  Co  Co18  1  0.000000  0.200273  0.570870  1
  Co  Co19  1  0.000000  0.799727  0.570870  1
  Co  Co20  1  0.500000  0.880935  0.710547  1
  Co  Co21  1  0.500000  0.119065  0.710547  1
  Co  Co22  1  0.000000  0.622125  0.291546  1
  Co  Co23  1  0.000000  0.377875  0.291546  1
  P  P24  1  0.500000  0.500000  0.881237  1
  P  P25  1  0.000000  0.000000  0.118136  1
  P  P26  1  0.500000  0.500000  0.352139  1
  P  P27  1  0.000000  0.000000  0.657276  1
  P  P28  1  0.500000  0.305373  0.617644  1
  P  P29  1  0.500000  0.694627  0.617644  1
  P  P30  1  0.000000  0.193558  0.384876  1
  P  P31  1  0.000000  0.806442  0.384876  1
  P  P32  1  0.500000  0.850234  0.892018  1
  P  P33  1  0.500000  0.149766  0.892018  1
  P  P34  1  0.000000  0.662223  0.101676  1
  P  P35  1  0.000000  0.337777  0.101676  1
