# generated using pymatgen
data_Nd10TlTe5
_symmetry_space_group_name_H-M   'P 1'
_cell_length_a   9.36524600
_cell_length_b   9.44361847
_cell_length_c   6.41298800
_cell_angle_alpha   90.00000000
_cell_angle_beta   90.00000000
_cell_angle_gamma   120.27721817
_symmetry_Int_Tables_number   1
_chemical_formula_structural   Nd10TlTe5
_chemical_formula_sum   'Nd10 Tl1 Te5'
_cell_volume   489.81120725
_cell_formula_units_Z   1
loop_
 _symmetry_equiv_pos_site_id
 _symmetry_equiv_pos_as_xyz
  1  'x, y, z'
loop_
 _atom_site_type_symbol
 _atom_site_label
 _atom_site_symmetry_multiplicity
 _atom_site_fract_x
 _atom_site_fract_y
 _atom_site_fract_z
 _atom_site_occupancy
  Nd  Nd0  1  0.664995  0.333025  0.001332  1
  Nd  Nd1  1  0.335005  0.668030  0.001332  1
  Nd  Nd2  1  0.335005  0.668030  0.498668  1
  Nd  Nd3  1  0.664995  0.333025  0.498668  1
  Nd  Nd4  1  0.747370  0.745665  0.750000  1
  Nd  Nd5  1  0.252630  0.998295  0.750000  1
  Nd  Nd6  1  0.000000  0.254968  0.750000  1
  Nd  Nd7  1  0.252352  0.253690  0.250000  1
  Nd  Nd8  1  0.747648  0.001338  0.250000  1
  Nd  Nd9  1  0.000000  0.743671  0.250000  1
  Tl  Tl10  1  0.000000  0.384691  0.250000  1
  Te  Te11  1  0.383562  0.385710  0.750000  1
  Te  Te12  1  0.616438  0.002149  0.750000  1
  Te  Te13  1  0.000000  0.613095  0.750000  1
  Te  Te14  1  0.614713  0.614666  0.250000  1
  Te  Te15  1  0.385287  0.999953  0.250000  1
