# generated using pymatgen
data_CsPt2F11
_symmetry_space_group_name_H-M   'P 1'
_cell_length_a   7.72974600
_cell_length_b   9.55131805
_cell_length_c   14.28890300
_cell_angle_alpha   90.00000000
_cell_angle_beta   90.00000000
_cell_angle_gamma   112.93545835
_symmetry_Int_Tables_number   1
_chemical_formula_structural   CsPt2F11
_chemical_formula_sum   'Cs4 Pt8 F44'
_cell_volume   971.54033551
_cell_formula_units_Z   4
loop_
 _symmetry_equiv_pos_site_id
 _symmetry_equiv_pos_as_xyz
  1  'x, y, z'
loop_
 _atom_site_type_symbol
 _atom_site_label
 _atom_site_symmetry_multiplicity
 _atom_site_fract_x
 _atom_site_fract_y
 _atom_site_fract_z
 _atom_site_occupancy
  Cs  Cs0  1  0.982083  0.722400  0.371183  1
  Cs  Cs1  1  0.017917  0.277600  0.628817  1
  Cs  Cs2  1  0.482083  0.222400  0.128817  1
  Cs  Cs3  1  0.517917  0.777600  0.871183  1
  Pt  Pt4  1  0.026767  0.752494  0.052669  1
  Pt  Pt5  1  0.973233  0.247506  0.947331  1
  Pt  Pt6  1  0.526767  0.252494  0.447331  1
  Pt  Pt7  1  0.404297  0.689645  0.193468  1
  Pt  Pt8  1  0.595703  0.310355  0.806532  1
  Pt  Pt9  1  0.095703  0.810355  0.693468  1
  Pt  Pt10  1  0.904297  0.189645  0.306532  1
  Pt  Pt11  1  0.473233  0.747506  0.552669  1
  F  F12  1  0.097552  0.997557  0.644398  1
  F  F13  1  0.936960  0.350245  0.055537  1
  F  F14  1  0.604293  0.654959  0.478086  1
  F  F15  1  0.636722  0.725474  0.255443  1
  F  F16  1  0.363278  0.274526  0.744557  1
  F  F17  1  0.148855  0.637596  0.131652  1
  F  F18  1  0.136722  0.225474  0.244557  1
  F  F19  1  0.769850  0.088445  0.197433  1
  F  F20  1  0.863278  0.774526  0.755443  1
  F  F21  1  0.395707  0.345041  0.521914  1
  F  F22  1  0.230150  0.911555  0.802567  1
  F  F23  1  0.497203  0.641275  0.662432  1
  F  F24  1  0.436960  0.850245  0.444463  1
  F  F25  1  0.597552  0.497557  0.855602  1
  F  F26  1  0.897160  0.376382  0.260493  1
  F  F27  1  0.602840  0.123618  0.760493  1
  F  F28  1  0.563040  0.149755  0.555537  1
  F  F29  1  0.264733  0.914509  0.026308  1
  F  F30  1  0.962104  0.708329  0.584285  1
  F  F31  1  0.730150  0.411555  0.697433  1
  F  F32  1  0.291680  0.089372  0.420260  1
  F  F33  1  0.735267  0.085491  0.973692  1
  F  F34  1  0.997203  0.141275  0.837568  1
  F  F35  1  0.402448  0.502443  0.144398  1
  F  F36  1  0.269850  0.588445  0.302567  1
  F  F37  1  0.648855  0.137596  0.368348  1
  F  F38  1  0.208320  0.410628  0.920260  1
  F  F39  1  0.104293  0.154959  0.021914  1
  F  F40  1  0.902448  0.002443  0.355602  1
  F  F41  1  0.037896  0.291671  0.415715  1
  F  F42  1  0.791680  0.589372  0.079740  1
  F  F43  1  0.397160  0.876382  0.239507  1
  F  F44  1  0.063040  0.649755  0.944463  1
  F  F45  1  0.351145  0.862404  0.631652  1
  F  F46  1  0.102840  0.623618  0.739507  1
  F  F47  1  0.235267  0.585491  0.526308  1
  F  F48  1  0.708320  0.910628  0.579740  1
  F  F49  1  0.764733  0.414509  0.473692  1
  F  F50  1  0.895707  0.845041  0.978086  1
  F  F51  1  0.502797  0.358725  0.337568  1
  F  F52  1  0.002797  0.858725  0.162432  1
  F  F53  1  0.537896  0.791671  0.084285  1
  F  F54  1  0.851145  0.362404  0.868348  1
  F  F55  1  0.462104  0.208329  0.915715  1
