# generated using pymatgen
data_YTm3Hg2
_symmetry_space_group_name_H-M   'P 1'
_cell_length_a   5.04168800
_cell_length_b   7.02295800
_cell_length_c   9.15412900
_cell_angle_alpha   90.00000000
_cell_angle_beta   90.00000000
_cell_angle_gamma   90.00000000
_symmetry_Int_Tables_number   1
_chemical_formula_structural   YTm3Hg2
_chemical_formula_sum   'Y2 Tm6 Hg4'
_cell_volume   324.12539995
_cell_formula_units_Z   2
loop_
 _symmetry_equiv_pos_site_id
 _symmetry_equiv_pos_as_xyz
  1  'x, y, z'
loop_
 _atom_site_type_symbol
 _atom_site_label
 _atom_site_symmetry_multiplicity
 _atom_site_fract_x
 _atom_site_fract_y
 _atom_site_fract_z
 _atom_site_occupancy
  Y  Y0  1  0.750000  0.016154  0.693827  1
  Y  Y1  1  0.750000  0.516154  0.806173  1
  Tm  Tm2  1  0.250000  0.834122  0.927321  1
  Tm  Tm3  1  0.250000  0.334122  0.572679  1
  Tm  Tm4  1  0.750000  0.166735  0.077833  1
  Tm  Tm5  1  0.750000  0.666735  0.422167  1
  Tm  Tm6  1  0.250000  0.983456  0.308027  1
  Tm  Tm7  1  0.250000  0.483456  0.191973  1
  Hg  Hg8  1  0.250000  0.259271  0.897958  1
  Hg  Hg9  1  0.250000  0.759271  0.602042  1
  Hg  Hg10  1  0.750000  0.740264  0.102259  1
  Hg  Hg11  1  0.750000  0.240264  0.397741  1
