# generated using pymatgen
data_Y3MoO6
_symmetry_space_group_name_H-M   'P 1'
_cell_length_a   6.65096738
_cell_length_b   6.65096646
_cell_length_c   6.65096702
_cell_angle_alpha   92.10480329
_cell_angle_beta   92.10479000
_cell_angle_gamma   92.10479745
_symmetry_Int_Tables_number   1
_chemical_formula_structural   Y3MoO6
_chemical_formula_sum   'Y6 Mo2 O12'
_cell_volume   293.59743225
_cell_formula_units_Z   2
loop_
 _symmetry_equiv_pos_site_id
 _symmetry_equiv_pos_as_xyz
  1  'x, y, z'
loop_
 _atom_site_type_symbol
 _atom_site_label
 _atom_site_symmetry_multiplicity
 _atom_site_fract_x
 _atom_site_fract_y
 _atom_site_fract_z
 _atom_site_occupancy
  Y  Y0  1  0.746786  0.930949  0.439413  1
  Y  Y1  1  0.930949  0.439413  0.746786  1
  Y  Y2  1  0.439413  0.746786  0.930949  1
  Y  Y3  1  0.253214  0.069051  0.560587  1
  Y  Y4  1  0.069051  0.560587  0.253214  1
  Y  Y5  1  0.560587  0.253214  0.069051  1
  Mo  Mo6  1  0.500000  0.500000  0.500000  1
  Mo  Mo7  1  0.000000  0.000000  0.000000  1
  O  O8  1  0.596121  0.465807  0.810240  1
  O  O9  1  0.465807  0.810240  0.596121  1
  O  O10  1  0.810240  0.596121  0.465807  1
  O  O11  1  0.403879  0.534193  0.189760  1
  O  O12  1  0.534193  0.189760  0.403879  1
  O  O13  1  0.189760  0.403879  0.534193  1
  O  O14  1  0.069521  0.910104  0.309478  1
  O  O15  1  0.910104  0.309478  0.069521  1
  O  O16  1  0.690522  0.930479  0.089896  1
  O  O17  1  0.089896  0.690522  0.930479  1
  O  O18  1  0.930479  0.089896  0.690522  1
  O  O19  1  0.309478  0.069521  0.910104  1
