# generated using pymatgen
data_Tm2Lu2Pd3RuO14
_symmetry_space_group_name_H-M   'P 1'
_cell_length_a   7.14201013
_cell_length_b   7.14011796
_cell_length_c   7.19457837
_cell_angle_alpha   60.22894340
_cell_angle_beta   60.24140309
_cell_angle_gamma   59.99123154
_symmetry_Int_Tables_number   1
_chemical_formula_structural   Tm2Lu2Pd3RuO14
_chemical_formula_sum   'Tm2 Lu2 Pd3 Ru1 O14'
_cell_volume   260.32857898
_cell_formula_units_Z   1
loop_
 _symmetry_equiv_pos_site_id
 _symmetry_equiv_pos_as_xyz
  1  'x, y, z'
loop_
 _atom_site_type_symbol
 _atom_site_label
 _atom_site_symmetry_multiplicity
 _atom_site_fract_x
 _atom_site_fract_y
 _atom_site_fract_z
 _atom_site_occupancy
  Tm  Tm0  1  0.125000  0.125000  0.125000  1
  Tm  Tm1  1  0.625000  0.125000  0.125000  1
  Lu  Lu2  1  0.125000  0.125000  0.625000  1
  Lu  Lu3  1  0.125000  0.625000  0.125000  1
  Pd  Pd4  1  0.625000  0.625000  0.625000  1
  Pd  Pd5  1  0.125000  0.625000  0.625000  1
  Pd  Pd6  1  0.625000  0.125000  0.625000  1
  Ru  Ru7  1  0.625000  0.625000  0.125000  1
  O  O8  1  0.287843  0.713599  0.283293  1
  O  O9  1  0.280014  0.280031  0.721118  1
  O  O10  1  0.535687  0.962023  0.966604  1
  O  O11  1  0.531164  0.969969  0.528882  1
  O  O12  1  0.534736  0.536401  0.966707  1
  O  O13  1  0.279873  0.718010  0.722243  1
  O  O14  1  0.962157  0.536401  0.966707  1
  O  O15  1  0.714313  0.287977  0.283396  1
  O  O16  1  0.718836  0.280031  0.721118  1
  O  O17  1  0.715264  0.713599  0.283293  1
  O  O18  1  0.248556  0.251941  0.250948  1
  O  O19  1  0.969986  0.969969  0.528882  1
  O  O20  1  0.970127  0.531990  0.527757  1
  O  O21  1  0.001444  0.998059  0.999052  1
