# generated using pymatgen
data_TbYb2Pa(B4Os)4
_symmetry_space_group_name_H-M   'P 1'
_cell_length_a   3.57461700
_cell_length_b   5.97204501
_cell_length_c   11.53909621
_cell_angle_alpha   90.00684003
_cell_angle_beta   90.00000000
_cell_angle_gamma   90.00000000
_symmetry_Int_Tables_number   1
_chemical_formula_structural   TbYb2Pa(B4Os)4
_chemical_formula_sum   'Tb1 Yb2 Pa1 B16 Os4'
_cell_volume   246.33401204
_cell_formula_units_Z   1
loop_
 _symmetry_equiv_pos_site_id
 _symmetry_equiv_pos_as_xyz
  1  'x, y, z'
loop_
 _atom_site_type_symbol
 _atom_site_label
 _atom_site_symmetry_multiplicity
 _atom_site_fract_x
 _atom_site_fract_y
 _atom_site_fract_z
 _atom_site_occupancy
  Tb  Tb0  1  0.000000  0.871494  0.347137  1
  Yb  Yb1  1  0.000000  0.627725  0.853581  1
  Yb  Yb2  1  0.000000  0.371312  0.148745  1
  Pa  Pa3  1  0.000000  0.128853  0.652248  1
  B  B4  1  0.500000  0.472328  0.691175  1
  B  B5  1  0.500000  0.524798  0.307888  1
  B  B6  1  0.500000  0.976050  0.809646  1
  B  B7  1  0.500000  0.025629  0.190392  1
  B  B8  1  0.500000  0.288067  0.814703  1
  B  B9  1  0.500000  0.711220  0.184046  1
  B  B10  1  0.500000  0.789580  0.685909  1
  B  B11  1  0.500000  0.215166  0.312513  1
  B  B12  1  0.500000  0.362602  0.970049  1
  B  B13  1  0.500000  0.635946  0.029638  1
  B  B14  1  0.500000  0.865104  0.530971  1
  B  B15  1  0.500000  0.136673  0.468998  1
  B  B16  1  0.500000  0.388637  0.546124  1
  B  B17  1  0.500000  0.611380  0.451662  1
  B  B18  1  0.500000  0.885340  0.954380  1
  B  B19  1  0.500000  0.112956  0.046255  1
  Os  Os20  1  0.000000  0.138110  0.906408  1
  Os  Os21  1  0.000000  0.861274  0.091717  1
  Os  Os22  1  0.000000  0.642782  0.595822  1
  Os  Os23  1  0.000000  0.356974  0.409995  1
