# generated using pymatgen
data_LiY2Ho17(Cd3Ru)2
_symmetry_space_group_name_H-M   'P 1'
_cell_length_a   9.50886500
_cell_length_b   9.50881083
_cell_length_c   9.72396000
_cell_angle_alpha   89.99707362
_cell_angle_beta   90.00221643
_cell_angle_gamma   120.00006910
_symmetry_Int_Tables_number   1
_chemical_formula_structural   LiY2Ho17(Cd3Ru)2
_chemical_formula_sum   'Li1 Y2 Ho17 Cd6 Ru2'
_cell_volume   761.42719093
_cell_formula_units_Z   1
loop_
 _symmetry_equiv_pos_site_id
 _symmetry_equiv_pos_as_xyz
  1  'x, y, z'
loop_
 _atom_site_type_symbol
 _atom_site_label
 _atom_site_symmetry_multiplicity
 _atom_site_fract_x
 _atom_site_fract_y
 _atom_site_fract_z
 _atom_site_occupancy
  Li  Li0  1  0.000003  0.000002  0.499990  1
  Y  Y1  1  0.458471  0.916755  0.748041  1
  Y  Y2  1  0.083243  0.541524  0.748041  1
  Ho  Ho3  1  0.999978  0.000022  0.999951  1
  Ho  Ho4  1  0.208293  0.791705  0.440156  1
  Ho  Ho5  1  0.208469  0.416697  0.440320  1
  Ho  Ho6  1  0.583304  0.791534  0.440319  1
  Ho  Ho7  1  0.791628  0.208370  0.559408  1
  Ho  Ho8  1  0.791436  0.583263  0.559499  1
  Ho  Ho9  1  0.416736  0.208562  0.559499  1
  Ho  Ho10  1  0.789279  0.210721  0.941554  1
  Ho  Ho11  1  0.789094  0.578570  0.941454  1
  Ho  Ho12  1  0.421430  0.210905  0.941455  1
  Ho  Ho13  1  0.210643  0.789357  0.058894  1
  Ho  Ho14  1  0.210798  0.421345  0.058749  1
  Ho  Ho15  1  0.578655  0.789203  0.058749  1
  Ho  Ho16  1  0.541665  0.458334  0.251986  1
  Ho  Ho17  1  0.541670  0.083305  0.252005  1
  Ho  Ho18  1  0.916696  0.458333  0.252005  1
  Ho  Ho19  1  0.458594  0.541409  0.747993  1
  Cd  Cd20  1  0.888203  0.111796  0.257938  1
  Cd  Cd21  1  0.888190  0.776405  0.257938  1
  Cd  Cd22  1  0.223593  0.111809  0.257940  1
  Cd  Cd23  1  0.111623  0.888378  0.742037  1
  Cd  Cd24  1  0.111869  0.223485  0.742048  1
  Cd  Cd25  1  0.776517  0.888131  0.742051  1
  Ru  Ru26  1  0.333323  0.666672  0.250474  1
  Ru  Ru27  1  0.666595  0.333409  0.749507  1
