# generated using pymatgen
data_Li2La2Ni15
_symmetry_space_group_name_H-M   'P 1'
_cell_length_a   8.42493600
_cell_length_b   8.42493685
_cell_length_c   8.07103900
_cell_angle_alpha   90.00000000
_cell_angle_beta   90.00000000
_cell_angle_gamma   120.00000453
_symmetry_Int_Tables_number   1
_chemical_formula_structural   Li2La2Ni15
_chemical_formula_sum   'Li4 La4 Ni30'
_cell_volume   496.12752494
_cell_formula_units_Z   2
loop_
 _symmetry_equiv_pos_site_id
 _symmetry_equiv_pos_as_xyz
  1  'x, y, z'
loop_
 _atom_site_type_symbol
 _atom_site_label
 _atom_site_symmetry_multiplicity
 _atom_site_fract_x
 _atom_site_fract_y
 _atom_site_fract_z
 _atom_site_occupancy
  Li  Li0  1  0.333333  0.666667  0.386595  1
  Li  Li1  1  0.666667  0.333333  0.613405  1
  Li  Li2  1  0.666667  0.333333  0.886595  1
  Li  Li3  1  0.333333  0.666667  0.113405  1
  La  La4  1  0.000000  0.000000  0.250000  1
  La  La5  1  0.000000  0.000000  0.750000  1
  La  La6  1  0.333333  0.666667  0.750000  1
  La  La7  1  0.666667  0.333333  0.250000  1
  Ni  Ni8  1  0.500000  0.500000  0.500000  1
  Ni  Ni9  1  0.500000  0.000000  0.500000  1
  Ni  Ni10  1  0.000000  0.500000  0.500000  1
  Ni  Ni11  1  0.500000  0.500000  0.000000  1
  Ni  Ni12  1  0.500000  0.000000  0.000000  1
  Ni  Ni13  1  0.000000  0.500000  0.000000  1
  Ni  Ni14  1  0.328275  0.366986  0.250000  1
  Ni  Ni15  1  0.633014  0.961288  0.250000  1
  Ni  Ni16  1  0.038712  0.671725  0.250000  1
  Ni  Ni17  1  0.633014  0.671725  0.250000  1
  Ni  Ni18  1  0.038712  0.366986  0.250000  1
  Ni  Ni19  1  0.328275  0.961288  0.250000  1
  Ni  Ni20  1  0.671725  0.633014  0.750000  1
  Ni  Ni21  1  0.366986  0.038712  0.750000  1
  Ni  Ni22  1  0.961288  0.328275  0.750000  1
  Ni  Ni23  1  0.366986  0.328275  0.750000  1
  Ni  Ni24  1  0.961288  0.633014  0.750000  1
  Ni  Ni25  1  0.671725  0.038712  0.750000  1
  Ni  Ni26  1  0.166785  0.833215  0.516159  1
  Ni  Ni27  1  0.166785  0.333569  0.516159  1
  Ni  Ni28  1  0.666431  0.833215  0.516159  1
  Ni  Ni29  1  0.833215  0.166785  0.483841  1
  Ni  Ni30  1  0.833215  0.666431  0.483841  1
  Ni  Ni31  1  0.333569  0.166785  0.483841  1
  Ni  Ni32  1  0.833215  0.166785  0.016159  1
  Ni  Ni33  1  0.833215  0.666431  0.016159  1
  Ni  Ni34  1  0.333569  0.166785  0.016159  1
  Ni  Ni35  1  0.166785  0.833215  0.983841  1
  Ni  Ni36  1  0.166785  0.333569  0.983841  1
  Ni  Ni37  1  0.666431  0.833215  0.983841  1
