# generated using pymatgen
data_DyLu15(In3Os)2
_symmetry_space_group_name_H-M   'P 1'
_cell_length_a   10.19467500
_cell_length_b   10.19467615
_cell_length_c   6.95738400
_cell_angle_alpha   90.00000000
_cell_angle_beta   90.00000000
_cell_angle_gamma   120.00000599
_symmetry_Int_Tables_number   1
_chemical_formula_structural   DyLu15(In3Os)2
_chemical_formula_sum   'Dy1 Lu15 In6 Os2'
_cell_volume   626.21490352
_cell_formula_units_Z   1
loop_
 _symmetry_equiv_pos_site_id
 _symmetry_equiv_pos_as_xyz
  1  'x, y, z'
loop_
 _atom_site_type_symbol
 _atom_site_label
 _atom_site_symmetry_multiplicity
 _atom_site_fract_x
 _atom_site_fract_y
 _atom_site_fract_z
 _atom_site_occupancy
  Dy  Dy0  1  0.000000  0.000000  0.999411  1
  Lu  Lu1  1  0.532616  0.065233  0.514606  1
  Lu  Lu2  1  0.934767  0.467384  0.514606  1
  Lu  Lu3  1  0.532616  0.467384  0.514606  1
  Lu  Lu4  1  0.467380  0.934760  0.014579  1
  Lu  Lu5  1  0.065240  0.532620  0.014579  1
  Lu  Lu6  1  0.467380  0.532620  0.014579  1
  Lu  Lu7  1  0.177716  0.355433  0.718201  1
  Lu  Lu8  1  0.644567  0.822284  0.718201  1
  Lu  Lu9  1  0.177716  0.822284  0.718201  1
  Lu  Lu10  1  0.822175  0.644351  0.219602  1
  Lu  Lu11  1  0.355649  0.177825  0.219602  1
  Lu  Lu12  1  0.822175  0.177825  0.219602  1
  Lu  Lu13  1  0.666667  0.333333  0.893788  1
  Lu  Lu14  1  0.333333  0.666667  0.395100  1
  Lu  Lu15  1  0.000000  0.000000  0.498795  1
  In  In16  1  0.836283  0.672566  0.760703  1
  In  In17  1  0.327434  0.163717  0.760703  1
  In  In18  1  0.836283  0.163717  0.760703  1
  In  In19  1  0.163627  0.327254  0.263501  1
  In  In20  1  0.672746  0.836373  0.263501  1
  In  In21  1  0.163627  0.836373  0.263501  1
  Os  Os22  1  0.666667  0.333333  0.291318  1
  Os  Os23  1  0.333333  0.666667  0.792214  1
