# generated using pymatgen
data_Hf4Nb2Re5Si6Ru
_symmetry_space_group_name_H-M   'P 1'
_cell_length_a   7.66580335
_cell_length_b   7.68930561
_cell_length_c   7.66550867
_cell_angle_alpha   126.00787659
_cell_angle_beta   127.37830188
_cell_angle_gamma   78.68781076
_symmetry_Int_Tables_number   1
_chemical_formula_structural   Hf4Nb2Re5Si6Ru
_chemical_formula_sum   'Hf4 Nb2 Re5 Si6 Ru1'
_cell_volume   281.22356150
_cell_formula_units_Z   1
loop_
 _symmetry_equiv_pos_site_id
 _symmetry_equiv_pos_as_xyz
  1  'x, y, z'
loop_
 _atom_site_type_symbol
 _atom_site_label
 _atom_site_symmetry_multiplicity
 _atom_site_fract_x
 _atom_site_fract_y
 _atom_site_fract_z
 _atom_site_occupancy
  Hf  Hf0  1  0.550378  0.089459  0.039976  1
  Hf  Hf1  1  0.449409  0.493325  0.544061  1
  Hf  Hf2  1  0.949470  0.493325  0.043827  1
  Hf  Hf3  1  0.049422  0.089440  0.539081  1
  Nb  Nb4  1  0.753624  0.905765  0.656555  1
  Nb  Nb5  1  0.249056  0.905621  0.151958  1
  Re  Re6  1  0.500621  0.246880  0.746159  1
  Re  Re7  1  0.000506  0.244775  0.244198  1
  Re  Re8  1  0.128174  0.751917  0.623810  1
  Re  Re9  1  0.872483  0.499152  0.626021  1
  Re  Re10  1  0.625895  0.751483  0.125500  1
  Si  Si11  1  0.747776  0.502223  0.253267  1
  Si  Si12  1  0.248721  0.502192  0.754679  1
  Si  Si13  1  0.337737  0.828747  0.490988  1
  Si  Si14  1  0.664659  0.159201  0.494457  1
  Si  Si15  1  0.835747  0.828149  0.992318  1
  Si  Si16  1  0.164757  0.157568  0.992951  1
  Ru  Ru17  1  0.371564  0.492977  0.122392  1
