# generated using pymatgen
data_Nb12Ga8CuRh3C4
_symmetry_space_group_name_H-M   'P 1'
_cell_length_a   8.34012099
_cell_length_b   8.34008348
_cell_length_c   8.34015727
_cell_angle_alpha   60.10619156
_cell_angle_beta   60.10584585
_cell_angle_gamma   60.10626951
_symmetry_Int_Tables_number   1
_chemical_formula_structural   Nb12Ga8CuRh3C4
_chemical_formula_sum   'Nb12 Ga8 Cu1 Rh3 C4'
_cell_volume   411.19211497
_cell_formula_units_Z   1
loop_
 _symmetry_equiv_pos_site_id
 _symmetry_equiv_pos_as_xyz
  1  'x, y, z'
loop_
 _atom_site_type_symbol
 _atom_site_label
 _atom_site_symmetry_multiplicity
 _atom_site_fract_x
 _atom_site_fract_y
 _atom_site_fract_z
 _atom_site_occupancy
  Nb  Nb0  1  0.685539  0.315078  0.685542  1
  Nb  Nb1  1  0.934925  0.564463  0.564455  1
  Nb  Nb2  1  0.566734  0.935330  0.935334  1
  Nb  Nb3  1  0.935328  0.566739  0.935328  1
  Nb  Nb4  1  0.564458  0.564462  0.934925  1
  Nb  Nb5  1  0.935331  0.935329  0.566735  1
  Nb  Nb6  1  0.685543  0.685537  0.315074  1
  Nb  Nb7  1  0.315077  0.685534  0.685544  1
  Nb  Nb8  1  0.683263  0.314674  0.314668  1
  Nb  Nb9  1  0.314670  0.314674  0.683262  1
  Nb  Nb10  1  0.564464  0.934920  0.564459  1
  Nb  Nb11  1  0.314669  0.683268  0.314666  1
  Ga  Ga12  1  0.334671  0.334680  0.334670  1
  Ga  Ga13  1  0.256149  0.915508  0.915513  1
  Ga  Ga14  1  0.915508  0.256151  0.915507  1
  Ga  Ga15  1  0.915516  0.915509  0.256145  1
  Ga  Ga16  1  0.334488  0.993850  0.334489  1
  Ga  Ga17  1  0.334493  0.334487  0.993854  1
  Ga  Ga18  1  0.993850  0.334488  0.334494  1
  Ga  Ga19  1  0.915325  0.915330  0.915324  1
  Cu  Cu20  1  0.124999  0.125004  0.124997  1
  Rh  Rh21  1  0.625003  0.124994  0.125021  1
  Rh  Rh22  1  0.124994  0.624994  0.124994  1
  Rh  Rh23  1  0.125005  0.124997  0.625002  1
  C  C24  1  0.624998  0.625007  0.624997  1
  C  C25  1  0.124997  0.624999  0.625005  1
  C  C26  1  0.624998  0.124998  0.624999  1
  C  C27  1  0.625005  0.624998  0.124997  1
