# generated using pymatgen
data_Re2TcAs4
_symmetry_space_group_name_H-M   'P 1'
_cell_length_a   6.71585369
_cell_length_b   6.71585334
_cell_length_c   6.31085100
_cell_angle_alpha   113.27258758
_cell_angle_beta   113.27258795
_cell_angle_gamma   26.86410725
_symmetry_Int_Tables_number   1
_chemical_formula_structural   Re2TcAs4
_chemical_formula_sum   'Re2 Tc1 As4'
_cell_volume   117.53020572
_cell_formula_units_Z   1
loop_
 _symmetry_equiv_pos_site_id
 _symmetry_equiv_pos_as_xyz
  1  'x, y, z'
loop_
 _atom_site_type_symbol
 _atom_site_label
 _atom_site_symmetry_multiplicity
 _atom_site_fract_x
 _atom_site_fract_y
 _atom_site_fract_z
 _atom_site_occupancy
  Re  Re0  1  0.260795  0.260795  0.321941  1
  Re  Re1  1  0.739205  0.739205  0.678058  1
  Tc  Tc2  1  0.000000  0.000000  0.000000  1
  As  As3  1  0.353672  0.353672  0.028512  1
  As  As4  1  0.089518  0.089518  0.432023  1
  As  As5  1  0.910482  0.910482  0.567978  1
  As  As6  1  0.646328  0.646328  0.971488  1
