# generated using pymatgen
data_LiV17(Si6Os)2
_symmetry_space_group_name_H-M   'P 1'
_cell_length_a   7.02736407
_cell_length_b   7.02736476
_cell_length_c   13.22291900
_cell_angle_alpha   90.00000000
_cell_angle_beta   90.00000000
_cell_angle_gamma   140.33476882
_symmetry_Int_Tables_number   1
_chemical_formula_structural   LiV17(Si6Os)2
_chemical_formula_sum   'Li1 V17 Si12 Os2'
_cell_volume   416.80956825
_cell_formula_units_Z   1
loop_
 _symmetry_equiv_pos_site_id
 _symmetry_equiv_pos_as_xyz
  1  'x, y, z'
loop_
 _atom_site_type_symbol
 _atom_site_label
 _atom_site_symmetry_multiplicity
 _atom_site_fract_x
 _atom_site_fract_y
 _atom_site_fract_z
 _atom_site_occupancy
  Li  Li0  1  0.002320  0.002320  0.000000  1
  V  V1  1  0.070576  0.420954  0.399582  1
  V  V2  1  0.573298  0.931984  0.901003  1
  V  V3  1  0.420954  0.070576  0.600418  1
  V  V4  1  0.931984  0.573298  0.098997  1
  V  V5  1  0.848938  0.651069  0.677033  1
  V  V6  1  0.353007  0.152107  0.177978  1
  V  V7  1  0.651069  0.848938  0.322967  1
  V  V8  1  0.152107  0.353007  0.822022  1
  V  V9  1  0.651069  0.848938  0.677033  1
  V  V10  1  0.152107  0.353007  0.177978  1
  V  V11  1  0.848938  0.651069  0.322967  1
  V  V12  1  0.353007  0.152107  0.822022  1
  V  V13  1  0.420954  0.070576  0.399582  1
  V  V14  1  0.931984  0.573298  0.901003  1
  V  V15  1  0.070576  0.420954  0.600418  1
  V  V16  1  0.573298  0.931984  0.098997  1
  V  V17  1  0.996042  0.996042  0.500000  1
  Si  Si18  1  0.250863  0.749826  0.750148  1
  Si  Si19  1  0.749826  0.250863  0.249852  1
  Si  Si20  1  0.749826  0.250863  0.750148  1
  Si  Si21  1  0.250863  0.749826  0.249852  1
  Si  Si22  1  0.240981  0.240981  0.666409  1
  Si  Si23  1  0.765226  0.765226  0.160660  1
  Si  Si24  1  0.240981  0.240981  0.333591  1
  Si  Si25  1  0.765226  0.765226  0.839340  1
  Si  Si26  1  0.583218  0.917996  0.500000  1
  Si  Si27  1  0.081888  0.401020  0.000000  1
  Si  Si28  1  0.917996  0.583218  0.500000  1
  Si  Si29  1  0.401020  0.081888  0.000000  1
  Os  Os30  1  0.502845  0.502845  0.000000  1
  Os  Os31  1  0.497009  0.497009  0.500000  1
