# generated using pymatgen
data_Fe(WBr3)2
_symmetry_space_group_name_H-M   'P 1'
_cell_length_a   9.96888678
_cell_length_b   9.96888620
_cell_length_c   12.04917300
_cell_angle_alpha   90.00000000
_cell_angle_beta   90.00000000
_cell_angle_gamma   106.43005167
_symmetry_Int_Tables_number   1
_chemical_formula_structural   Fe(WBr3)2
_chemical_formula_sum   'Fe4 W8 Br24'
_cell_volume   1148.53492623
_cell_formula_units_Z   4
loop_
 _symmetry_equiv_pos_site_id
 _symmetry_equiv_pos_as_xyz
  1  'x, y, z'
loop_
 _atom_site_type_symbol
 _atom_site_label
 _atom_site_symmetry_multiplicity
 _atom_site_fract_x
 _atom_site_fract_y
 _atom_site_fract_z
 _atom_site_occupancy
  Fe  Fe0  1  0.067513  0.067513  0.868451  1
  Fe  Fe1  1  0.432487  0.432487  0.368451  1
  Fe  Fe2  1  0.567513  0.567513  0.631549  1
  Fe  Fe3  1  0.932487  0.932487  0.131549  1
  W  W4  1  0.861130  0.861130  0.930652  1
  W  W5  1  0.638870  0.638870  0.430652  1
  W  W6  1  0.361130  0.361130  0.569348  1
  W  W7  1  0.138870  0.138870  0.069348  1
  W  W8  1  0.383620  0.616380  0.500000  1
  W  W9  1  0.116380  0.883620  0.000000  1
  W  W10  1  0.616380  0.383620  0.500000  1
  W  W11  1  0.883620  0.116380  0.000000  1
  Br  Br12  1  0.659427  0.659427  0.841286  1
  Br  Br13  1  0.840573  0.840573  0.341286  1
  Br  Br14  1  0.159427  0.159427  0.658714  1
  Br  Br15  1  0.340573  0.340573  0.158714  1
  Br  Br16  1  0.223506  0.776494  0.500000  1
  Br  Br17  1  0.276494  0.723506  0.000000  1
  Br  Br18  1  0.776494  0.223506  0.500000  1
  Br  Br19  1  0.723506  0.276494  0.000000  1
  Br  Br20  1  0.325131  0.092256  0.932567  1
  Br  Br21  1  0.174869  0.407744  0.432567  1
  Br  Br22  1  0.592256  0.825131  0.567433  1
  Br  Br23  1  0.907744  0.674869  0.067433  1
  Br  Br24  1  0.954406  0.186936  0.206607  1
  Br  Br25  1  0.545594  0.313064  0.706607  1
  Br  Br26  1  0.686936  0.454406  0.293393  1
  Br  Br27  1  0.813064  0.045594  0.793393  1
  Br  Br28  1  0.045594  0.813064  0.793393  1
  Br  Br29  1  0.454406  0.686936  0.293393  1
  Br  Br30  1  0.313064  0.545594  0.706607  1
  Br  Br31  1  0.186936  0.954406  0.206607  1
  Br  Br32  1  0.092256  0.325131  0.932567  1
  Br  Br33  1  0.407744  0.174869  0.432567  1
  Br  Br34  1  0.825131  0.592256  0.567433  1
  Br  Br35  1  0.674869  0.907744  0.067433  1
