# generated using pymatgen
data_Y4Al18CuOs2Pt2Rh
_symmetry_space_group_name_H-M   'P 1'
_cell_length_a   7.55809681
_cell_length_b   7.55809717
_cell_length_c   9.49708700
_cell_angle_alpha   90.02649460
_cell_angle_beta   90.02648702
_cell_angle_gamma   118.94639514
_symmetry_Int_Tables_number   1
_chemical_formula_structural   Y4Al18CuOs2Pt2Rh
_chemical_formula_sum   'Y4 Al18 Cu1 Os2 Pt2 Rh1'
_cell_volume   474.74390082
_cell_formula_units_Z   1
loop_
 _symmetry_equiv_pos_site_id
 _symmetry_equiv_pos_as_xyz
  1  'x, y, z'
loop_
 _atom_site_type_symbol
 _atom_site_label
 _atom_site_symmetry_multiplicity
 _atom_site_fract_x
 _atom_site_fract_y
 _atom_site_fract_z
 _atom_site_occupancy
  Y  Y0  1  0.994817  0.676232  0.250796  1
  Y  Y1  1  0.007242  0.325453  0.749672  1
  Y  Y2  1  0.674547  0.992758  0.250328  1
  Y  Y3  1  0.323768  0.005183  0.749204  1
  Al  Al4  1  0.129911  0.131015  0.250473  1
  Al  Al5  1  0.868985  0.870089  0.749527  1
  Al  Al6  1  0.000126  0.332930  0.075329  1
  Al  Al7  1  0.998957  0.668021  0.923711  1
  Al  Al8  1  0.997180  0.663076  0.575262  1
  Al  Al9  1  0.336924  0.002820  0.424738  1
  Al  Al10  1  0.996310  0.331581  0.424833  1
  Al  Al11  1  0.668419  0.003690  0.575167  1
  Al  Al12  1  0.667070  0.999874  0.924671  1
  Al  Al13  1  0.331979  0.001043  0.076289  1
  Al  Al14  1  0.331907  0.329227  0.549849  1
  Al  Al15  1  0.670773  0.668093  0.450151  1
  Al  Al16  1  0.670829  0.671134  0.051112  1
  Al  Al17  1  0.328866  0.329171  0.948888  1
  Al  Al18  1  0.342958  0.550587  0.251682  1
  Al  Al19  1  0.656514  0.448114  0.746871  1
  Al  Al20  1  0.551886  0.343486  0.253129  1
  Al  Al21  1  0.449413  0.657042  0.748318  1
  Cu  Cu22  1  0.329438  0.670562  0.500000  1
  Os  Os23  1  0.999516  0.000484  0.000000  1
  Os  Os24  1  0.001188  0.998812  0.500000  1
  Pt  Pt25  1  0.671339  0.328661  0.000000  1
  Pt  Pt26  1  0.327881  0.672119  0.000000  1
  Rh  Rh27  1  0.671255  0.328745  0.500000  1
