# generated using pymatgen
data_Lu8Mg2Zn3NiSb2
_symmetry_space_group_name_H-M   'P 1'
_cell_length_a   8.33416020
_cell_length_b   8.33416140
_cell_length_c   8.40551779
_cell_angle_alpha   126.10717221
_cell_angle_beta   126.10718159
_cell_angle_gamma   79.12387324
_symmetry_Int_Tables_number   1
_chemical_formula_structural   Lu8Mg2Zn3NiSb2
_chemical_formula_sum   'Lu8 Mg2 Zn3 Ni1 Sb2'
_cell_volume   369.66554784
_cell_formula_units_Z   1
loop_
 _symmetry_equiv_pos_site_id
 _symmetry_equiv_pos_as_xyz
  1  'x, y, z'
loop_
 _atom_site_type_symbol
 _atom_site_label
 _atom_site_symmetry_multiplicity
 _atom_site_fract_x
 _atom_site_fract_y
 _atom_site_fract_z
 _atom_site_occupancy
  Lu  Lu0  1  0.787750  0.302584  0.811215  1
  Lu  Lu1  1  0.197416  0.712250  0.188785  1
  Lu  Lu2  1  0.476534  0.991369  0.188785  1
  Lu  Lu3  1  0.309337  0.464431  0.500000  1
  Lu  Lu4  1  0.035569  0.190663  0.500000  1
  Lu  Lu5  1  0.508631  0.023466  0.811215  1
  Lu  Lu6  1  0.699443  0.517443  0.500000  1
  Lu  Lu7  1  0.982557  0.800557  0.500000  1
  Mg  Mg8  1  0.000322  0.999828  0.000150  1
  Mg  Mg9  1  0.500172  0.499678  0.999850  1
  Zn  Zn10  1  0.135962  0.632495  0.768458  1
  Zn  Zn11  1  0.867505  0.364038  0.231542  1
  Zn  Zn12  1  0.631027  0.868973  0.500000  1
  Ni  Ni13  1  0.378194  0.121806  0.500000  1
  Sb  Sb14  1  0.244790  0.255210  0.000000  1
  Sb  Sb15  1  0.744790  0.755210  0.000000  1
