# generated using pymatgen
data_La2PdPtPb
_symmetry_space_group_name_H-M   'P 1'
_cell_length_a   8.14274800
_cell_length_b   8.14264400
_cell_length_c   3.87596700
_cell_angle_alpha   90.00000000
_cell_angle_beta   90.00000000
_cell_angle_gamma   90.00000000
_symmetry_Int_Tables_number   1
_chemical_formula_structural   La2PdPtPb
_chemical_formula_sum   'La4 Pd2 Pt2 Pb2'
_cell_volume   256.99017080
_cell_formula_units_Z   2
loop_
 _symmetry_equiv_pos_site_id
 _symmetry_equiv_pos_as_xyz
  1  'x, y, z'
loop_
 _atom_site_type_symbol
 _atom_site_label
 _atom_site_symmetry_multiplicity
 _atom_site_fract_x
 _atom_site_fract_y
 _atom_site_fract_z
 _atom_site_occupancy
  La  La0  1  0.667711  0.177717  0.500000  1
  La  La1  1  0.182112  0.326072  0.500000  1
  La  La2  1  0.832289  0.677717  0.500000  1
  La  La3  1  0.317888  0.826072  0.500000  1
  Pd  Pd4  1  0.628478  0.870474  0.000000  1
  Pd  Pd5  1  0.871522  0.370474  0.000000  1
  Pt  Pt6  1  0.378390  0.119379  0.000000  1
  Pt  Pt7  1  0.121610  0.619379  0.000000  1
  Pb  Pb8  1  0.993511  0.006358  0.000000  1
  Pb  Pb9  1  0.506489  0.506358  0.000000  1
