# generated using pymatgen
data_Hf5Zr7Zn12O2
_symmetry_space_group_name_H-M   'P 1'
_cell_length_a   8.51730253
_cell_length_b   8.49326829
_cell_length_c   8.53855885
_cell_angle_alpha   59.96852866
_cell_angle_beta   59.91194209
_cell_angle_gamma   59.91140633
_symmetry_Int_Tables_number   1
_chemical_formula_structural   Hf5Zr7Zn12O2
_chemical_formula_sum   'Hf5 Zr7 Zn12 O2'
_cell_volume   436.07609115
_cell_formula_units_Z   1
loop_
 _symmetry_equiv_pos_site_id
 _symmetry_equiv_pos_as_xyz
  1  'x, y, z'
loop_
 _atom_site_type_symbol
 _atom_site_label
 _atom_site_symmetry_multiplicity
 _atom_site_fract_x
 _atom_site_fract_y
 _atom_site_fract_z
 _atom_site_occupancy
  Hf  Hf0  1  0.057580  0.440946  0.444222  1
  Hf  Hf1  1  0.193147  0.192535  0.806706  1
  Hf  Hf2  1  0.807825  0.192088  0.193352  1
  Hf  Hf3  1  0.807881  0.192493  0.806019  1
  Hf  Hf4  1  0.057254  0.057451  0.443220  1
  Zr  Zr5  1  0.193728  0.807535  0.193986  1
  Zr  Zr6  1  0.442862  0.056100  0.445252  1
  Zr  Zr7  1  0.442774  0.057166  0.056225  1
  Zr  Zr8  1  0.444012  0.443116  0.056133  1
  Zr  Zr9  1  0.193395  0.808194  0.804848  1
  Zr  Zr10  1  0.056440  0.443119  0.055294  1
  Zr  Zr11  1  0.805575  0.807061  0.193810  1
  Zn  Zn12  1  0.833699  0.501013  0.831931  1
  Zn  Zn13  1  0.419181  0.416853  0.745344  1
  Zn  Zn14  1  0.748232  0.415584  0.418837  1
  Zn  Zn15  1  0.417496  0.417206  0.418494  1
  Zn  Zn16  1  0.832954  0.832554  0.502927  1
  Zn  Zn17  1  0.417546  0.744927  0.418560  1
  Zn  Zn18  1  0.832420  0.833075  0.830663  1
  Zn  Zn19  1  0.504718  0.832497  0.831244  1
  Zn  Zn20  1  0.625153  0.125049  0.624786  1
  Zn  Zn21  1  0.625320  0.624558  0.124957  1
  Zn  Zn22  1  0.124646  0.624956  0.624992  1
  Zn  Zn23  1  0.625565  0.624644  0.624984  1
  O  O24  1  0.997223  0.010264  0.995976  1
  O  O25  1  0.243376  0.249015  0.257238  1
