# generated using pymatgen
data_RbN7
_symmetry_space_group_name_H-M   'P 1'
_cell_length_a   4.44544307
_cell_length_b   7.35797116
_cell_length_c   9.24951612
_cell_angle_alpha   92.17366644
_cell_angle_beta   80.78328259
_cell_angle_gamma   55.93100087
_symmetry_Int_Tables_number   1
_chemical_formula_structural   RbN7
_chemical_formula_sum   'Rb1 N7'
_cell_volume   244.34955611
_cell_formula_units_Z   1
loop_
 _symmetry_equiv_pos_site_id
 _symmetry_equiv_pos_as_xyz
  1  'x, y, z'
loop_
 _atom_site_type_symbol
 _atom_site_label
 _atom_site_symmetry_multiplicity
 _atom_site_fract_x
 _atom_site_fract_y
 _atom_site_fract_z
 _atom_site_occupancy
  Rb  Rb0  1  0.353688  0.467337  0.546449  1
  N  N1  1  0.030340  0.476493  0.133510  1
  N  N2  1  0.575229  0.779484  0.531712  1
  N  N3  1  0.113111  0.168757  0.585493  1
  N  N4  1  0.930168  0.378001  0.180909  1
  N  N5  1  0.277396  0.841152  0.940855  1
  N  N6  1  0.260735  0.729047  0.863495  1
  N  N7  1  0.344259  0.974132  0.558462  1
