# generated using pymatgen
data_RbHg2F8
_symmetry_space_group_name_H-M   'P 1'
_cell_length_a   7.60113210
_cell_length_b   7.57293250
_cell_length_c   6.21571368
_cell_angle_alpha   110.85298280
_cell_angle_beta   110.99905674
_cell_angle_gamma   45.07646836
_symmetry_Int_Tables_number   1
_chemical_formula_structural   RbHg2F8
_chemical_formula_sum   'Rb1 Hg2 F8'
_cell_volume   233.62710784
_cell_formula_units_Z   1
loop_
 _symmetry_equiv_pos_site_id
 _symmetry_equiv_pos_as_xyz
  1  'x, y, z'
loop_
 _atom_site_type_symbol
 _atom_site_label
 _atom_site_symmetry_multiplicity
 _atom_site_fract_x
 _atom_site_fract_y
 _atom_site_fract_z
 _atom_site_occupancy
  Rb  Rb0  1  0.809060  0.191169  0.000958  1
  Hg  Hg1  1  0.499946  0.006326  0.255892  1
  Hg  Hg2  1  0.993630  0.500067  0.743869  1
  F  F3  1  0.874504  0.735272  0.052485  1
  F  F4  1  0.470875  0.746625  0.190602  1
  F  F5  1  0.532675  0.261224  0.311942  1
  F  F6  1  0.097588  0.285192  0.424890  1
  F  F7  1  0.715157  0.903624  0.576878  1
  F  F8  1  0.740064  0.466613  0.685807  1
  F  F9  1  0.251724  0.530322  0.811035  1
  F  F10  1  0.263638  0.124710  0.945640  1
