# generated using pymatgen
data_GaPt2Rh4W
_symmetry_space_group_name_H-M   'P 1'
_cell_length_a   3.87952300
_cell_length_b   3.82558900
_cell_length_c   7.77314200
_cell_angle_alpha   90.00000000
_cell_angle_beta   90.00000000
_cell_angle_gamma   90.00000000
_symmetry_Int_Tables_number   1
_chemical_formula_structural   GaPt2Rh4W
_chemical_formula_sum   'Ga1 Pt2 Rh4 W1'
_cell_volume   115.36478006
_cell_formula_units_Z   1
loop_
 _symmetry_equiv_pos_site_id
 _symmetry_equiv_pos_as_xyz
  1  'x, y, z'
loop_
 _atom_site_type_symbol
 _atom_site_label
 _atom_site_symmetry_multiplicity
 _atom_site_fract_x
 _atom_site_fract_y
 _atom_site_fract_z
 _atom_site_occupancy
  Ga  Ga0  1  0.000000  0.000000  0.000000  1
  Pt  Pt1  1  0.500000  0.000000  0.253344  1
  Pt  Pt2  1  0.500000  0.000000  0.746656  1
  Rh  Rh3  1  0.500000  0.500000  0.000000  1
  Rh  Rh4  1  0.500000  0.500000  0.500000  1
  Rh  Rh5  1  0.000000  0.500000  0.255543  1
  Rh  Rh6  1  0.000000  0.500000  0.744457  1
  W  W7  1  0.000000  0.000000  0.500000  1
