# generated using pymatgen
data_Lu4Ta2B4(IrRu)5
_symmetry_space_group_name_H-M   'P 1'
_cell_length_a   9.66579801
_cell_length_b   9.66621701
_cell_length_c   3.10255000
_cell_angle_alpha   90.00000000
_cell_angle_beta   90.00000000
_cell_angle_gamma   90.00423227
_symmetry_Int_Tables_number   1
_chemical_formula_structural   Lu4Ta2B4(IrRu)5
_chemical_formula_sum   'Lu4 Ta2 B4 Ir5 Ru5'
_cell_volume   289.87652338
_cell_formula_units_Z   1
loop_
 _symmetry_equiv_pos_site_id
 _symmetry_equiv_pos_as_xyz
  1  'x, y, z'
loop_
 _atom_site_type_symbol
 _atom_site_label
 _atom_site_symmetry_multiplicity
 _atom_site_fract_x
 _atom_site_fract_y
 _atom_site_fract_z
 _atom_site_occupancy
  Lu  Lu0  1  0.824623  0.674717  0.000000  1
  Lu  Lu1  1  0.173498  0.322619  0.000000  1
  Lu  Lu2  1  0.325675  0.829283  0.000000  1
  Lu  Lu3  1  0.675089  0.173552  0.000000  1
  Ta  Ta4  1  0.505222  0.498250  0.000000  1
  Ta  Ta5  1  0.999321  0.000080  0.000000  1
  B  B6  1  0.623888  0.886277  0.000000  1
  B  B7  1  0.375384  0.114295  0.000000  1
  B  B8  1  0.118447  0.616634  0.000000  1
  B  B9  1  0.877182  0.383698  0.000000  1
  Ir  Ir10  1  0.569850  0.719960  0.500000  1
  Ir  Ir11  1  0.428399  0.280716  0.500000  1
  Ir  Ir12  1  0.072384  0.779737  0.500000  1
  Ir  Ir13  1  0.928759  0.220019  0.500000  1
  Ir  Ir14  1  0.282513  0.570527  0.500000  1
  Ru  Ru15  1  0.718835  0.429731  0.500000  1
  Ru  Ru16  1  0.217326  0.070631  0.500000  1
  Ru  Ru17  1  0.782443  0.928483  0.500000  1
  Ru  Ru18  1  0.500281  0.000853  0.500000  1
  Ru  Ru19  1  0.000881  0.499938  0.500000  1
