# generated using pymatgen
data_HfZr17(Si8Mo)2
_symmetry_space_group_name_H-M   'P 1'
_cell_length_a   7.09084159
_cell_length_b   7.09084142
_cell_length_c   12.97592249
_cell_angle_alpha   89.97772969
_cell_angle_beta   90.02227181
_cell_angle_gamma   89.86109430
_symmetry_Int_Tables_number   1
_chemical_formula_structural   HfZr17(Si8Mo)2
_chemical_formula_sum   'Hf1 Zr17 Si16 Mo2'
_cell_volume   652.42779808
_cell_formula_units_Z   1
loop_
 _symmetry_equiv_pos_site_id
 _symmetry_equiv_pos_as_xyz
  1  'x, y, z'
loop_
 _atom_site_type_symbol
 _atom_site_label
 _atom_site_symmetry_multiplicity
 _atom_site_fract_x
 _atom_site_fract_y
 _atom_site_fract_z
 _atom_site_occupancy
  Hf  Hf0  1  0.175259  0.175259  0.000000  1
  Zr  Zr1  1  0.824716  0.824716  0.500000  1
  Zr  Zr2  1  0.497306  0.151502  0.533031  1
  Zr  Zr3  1  0.503228  0.848802  0.033059  1
  Zr  Zr4  1  0.651744  0.001242  0.283475  1
  Zr  Zr5  1  0.347987  0.999045  0.784114  1
  Zr  Zr6  1  0.848802  0.503228  0.966941  1
  Zr  Zr7  1  0.151502  0.497306  0.466969  1
  Zr  Zr8  1  0.001242  0.651744  0.716525  1
  Zr  Zr9  1  0.999045  0.347987  0.215886  1
  Zr  Zr10  1  0.497750  0.356126  0.126946  1
  Zr  Zr11  1  0.502672  0.643751  0.627268  1
  Zr  Zr12  1  0.853163  0.002740  0.875557  1
  Zr  Zr13  1  0.146289  0.997579  0.375136  1
  Zr  Zr14  1  0.643751  0.502672  0.372732  1
  Zr  Zr15  1  0.356126  0.497750  0.873054  1
  Zr  Zr16  1  0.002740  0.853163  0.124443  1
  Zr  Zr17  1  0.997579  0.146289  0.624864  1
  Si  Si18  1  0.796041  0.147171  0.071121  1
  Si  Si19  1  0.205054  0.853136  0.571332  1
  Si  Si20  1  0.647197  0.702428  0.821969  1
  Si  Si21  1  0.352697  0.297647  0.321858  1
  Si  Si22  1  0.853136  0.205054  0.428668  1
  Si  Si23  1  0.147171  0.796041  0.928879  1
  Si  Si24  1  0.702428  0.647197  0.178031  1
  Si  Si25  1  0.297647  0.352697  0.678142  1
  Si  Si26  1  0.552062  0.201366  0.934366  1
  Si  Si27  1  0.446516  0.798122  0.434165  1
  Si  Si28  1  0.695794  0.956418  0.687054  1
  Si  Si29  1  0.303490  0.044185  0.186031  1
  Si  Si30  1  0.798122  0.446516  0.565835  1
  Si  Si31  1  0.201366  0.552062  0.065634  1
  Si  Si32  1  0.956418  0.695794  0.312946  1
  Si  Si33  1  0.044185  0.303490  0.813969  1
  Mo  Mo34  1  0.675352  0.324423  0.750228  1
  Mo  Mo35  1  0.324423  0.675352  0.249772  1
