# generated using pymatgen
data_PaMnCoP2
_symmetry_space_group_name_H-M   'P 1'
_cell_length_a   3.98128700
_cell_length_b   3.98128700
_cell_length_c   8.87405400
_cell_angle_alpha   90.00000000
_cell_angle_beta   90.00000000
_cell_angle_gamma   90.00000000
_symmetry_Int_Tables_number   1
_chemical_formula_structural   PaMnCoP2
_chemical_formula_sum   'Pa2 Mn2 Co2 P4'
_cell_volume   140.65949010
_cell_formula_units_Z   2
loop_
 _symmetry_equiv_pos_site_id
 _symmetry_equiv_pos_as_xyz
  1  'x, y, z'
loop_
 _atom_site_type_symbol
 _atom_site_label
 _atom_site_symmetry_multiplicity
 _atom_site_fract_x
 _atom_site_fract_y
 _atom_site_fract_z
 _atom_site_occupancy
  Pa  Pa0  1  0.500000  0.000000  0.255955  1
  Pa  Pa1  1  0.000000  0.500000  0.744045  1
  Mn  Mn2  1  0.500000  0.500000  0.500000  1
  Mn  Mn3  1  0.000000  0.000000  0.500000  1
  Co  Co4  1  0.500000  0.000000  0.888432  1
  Co  Co5  1  0.000000  0.500000  0.111568  1
  P  P6  1  0.000000  0.500000  0.367995  1
  P  P7  1  0.500000  0.500000  0.000000  1
  P  P8  1  0.000000  0.000000  0.000000  1
  P  P9  1  0.500000  0.000000  0.632005  1
