# generated using pymatgen
data_CaPrPa(SnRh)3
_symmetry_space_group_name_H-M   'P 1'
_cell_length_a   7.75811783
_cell_length_b   7.67110859
_cell_length_c   3.91263800
_cell_angle_alpha   90.00000000
_cell_angle_beta   90.00000000
_cell_angle_gamma   120.56703162
_symmetry_Int_Tables_number   1
_chemical_formula_structural   CaPrPa(SnRh)3
_chemical_formula_sum   'Ca1 Pr1 Pa1 Sn3 Rh3'
_cell_volume   200.49561086
_cell_formula_units_Z   1
loop_
 _symmetry_equiv_pos_site_id
 _symmetry_equiv_pos_as_xyz
  1  'x, y, z'
loop_
 _atom_site_type_symbol
 _atom_site_label
 _atom_site_symmetry_multiplicity
 _atom_site_fract_x
 _atom_site_fract_y
 _atom_site_fract_z
 _atom_site_occupancy
  Ca  Ca0  1  0.407218  0.404998  0.500000  1
  Pr  Pr1  1  0.002079  0.591885  0.500000  1
  Pa  Pa2  1  0.584962  0.999687  0.500000  1
  Sn  Sn3  1  0.244261  0.005705  0.000000  1
  Sn  Sn4  1  0.738927  0.731767  0.000000  1
  Sn  Sn5  1  0.011137  0.262905  0.000000  1
  Rh  Rh6  1  0.977512  0.000072  0.500000  1
  Rh  Rh7  1  0.370905  0.715918  0.000000  1
  Rh  Rh8  1  0.662998  0.287064  0.000000  1
