# generated using pymatgen
data_BaAl2AgAu2
_symmetry_space_group_name_H-M   'P 1'
_cell_length_a   5.62402400
_cell_length_b   7.08053500
_cell_length_c   13.62587700
_cell_angle_alpha   90.00000000
_cell_angle_beta   90.00000000
_cell_angle_gamma   90.00000000
_symmetry_Int_Tables_number   1
_chemical_formula_structural   BaAl2AgAu2
_chemical_formula_sum   'Ba4 Al8 Ag4 Au8'
_cell_volume   542.59739388
_cell_formula_units_Z   4
loop_
 _symmetry_equiv_pos_site_id
 _symmetry_equiv_pos_as_xyz
  1  'x, y, z'
loop_
 _atom_site_type_symbol
 _atom_site_label
 _atom_site_symmetry_multiplicity
 _atom_site_fract_x
 _atom_site_fract_y
 _atom_site_fract_z
 _atom_site_occupancy
  Ba  Ba0  1  0.250000  0.640650  0.914899  1
  Ba  Ba1  1  0.250000  0.859350  0.414899  1
  Ba  Ba2  1  0.750000  0.359350  0.085101  1
  Ba  Ba3  1  0.750000  0.140650  0.585101  1
  Al  Al4  1  0.997604  0.131200  0.850244  1
  Al  Al5  1  0.502396  0.368800  0.350244  1
  Al  Al6  1  0.497604  0.868800  0.149756  1
  Al  Al7  1  0.002396  0.631200  0.649756  1
  Al  Al8  1  0.002396  0.868800  0.149756  1
  Al  Al9  1  0.497604  0.631200  0.649756  1
  Al  Al10  1  0.502396  0.131200  0.850244  1
  Al  Al11  1  0.997604  0.368800  0.350244  1
  Ag  Ag12  1  0.250000  0.330789  0.714718  1
  Ag  Ag13  1  0.250000  0.169211  0.214718  1
  Ag  Ag14  1  0.750000  0.669211  0.285282  1
  Ag  Ag15  1  0.750000  0.830789  0.785282  1
  Au  Au16  1  0.250000  0.923192  0.710503  1
  Au  Au17  1  0.250000  0.576808  0.210503  1
  Au  Au18  1  0.750000  0.076808  0.289497  1
  Au  Au19  1  0.750000  0.423192  0.789497  1
  Au  Au20  1  0.250000  0.408894  0.508135  1
  Au  Au21  1  0.250000  0.091106  0.008135  1
  Au  Au22  1  0.750000  0.591106  0.491865  1
  Au  Au23  1  0.750000  0.908894  0.991865  1
