# generated using pymatgen
data_Nd6Ga7Si4Ge
_symmetry_space_group_name_H-M   'P 1'
_cell_length_a   4.19691901
_cell_length_b   4.27285925
_cell_length_c   21.91257689
_cell_angle_alpha   84.40488837
_cell_angle_beta   84.50463838
_cell_angle_gamma   89.99999000
_symmetry_Int_Tables_number   1
_chemical_formula_structural   Nd6Ga7Si4Ge
_chemical_formula_sum   'Nd6 Ga7 Si4 Ge1'
_cell_volume   389.26795789
_cell_formula_units_Z   1
loop_
 _symmetry_equiv_pos_site_id
 _symmetry_equiv_pos_as_xyz
  1  'x, y, z'
loop_
 _atom_site_type_symbol
 _atom_site_label
 _atom_site_symmetry_multiplicity
 _atom_site_fract_x
 _atom_site_fract_y
 _atom_site_fract_z
 _atom_site_occupancy
  Nd  Nd0  1  0.958012  0.708012  0.083974  1
  Nd  Nd1  1  0.291148  0.041148  0.417705  1
  Nd  Nd2  1  0.623671  0.373671  0.752657  1
  Nd  Nd3  1  0.376061  0.626061  0.247878  1
  Nd  Nd4  1  0.709695  0.959695  0.580608  1
  Nd  Nd5  1  0.041156  0.291156  0.917687  1
  Ga  Ga6  1  0.152981  0.902981  0.694038  1
  Ga  Ga7  1  0.431222  0.181222  0.137557  1
  Ga  Ga8  1  0.763492  0.513492  0.473017  1
  Ga  Ga9  1  0.097023  0.847023  0.805954  1
  Ga  Ga10  1  0.848063  0.098063  0.303873  1
  Ga  Ga11  1  0.180624  0.430624  0.638753  1
  Ga  Ga12  1  0.513465  0.763465  0.973071  1
  Si  Si13  1  0.902912  0.152912  0.194177  1
  Si  Si14  1  0.235667  0.485667  0.528666  1
  Si  Si15  1  0.568788  0.818788  0.862422  1
  Si  Si16  1  0.486373  0.236373  0.027253  1
  Ge  Ge17  1  0.819646  0.569646  0.360708  1
