# generated using pymatgen
data_Pr2InSnIr2
_symmetry_space_group_name_H-M   'P 1'
_cell_length_a   7.61122849
_cell_length_b   7.59806425
_cell_length_c   8.29598617
_cell_angle_alpha   89.99875944
_cell_angle_beta   90.00848935
_cell_angle_gamma   119.80250360
_symmetry_Int_Tables_number   1
_chemical_formula_structural   Pr2InSnIr2
_chemical_formula_sum   'Pr6 In3 Sn3 Ir6'
_cell_volume   416.31036413
_cell_formula_units_Z   3
loop_
 _symmetry_equiv_pos_site_id
 _symmetry_equiv_pos_as_xyz
  1  'x, y, z'
loop_
 _atom_site_type_symbol
 _atom_site_label
 _atom_site_symmetry_multiplicity
 _atom_site_fract_x
 _atom_site_fract_y
 _atom_site_fract_z
 _atom_site_occupancy
  Pr  Pr0  1  0.411481  0.000054  0.250226  1
  Pr  Pr1  1  0.587758  0.587813  0.749382  1
  Pr  Pr2  1  0.588050  0.587562  0.250622  1
  Pr  Pr3  1  0.999968  0.411285  0.249901  1
  Pr  Pr4  1  0.000160  0.411275  0.750134  1
  Pr  Pr5  1  0.411469  0.999894  0.749718  1
  In  In6  1  0.252211  0.251924  0.499947  1
  In  In7  1  0.246131  0.247522  0.999992  1
  In  In8  1  0.751981  0.001116  0.000020  1
  Sn  Sn9  1  0.000455  0.747429  0.500116  1
  Sn  Sn10  1  0.751372  0.001382  0.499962  1
  Sn  Sn11  1  0.001123  0.755179  0.999911  1
  Ir  Ir12  1  0.670484  0.334261  0.500252  1
  Ir  Ir13  1  0.671866  0.340614  0.999870  1
  Ir  Ir14  1  0.329115  0.669133  0.000185  1
  Ir  Ir15  1  0.335686  0.671797  0.499815  1
  Ir  Ir16  1  0.995413  0.990933  0.746381  1
  Ir  Ir17  1  0.995278  0.990828  0.253568  1
