# generated using pymatgen
data_Y20Tl3Pd3Ru2
_symmetry_space_group_name_H-M   'P 1'
_cell_length_a   9.59479200
_cell_length_b   9.59582157
_cell_length_c   9.62688800
_cell_angle_alpha   90.00000000
_cell_angle_beta   90.00000000
_cell_angle_gamma   119.96574806
_symmetry_Int_Tables_number   1
_chemical_formula_structural   Y20Tl3Pd3Ru2
_chemical_formula_sum   'Y20 Tl3 Pd3 Ru2'
_cell_volume   767.86358183
_cell_formula_units_Z   1
loop_
 _symmetry_equiv_pos_site_id
 _symmetry_equiv_pos_as_xyz
  1  'x, y, z'
loop_
 _atom_site_type_symbol
 _atom_site_label
 _atom_site_symmetry_multiplicity
 _atom_site_fract_x
 _atom_site_fract_y
 _atom_site_fract_z
 _atom_site_occupancy
  Y  Y0  1  0.000002  0.999988  0.446552  1
  Y  Y1  1  0.000002  0.999988  0.053448  1
  Y  Y2  1  0.209466  0.790533  0.439243  1
  Y  Y3  1  0.209480  0.418954  0.439250  1
  Y  Y4  1  0.581041  0.790518  0.439255  1
  Y  Y5  1  0.792392  0.207604  0.557889  1
  Y  Y6  1  0.792368  0.584752  0.557919  1
  Y  Y7  1  0.415243  0.207625  0.557916  1
  Y  Y8  1  0.792392  0.207604  0.942111  1
  Y  Y9  1  0.792368  0.584752  0.942081  1
  Y  Y10  1  0.415243  0.207625  0.942084  1
  Y  Y11  1  0.209466  0.790533  0.060757  1
  Y  Y12  1  0.209480  0.418954  0.060750  1
  Y  Y13  1  0.581041  0.790518  0.060745  1
  Y  Y14  1  0.540883  0.459127  0.250000  1
  Y  Y15  1  0.540883  0.081796  0.250000  1
  Y  Y16  1  0.918209  0.459121  0.250000  1
  Y  Y17  1  0.459803  0.540198  0.750000  1
  Y  Y18  1  0.459818  0.919647  0.750000  1
  Y  Y19  1  0.080360  0.540185  0.750000  1
  Tl  Tl20  1  0.111997  0.888009  0.750000  1
  Tl  Tl21  1  0.111999  0.223999  0.750000  1
  Tl  Tl22  1  0.776004  0.888005  0.750000  1
  Pd  Pd23  1  0.868421  0.131623  0.250000  1
  Pd  Pd24  1  0.868385  0.736767  0.250000  1
  Pd  Pd25  1  0.263227  0.131638  0.250000  1
  Ru  Ru26  1  0.333356  0.666607  0.250000  1
  Ru  Ru27  1  0.666679  0.333324  0.750000  1
