# generated using pymatgen
data_Sm8Nb11Si16Os
_symmetry_space_group_name_H-M   'P 1'
_cell_length_a   7.10309304
_cell_length_b   7.11703675
_cell_length_c   13.18642469
_cell_angle_alpha   89.74822004
_cell_angle_beta   89.94232385
_cell_angle_gamma   90.07967113
_symmetry_Int_Tables_number   1
_chemical_formula_structural   Sm8Nb11Si16Os
_chemical_formula_sum   'Sm8 Nb11 Si16 Os1'
_cell_volume   666.60556419
_cell_formula_units_Z   1
loop_
 _symmetry_equiv_pos_site_id
 _symmetry_equiv_pos_as_xyz
  1  'x, y, z'
loop_
 _atom_site_type_symbol
 _atom_site_label
 _atom_site_symmetry_multiplicity
 _atom_site_fract_x
 _atom_site_fract_y
 _atom_site_fract_z
 _atom_site_occupancy
  Sm  Sm0  1  0.997666  0.339112  0.220107  1
  Sm  Sm1  1  0.003233  0.661330  0.715766  1
  Sm  Sm2  1  0.160316  0.499428  0.466979  1
  Sm  Sm3  1  0.501239  0.839760  0.033988  1
  Sm  Sm4  1  0.838633  0.502257  0.967569  1
  Sm  Sm5  1  0.497470  0.159789  0.531279  1
  Sm  Sm6  1  0.338847  0.998191  0.781782  1
  Sm  Sm7  1  0.661702  0.001450  0.282620  1
  Nb  Nb8  1  0.169989  0.170457  0.000833  1
  Nb  Nb9  1  0.827543  0.829947  0.500012  1
  Nb  Nb10  1  0.328920  0.667454  0.249524  1
  Nb  Nb11  1  0.669694  0.330494  0.749884  1
  Nb  Nb12  1  0.843839  0.008590  0.875017  1
  Nb  Nb13  1  0.505541  0.658866  0.623459  1
  Nb  Nb14  1  0.343580  0.491249  0.874820  1
  Nb  Nb15  1  0.487247  0.339528  0.127086  1
  Nb  Nb16  1  0.657094  0.508301  0.374996  1
  Nb  Nb17  1  0.993308  0.156462  0.623936  1
  Nb  Nb18  1  0.006572  0.843651  0.123977  1
  Si  Si19  1  0.288299  0.039171  0.190360  1
  Si  Si20  1  0.708532  0.956590  0.686631  1
  Si  Si21  1  0.452577  0.791784  0.434555  1
  Si  Si22  1  0.207593  0.543635  0.063319  1
  Si  Si23  1  0.543666  0.207289  0.936469  1
  Si  Si24  1  0.789665  0.455651  0.563438  1
  Si  Si25  1  0.043958  0.292642  0.813507  1
  Si  Si26  1  0.963377  0.717630  0.313591  1
  Si  Si27  1  0.372362  0.292466  0.316908  1
  Si  Si28  1  0.628645  0.704639  0.814706  1
  Si  Si29  1  0.200348  0.873290  0.561795  1
  Si  Si30  1  0.129319  0.796720  0.934680  1
  Si  Si31  1  0.797171  0.129958  0.065978  1
  Si  Si32  1  0.878019  0.196204  0.434750  1
  Si  Si33  1  0.297481  0.371017  0.684040  1
  Si  Si34  1  0.702826  0.626038  0.185508  1
  Os  Os35  1  0.163730  0.998961  0.376129  1
