# generated using pymatgen
data_Yb3ErCuNiSn5
_symmetry_space_group_name_H-M   'P 1'
_cell_length_a   4.42301200
_cell_length_b   8.80172602
_cell_length_c   13.92572501
_cell_angle_alpha   90.00572542
_cell_angle_beta   90.00000000
_cell_angle_gamma   90.00000000
_symmetry_Int_Tables_number   1
_chemical_formula_structural   Yb3ErCuNiSn5
_chemical_formula_sum   'Yb6 Er2 Cu2 Ni2 Sn10'
_cell_volume   542.13041873
_cell_formula_units_Z   2
loop_
 _symmetry_equiv_pos_site_id
 _symmetry_equiv_pos_as_xyz
  1  'x, y, z'
loop_
 _atom_site_type_symbol
 _atom_site_label
 _atom_site_symmetry_multiplicity
 _atom_site_fract_x
 _atom_site_fract_y
 _atom_site_fract_z
 _atom_site_occupancy
  Yb  Yb0  1  0.500000  0.790377  0.741498  1
  Yb  Yb1  1  0.000000  0.209623  0.758502  1
  Yb  Yb2  1  0.000000  0.208413  0.242892  1
  Yb  Yb3  1  0.500000  0.135067  0.001318  1
  Yb  Yb4  1  0.000000  0.864933  0.498682  1
  Yb  Yb5  1  0.500000  0.791587  0.257108  1
  Er  Er6  1  0.500000  0.699661  0.997362  1
  Er  Er7  1  0.000000  0.300339  0.502638  1
  Cu  Cu8  1  0.000000  0.624868  0.146355  1
  Cu  Cu9  1  0.500000  0.375132  0.353645  1
  Ni  Ni10  1  0.500000  0.381143  0.644981  1
  Ni  Ni11  1  0.000000  0.618857  0.855019  1
  Sn  Sn12  1  0.500000  0.083999  0.395640  1
  Sn  Sn13  1  0.000000  0.550030  0.669265  1
  Sn  Sn14  1  0.000000  0.408146  0.994167  1
  Sn  Sn15  1  0.500000  0.446752  0.160128  1
  Sn  Sn16  1  0.500000  0.591854  0.505833  1
  Sn  Sn17  1  0.500000  0.449970  0.830735  1
  Sn  Sn18  1  0.000000  0.909116  0.894267  1
  Sn  Sn19  1  0.000000  0.553248  0.339872  1
  Sn  Sn20  1  0.500000  0.090884  0.605733  1
  Sn  Sn21  1  0.000000  0.916001  0.104360  1
