# generated using pymatgen
data_NdEr11(Si3Rh)4
_symmetry_space_group_name_H-M   'P 1'
_cell_length_a   4.21144000
_cell_length_b   10.62568205
_cell_length_c   12.29172200
_cell_angle_alpha   90.14291496
_cell_angle_beta   90.00000000
_cell_angle_gamma   90.00000000
_symmetry_Int_Tables_number   1
_chemical_formula_structural   NdEr11(Si3Rh)4
_chemical_formula_sum   'Nd1 Er11 Si12 Rh4'
_cell_volume   550.04574910
_cell_formula_units_Z   1
loop_
 _symmetry_equiv_pos_site_id
 _symmetry_equiv_pos_as_xyz
  1  'x, y, z'
loop_
 _atom_site_type_symbol
 _atom_site_label
 _atom_site_symmetry_multiplicity
 _atom_site_fract_x
 _atom_site_fract_y
 _atom_site_fract_z
 _atom_site_occupancy
  Nd  Nd0  1  0.750000  0.158324  0.696298  1
  Er  Er1  1  0.250000  0.878313  0.022193  1
  Er  Er2  1  0.250000  0.620926  0.521367  1
  Er  Er3  1  0.750000  0.119656  0.980931  1
  Er  Er4  1  0.750000  0.381728  0.477306  1
  Er  Er5  1  0.250000  0.919477  0.603868  1
  Er  Er6  1  0.250000  0.579478  0.104550  1
  Er  Er7  1  0.750000  0.080639  0.393689  1
  Er  Er8  1  0.750000  0.421030  0.896150  1
  Er  Er9  1  0.250000  0.661547  0.801266  1
  Er  Er10  1  0.250000  0.838062  0.301438  1
  Er  Er11  1  0.750000  0.340173  0.198658  1
  Si  Si12  1  0.250000  0.010727  0.825501  1
  Si  Si13  1  0.250000  0.486590  0.322527  1
  Si  Si14  1  0.750000  0.984742  0.177446  1
  Si  Si15  1  0.750000  0.514957  0.677590  1
  Si  Si16  1  0.250000  0.248218  0.844238  1
  Si  Si17  1  0.250000  0.253911  0.339144  1
  Si  Si18  1  0.750000  0.752251  0.158849  1
  Si  Si19  1  0.750000  0.747849  0.658735  1
  Si  Si20  1  0.250000  0.201761  0.535397  1
  Si  Si21  1  0.250000  0.301013  0.042333  1
  Si  Si22  1  0.750000  0.801343  0.458357  1
  Si  Si23  1  0.750000  0.697851  0.959195  1
  Rh  Rh24  1  0.250000  0.394385  0.682963  1
  Rh  Rh25  1  0.250000  0.109093  0.181252  1
  Rh  Rh26  1  0.750000  0.609012  0.317594  1
  Rh  Rh27  1  0.750000  0.886941  0.821169  1
