# generated using pymatgen
data_Zr10ZnSn5Sb2
_symmetry_space_group_name_H-M   'P 1'
_cell_length_a   5.92873139
_cell_length_b   8.79819555
_cell_length_c   8.77108321
_cell_angle_alpha   120.10230923
_cell_angle_beta   89.98519286
_cell_angle_gamma   90.02951060
_symmetry_Int_Tables_number   1
_chemical_formula_structural   Zr10ZnSn5Sb2
_chemical_formula_sum   'Zr10 Zn1 Sn5 Sb2'
_cell_volume   395.81343930
_cell_formula_units_Z   1
loop_
 _symmetry_equiv_pos_site_id
 _symmetry_equiv_pos_as_xyz
  1  'x, y, z'
loop_
 _atom_site_type_symbol
 _atom_site_label
 _atom_site_symmetry_multiplicity
 _atom_site_fract_x
 _atom_site_fract_y
 _atom_site_fract_z
 _atom_site_occupancy
  Zr  Zr0  1  0.499389  0.333959  0.667456  1
  Zr  Zr1  1  0.499389  0.666503  0.332544  1
  Zr  Zr2  1  0.000300  0.666589  0.332434  1
  Zr  Zr3  1  0.000300  0.334155  0.667566  1
  Zr  Zr4  1  0.737940  0.273828  0.000000  1
  Zr  Zr5  1  0.738271  0.726629  0.727610  1
  Zr  Zr6  1  0.738271  0.999020  0.272390  1
  Zr  Zr7  1  0.261711  0.725201  0.000000  1
  Zr  Zr8  1  0.262363  0.274381  0.274030  1
  Zr  Zr9  1  0.262363  0.000351  0.725970  1
  Zn  Zn10  1  0.498863  0.000776  0.000000  1
  Sn  Sn11  1  0.752578  0.387633  0.387635  1
  Sn  Sn12  1  0.752578  0.999998  0.612365  1
  Sn  Sn13  1  0.247575  0.385599  0.000000  1
  Sn  Sn14  1  0.247778  0.613413  0.612368  1
  Sn  Sn15  1  0.247778  0.001044  0.387632  1
  Sb  Sb16  1  0.751305  0.610347  0.000000  1
  Sb  Sb17  1  0.001251  0.000576  0.000000  1
