# generated using pymatgen
data_Dy2HoSb4Au3
_symmetry_space_group_name_H-M   'P 1'
_cell_length_a   8.60400368
_cell_length_b   8.60400345
_cell_length_c   8.60394966
_cell_angle_alpha   109.51599555
_cell_angle_beta   109.44864730
_cell_angle_gamma   109.44889718
_symmetry_Int_Tables_number   1
_chemical_formula_structural   Dy2HoSb4Au3
_chemical_formula_sum   'Dy4 Ho2 Sb8 Au6'
_cell_volume   490.31777460
_cell_formula_units_Z   2
loop_
 _symmetry_equiv_pos_site_id
 _symmetry_equiv_pos_as_xyz
  1  'x, y, z'
loop_
 _atom_site_type_symbol
 _atom_site_label
 _atom_site_symmetry_multiplicity
 _atom_site_fract_x
 _atom_site_fract_y
 _atom_site_fract_z
 _atom_site_occupancy
  Dy  Dy0  1  0.250006  0.125020  0.874989  1
  Dy  Dy1  1  0.749994  0.375014  0.624983  1
  Dy  Dy2  1  0.875003  0.249988  0.125018  1
  Dy  Dy3  1  0.124997  0.874985  0.250016  1
  Ho  Ho4  1  0.624981  0.749992  0.374993  1
  Ho  Ho5  1  0.375019  0.625011  0.750011  1
  Sb  Sb6  1  0.320895  0.320947  0.320944  1
  Sb  Sb7  1  0.500032  0.999990  0.179266  1
  Sb  Sb8  1  0.179490  0.500044  0.000084  1
  Sb  Sb9  1  0.999988  0.179222  0.499908  1
  Sb  Sb10  1  0.820510  0.820553  0.820593  1
  Sb  Sb11  1  0.499968  0.999958  0.679234  1
  Sb  Sb12  1  0.000012  0.679234  0.499920  1
  Sb  Sb13  1  0.679105  0.500052  0.000050  1
  Au  Au14  1  0.375077  0.250598  0.625283  1
  Au  Au15  1  0.749180  0.874392  0.124785  1
  Au  Au16  1  0.250820  0.625212  0.375605  1
  Au  Au17  1  0.624923  0.375521  0.250206  1
  Au  Au18  1  0.125316  0.749792  0.874714  1
  Au  Au19  1  0.874684  0.124476  0.749398  1
