# generated using pymatgen
data_YTa8PbS16
_symmetry_space_group_name_H-M   'P 1'
_cell_length_a   6.70872800
_cell_length_b   6.70872724
_cell_length_c   14.10231800
_cell_angle_alpha   90.00000000
_cell_angle_beta   90.00000000
_cell_angle_gamma   120.00000374
_symmetry_Int_Tables_number   1
_chemical_formula_structural   YTa8PbS16
_chemical_formula_sum   'Y1 Ta8 Pb1 S16'
_cell_volume   549.66924500
_cell_formula_units_Z   1
loop_
 _symmetry_equiv_pos_site_id
 _symmetry_equiv_pos_as_xyz
  1  'x, y, z'
loop_
 _atom_site_type_symbol
 _atom_site_label
 _atom_site_symmetry_multiplicity
 _atom_site_fract_x
 _atom_site_fract_y
 _atom_site_fract_z
 _atom_site_occupancy
  Y  Y0  1  0.000000  0.000000  0.500000  1
  Ta  Ta1  1  0.505193  0.494807  0.743465  1
  Ta  Ta2  1  0.010385  0.505193  0.256535  1
  Ta  Ta3  1  0.494807  0.989615  0.256535  1
  Ta  Ta4  1  0.505193  0.010385  0.743465  1
  Ta  Ta5  1  0.989615  0.494807  0.743465  1
  Ta  Ta6  1  0.494807  0.505193  0.256535  1
  Ta  Ta7  1  0.000000  0.000000  0.743396  1
  Ta  Ta8  1  0.000000  0.000000  0.256604  1
  Pb  Pb9  1  0.000000  0.000000  0.000000  1
  S  S10  1  0.831326  0.168674  0.366483  1
  S  S11  1  0.831326  0.662651  0.366483  1
  S  S12  1  0.337349  0.168674  0.366483  1
  S  S13  1  0.660273  0.830136  0.851992  1
  S  S14  1  0.168674  0.337349  0.633517  1
  S  S15  1  0.169864  0.830136  0.851992  1
  S  S16  1  0.169864  0.339727  0.851992  1
  S  S17  1  0.830136  0.169864  0.148008  1
  S  S18  1  0.339727  0.169864  0.148008  1
  S  S19  1  0.662651  0.831326  0.633517  1
  S  S20  1  0.333333  0.666667  0.143459  1
  S  S21  1  0.666667  0.333333  0.630337  1
  S  S22  1  0.666667  0.333333  0.856541  1
  S  S23  1  0.333333  0.666667  0.369663  1
  S  S24  1  0.830136  0.660273  0.148008  1
  S  S25  1  0.168674  0.831326  0.633517  1
