# generated using pymatgen
data_Pr2Nd3Sn4
_symmetry_space_group_name_H-M   'P 1'
_cell_length_a   8.27385600
_cell_length_b   8.51842200
_cell_length_c   16.06870700
_cell_angle_alpha   90.00000000
_cell_angle_beta   90.00000000
_cell_angle_gamma   90.00000000
_symmetry_Int_Tables_number   1
_chemical_formula_structural   Pr2Nd3Sn4
_chemical_formula_sum   'Pr8 Nd12 Sn16'
_cell_volume   1132.52563450
_cell_formula_units_Z   4
loop_
 _symmetry_equiv_pos_site_id
 _symmetry_equiv_pos_as_xyz
  1  'x, y, z'
loop_
 _atom_site_type_symbol
 _atom_site_label
 _atom_site_symmetry_multiplicity
 _atom_site_fract_x
 _atom_site_fract_y
 _atom_site_fract_z
 _atom_site_occupancy
  Pr  Pr0  1  0.493070  0.319355  0.902573  1
  Pr  Pr1  1  0.993070  0.180645  0.597427  1
  Pr  Pr2  1  0.506930  0.680645  0.402573  1
  Pr  Pr3  1  0.006930  0.819355  0.097427  1
  Pr  Pr4  1  0.506930  0.680645  0.097427  1
  Pr  Pr5  1  0.006930  0.819355  0.402573  1
  Pr  Pr6  1  0.493070  0.319355  0.597427  1
  Pr  Pr7  1  0.993070  0.180645  0.902573  1
  Nd  Nd8  1  0.336794  0.830361  0.876177  1
  Nd  Nd9  1  0.836794  0.669639  0.623823  1
  Nd  Nd10  1  0.663206  0.169639  0.376177  1
  Nd  Nd11  1  0.163206  0.330361  0.123823  1
  Nd  Nd12  1  0.663206  0.169639  0.123823  1
  Nd  Nd13  1  0.163206  0.330361  0.376177  1
  Nd  Nd14  1  0.336794  0.830361  0.623823  1
  Nd  Nd15  1  0.836794  0.669639  0.876177  1
  Nd  Nd16  1  0.165547  0.497890  0.750000  1
  Nd  Nd17  1  0.665547  0.002110  0.750000  1
  Nd  Nd18  1  0.834453  0.502110  0.250000  1
  Nd  Nd19  1  0.334453  0.997890  0.250000  1
  Sn  Sn20  1  0.323666  0.036064  0.041093  1
  Sn  Sn21  1  0.823666  0.463936  0.458907  1
  Sn  Sn22  1  0.676334  0.963936  0.541093  1
  Sn  Sn23  1  0.176334  0.536064  0.958907  1
  Sn  Sn24  1  0.676334  0.963936  0.958907  1
  Sn  Sn25  1  0.176334  0.536064  0.541093  1
  Sn  Sn26  1  0.323666  0.036064  0.458907  1
  Sn  Sn27  1  0.823666  0.463936  0.041093  1
  Sn  Sn28  1  0.534091  0.611853  0.750000  1
  Sn  Sn29  1  0.034091  0.888147  0.750000  1
  Sn  Sn30  1  0.465909  0.388147  0.250000  1
  Sn  Sn31  1  0.965909  0.111853  0.250000  1
  Sn  Sn32  1  0.295205  0.143403  0.750000  1
  Sn  Sn33  1  0.795205  0.356597  0.750000  1
  Sn  Sn34  1  0.704795  0.856597  0.250000  1
  Sn  Sn35  1  0.204795  0.643403  0.250000  1
