# generated using pymatgen
data_LaPr3(SiPd14)2
_symmetry_space_group_name_H-M   'P 1'
_cell_length_a   8.99227500
_cell_length_b   8.99227500
_cell_length_c   7.20909800
_cell_angle_alpha   90.00000000
_cell_angle_beta   90.00000000
_cell_angle_gamma   90.00000000
_symmetry_Int_Tables_number   1
_chemical_formula_structural   LaPr3(SiPd14)2
_chemical_formula_sum   'La1 Pr3 Si2 Pd28'
_cell_volume   582.93494313
_cell_formula_units_Z   1
loop_
 _symmetry_equiv_pos_site_id
 _symmetry_equiv_pos_as_xyz
  1  'x, y, z'
loop_
 _atom_site_type_symbol
 _atom_site_label
 _atom_site_symmetry_multiplicity
 _atom_site_fract_x
 _atom_site_fract_y
 _atom_site_fract_z
 _atom_site_occupancy
  La  La0  1  0.000000  0.000000  0.500000  1
  Pr  Pr1  1  0.500000  0.000000  0.936544  1
  Pr  Pr2  1  0.000000  0.500000  0.063456  1
  Pr  Pr3  1  0.500000  0.500000  0.500000  1
  Si  Si4  1  0.500000  0.000000  0.448973  1
  Si  Si5  1  0.000000  0.500000  0.551027  1
  Pd  Pd6  1  0.335060  0.834179  0.614790  1
  Pd  Pd7  1  0.335060  0.165821  0.614790  1
  Pd  Pd8  1  0.664940  0.834179  0.614790  1
  Pd  Pd9  1  0.664940  0.165821  0.614790  1
  Pd  Pd10  1  0.165821  0.664940  0.385210  1
  Pd  Pd11  1  0.165821  0.335060  0.385210  1
  Pd  Pd12  1  0.834179  0.664940  0.385210  1
  Pd  Pd13  1  0.834179  0.335060  0.385210  1
  Pd  Pd14  1  0.500000  0.770903  0.257107  1
  Pd  Pd15  1  0.500000  0.229097  0.257107  1
  Pd  Pd16  1  0.271013  0.000000  0.257046  1
  Pd  Pd17  1  0.728987  0.000000  0.257046  1
  Pd  Pd18  1  0.000000  0.728987  0.742954  1
  Pd  Pd19  1  0.000000  0.271013  0.742954  1
  Pd  Pd20  1  0.229097  0.500000  0.742893  1
  Pd  Pd21  1  0.770903  0.500000  0.742893  1
  Pd  Pd22  1  0.500000  0.348680  0.856640  1
  Pd  Pd23  1  0.500000  0.651320  0.856640  1
  Pd  Pd24  1  0.848830  0.000000  0.855444  1
  Pd  Pd25  1  0.151170  0.000000  0.855444  1
  Pd  Pd26  1  0.000000  0.151170  0.144556  1
  Pd  Pd27  1  0.000000  0.848830  0.144556  1
  Pd  Pd28  1  0.651320  0.500000  0.143360  1
  Pd  Pd29  1  0.348680  0.500000  0.143360  1
  Pd  Pd30  1  0.250013  0.749987  0.000000  1
  Pd  Pd31  1  0.250013  0.250013  0.000000  1
  Pd  Pd32  1  0.749987  0.749987  0.000000  1
  Pd  Pd33  1  0.749987  0.250013  0.000000  1
