# generated using pymatgen
data_AlGa3Br8
_symmetry_space_group_name_H-M   'P 1'
_cell_length_a   7.81364200
_cell_length_b   10.45018700
_cell_length_c   10.63506500
_cell_angle_alpha   90.00000000
_cell_angle_beta   90.00000000
_cell_angle_gamma   90.00000000
_symmetry_Int_Tables_number   1
_chemical_formula_structural   AlGa3Br8
_chemical_formula_sum   'Al2 Ga6 Br16'
_cell_volume   868.39581075
_cell_formula_units_Z   2
loop_
 _symmetry_equiv_pos_site_id
 _symmetry_equiv_pos_as_xyz
  1  'x, y, z'
loop_
 _atom_site_type_symbol
 _atom_site_label
 _atom_site_symmetry_multiplicity
 _atom_site_fract_x
 _atom_site_fract_y
 _atom_site_fract_z
 _atom_site_occupancy
  Al  Al0  1  0.250000  0.000000  0.186795  1
  Al  Al1  1  0.250000  0.500000  0.313205  1
  Ga  Ga2  1  0.750000  0.000000  0.813223  1
  Ga  Ga3  1  0.750000  0.500000  0.686777  1
  Ga  Ga4  1  0.600762  0.250000  0.250000  1
  Ga  Ga5  1  0.899238  0.750000  0.250000  1
  Ga  Ga6  1  0.398709  0.750000  0.750000  1
  Ga  Ga7  1  0.101291  0.250000  0.750000  1
  Br  Br8  1  0.318596  0.178287  0.063588  1
  Br  Br9  1  0.318596  0.321713  0.436412  1
  Br  Br10  1  0.181404  0.678287  0.436412  1
  Br  Br11  1  0.181404  0.821713  0.063588  1
  Br  Br12  1  0.680064  0.819166  0.938151  1
  Br  Br13  1  0.680064  0.680834  0.561849  1
  Br  Br14  1  0.819936  0.319166  0.561849  1
  Br  Br15  1  0.819936  0.180834  0.938151  1
  Br  Br16  1  0.007815  0.034637  0.310298  1
  Br  Br17  1  0.007815  0.465363  0.189702  1
  Br  Br18  1  0.492185  0.534637  0.189702  1
  Br  Br19  1  0.492185  0.965363  0.310298  1
  Br  Br20  1  0.995434  0.965204  0.688093  1
  Br  Br21  1  0.995434  0.534796  0.811907  1
  Br  Br22  1  0.504566  0.465204  0.811907  1
  Br  Br23  1  0.504566  0.034796  0.688093  1
