# generated using pymatgen
data_Tb3Y2(SiBi)2
_symmetry_space_group_name_H-M   'P 1'
_cell_length_a   8.68867056
_cell_length_b   8.68371648
_cell_length_c   7.95613145
_cell_angle_alpha   89.99547644
_cell_angle_beta   90.03392849
_cell_angle_gamma   125.58878646
_symmetry_Int_Tables_number   1
_chemical_formula_structural   Tb3Y2(SiBi)2
_chemical_formula_sum   'Tb6 Y4 Si4 Bi4'
_cell_volume   488.16430936
_cell_formula_units_Z   2
loop_
 _symmetry_equiv_pos_site_id
 _symmetry_equiv_pos_as_xyz
  1  'x, y, z'
loop_
 _atom_site_type_symbol
 _atom_site_label
 _atom_site_symmetry_multiplicity
 _atom_site_fract_x
 _atom_site_fract_y
 _atom_site_fract_z
 _atom_site_occupancy
  Tb  Tb0  1  0.042743  0.287377  0.335338  1
  Tb  Tb1  1  0.957257  0.712623  0.664662  1
  Tb  Tb2  1  0.457274  0.212524  0.835337  1
  Tb  Tb3  1  0.787449  0.542737  0.164622  1
  Tb  Tb4  1  0.542726  0.787476  0.164663  1
  Tb  Tb5  1  0.212551  0.457263  0.835378  1
  Y  Y6  1  0.712947  0.957336  0.664486  1
  Y  Y7  1  0.287053  0.042664  0.335514  1
  Y  Y8  1  0.000000  0.000000  0.000000  1
  Y  Y9  1  0.500000  0.500000  0.500000  1
  Si  Si10  1  0.365515  0.365374  0.133413  1
  Si  Si11  1  0.634485  0.634626  0.866587  1
  Si  Si12  1  0.134418  0.134444  0.633261  1
  Si  Si13  1  0.865582  0.865556  0.366739  1
  Bi  Bi14  1  0.792560  0.207336  0.999819  1
  Bi  Bi15  1  0.207440  0.792664  0.000181  1
  Bi  Bi16  1  0.707259  0.292306  0.499939  1
  Bi  Bi17  1  0.292741  0.707694  0.500061  1
