# generated using pymatgen
data_Tb3Er5(CdRh)2
_symmetry_space_group_name_H-M   'P 1'
_cell_length_a   9.58774461
_cell_length_b   9.58774507
_cell_length_c   9.58774400
_cell_angle_alpha   59.99999680
_cell_angle_beta   59.99999522
_cell_angle_gamma   60.00000039
_symmetry_Int_Tables_number   1
_chemical_formula_structural   Tb3Er5(CdRh)2
_chemical_formula_sum   'Tb6 Er10 Cd4 Rh4'
_cell_volume   623.20989794
_cell_formula_units_Z   2
loop_
 _symmetry_equiv_pos_site_id
 _symmetry_equiv_pos_as_xyz
  1  'x, y, z'
loop_
 _atom_site_type_symbol
 _atom_site_label
 _atom_site_symmetry_multiplicity
 _atom_site_fract_x
 _atom_site_fract_y
 _atom_site_fract_z
 _atom_site_occupancy
  Tb  Tb0  1  0.186843  0.813157  0.813157  1
  Tb  Tb1  1  0.813157  0.186843  0.186843  1
  Tb  Tb2  1  0.813157  0.186843  0.813157  1
  Tb  Tb3  1  0.186843  0.813157  0.186843  1
  Tb  Tb4  1  0.813157  0.813157  0.186843  1
  Tb  Tb5  1  0.186843  0.186843  0.813157  1
  Er  Er6  1  0.598979  0.598979  0.598979  1
  Er  Er7  1  0.598979  0.598979  0.203061  1
  Er  Er8  1  0.598979  0.203061  0.598979  1
  Er  Er9  1  0.203061  0.598979  0.598979  1
  Er  Er10  1  0.062155  0.437845  0.437845  1
  Er  Er11  1  0.437845  0.062155  0.062155  1
  Er  Er12  1  0.437845  0.062155  0.437845  1
  Er  Er13  1  0.062155  0.437845  0.062155  1
  Er  Er14  1  0.437845  0.437845  0.062155  1
  Er  Er15  1  0.062155  0.062155  0.437845  1
  Cd  Cd16  1  0.830338  0.830338  0.830338  1
  Cd  Cd17  1  0.830338  0.830338  0.508986  1
  Cd  Cd18  1  0.830338  0.508986  0.830338  1
  Cd  Cd19  1  0.508986  0.830338  0.830338  1
  Rh  Rh20  1  0.392603  0.392603  0.392603  1
  Rh  Rh21  1  0.392603  0.392603  0.822192  1
  Rh  Rh22  1  0.392603  0.822192  0.392603  1
  Rh  Rh23  1  0.822192  0.392603  0.392603  1
