# generated using pymatgen
data_La2MoPtF14
_symmetry_space_group_name_H-M   'P 1'
_cell_length_a   5.82140400
_cell_length_b   9.33048697
_cell_length_c   12.49940900
_cell_angle_alpha   62.02284613
_cell_angle_beta   90.00000000
_cell_angle_gamma   90.00000000
_symmetry_Int_Tables_number   1
_chemical_formula_structural   La2MoPtF14
_chemical_formula_sum   'La4 Mo2 Pt2 F28'
_cell_volume   599.58186553
_cell_formula_units_Z   2
loop_
 _symmetry_equiv_pos_site_id
 _symmetry_equiv_pos_as_xyz
  1  'x, y, z'
loop_
 _atom_site_type_symbol
 _atom_site_label
 _atom_site_symmetry_multiplicity
 _atom_site_fract_x
 _atom_site_fract_y
 _atom_site_fract_z
 _atom_site_occupancy
  La  La0  1  0.761047  0.812125  0.265181  1
  La  La1  1  0.261047  0.187875  0.234819  1
  La  La2  1  0.239022  0.191462  0.734453  1
  La  La3  1  0.739022  0.808538  0.765547  1
  Mo  Mo4  1  0.755206  0.274078  0.456918  1
  Mo  Mo5  1  0.255206  0.725922  0.043082  1
  Pt  Pt6  1  0.243227  0.726069  0.543358  1
  Pt  Pt7  1  0.743227  0.273931  0.956642  1
  F  F8  1  0.964426  0.713583  0.458543  1
  F  F9  1  0.464426  0.286417  0.041457  1
  F  F10  1  0.044146  0.284488  0.545249  1
  F  F11  1  0.544146  0.715512  0.954751  1
  F  F12  1  0.053675  0.709670  0.921882  1
  F  F13  1  0.553675  0.290330  0.578118  1
  F  F14  1  0.939902  0.293748  0.077395  1
  F  F15  1  0.439902  0.706252  0.422605  1
  F  F16  1  0.737751  0.511865  0.860589  1
  F  F17  1  0.237751  0.488135  0.639411  1
  F  F18  1  0.263444  0.486862  0.139316  1
  F  F19  1  0.763444  0.513138  0.360684  1
  F  F20  1  0.740798  0.035422  0.048363  1
  F  F21  1  0.240798  0.964578  0.451637  1
  F  F22  1  0.259238  0.964457  0.949717  1
  F  F23  1  0.759238  0.035543  0.550283  1
  F  F24  1  0.050207  0.742168  0.666745  1
  F  F25  1  0.550207  0.257832  0.833255  1
  F  F26  1  0.954005  0.257384  0.333533  1
  F  F27  1  0.454005  0.742616  0.166467  1
  F  F28  1  0.017202  0.268852  0.866593  1
  F  F29  1  0.517202  0.731148  0.633407  1
  F  F30  1  0.974328  0.731601  0.137730  1
  F  F31  1  0.474328  0.268399  0.362270  1
  F  F32  1  0.089112  0.968168  0.231394  1
  F  F33  1  0.589112  0.031832  0.268606  1
  F  F34  1  0.913262  0.029712  0.768369  1
  F  F35  1  0.413262  0.970288  0.731631  1
