# generated using pymatgen
data_Pr2B8IrRu7
_symmetry_space_group_name_H-M   'P 1'
_cell_length_a   4.01289159
_cell_length_b   7.56247252
_cell_length_c   7.57914580
_cell_angle_alpha   90.09540081
_cell_angle_beta   89.97458393
_cell_angle_gamma   89.84718108
_symmetry_Int_Tables_number   1
_chemical_formula_structural   Pr2B8IrRu7
_chemical_formula_sum   'Pr2 B8 Ir1 Ru7'
_cell_volume   230.00607540
_cell_formula_units_Z   1
loop_
 _symmetry_equiv_pos_site_id
 _symmetry_equiv_pos_as_xyz
  1  'x, y, z'
loop_
 _atom_site_type_symbol
 _atom_site_label
 _atom_site_symmetry_multiplicity
 _atom_site_fract_x
 _atom_site_fract_y
 _atom_site_fract_z
 _atom_site_occupancy
  Pr  Pr0  1  0.254747  0.249088  0.251168  1
  Pr  Pr1  1  0.750413  0.750876  0.748790  1
  B  B2  1  0.360214  0.920092  0.040284  1
  B  B3  1  0.358259  0.586154  0.468959  1
  B  B4  1  0.858652  0.536249  0.085102  1
  B  B5  1  0.859494  0.962931  0.415968  1
  B  B6  1  0.640749  0.084058  0.959588  1
  B  B7  1  0.640757  0.415512  0.538127  1
  B  B8  1  0.137846  0.457229  0.913876  1
  B  B9  1  0.141402  0.037925  0.584202  1
  Ir  Ir10  1  0.358607  0.642066  0.099337  1
  Ru  Ru11  1  0.141108  0.393258  0.640809  1
  Ru  Ru12  1  0.140805  0.106253  0.858856  1
  Ru  Ru13  1  0.641283  0.140940  0.606673  1
  Ru  Ru14  1  0.640402  0.358427  0.894415  1
  Ru  Ru15  1  0.857329  0.604834  0.358618  1
  Ru  Ru16  1  0.859225  0.895818  0.141033  1
  Ru  Ru17  1  0.358709  0.858291  0.394193  1
