# generated using pymatgen
data_Y3B4Ru10W3
_symmetry_space_group_name_H-M   'P 1'
_cell_length_a   9.60503567
_cell_length_b   9.60503606
_cell_length_c   3.06149700
_cell_angle_alpha   90.00000000
_cell_angle_beta   90.00000000
_cell_angle_gamma   89.69996870
_symmetry_Int_Tables_number   1
_chemical_formula_structural   Y3B4Ru10W3
_chemical_formula_sum   'Y3 B4 Ru10 W3'
_cell_volume   282.43978047
_cell_formula_units_Z   1
loop_
 _symmetry_equiv_pos_site_id
 _symmetry_equiv_pos_as_xyz
  1  'x, y, z'
loop_
 _atom_site_type_symbol
 _atom_site_label
 _atom_site_symmetry_multiplicity
 _atom_site_fract_x
 _atom_site_fract_y
 _atom_site_fract_z
 _atom_site_occupancy
  Y  Y0  1  0.174992  0.825008  0.000000  1
  Y  Y1  1  0.323669  0.323917  0.000000  1
  Y  Y2  1  0.676083  0.676331  0.000000  1
  B  B3  1  0.622861  0.377139  0.000000  1
  B  B4  1  0.381887  0.618113  0.000000  1
  B  B5  1  0.119234  0.121368  0.000000  1
  B  B6  1  0.878632  0.880766  0.000000  1
  Ru  Ru7  1  0.503996  0.496004  0.500000  1
  Ru  Ru8  1  0.989116  0.010884  0.500000  1
  Ru  Ru9  1  0.584594  0.211115  0.500000  1
  Ru  Ru10  1  0.432640  0.783152  0.500000  1
  Ru  Ru11  1  0.055512  0.280925  0.500000  1
  Ru  Ru12  1  0.929897  0.719630  0.500000  1
  Ru  Ru13  1  0.280370  0.070103  0.500000  1
  Ru  Ru14  1  0.719075  0.944488  0.500000  1
  Ru  Ru15  1  0.216848  0.567360  0.500000  1
  Ru  Ru16  1  0.788885  0.415406  0.500000  1
  W  W17  1  0.496951  0.997927  0.000000  1
  W  W18  1  0.002073  0.503049  0.000000  1
  W  W19  1  0.822686  0.177314  0.000000  1
