# generated using pymatgen
data_Gd2(SeO3)3
_symmetry_space_group_name_H-M   'P 1'
_cell_length_a   7.19451064
_cell_length_b   8.22775445
_cell_length_c   9.18103170
_cell_angle_alpha   71.40160417
_cell_angle_beta   70.06714812
_cell_angle_gamma   65.98195716
_symmetry_Int_Tables_number   1
_chemical_formula_structural   Gd2(SeO3)3
_chemical_formula_sum   'Gd4 Se6 O18'
_cell_volume   456.28645407
_cell_formula_units_Z   2
loop_
 _symmetry_equiv_pos_site_id
 _symmetry_equiv_pos_as_xyz
  1  'x, y, z'
loop_
 _atom_site_type_symbol
 _atom_site_label
 _atom_site_symmetry_multiplicity
 _atom_site_fract_x
 _atom_site_fract_y
 _atom_site_fract_z
 _atom_site_occupancy
  Gd  Gd0  1  0.258701  0.265057  0.200939  1
  Gd  Gd1  1  0.333820  0.729025  0.589043  1
  Gd  Gd2  1  0.666180  0.270975  0.410957  1
  Gd  Gd3  1  0.741299  0.734943  0.799061  1
  Se  Se4  1  0.112586  0.242314  0.585584  1
  Se  Se5  1  0.428782  0.775365  0.198196  1
  Se  Se6  1  0.147347  0.751841  0.964410  1
  Se  Se7  1  0.852653  0.248159  0.035590  1
  Se  Se8  1  0.571218  0.224635  0.801804  1
  Se  Se9  1  0.887414  0.757686  0.414416  1
  O  O10  1  0.156396  0.016852  0.654941  1
  O  O11  1  0.165973  0.570437  0.119330  1
  O  O12  1  0.033126  0.704666  0.552509  1
  O  O13  1  0.341788  0.252707  0.438759  1
  O  O14  1  0.067270  0.695175  0.833590  1
  O  O15  1  0.595098  0.286868  0.148718  1
  O  O16  1  0.350891  0.207735  0.945567  1
  O  O17  1  0.360014  0.941561  0.304970  1
  O  O18  1  0.516806  0.594521  0.349275  1
  O  O19  1  0.483194  0.405479  0.650725  1
  O  O20  1  0.639986  0.058439  0.695030  1
  O  O21  1  0.649109  0.792265  0.054433  1
  O  O22  1  0.404902  0.713132  0.851282  1
  O  O23  1  0.932730  0.304825  0.166410  1
  O  O24  1  0.658212  0.747293  0.561241  1
  O  O25  1  0.966874  0.295334  0.447491  1
  O  O26  1  0.834027  0.429563  0.880670  1
  O  O27  1  0.843604  0.983148  0.345059  1
