# generated using pymatgen
data_Dy3Ho2Nb2P12Ir17
_symmetry_space_group_name_H-M   'P 1'
_cell_length_a   12.58669800
_cell_length_b   12.78733660
_cell_length_c   4.00148500
_cell_angle_alpha   90.00000000
_cell_angle_beta   90.00000000
_cell_angle_gamma   119.48230854
_symmetry_Int_Tables_number   1
_chemical_formula_structural   Dy3Ho2Nb2P12Ir17
_chemical_formula_sum   'Dy3 Ho2 Nb2 P12 Ir17'
_cell_volume   560.64211762
_cell_formula_units_Z   1
loop_
 _symmetry_equiv_pos_site_id
 _symmetry_equiv_pos_as_xyz
  1  'x, y, z'
loop_
 _atom_site_type_symbol
 _atom_site_label
 _atom_site_symmetry_multiplicity
 _atom_site_fract_x
 _atom_site_fract_y
 _atom_site_fract_z
 _atom_site_occupancy
  Dy  Dy0  1  0.330334  0.661530  0.500000  1
  Dy  Dy1  1  0.668805  0.338470  0.500000  1
  Dy  Dy2  1  0.815018  0.000000  0.000000  1
  Ho  Ho3  1  0.999005  0.813239  0.000000  1
  Ho  Ho4  1  0.185766  0.186761  0.000000  1
  Nb  Nb5  1  0.997645  0.450925  0.500000  1
  Nb  Nb6  1  0.546721  0.549075  0.500000  1
  P  P7  1  0.002945  0.642334  0.500000  1
  P  P8  1  0.360611  0.357666  0.500000  1
  P  P9  1  0.645632  0.000000  0.500000  1
  P  P10  1  0.514524  0.683140  0.000000  1
  P  P11  1  0.308968  0.824203  0.000000  1
  P  P12  1  0.163474  0.480904  0.000000  1
  P  P13  1  0.484766  0.175797  0.000000  1
  P  P14  1  0.682569  0.519096  0.000000  1
  P  P15  1  0.831384  0.316860  0.000000  1
  P  P16  1  0.000292  0.175636  0.500000  1
  P  P17  1  0.824655  0.824364  0.500000  1
  P  P18  1  0.180653  0.000000  0.500000  1
  Ir  Ir19  1  0.505655  0.864056  0.000000  1
  Ir  Ir20  1  0.127940  0.641257  0.000000  1
  Ir  Ir21  1  0.354617  0.493280  0.000000  1
  Ir  Ir22  1  0.486684  0.358743  0.000000  1
  Ir  Ir23  1  0.861338  0.506720  0.000000  1
  Ir  Ir24  1  0.641600  0.135944  0.000000  1
  Ir  Ir25  1  0.464367  0.000000  0.500000  1
  Ir  Ir26  1  0.997503  0.282152  0.000000  1
  Ir  Ir27  1  0.715350  0.717848  0.000000  1
  Ir  Ir28  1  0.291154  0.000000  0.000000  1
  Ir  Ir29  1  0.624430  0.807103  0.500000  1
  Ir  Ir30  1  0.201213  0.823873  0.500000  1
  Ir  Ir31  1  0.177549  0.368135  0.500000  1
  Ir  Ir32  1  0.377340  0.176127  0.500000  1
  Ir  Ir33  1  0.809413  0.631865  0.500000  1
  Ir  Ir34  1  0.817327  0.192897  0.500000  1
  Ir  Ir35  1  0.002752  0.000000  0.500000  1
