# generated using pymatgen
data_SmThSi7Rh12
_symmetry_space_group_name_H-M   'P 1'
_cell_length_a   9.79328800
_cell_length_b   9.79328870
_cell_length_c   3.88838900
_cell_angle_alpha   90.00000000
_cell_angle_beta   90.00000000
_cell_angle_gamma   119.99999764
_symmetry_Int_Tables_number   1
_chemical_formula_structural   SmThSi7Rh12
_chemical_formula_sum   'Sm1 Th1 Si7 Rh12'
_cell_volume   322.96646616
_cell_formula_units_Z   1
loop_
 _symmetry_equiv_pos_site_id
 _symmetry_equiv_pos_as_xyz
  1  'x, y, z'
loop_
 _atom_site_type_symbol
 _atom_site_label
 _atom_site_symmetry_multiplicity
 _atom_site_fract_x
 _atom_site_fract_y
 _atom_site_fract_z
 _atom_site_occupancy
  Sm  Sm0  1  0.666667  0.333333  0.750074  1
  Th  Th1  1  0.333333  0.666667  0.249958  1
  Si  Si2  1  0.000000  0.000000  0.502625  1
  Si  Si3  1  0.399489  0.109918  0.248239  1
  Si  Si4  1  0.710429  0.600511  0.248239  1
  Si  Si5  1  0.890082  0.289571  0.248239  1
  Si  Si6  1  0.605450  0.895366  0.751855  1
  Si  Si7  1  0.289916  0.394550  0.751855  1
  Si  Si8  1  0.104634  0.710084  0.751855  1
  Rh  Rh9  1  0.443099  0.380865  0.248492  1
  Rh  Rh10  1  0.937765  0.556901  0.248492  1
  Rh  Rh11  1  0.619135  0.062235  0.248492  1
  Rh  Rh12  1  0.555355  0.620164  0.751224  1
  Rh  Rh13  1  0.064810  0.444645  0.751224  1
  Rh  Rh14  1  0.379836  0.935190  0.751224  1
  Rh  Rh15  1  0.142945  0.881547  0.254014  1
  Rh  Rh16  1  0.738602  0.857055  0.254014  1
  Rh  Rh17  1  0.118453  0.261398  0.254014  1
  Rh  Rh18  1  0.859054  0.120889  0.745290  1
  Rh  Rh19  1  0.261835  0.140946  0.745290  1
  Rh  Rh20  1  0.879111  0.738165  0.745290  1
