# generated using pymatgen
data_HoTm9(In2Rh)4
_symmetry_space_group_name_H-M   'P 1'
_cell_length_a   3.55523700
_cell_length_b   7.98364117
_cell_length_c   18.17682838
_cell_angle_alpha   90.02349617
_cell_angle_beta   90.00000000
_cell_angle_gamma   90.00000000
_symmetry_Int_Tables_number   1
_chemical_formula_structural   HoTm9(In2Rh)4
_chemical_formula_sum   'Ho1 Tm9 In8 Rh4'
_cell_volume   515.92626336
_cell_formula_units_Z   1
loop_
 _symmetry_equiv_pos_site_id
 _symmetry_equiv_pos_as_xyz
  1  'x, y, z'
loop_
 _atom_site_type_symbol
 _atom_site_label
 _atom_site_symmetry_multiplicity
 _atom_site_fract_x
 _atom_site_fract_y
 _atom_site_fract_z
 _atom_site_occupancy
  Ho  Ho0  1  0.000000  0.500000  0.500000  1
  Tm  Tm1  1  0.000000  0.000000  0.000000  1
  Tm  Tm2  1  0.000000  0.745493  0.278651  1
  Tm  Tm3  1  0.000000  0.254507  0.721349  1
  Tm  Tm4  1  0.000000  0.754501  0.778652  1
  Tm  Tm5  1  0.000000  0.245499  0.221348  1
  Tm  Tm6  1  0.000000  0.617917  0.086920  1
  Tm  Tm7  1  0.000000  0.382083  0.913080  1
  Tm  Tm8  1  0.000000  0.882183  0.586973  1
  Tm  Tm9  1  0.000000  0.117817  0.413027  1
  In  In10  1  0.500000  0.707258  0.932095  1
  In  In11  1  0.500000  0.292742  0.067905  1
  In  In12  1  0.500000  0.793153  0.431944  1
  In  In13  1  0.500000  0.206847  0.568056  1
  In  In14  1  0.500000  0.572071  0.650237  1
  In  In15  1  0.500000  0.427929  0.349763  1
  In  In16  1  0.500000  0.927993  0.150050  1
  In  In17  1  0.500000  0.072007  0.849950  1
  Rh  Rh18  1  0.500000  0.525192  0.195392  1
  Rh  Rh19  1  0.500000  0.474808  0.804608  1
  Rh  Rh20  1  0.500000  0.974875  0.695426  1
  Rh  Rh21  1  0.500000  0.025125  0.304574  1
