# generated using pymatgen
data_Dy4BeCo(SiI)2
_symmetry_space_group_name_H-M   'P 1'
_cell_length_a   3.97287400
_cell_length_b   3.97287466
_cell_length_c   16.77801700
_cell_angle_alpha   90.00000000
_cell_angle_beta   90.00000000
_cell_angle_gamma   120.00001112
_symmetry_Int_Tables_number   1
_chemical_formula_structural   Dy4BeCo(SiI)2
_chemical_formula_sum   'Dy4 Be1 Co1 Si2 I2'
_cell_volume   229.34056018
_cell_formula_units_Z   1
loop_
 _symmetry_equiv_pos_site_id
 _symmetry_equiv_pos_as_xyz
  1  'x, y, z'
loop_
 _atom_site_type_symbol
 _atom_site_label
 _atom_site_symmetry_multiplicity
 _atom_site_fract_x
 _atom_site_fract_y
 _atom_site_fract_z
 _atom_site_occupancy
  Dy  Dy0  1  0.000000  0.000000  0.106317  1
  Dy  Dy1  1  0.000000  0.000000  0.895893  1
  Dy  Dy2  1  0.000000  0.000000  0.611308  1
  Dy  Dy3  1  0.000000  0.000000  0.387254  1
  Be  Be4  1  0.333333  0.666667  0.504454  1
  Co  Co5  1  0.333333  0.666667  0.993967  1
  Si  Si6  1  0.666667  0.333333  0.496578  1
  Si  Si7  1  0.666667  0.333333  0.004342  1
  I  I8  1  0.333333  0.666667  0.252411  1
  I  I9  1  0.666667  0.333333  0.747477  1
