# generated using pymatgen
data_Dy3TcBr3
_symmetry_space_group_name_H-M   'P 1'
_cell_length_a   3.98965400
_cell_length_b   8.74016847
_cell_length_c   12.08049010
_cell_angle_alpha   86.41749760
_cell_angle_beta   90.00000000
_cell_angle_gamma   90.00000000
_symmetry_Int_Tables_number   1
_chemical_formula_structural   Dy3TcBr3
_chemical_formula_sum   'Dy6 Tc2 Br6'
_cell_volume   420.42650508
_cell_formula_units_Z   2
loop_
 _symmetry_equiv_pos_site_id
 _symmetry_equiv_pos_as_xyz
  1  'x, y, z'
loop_
 _atom_site_type_symbol
 _atom_site_label
 _atom_site_symmetry_multiplicity
 _atom_site_fract_x
 _atom_site_fract_y
 _atom_site_fract_z
 _atom_site_occupancy
  Dy  Dy0  1  0.750000  0.167509  0.143757  1
  Dy  Dy1  1  0.250000  0.832491  0.856243  1
  Dy  Dy2  1  0.750000  0.095934  0.682516  1
  Dy  Dy3  1  0.250000  0.904066  0.317484  1
  Dy  Dy4  1  0.250000  0.263991  0.894139  1
  Dy  Dy5  1  0.750000  0.736009  0.105861  1
  Tc  Tc6  1  0.750000  0.035117  0.923152  1
  Tc  Tc7  1  0.250000  0.964883  0.076848  1
  Br  Br8  1  0.250000  0.442865  0.131701  1
  Br  Br9  1  0.750000  0.557135  0.868299  1
  Br  Br10  1  0.250000  0.331475  0.642821  1
  Br  Br11  1  0.750000  0.668525  0.357179  1
  Br  Br12  1  0.750000  0.124985  0.394277  1
  Br  Br13  1  0.250000  0.875015  0.605723  1
