# generated using pymatgen
data_LiYb3PrFeC8
_symmetry_space_group_name_H-M   'P 1'
_cell_length_a   6.90234092
_cell_length_b   6.75936199
_cell_length_c   6.77592142
_cell_angle_alpha   133.98879135
_cell_angle_beta   111.87676846
_cell_angle_gamma   85.95727200
_symmetry_Int_Tables_number   1
_chemical_formula_structural   LiYb3PrFeC8
_chemical_formula_sum   'Li1 Yb3 Pr1 Fe1 C8'
_cell_volume   202.50427839
_cell_formula_units_Z   1
loop_
 _symmetry_equiv_pos_site_id
 _symmetry_equiv_pos_as_xyz
  1  'x, y, z'
loop_
 _atom_site_type_symbol
 _atom_site_label
 _atom_site_symmetry_multiplicity
 _atom_site_fract_x
 _atom_site_fract_y
 _atom_site_fract_z
 _atom_site_occupancy
  Li  Li0  1  0.001577  0.254716  0.244800  1
  Yb  Yb1  1  0.794507  0.637966  0.145818  1
  Yb  Yb2  1  0.521123  0.859367  0.667229  1
  Yb  Yb3  1  0.486950  0.150479  0.347865  1
  Pr  Pr4  1  0.197359  0.342366  0.840496  1
  Fe  Fe5  1  0.001465  0.750833  0.750639  1
  C  C6  1  0.792874  0.134705  0.680251  1
  C  C7  1  0.201946  0.879929  0.336378  1
  C  C8  1  0.450958  0.617372  0.816725  1
  C  C9  1  0.551528  0.368500  0.170061  1
  C  C10  1  0.900647  0.007445  0.748083  1
  C  C11  1  0.092985  0.852711  0.109742  1
  C  C12  1  0.259603  0.657144  0.745868  1
  C  C13  1  0.746477  0.486465  0.396044  1
