# generated using pymatgen
data_TbDyB5
_symmetry_space_group_name_H-M   'P 1'
_cell_length_a   7.10999500
_cell_length_b   7.10189189
_cell_length_c   7.13184663
_cell_angle_alpha   76.97223278
_cell_angle_beta   90.00000000
_cell_angle_gamma   90.00000000
_symmetry_Int_Tables_number   1
_chemical_formula_structural   TbDyB5
_chemical_formula_sum   'Tb4 Dy4 B20'
_cell_volume   350.84931679
_cell_formula_units_Z   4
loop_
 _symmetry_equiv_pos_site_id
 _symmetry_equiv_pos_as_xyz
  1  'x, y, z'
loop_
 _atom_site_type_symbol
 _atom_site_label
 _atom_site_symmetry_multiplicity
 _atom_site_fract_x
 _atom_site_fract_y
 _atom_site_fract_z
 _atom_site_occupancy
  Tb  Tb0  1  0.692264  0.768939  0.627452  1
  Tb  Tb1  1  0.192264  0.231061  0.872548  1
  Tb  Tb2  1  0.307736  0.231061  0.372548  1
  Tb  Tb3  1  0.807736  0.768939  0.127452  1
  Dy  Dy4  1  0.314911  0.756325  0.253827  1
  Dy  Dy5  1  0.814911  0.243675  0.246173  1
  Dy  Dy6  1  0.685089  0.243675  0.746173  1
  Dy  Dy7  1  0.185089  0.756325  0.753827  1
  B  B8  1  0.502318  0.314318  0.040383  1
  B  B9  1  0.002318  0.685682  0.459617  1
  B  B10  1  0.497682  0.685682  0.959617  1
  B  B11  1  0.997682  0.314318  0.540383  1
  B  B12  1  0.489951  0.925312  0.925710  1
  B  B13  1  0.989951  0.074688  0.574290  1
  B  B14  1  0.510049  0.074688  0.074290  1
  B  B15  1  0.010049  0.925312  0.425710  1
  B  B16  1  0.326389  0.496564  0.039802  1
  B  B17  1  0.826389  0.503436  0.460198  1
  B  B18  1  0.673611  0.503436  0.960198  1
  B  B19  1  0.173611  0.496564  0.539802  1
  B  B20  1  0.910618  0.498607  0.910968  1
  B  B21  1  0.410618  0.501393  0.589032  1
  B  B22  1  0.089382  0.501393  0.089032  1
  B  B23  1  0.589382  0.498607  0.410968  1
  B  B24  1  0.961725  0.496771  0.674275  1
  B  B25  1  0.461725  0.503229  0.825725  1
  B  B26  1  0.038275  0.503229  0.325725  1
  B  B27  1  0.538275  0.496771  0.174275  1
