# generated using pymatgen
data_Dy2TmAlC3
_symmetry_space_group_name_H-M   'P 1'
_cell_length_a   3.55239200
_cell_length_b   7.03100218
_cell_length_c   9.93056821
_cell_angle_alpha   89.71571725
_cell_angle_beta   90.00000000
_cell_angle_gamma   90.00000000
_symmetry_Int_Tables_number   1
_chemical_formula_structural   Dy2TmAlC3
_chemical_formula_sum   'Dy4 Tm2 Al2 C6'
_cell_volume   248.03151670
_cell_formula_units_Z   2
loop_
 _symmetry_equiv_pos_site_id
 _symmetry_equiv_pos_as_xyz
  1  'x, y, z'
loop_
 _atom_site_type_symbol
 _atom_site_label
 _atom_site_symmetry_multiplicity
 _atom_site_fract_x
 _atom_site_fract_y
 _atom_site_fract_z
 _atom_site_occupancy
  Dy  Dy0  1  0.500000  0.510576  0.198859  1
  Dy  Dy1  1  0.500000  0.489424  0.801141  1
  Dy  Dy2  1  0.000000  0.750142  0.459219  1
  Dy  Dy3  1  0.000000  0.249858  0.540781  1
  Tm  Tm4  1  0.500000  0.987144  0.201503  1
  Tm  Tm5  1  0.500000  0.012856  0.798497  1
  Al  Al6  1  0.000000  0.758502  0.004562  1
  Al  Al7  1  0.000000  0.241498  0.995438  1
  C  C8  1  0.500000  0.508856  0.566440  1
  C  C9  1  0.500000  0.491144  0.433560  1
  C  C10  1  0.500000  0.991353  0.566586  1
  C  C11  1  0.500000  0.008647  0.433414  1
  C  C12  1  0.000000  0.753239  0.208269  1
  C  C13  1  0.000000  0.246761  0.791731  1
