# generated using pymatgen
data_Y3HoGa18(CoPd)3
_symmetry_space_group_name_H-M   'P 1'
_cell_length_a   7.52601823
_cell_length_b   7.52586093
_cell_length_c   9.47029117
_cell_angle_alpha   90.01284509
_cell_angle_beta   90.01571027
_cell_angle_gamma   119.65243775
_symmetry_Int_Tables_number   1
_chemical_formula_structural   Y3HoGa18(CoPd)3
_chemical_formula_sum   'Y3 Ho1 Ga18 Co3 Pd3'
_cell_volume   466.15006722
_cell_formula_units_Z   1
loop_
 _symmetry_equiv_pos_site_id
 _symmetry_equiv_pos_as_xyz
  1  'x, y, z'
loop_
 _atom_site_type_symbol
 _atom_site_label
 _atom_site_symmetry_multiplicity
 _atom_site_fract_x
 _atom_site_fract_y
 _atom_site_fract_z
 _atom_site_occupancy
  Y  Y0  1  0.322603  0.998557  0.750249  1
  Y  Y1  1  0.007385  0.328800  0.749635  1
  Y  Y2  1  0.671236  0.992645  0.250363  1
  Ho  Ho3  1  0.001454  0.677357  0.249769  1
  Ga  Ga4  1  0.664540  0.013350  0.922054  1
  Ga  Ga5  1  0.343999  0.997902  0.425939  1
  Ga  Ga6  1  0.994876  0.343001  0.426178  1
  Ga  Ga7  1  0.346062  0.012927  0.077899  1
  Ga  Ga8  1  0.986918  0.653781  0.922338  1
  Ga  Ga9  1  0.986656  0.335644  0.078065  1
  Ga  Ga10  1  0.341825  0.339761  0.561692  1
  Ga  Ga11  1  0.344728  0.336369  0.931885  1
  Ga  Ga12  1  0.663822  0.655287  0.068234  1
  Ga  Ga13  1  0.660405  0.658181  0.438201  1
  Ga  Ga14  1  0.860833  0.863140  0.749119  1
  Ga  Ga15  1  0.136825  0.139007  0.250878  1
  Ga  Ga16  1  0.334125  0.546954  0.258677  1
  Ga  Ga17  1  0.560014  0.335862  0.252408  1
  Ga  Ga18  1  0.664315  0.440189  0.747591  1
  Ga  Ga19  1  0.453053  0.665717  0.741324  1
  Ga  Ga20  1  0.657202  0.005132  0.573712  1
  Ga  Ga21  1  0.001903  0.655806  0.573793  1
  Co  Co22  1  0.670468  0.329614  0.499951  1
  Co  Co23  1  0.668761  0.331309  0.000042  1
  Co  Co24  1  0.328938  0.671012  0.499947  1
  Pd  Pd25  1  0.327771  0.672170  0.000062  1
  Pd  Pd26  1  0.998639  0.001269  0.000057  1
  Pd  Pd27  1  0.000643  0.999259  0.499939  1
