# generated using pymatgen
data_K2Rb4AlCrH12
_symmetry_space_group_name_H-M   'P 1'
_cell_length_a   6.17029814
_cell_length_b   6.16792108
_cell_length_c   8.71690000
_cell_angle_alpha   89.99717969
_cell_angle_beta   90.00946718
_cell_angle_gamma   89.99808477
_symmetry_Int_Tables_number   1
_chemical_formula_structural   K2Rb4AlCrH12
_chemical_formula_sum   'K2 Rb4 Al1 Cr1 H12'
_cell_volume   331.74700787
_cell_formula_units_Z   1
loop_
 _symmetry_equiv_pos_site_id
 _symmetry_equiv_pos_as_xyz
  1  'x, y, z'
loop_
 _atom_site_type_symbol
 _atom_site_label
 _atom_site_symmetry_multiplicity
 _atom_site_fract_x
 _atom_site_fract_y
 _atom_site_fract_z
 _atom_site_occupancy
  K  K0  1  0.550330  0.550122  0.000029  1
  K  K1  1  0.049946  0.050234  0.500030  1
  Rb  Rb2  1  0.050034  0.550155  0.246213  1
  Rb  Rb3  1  0.550051  0.050029  0.246235  1
  Rb  Rb4  1  0.049940  0.550114  0.753827  1
  Rb  Rb5  1  0.550003  0.050014  0.753846  1
  Al  Al6  1  0.050294  0.050045  0.000052  1
  Cr  Cr7  1  0.549771  0.549802  0.499864  1
  H  H8  1  0.844387  0.847341  0.000348  1
  H  H9  1  0.252749  0.843920  0.000519  1
  H  H10  1  0.050182  0.050759  0.204207  1
  H  H11  1  0.549977  0.549323  0.298759  1
  H  H12  1  0.352344  0.754060  0.499405  1
  H  H13  1  0.753610  0.747641  0.499851  1
  H  H14  1  0.345483  0.352355  0.500106  1
  H  H15  1  0.747248  0.345489  0.500580  1
  H  H16  1  0.549273  0.550627  0.700922  1
  H  H17  1  0.050346  0.049259  0.795883  1
  H  H18  1  0.847765  0.256102  0.999576  1
  H  H19  1  0.256272  0.252618  0.999744  1
