# generated using pymatgen
data_Zr3ScAlTc7
_symmetry_space_group_name_H-M   'P 1'
_cell_length_a   5.23712800
_cell_length_b   5.23712946
_cell_length_c   8.69526300
_cell_angle_alpha   90.00000000
_cell_angle_beta   90.00000000
_cell_angle_gamma   120.00000341
_symmetry_Int_Tables_number   1
_chemical_formula_structural   Zr3ScAlTc7
_chemical_formula_sum   'Zr3 Sc1 Al1 Tc7'
_cell_volume   206.53793825
_cell_formula_units_Z   1
loop_
 _symmetry_equiv_pos_site_id
 _symmetry_equiv_pos_as_xyz
  1  'x, y, z'
loop_
 _atom_site_type_symbol
 _atom_site_label
 _atom_site_symmetry_multiplicity
 _atom_site_fract_x
 _atom_site_fract_y
 _atom_site_fract_z
 _atom_site_occupancy
  Zr  Zr0  1  0.333333  0.666667  0.430433  1
  Zr  Zr1  1  0.666667  0.333333  0.567560  1
  Zr  Zr2  1  0.666667  0.333333  0.937936  1
  Sc  Sc3  1  0.333333  0.666667  0.063742  1
  Al  Al4  1  0.000000  0.000000  0.500072  1
  Tc  Tc5  1  0.000000  0.000000  0.999882  1
  Tc  Tc6  1  0.829144  0.170856  0.250209  1
  Tc  Tc7  1  0.829144  0.658289  0.250209  1
  Tc  Tc8  1  0.341711  0.170856  0.250209  1
  Tc  Tc9  1  0.170878  0.829122  0.749916  1
  Tc  Tc10  1  0.170878  0.341754  0.749916  1
  Tc  Tc11  1  0.658246  0.829122  0.749916  1
