# generated using pymatgen
data_La5YTl4In2O18
_symmetry_space_group_name_H-M   'P 1'
_cell_length_a   6.72899726
_cell_length_b   6.72173500
_cell_length_c   12.54634831
_cell_angle_alpha   89.97867708
_cell_angle_beta   89.72328398
_cell_angle_gamma   119.96811383
_symmetry_Int_Tables_number   1
_chemical_formula_structural   La5YTl4In2O18
_chemical_formula_sum   'La5 Y1 Tl4 In2 O18'
_cell_volume   491.59997651
_cell_formula_units_Z   1
loop_
 _symmetry_equiv_pos_site_id
 _symmetry_equiv_pos_as_xyz
  1  'x, y, z'
loop_
 _atom_site_type_symbol
 _atom_site_label
 _atom_site_symmetry_multiplicity
 _atom_site_fract_x
 _atom_site_fract_y
 _atom_site_fract_z
 _atom_site_occupancy
  La  La0  1  0.993521  0.997813  0.267598  1
  La  La1  1  0.993881  0.995880  0.770863  1
  La  La2  1  0.340104  0.671082  0.240630  1
  La  La3  1  0.666774  0.332302  0.737089  1
  La  La4  1  0.339421  0.668985  0.736517  1
  Y  Y5  1  0.666679  0.334621  0.234053  1
  Tl  Tl6  1  0.335228  0.001288  0.002877  1
  Tl  Tl7  1  0.335921  0.332476  0.498491  1
  Tl  Tl8  1  0.997850  0.663994  0.498575  1
  Tl  Tl9  1  0.999792  0.335114  0.002940  1
  In  In10  1  0.665740  0.663956  0.003608  1
  In  In11  1  0.666816  0.003361  0.499010  1
  O  O12  1  0.323765  0.011700  0.175156  1
  O  O13  1  0.308946  0.310924  0.671444  1
  O  O14  1  0.002721  0.690256  0.671605  1
  O  O15  1  0.989253  0.314524  0.175170  1
  O  O16  1  0.689421  0.679730  0.175622  1
  O  O17  1  0.690752  0.997723  0.671896  1
  O  O18  1  0.643130  0.015786  0.329041  1
  O  O19  1  0.641184  0.639528  0.833107  1
  O  O20  1  0.000090  0.356482  0.831714  1
  O  O21  1  0.985100  0.629958  0.327805  1
  O  O22  1  0.369295  0.353473  0.327705  1
  O  O23  1  0.355783  0.000160  0.831555  1
  O  O24  1  0.983896  0.999928  0.469927  1
  O  O25  1  0.984200  0.984085  0.977091  1
  O  O26  1  0.348737  0.666896  0.029894  1
  O  O27  1  0.666779  0.319336  0.529999  1
  O  O28  1  0.348624  0.681735  0.520540  1
  O  O29  1  0.666596  0.346908  0.032874  1
