# generated using pymatgen
data_Sc2TaNi9
_symmetry_space_group_name_H-M   'P 1'
_cell_length_a   3.67673100
_cell_length_b   3.67673100
_cell_length_c   11.17945700
_cell_angle_alpha   90.00000000
_cell_angle_beta   90.00000000
_cell_angle_gamma   90.00000000
_symmetry_Int_Tables_number   1
_chemical_formula_structural   Sc2TaNi9
_chemical_formula_sum   'Sc2 Ta1 Ni9'
_cell_volume   151.12782200
_cell_formula_units_Z   1
loop_
 _symmetry_equiv_pos_site_id
 _symmetry_equiv_pos_as_xyz
  1  'x, y, z'
loop_
 _atom_site_type_symbol
 _atom_site_label
 _atom_site_symmetry_multiplicity
 _atom_site_fract_x
 _atom_site_fract_y
 _atom_site_fract_z
 _atom_site_occupancy
  Sc  Sc0  1  0.000000  0.000000  0.334860  1
  Sc  Sc1  1  0.000000  0.000000  0.665140  1
  Ta  Ta2  1  0.000000  0.000000  0.000000  1
  Ni  Ni3  1  0.500000  0.500000  0.000000  1
  Ni  Ni4  1  0.500000  0.500000  0.328804  1
  Ni  Ni5  1  0.500000  0.500000  0.671196  1
  Ni  Ni6  1  0.500000  0.000000  0.160111  1
  Ni  Ni7  1  0.500000  0.000000  0.500000  1
  Ni  Ni8  1  0.500000  0.000000  0.839889  1
  Ni  Ni9  1  0.000000  0.500000  0.160111  1
  Ni  Ni10  1  0.000000  0.500000  0.500000  1
  Ni  Ni11  1  0.000000  0.500000  0.839889  1
