# generated using pymatgen
data_Er2CuSi5Ir2
_symmetry_space_group_name_H-M   'P 1'
_cell_length_a   8.11017546
_cell_length_b   8.11017492
_cell_length_c   8.11017599
_cell_angle_alpha   137.88700685
_cell_angle_beta   104.22457488
_cell_angle_gamma   90.71353033
_symmetry_Int_Tables_number   1
_chemical_formula_structural   Er2CuSi5Ir2
_chemical_formula_sum   'Er4 Cu2 Si10 Ir4'
_cell_volume   330.83245067
_cell_formula_units_Z   2
loop_
 _symmetry_equiv_pos_site_id
 _symmetry_equiv_pos_as_xyz
  1  'x, y, z'
loop_
 _atom_site_type_symbol
 _atom_site_label
 _atom_site_symmetry_multiplicity
 _atom_site_fract_x
 _atom_site_fract_y
 _atom_site_fract_z
 _atom_site_occupancy
  Er  Er0  1  0.861802  0.628858  0.232944  1
  Er  Er1  1  0.138198  0.371142  0.767056  1
  Er  Er2  1  0.395914  0.128858  0.267056  1
  Er  Er3  1  0.604086  0.871142  0.732944  1
  Cu  Cu4  1  0.000000  0.750000  0.750000  1
  Cu  Cu5  1  0.000000  0.250000  0.250000  1
  Si  Si6  1  0.500000  0.750000  0.250000  1
  Si  Si7  1  0.500000  0.250000  0.750000  1
  Si  Si8  1  0.228793  0.978793  0.750000  1
  Si  Si9  1  0.771207  0.521207  0.750000  1
  Si  Si10  1  0.771207  0.021207  0.250000  1
  Si  Si11  1  0.228793  0.478793  0.250000  1
  Si  Si12  1  0.041512  0.889850  0.151663  1
  Si  Si13  1  0.958488  0.110150  0.848337  1
  Si  Si14  1  0.738186  0.389850  0.348337  1
  Si  Si15  1  0.261814  0.610150  0.651663  1
  Ir  Ir16  1  0.246408  0.861992  0.384417  1
  Ir  Ir17  1  0.753592  0.138008  0.615583  1
  Ir  Ir18  1  0.477575  0.361992  0.115583  1
  Ir  Ir19  1  0.522425  0.638008  0.884417  1
