# generated using pymatgen
data_RbDySiS4
_symmetry_space_group_name_H-M   'P 1'
_cell_length_a   6.68303700
_cell_length_b   6.43802490
_cell_length_c   9.06131056
_cell_angle_alpha   72.30397988
_cell_angle_beta   90.00000000
_cell_angle_gamma   90.00000000
_symmetry_Int_Tables_number   1
_chemical_formula_structural   RbDySiS4
_chemical_formula_sum   'Rb2 Dy2 Si2 S8'
_cell_volume   371.42041005
_cell_formula_units_Z   2
loop_
 _symmetry_equiv_pos_site_id
 _symmetry_equiv_pos_as_xyz
  1  'x, y, z'
loop_
 _atom_site_type_symbol
 _atom_site_label
 _atom_site_symmetry_multiplicity
 _atom_site_fract_x
 _atom_site_fract_y
 _atom_site_fract_z
 _atom_site_occupancy
  Rb  Rb0  1  0.976816  0.728965  0.066303  1
  Rb  Rb1  1  0.476816  0.271035  0.933697  1
  Dy  Dy2  1  0.499800  0.228987  0.453128  1
  Dy  Dy3  1  0.999800  0.771013  0.546872  1
  Si  Si4  1  0.462276  0.780023  0.332787  1
  Si  Si5  1  0.962276  0.219977  0.667213  1
  S  S6  1  0.467502  0.582401  0.183975  1
  S  S7  1  0.231501  0.021733  0.288504  1
  S  S8  1  0.727019  0.975867  0.309352  1
  S  S9  1  0.902087  0.422272  0.437249  1
  S  S10  1  0.402087  0.577728  0.562751  1
  S  S11  1  0.227019  0.024133  0.690648  1
  S  S12  1  0.731501  0.978267  0.711496  1
  S  S13  1  0.967502  0.417599  0.816025  1
