# generated using pymatgen
data_CaTb5Al13Si11Os8
_symmetry_space_group_name_H-M   'P 1'
_cell_length_a   8.75759400
_cell_length_b   8.74904279
_cell_length_c   9.25205244
_cell_angle_alpha   90.05544517
_cell_angle_beta   90.00000000
_cell_angle_gamma   120.03233700
_symmetry_Int_Tables_number   1
_chemical_formula_structural   CaTb5Al13Si11Os8
_chemical_formula_sum   'Ca1 Tb5 Al13 Si11 Os8'
_cell_volume   613.72270086
_cell_formula_units_Z   1
loop_
 _symmetry_equiv_pos_site_id
 _symmetry_equiv_pos_as_xyz
  1  'x, y, z'
loop_
 _atom_site_type_symbol
 _atom_site_label
 _atom_site_symmetry_multiplicity
 _atom_site_fract_x
 _atom_site_fract_y
 _atom_site_fract_z
 _atom_site_occupancy
  Ca  Ca0  1  0.190864  0.381729  0.249500  1
  Tb  Tb1  1  0.806122  0.612245  0.750837  1
  Tb  Tb2  1  0.617953  0.808935  0.248654  1
  Tb  Tb3  1  0.380083  0.190225  0.750292  1
  Tb  Tb4  1  0.190982  0.808935  0.248654  1
  Tb  Tb5  1  0.810141  0.190225  0.750292  1
  Al  Al6  1  0.332957  0.665916  0.467387  1
  Al  Al7  1  0.167170  0.334340  0.575740  1
  Al  Al8  1  0.834758  0.669517  0.417907  1
  Al  Al9  1  0.670789  0.834932  0.579764  1
  Al  Al10  1  0.834860  0.669722  0.082299  1
  Al  Al11  1  0.332913  0.166555  0.419331  1
  Al  Al12  1  0.168813  0.337625  0.922804  1
  Al  Al13  1  0.164144  0.834932  0.579764  1
  Al  Al14  1  0.333145  0.166736  0.080392  1
  Al  Al15  1  0.833642  0.166555  0.419331  1
  Al  Al16  1  0.667851  0.833817  0.917722  1
  Al  Al17  1  0.833589  0.166736  0.080392  1
  Al  Al18  1  0.165967  0.833817  0.917722  1
  Si  Si19  1  0.332974  0.665948  0.050542  1
  Si  Si20  1  0.665927  0.331853  0.955182  1
  Si  Si21  1  0.665890  0.331779  0.543655  1
  Si  Si22  1  0.561076  0.122151  0.249716  1
  Si  Si23  1  0.436887  0.873774  0.747927  1
  Si  Si24  1  0.876639  0.437502  0.250041  1
  Si  Si25  1  0.121622  0.560916  0.748323  1
  Si  Si26  1  0.560864  0.437502  0.250041  1
  Si  Si27  1  0.439294  0.560916  0.748323  1
  Si  Si28  1  0.997819  0.995637  0.249284  1
  Si  Si29  1  0.994323  0.988645  0.749354  1
  Os  Os30  1  0.500349  0.000699  0.997550  1
  Os  Os31  1  0.997346  0.500975  0.997992  1
  Os  Os32  1  0.503272  0.006543  0.502028  1
  Os  Os33  1  0.503629  0.500975  0.997992  1
  Os  Os34  1  0.991161  0.497635  0.502398  1
  Os  Os35  1  0.506475  0.497635  0.502398  1
  Os  Os36  1  0.003914  0.007829  0.999151  1
  Os  Os37  1  0.003797  0.007593  0.499313  1
