# generated using pymatgen
data_Al5V12Ga3N4
_symmetry_space_group_name_H-M   'P 1'
_cell_length_a   6.61965606
_cell_length_b   6.61965606
_cell_length_c   6.61965606
_cell_angle_alpha   89.93598410
_cell_angle_beta   90.06401590
_cell_angle_gamma   90.06401590
_symmetry_Int_Tables_number   1
_chemical_formula_structural   Al5V12Ga3N4
_chemical_formula_sum   'Al5 V12 Ga3 N4'
_cell_volume   290.07176932
_cell_formula_units_Z   1
loop_
 _symmetry_equiv_pos_site_id
 _symmetry_equiv_pos_as_xyz
  1  'x, y, z'
loop_
 _atom_site_type_symbol
 _atom_site_label
 _atom_site_symmetry_multiplicity
 _atom_site_fract_x
 _atom_site_fract_y
 _atom_site_fract_z
 _atom_site_occupancy
  Al  Al0  1  0.180194  0.819806  0.319806  1
  Al  Al1  1  0.318995  0.179346  0.819228  1
  Al  Al2  1  0.820654  0.319228  0.181005  1
  Al  Al3  1  0.680772  0.681005  0.679346  1
  Al  Al4  1  0.570300  0.429700  0.929700  1
  V  V5  1  0.793231  0.957646  0.375855  1
  V  V6  1  0.706875  0.043545  0.874937  1
  V  V7  1  0.208056  0.458561  0.123795  1
  V  V8  1  0.293378  0.541220  0.626273  1
  V  V9  1  0.956455  0.374937  0.793125  1
  V  V10  1  0.042354  0.875855  0.706769  1
  V  V11  1  0.458780  0.126273  0.206622  1
  V  V12  1  0.541439  0.623795  0.291944  1
  V  V13  1  0.376205  0.791944  0.958561  1
  V  V14  1  0.873727  0.706622  0.041220  1
  V  V15  1  0.124145  0.206769  0.457646  1
  V  V16  1  0.625063  0.293125  0.543545  1
  Ga  Ga17  1  0.430438  0.930569  0.569192  1
  Ga  Ga18  1  0.930808  0.569562  0.430569  1
  Ga  Ga19  1  0.069431  0.069192  0.069562  1
  N  N20  1  0.874514  0.125486  0.625486  1
  N  N21  1  0.625622  0.875674  0.125763  1
  N  N22  1  0.124326  0.625763  0.874378  1
  N  N23  1  0.374237  0.374378  0.375674  1
