# generated using pymatgen
data_CeY5Al20(SiRu2)4
_symmetry_space_group_name_H-M   'P 1'
_cell_length_a   8.69931700
_cell_length_b   8.70166593
_cell_length_c   9.61622400
_cell_angle_alpha   90.00000000
_cell_angle_beta   90.00000000
_cell_angle_gamma   119.99106703
_symmetry_Int_Tables_number   1
_chemical_formula_structural   CeY5Al20(SiRu2)4
_chemical_formula_sum   'Ce1 Y5 Al20 Si4 Ru8'
_cell_volume   630.46626259
_cell_formula_units_Z   1
loop_
 _symmetry_equiv_pos_site_id
 _symmetry_equiv_pos_as_xyz
  1  'x, y, z'
loop_
 _atom_site_type_symbol
 _atom_site_label
 _atom_site_symmetry_multiplicity
 _atom_site_fract_x
 _atom_site_fract_y
 _atom_site_fract_z
 _atom_site_occupancy
  Ce  Ce0  1  0.193353  0.386707  0.250000  1
  Y  Y1  1  0.806292  0.612584  0.750000  1
  Y  Y2  1  0.194394  0.805223  0.250000  1
  Y  Y3  1  0.610829  0.805223  0.250000  1
  Y  Y4  1  0.389937  0.194921  0.750000  1
  Y  Y5  1  0.804984  0.194921  0.750000  1
  Al  Al6  1  0.164459  0.328917  0.578335  1
  Al  Al7  1  0.670206  0.835188  0.577446  1
  Al  Al8  1  0.164982  0.835188  0.577446  1
  Al  Al9  1  0.834325  0.163947  0.077452  1
  Al  Al10  1  0.834325  0.163947  0.422548  1
  Al  Al11  1  0.835045  0.670091  0.076742  1
  Al  Al12  1  0.329622  0.163947  0.077452  1
  Al  Al13  1  0.670206  0.835188  0.922554  1
  Al  Al14  1  0.164459  0.328917  0.921665  1
  Al  Al15  1  0.835045  0.670091  0.423258  1
  Al  Al16  1  0.999183  0.998367  0.250000  1
  Al  Al17  1  0.000679  0.001360  0.750000  1
  Al  Al18  1  0.562940  0.125879  0.250000  1
  Al  Al19  1  0.436899  0.563074  0.750000  1
  Al  Al20  1  0.126175  0.563074  0.750000  1
  Al  Al21  1  0.871064  0.435602  0.250000  1
  Al  Al22  1  0.564539  0.435602  0.250000  1
  Al  Al23  1  0.436683  0.873366  0.750000  1
  Al  Al24  1  0.164982  0.835188  0.922554  1
  Al  Al25  1  0.329622  0.163947  0.422548  1
  Si  Si26  1  0.334867  0.669735  0.464705  1
  Si  Si27  1  0.667268  0.334534  0.963422  1
  Si  Si28  1  0.667268  0.334534  0.536578  1
  Si  Si29  1  0.334867  0.669735  0.035295  1
  Ru  Ru30  1  0.999400  0.998799  0.500616  1
  Ru  Ru31  1  0.999400  0.998799  0.999384  1
  Ru  Ru32  1  0.500626  0.001253  0.500355  1
  Ru  Ru33  1  0.499733  0.500225  0.000777  1
  Ru  Ru34  1  0.000492  0.500225  0.000777  1
  Ru  Ru35  1  0.000492  0.500225  0.499223  1
  Ru  Ru36  1  0.499733  0.500225  0.499223  1
  Ru  Ru37  1  0.500626  0.001253  0.999645  1
