# generated using pymatgen
data_Y4B16Ir3Ru13
_symmetry_space_group_name_H-M   'P 1'
_cell_length_a   7.50139384
_cell_length_b   7.51505716
_cell_length_c   9.21930028
_cell_angle_alpha   114.07668614
_cell_angle_beta   113.91775974
_cell_angle_gamma   90.05791930
_symmetry_Int_Tables_number   1
_chemical_formula_structural   Y4B16Ir3Ru13
_chemical_formula_sum   'Y4 B16 Ir3 Ru13'
_cell_volume   425.05129002
_cell_formula_units_Z   1
loop_
 _symmetry_equiv_pos_site_id
 _symmetry_equiv_pos_as_xyz
  1  'x, y, z'
loop_
 _atom_site_type_symbol
 _atom_site_label
 _atom_site_symmetry_multiplicity
 _atom_site_fract_x
 _atom_site_fract_y
 _atom_site_fract_z
 _atom_site_occupancy
  Y  Y0  1  0.498693  0.998836  0.997129  1
  Y  Y1  1  0.999443  0.501204  0.998622  1
  Y  Y2  1  0.249531  0.249877  0.498833  1
  Y  Y3  1  0.751060  0.750411  0.501364  1
  B  B4  1  0.252319  0.220777  0.163160  1
  B  B5  1  0.752655  0.439872  0.164400  1
  B  B6  1  0.410173  0.725572  0.164691  1
  B  B7  1  0.915165  0.938011  0.163960  1
  B  B8  1  0.837752  0.027852  0.339576  1
  B  B9  1  0.500617  0.308463  0.338893  1
  B  B10  1  0.003483  0.527565  0.340561  1
  B  B11  1  0.335912  0.813319  0.339620  1
  B  B12  1  0.690974  0.164795  0.663764  1
  B  B13  1  0.972625  0.499077  0.662683  1
  B  B14  1  0.473474  0.664738  0.662493  1
  B  B15  1  0.189169  0.998130  0.663583  1
  B  B16  1  0.775631  0.082577  0.832403  1
  B  B17  1  0.275848  0.250194  0.832325  1
  B  B18  1  0.555449  0.582641  0.832057  1
  B  B19  1  0.058412  0.750033  0.834606  1
  Ir  Ir20  1  0.947225  0.211888  0.123428  1
  Ir  Ir21  1  0.447931  0.411411  0.123759  1
  Ir  Ir22  1  0.675376  0.712874  0.123927  1
  Ru  Ru23  1  0.175938  0.912800  0.122282  1
  Ru  Ru24  1  0.573825  0.040620  0.377256  1
  Ru  Ru25  1  0.802473  0.334693  0.375923  1
  Ru  Ru26  1  0.304267  0.541244  0.376015  1
  Ru  Ru27  1  0.072316  0.835343  0.376151  1
  Ru  Ru28  1  0.960488  0.198301  0.624833  1
  Ru  Ru29  1  0.664618  0.427072  0.624564  1
  Ru  Ru30  1  0.165910  0.697385  0.625008  1
  Ru  Ru31  1  0.459220  0.927500  0.624485  1
  Ru  Ru32  1  0.084295  0.051116  0.875853  1
  Ru  Ru33  1  0.586040  0.325818  0.876830  1
  Ru  Ru34  1  0.290903  0.553335  0.878434  1
  Ru  Ru35  1  0.790789  0.824655  0.876533  1
