# generated using pymatgen
data_Y7Ho(AlRh)2
_symmetry_space_group_name_H-M   'P 1'
_cell_length_a   9.57331125
_cell_length_b   9.57870657
_cell_length_c   9.57331217
_cell_angle_alpha   59.98135348
_cell_angle_beta   59.95267026
_cell_angle_gamma   59.98135615
_symmetry_Int_Tables_number   1
_chemical_formula_structural   Y7Ho(AlRh)2
_chemical_formula_sum   'Y14 Ho2 Al4 Rh4'
_cell_volume   620.35219439
_cell_formula_units_Z   2
loop_
 _symmetry_equiv_pos_site_id
 _symmetry_equiv_pos_as_xyz
  1  'x, y, z'
loop_
 _atom_site_type_symbol
 _atom_site_label
 _atom_site_symmetry_multiplicity
 _atom_site_fract_x
 _atom_site_fract_y
 _atom_site_fract_z
 _atom_site_occupancy
  Y  Y0  1  0.187996  0.186954  0.812785  1
  Y  Y1  1  0.604517  0.603160  0.189162  1
  Y  Y2  1  0.443500  0.056500  0.443500  1
  Y  Y3  1  0.442592  0.443215  0.056947  1
  Y  Y4  1  0.812631  0.187369  0.812631  1
  Y  Y5  1  0.187593  0.812407  0.187593  1
  Y  Y6  1  0.442592  0.057247  0.056947  1
  Y  Y7  1  0.187996  0.812265  0.812785  1
  Y  Y8  1  0.057854  0.442146  0.057854  1
  Y  Y9  1  0.812785  0.812265  0.187996  1
  Y  Y10  1  0.189162  0.603160  0.604517  1
  Y  Y11  1  0.056947  0.443215  0.442592  1
  Y  Y12  1  0.056947  0.057247  0.442592  1
  Y  Y13  1  0.812785  0.186954  0.187996  1
  Ho  Ho14  1  0.601960  0.195299  0.601960  1
  Ho  Ho15  1  0.601960  0.600782  0.601960  1
  Al  Al16  1  0.827216  0.829160  0.827216  1
  Al  Al17  1  0.826186  0.827940  0.517935  1
  Al  Al18  1  0.517935  0.827940  0.826186  1
  Al  Al19  1  0.827216  0.516409  0.827216  1
  Rh  Rh20  1  0.393834  0.819938  0.393834  1
  Rh  Rh21  1  0.393834  0.392394  0.393834  1
  Rh  Rh22  1  0.819593  0.393017  0.394371  1
  Rh  Rh23  1  0.394371  0.393017  0.819593  1
