# generated using pymatgen
data_Y3In3HgIr2
_symmetry_space_group_name_H-M   'P 1'
_cell_length_a   7.81142600
_cell_length_b   7.81142606
_cell_length_c   3.88065600
_cell_angle_alpha   90.00000000
_cell_angle_beta   90.00000000
_cell_angle_gamma   119.99999129
_symmetry_Int_Tables_number   1
_chemical_formula_structural   Y3In3HgIr2
_chemical_formula_sum   'Y3 In3 Hg1 Ir2'
_cell_volume   205.06732457
_cell_formula_units_Z   1
loop_
 _symmetry_equiv_pos_site_id
 _symmetry_equiv_pos_as_xyz
  1  'x, y, z'
loop_
 _atom_site_type_symbol
 _atom_site_label
 _atom_site_symmetry_multiplicity
 _atom_site_fract_x
 _atom_site_fract_y
 _atom_site_fract_z
 _atom_site_occupancy
  Y  Y0  1  0.585030  0.614682  0.000000  1
  Y  Y1  1  0.385318  0.970347  0.000000  1
  Y  Y2  1  0.029653  0.414970  0.000000  1
  In  In3  1  0.002548  0.745553  0.500000  1
  In  In4  1  0.254447  0.256995  0.500000  1
  In  In5  1  0.743005  0.997452  0.500000  1
  Hg  Hg6  1  0.666667  0.333333  0.500000  1
  Ir  Ir7  1  0.000000  0.000000  0.000000  1
  Ir  Ir8  1  0.333333  0.666667  0.500000  1
