# generated using pymatgen
data_Tm11PaTc3Os
_symmetry_space_group_name_H-M   'P 1'
_cell_length_a   7.34038382
_cell_length_b   9.05537800
_cell_length_c   6.22412139
_cell_angle_alpha   90.00000000
_cell_angle_beta   88.80786455
_cell_angle_gamma   90.00000000
_symmetry_Int_Tables_number   1
_chemical_formula_structural   Tm11PaTc3Os
_chemical_formula_sum   'Tm11 Pa1 Tc3 Os1'
_cell_volume   413.62748867
_cell_formula_units_Z   1
loop_
 _symmetry_equiv_pos_site_id
 _symmetry_equiv_pos_as_xyz
  1  'x, y, z'
loop_
 _atom_site_type_symbol
 _atom_site_label
 _atom_site_symmetry_multiplicity
 _atom_site_fract_x
 _atom_site_fract_y
 _atom_site_fract_z
 _atom_site_occupancy
  Tm  Tm0  1  0.039318  0.250000  0.629759  1
  Tm  Tm1  1  0.463373  0.750000  0.124121  1
  Tm  Tm2  1  0.538626  0.250000  0.871892  1
  Tm  Tm3  1  0.175505  0.066856  0.166865  1
  Tm  Tm4  1  0.826326  0.941035  0.835722  1
  Tm  Tm5  1  0.320453  0.939231  0.656578  1
  Tm  Tm6  1  0.826326  0.558965  0.835722  1
  Tm  Tm7  1  0.675781  0.066959  0.334249  1
  Tm  Tm8  1  0.175505  0.433144  0.166865  1
  Tm  Tm9  1  0.675781  0.433041  0.334249  1
  Tm  Tm10  1  0.320453  0.560769  0.656578  1
  Pa  Pa11  1  0.943734  0.750000  0.355730  1
  Tc  Tc12  1  0.382310  0.250000  0.465369  1
  Tc  Tc13  1  0.645688  0.750000  0.520192  1
  Tc  Tc14  1  0.109955  0.750000  0.010294  1
  Os  Os15  1  0.880867  0.250000  0.035813  1
