# generated using pymatgen
data_Ho6P13IrRh19
_symmetry_space_group_name_H-M   'P 1'
_cell_length_a   13.30370200
_cell_length_b   13.30370246
_cell_length_c   3.90990900
_cell_angle_alpha   90.00000000
_cell_angle_beta   90.00000000
_cell_angle_gamma   119.99999389
_symmetry_Int_Tables_number   1
_chemical_formula_structural   Ho6P13IrRh19
_chemical_formula_sum   'Ho6 P13 Ir1 Rh19'
_cell_volume   599.29732526
_cell_formula_units_Z   1
loop_
 _symmetry_equiv_pos_site_id
 _symmetry_equiv_pos_as_xyz
  1  'x, y, z'
loop_
 _atom_site_type_symbol
 _atom_site_label
 _atom_site_symmetry_multiplicity
 _atom_site_fract_x
 _atom_site_fract_y
 _atom_site_fract_z
 _atom_site_occupancy
  Ho  Ho0  1  0.528907  0.717268  0.248053  1
  Ho  Ho1  1  0.282732  0.811638  0.248053  1
  Ho  Ho2  1  0.188362  0.471093  0.248053  1
  Ho  Ho3  1  0.470587  0.282268  0.752018  1
  Ho  Ho4  1  0.717732  0.188320  0.752018  1
  Ho  Ho5  1  0.811680  0.529413  0.752018  1
  P  P6  1  0.525991  0.139121  0.250406  1
  P  P7  1  0.860879  0.386872  0.250406  1
  P  P8  1  0.613128  0.474009  0.250406  1
  P  P9  1  0.944410  0.714412  0.255127  1
  P  P10  1  0.285588  0.229996  0.255127  1
  P  P11  1  0.770004  0.055590  0.255127  1
  P  P12  1  0.386538  0.525871  0.749253  1
  P  P13  1  0.474129  0.860666  0.749253  1
  P  P14  1  0.139334  0.613462  0.749253  1
  P  P15  1  0.714246  0.770071  0.744847  1
  P  P16  1  0.229929  0.944175  0.744847  1
  P  P17  1  0.055825  0.285754  0.744847  1
  P  P18  1  0.000000  0.000000  0.000803  1
  Ir  Ir19  1  0.333333  0.666667  0.752197  1
  Rh  Rh20  1  0.921683  0.250740  0.253731  1
  Rh  Rh21  1  0.749260  0.670944  0.253731  1
  Rh  Rh22  1  0.329056  0.078317  0.253731  1
  Rh  Rh23  1  0.438296  0.022070  0.751525  1
  Rh  Rh24  1  0.977930  0.416227  0.751525  1
  Rh  Rh25  1  0.583773  0.561704  0.751525  1
  Rh  Rh26  1  0.666667  0.333333  0.247853  1
  Rh  Rh27  1  0.094707  0.187056  0.247433  1
  Rh  Rh28  1  0.812944  0.907653  0.247433  1
  Rh  Rh29  1  0.092347  0.905293  0.247433  1
  Rh  Rh30  1  0.021724  0.583574  0.248362  1
  Rh  Rh31  1  0.416426  0.438150  0.248362  1
  Rh  Rh32  1  0.561850  0.978276  0.248362  1
  Rh  Rh33  1  0.671051  0.921802  0.746255  1
  Rh  Rh34  1  0.078198  0.749249  0.746255  1
  Rh  Rh35  1  0.250751  0.328949  0.746255  1
  Rh  Rh36  1  0.905106  0.813114  0.752707  1
  Rh  Rh37  1  0.186886  0.091991  0.752707  1
  Rh  Rh38  1  0.908009  0.094894  0.752707  1
