# generated using pymatgen
data_LiYNi3Pt
_symmetry_space_group_name_H-M   'P 1'
_cell_length_a   4.95707231
_cell_length_b   4.95707384
_cell_length_c   5.10951534
_cell_angle_alpha   60.98213992
_cell_angle_beta   60.98214075
_cell_angle_gamma   60.00000971
_symmetry_Int_Tables_number   1
_chemical_formula_structural   LiYNi3Pt
_chemical_formula_sum   'Li1 Y1 Ni3 Pt1'
_cell_volume   90.07524584
_cell_formula_units_Z   1
loop_
 _symmetry_equiv_pos_site_id
 _symmetry_equiv_pos_as_xyz
  1  'x, y, z'
loop_
 _atom_site_type_symbol
 _atom_site_label
 _atom_site_symmetry_multiplicity
 _atom_site_fract_x
 _atom_site_fract_y
 _atom_site_fract_z
 _atom_site_occupancy
  Li  Li0  1  0.247311  0.247311  0.258069  1
  Y  Y1  1  0.001242  0.001242  0.996275  1
  Ni  Ni2  1  0.625592  0.126300  0.622517  1
  Ni  Ni3  1  0.126300  0.625592  0.622517  1
  Ni  Ni4  1  0.625592  0.625592  0.622517  1
  Pt  Pt5  1  0.623964  0.623964  0.128107  1
