# generated using pymatgen
data_Er3Sn2PtRh2Pb
_symmetry_space_group_name_H-M   'P 1'
_cell_length_a   7.72306082
_cell_length_b   7.73271795
_cell_length_c   3.71547600
_cell_angle_alpha   90.00000000
_cell_angle_beta   90.00000000
_cell_angle_gamma   119.68291626
_symmetry_Int_Tables_number   1
_chemical_formula_structural   Er3Sn2PtRh2Pb
_chemical_formula_sum   'Er3 Sn2 Pt1 Rh2 Pb1'
_cell_volume   192.77268748
_cell_formula_units_Z   1
loop_
 _symmetry_equiv_pos_site_id
 _symmetry_equiv_pos_as_xyz
  1  'x, y, z'
loop_
 _atom_site_type_symbol
 _atom_site_label
 _atom_site_symmetry_multiplicity
 _atom_site_fract_x
 _atom_site_fract_y
 _atom_site_fract_z
 _atom_site_occupancy
  Er  Er0  1  0.396676  0.399945  0.000000  1
  Er  Er1  1  0.006803  0.600861  0.000000  1
  Er  Er2  1  0.597366  0.999984  0.000000  1
  Sn  Sn3  1  0.003658  0.267855  0.500000  1
  Sn  Sn4  1  0.264090  0.996589  0.500000  1
  Pt  Pt5  1  0.664274  0.324477  0.500000  1
  Rh  Rh6  1  0.010793  0.010858  0.000000  1
  Rh  Rh7  1  0.324630  0.664207  0.500000  1
  Pb  Pb8  1  0.731713  0.735225  0.500000  1
