# generated using pymatgen
data_Ho16InHg3Rh4
_symmetry_space_group_name_H-M   'P 1'
_cell_length_a   9.55192637
_cell_length_b   9.54767489
_cell_length_c   9.55192700
_cell_angle_alpha   59.98527013
_cell_angle_beta   60.00000129
_cell_angle_gamma   59.98527370
_symmetry_Int_Tables_number   1
_chemical_formula_structural   Ho16InHg3Rh4
_chemical_formula_sum   'Ho16 In1 Hg3 Rh4'
_cell_volume   615.83997092
_cell_formula_units_Z   1
loop_
 _symmetry_equiv_pos_site_id
 _symmetry_equiv_pos_as_xyz
  1  'x, y, z'
loop_
 _atom_site_type_symbol
 _atom_site_label
 _atom_site_symmetry_multiplicity
 _atom_site_fract_x
 _atom_site_fract_y
 _atom_site_fract_z
 _atom_site_occupancy
  Ho  Ho0  1  0.188401  0.183784  0.813908  1
  Ho  Ho1  1  0.601044  0.600910  0.197002  1
  Ho  Ho2  1  0.438305  0.061730  0.438305  1
  Ho  Ho3  1  0.439454  0.438127  0.061210  1
  Ho  Ho4  1  0.813908  0.183784  0.813908  1
  Ho  Ho5  1  0.186645  0.812812  0.186645  1
  Ho  Ho6  1  0.438305  0.061730  0.061660  1
  Ho  Ho7  1  0.186645  0.812812  0.813898  1
  Ho  Ho8  1  0.061210  0.438127  0.061210  1
  Ho  Ho9  1  0.813898  0.812812  0.186645  1
  Ho  Ho10  1  0.197002  0.600910  0.601044  1
  Ho  Ho11  1  0.061210  0.438127  0.439454  1
  Ho  Ho12  1  0.061660  0.061730  0.438305  1
  Ho  Ho13  1  0.813908  0.183784  0.188401  1
  Ho  Ho14  1  0.601402  0.195793  0.601402  1
  Ho  Ho15  1  0.601044  0.600910  0.601044  1
  In  In16  1  0.831165  0.506505  0.831165  1
  Hg  Hg17  1  0.834450  0.834701  0.834450  1
  Hg  Hg18  1  0.834450  0.834701  0.496401  1
  Hg  Hg19  1  0.496401  0.834701  0.834450  1
  Rh  Rh20  1  0.392779  0.821662  0.392779  1
  Rh  Rh21  1  0.393019  0.393284  0.393019  1
  Rh  Rh22  1  0.820678  0.393284  0.393019  1
  Rh  Rh23  1  0.393019  0.393284  0.820678  1
