# generated using pymatgen
data_Nd2Er3Tm(RuI3)2
_symmetry_space_group_name_H-M   'P 1'
_cell_length_a   4.24149900
_cell_length_b   9.01040275
_cell_length_c   12.34076433
_cell_angle_alpha   94.53832184
_cell_angle_beta   90.00000000
_cell_angle_gamma   90.00000000
_symmetry_Int_Tables_number   1
_chemical_formula_structural   Nd2Er3Tm(RuI3)2
_chemical_formula_sum   'Nd2 Er3 Tm1 Ru2 I6'
_cell_volume   470.15582342
_cell_formula_units_Z   1
loop_
 _symmetry_equiv_pos_site_id
 _symmetry_equiv_pos_as_xyz
  1  'x, y, z'
loop_
 _atom_site_type_symbol
 _atom_site_label
 _atom_site_symmetry_multiplicity
 _atom_site_fract_x
 _atom_site_fract_y
 _atom_site_fract_z
 _atom_site_occupancy
  Nd  Nd0  1  0.750000  0.272491  0.604020  1
  Nd  Nd1  1  0.250000  0.727460  0.396345  1
  Er  Er2  1  0.250000  0.118728  0.373959  1
  Er  Er3  1  0.750000  0.899040  0.184670  1
  Er  Er4  1  0.250000  0.100569  0.815194  1
  Tm  Tm5  1  0.750000  0.882316  0.625821  1
  Ru  Ru6  1  0.750000  0.941720  0.405568  1
  Ru  Ru7  1  0.250000  0.057687  0.594618  1
  I  I8  1  0.750000  0.414071  0.360405  1
  I  I9  1  0.250000  0.586241  0.639631  1
  I  I10  1  0.750000  0.867304  0.889882  1
  I  I11  1  0.250000  0.132507  0.109867  1
  I  I12  1  0.750000  0.347838  0.870880  1
  I  I13  1  0.250000  0.652027  0.129142  1
