# generated using pymatgen
data_Ho2Th2TlInPd4
_symmetry_space_group_name_H-M   'P 1'
_cell_length_a   7.93736218
_cell_length_b   7.85692617
_cell_length_c   3.74989700
_cell_angle_alpha   90.00000000
_cell_angle_beta   90.00000000
_cell_angle_gamma   89.97590538
_symmetry_Int_Tables_number   1
_chemical_formula_structural   Ho2Th2TlInPd4
_chemical_formula_sum   'Ho2 Th2 Tl1 In1 Pd4'
_cell_volume   233.85581325
_cell_formula_units_Z   1
loop_
 _symmetry_equiv_pos_site_id
 _symmetry_equiv_pos_as_xyz
  1  'x, y, z'
loop_
 _atom_site_type_symbol
 _atom_site_label
 _atom_site_symmetry_multiplicity
 _atom_site_fract_x
 _atom_site_fract_y
 _atom_site_fract_z
 _atom_site_occupancy
  Ho  Ho0  1  0.173478  0.324620  0.500000  1
  Ho  Ho1  1  0.672034  0.177213  0.500000  1
  Th  Th2  1  0.326838  0.831677  0.500000  1
  Th  Th3  1  0.825012  0.666543  0.500000  1
  Tl  Tl4  1  0.996679  0.008486  0.000000  1
  In  In5  1  0.496102  0.491160  0.000000  1
  Pd  Pd6  1  0.375914  0.126445  0.000000  1
  Pd  Pd7  1  0.872547  0.377050  0.000000  1
  Pd  Pd8  1  0.132378  0.627346  0.000000  1
  Pd  Pd9  1  0.629019  0.869459  0.000000  1
