# generated using pymatgen
data_EuTm(Si7Rh3)2
_symmetry_space_group_name_H-M   'P 1'
_cell_length_a   7.98037322
_cell_length_b   7.98037390
_cell_length_c   7.98037460
_cell_angle_alpha   57.15037806
_cell_angle_beta   57.15036969
_cell_angle_gamma   57.15036981
_symmetry_Int_Tables_number   1
_chemical_formula_structural   EuTm(Si7Rh3)2
_chemical_formula_sum   'Eu1 Tm1 Si14 Rh6'
_cell_volume   335.78493739
_cell_formula_units_Z   1
loop_
 _symmetry_equiv_pos_site_id
 _symmetry_equiv_pos_as_xyz
  1  'x, y, z'
loop_
 _atom_site_type_symbol
 _atom_site_label
 _atom_site_symmetry_multiplicity
 _atom_site_fract_x
 _atom_site_fract_y
 _atom_site_fract_z
 _atom_site_occupancy
  Eu  Eu0  1  0.500000  0.500000  0.500000  1
  Tm  Tm1  1  0.000000  0.000000  0.000000  1
  Si  Si2  1  0.749528  0.749528  0.749528  1
  Si  Si3  1  0.250472  0.250472  0.250472  1
  Si  Si4  1  0.851336  0.065289  0.672572  1
  Si  Si5  1  0.672572  0.851336  0.065289  1
  Si  Si6  1  0.065289  0.672572  0.851336  1
  Si  Si7  1  0.648971  0.828024  0.433256  1
  Si  Si8  1  0.433256  0.648971  0.828024  1
  Si  Si9  1  0.828024  0.433256  0.648971  1
  Si  Si10  1  0.171976  0.566744  0.351029  1
  Si  Si11  1  0.566744  0.351029  0.171976  1
  Si  Si12  1  0.351029  0.171976  0.566744  1
  Si  Si13  1  0.934711  0.327428  0.148664  1
  Si  Si14  1  0.327428  0.148664  0.934711  1
  Si  Si15  1  0.148664  0.934711  0.327428  1
  Rh  Rh16  1  0.066846  0.428061  0.752799  1
  Rh  Rh17  1  0.247201  0.933154  0.571939  1
  Rh  Rh18  1  0.571939  0.247201  0.933154  1
  Rh  Rh19  1  0.933154  0.571939  0.247201  1
  Rh  Rh20  1  0.428061  0.752799  0.066846  1
  Rh  Rh21  1  0.752799  0.066846  0.428061  1
