# generated using pymatgen
data_NdTh2(Ni4B)3
_symmetry_space_group_name_H-M   'P 1'
_cell_length_a   5.03533569
_cell_length_b   7.03362348
_cell_length_c   13.74043460
_cell_angle_alpha   104.82965224
_cell_angle_beta   100.55799367
_cell_angle_gamma   90.00000603
_symmetry_Int_Tables_number   1
_chemical_formula_structural   NdTh2(Ni4B)3
_chemical_formula_sum   'Nd2 Th4 Ni24 B6'
_cell_volume   461.90288441
_cell_formula_units_Z   2
loop_
 _symmetry_equiv_pos_site_id
 _symmetry_equiv_pos_as_xyz
  1  'x, y, z'
loop_
 _atom_site_type_symbol
 _atom_site_label
 _atom_site_symmetry_multiplicity
 _atom_site_fract_x
 _atom_site_fract_y
 _atom_site_fract_z
 _atom_site_occupancy
  Nd  Nd0  1  0.834364  0.084363  0.668725  1
  Nd  Nd1  1  0.491090  0.741090  0.982180  1
  Th  Th2  1  0.509199  0.259199  0.018397  1
  Th  Th3  1  0.165399  0.915399  0.330797  1
  Th  Th4  1  0.169135  0.419135  0.338270  1
  Th  Th5  1  0.831614  0.581614  0.663226  1
  Ni  Ni6  1  0.999968  0.000392  0.999935  1
  Ni  Ni7  1  0.999968  0.499544  0.999935  1
  Ni  Ni8  1  0.064834  0.314835  0.129668  1
  Ni  Ni9  1  0.330459  0.030942  0.163423  1
  Ni  Ni10  1  0.832965  0.030942  0.163423  1
  Ni  Ni11  1  0.330459  0.632480  0.163423  1
  Ni  Ni12  1  0.832965  0.632480  0.163423  1
  Ni  Ni13  1  0.613837  0.363836  0.227672  1
  Ni  Ni14  1  0.666162  0.122277  0.332323  1
  Ni  Ni15  1  0.666162  0.710046  0.332323  1
  Ni  Ni16  1  0.721984  0.471984  0.443966  1
  Ni  Ni17  1  0.000713  0.207149  0.499335  1
  Ni  Ni18  1  0.498622  0.207149  0.499335  1
  Ni  Ni19  1  0.000713  0.792186  0.499335  1
  Ni  Ni20  1  0.498622  0.792186  0.499335  1
  Ni  Ni21  1  0.278356  0.528357  0.556712  1
  Ni  Ni22  1  0.334002  0.288694  0.668002  1
  Ni  Ni23  1  0.334002  0.879309  0.668002  1
  Ni  Ni24  1  0.385099  0.635099  0.770199  1
  Ni  Ni25  1  0.168931  0.367817  0.837607  1
  Ni  Ni26  1  0.668677  0.367817  0.837607  1
  Ni  Ni27  1  0.168931  0.969788  0.837607  1
  Ni  Ni28  1  0.668677  0.969788  0.837607  1
  Ni  Ni29  1  0.934662  0.684662  0.869323  1
  B  B30  1  0.045952  0.795952  0.091904  1
  B  B31  1  0.609167  0.859166  0.218333  1
  B  B32  1  0.722749  0.972748  0.445496  1
  B  B33  1  0.278059  0.028058  0.556117  1
  B  B34  1  0.390425  0.140424  0.780849  1
  B  B35  1  0.953095  0.203093  0.906188  1
