# generated using pymatgen
data_Rb4ScSbCl12
_symmetry_space_group_name_H-M   'P 1'
_cell_length_a   7.35751000
_cell_length_b   7.35751000
_cell_length_c   10.62035400
_cell_angle_alpha   90.00000000
_cell_angle_beta   90.00000000
_cell_angle_gamma   90.00000000
_symmetry_Int_Tables_number   1
_chemical_formula_structural   Rb4ScSbCl12
_chemical_formula_sum   'Rb4 Sc1 Sb1 Cl12'
_cell_volume   574.91112817
_cell_formula_units_Z   1
loop_
 _symmetry_equiv_pos_site_id
 _symmetry_equiv_pos_as_xyz
  1  'x, y, z'
loop_
 _atom_site_type_symbol
 _atom_site_label
 _atom_site_symmetry_multiplicity
 _atom_site_fract_x
 _atom_site_fract_y
 _atom_site_fract_z
 _atom_site_occupancy
  Rb  Rb0  1  0.500000  0.000000  0.790606  1
  Rb  Rb1  1  0.000000  0.500000  0.209394  1
  Rb  Rb2  1  0.500000  0.000000  0.209394  1
  Rb  Rb3  1  0.000000  0.500000  0.790606  1
  Sc  Sc4  1  0.000000  0.000000  0.000000  1
  Sb  Sb5  1  0.500000  0.500000  0.500000  1
  Cl  Cl6  1  0.000000  0.000000  0.763857  1
  Cl  Cl7  1  0.500000  0.500000  0.271097  1
  Cl  Cl8  1  0.731822  0.731822  0.500000  1
  Cl  Cl9  1  0.241076  0.241076  0.000000  1
  Cl  Cl10  1  0.731822  0.268178  0.500000  1
  Cl  Cl11  1  0.241076  0.758924  0.000000  1
  Cl  Cl12  1  0.000000  0.000000  0.236143  1
  Cl  Cl13  1  0.500000  0.500000  0.728903  1
  Cl  Cl14  1  0.268178  0.268178  0.500000  1
  Cl  Cl15  1  0.758924  0.758924  0.000000  1
  Cl  Cl16  1  0.268178  0.731822  0.500000  1
  Cl  Cl17  1  0.758924  0.241076  0.000000  1
