# generated using pymatgen
data_VSb2RhO8
_symmetry_space_group_name_H-M   'P 1'
_cell_length_a   5.64964348
_cell_length_b   5.64964299
_cell_length_c   5.64964325
_cell_angle_alpha   108.08924085
_cell_angle_beta   112.14240484
_cell_angle_gamma   108.21552359
_symmetry_Int_Tables_number   1
_chemical_formula_structural   VSb2RhO8
_chemical_formula_sum   'V1 Sb2 Rh1 O8'
_cell_volume   138.58891214
_cell_formula_units_Z   1
loop_
 _symmetry_equiv_pos_site_id
 _symmetry_equiv_pos_as_xyz
  1  'x, y, z'
loop_
 _atom_site_type_symbol
 _atom_site_label
 _atom_site_symmetry_multiplicity
 _atom_site_fract_x
 _atom_site_fract_y
 _atom_site_fract_z
 _atom_site_occupancy
  V  V0  1  0.754917  0.500000  0.254917  1
  Sb  Sb1  1  0.494874  0.000000  0.494874  1
  Sb  Sb2  1  0.246153  0.500000  0.746153  1
  Rh  Rh3  1  0.007010  0.000000  0.007010  1
  O  O4  1  0.495014  0.691778  0.186793  1
  O  O5  1  0.057090  0.802932  0.254158  1
  O  O6  1  0.451226  0.197067  0.254159  1
  O  O7  1  0.003105  0.308020  0.311125  1
  O  O8  1  0.003105  0.691980  0.695086  1
  O  O9  1  0.937026  0.190783  0.746244  1
  O  O10  1  0.555462  0.809216  0.746245  1
  O  O11  1  0.495014  0.308222  0.803236  1
