# generated using pymatgen
data_Ho5Hf3Co10(NiP2)6
_symmetry_space_group_name_H-M   'P 1'
_cell_length_a   12.26667900
_cell_length_b   12.26667733
_cell_length_c   3.75540300
_cell_angle_alpha   90.00000000
_cell_angle_beta   90.00000000
_cell_angle_gamma   120.00000179
_symmetry_Int_Tables_number   1
_chemical_formula_structural   Ho5Hf3Co10(NiP2)6
_chemical_formula_sum   'Ho5 Hf3 Co10 Ni6 P12'
_cell_volume   489.37425131
_cell_formula_units_Z   1
loop_
 _symmetry_equiv_pos_site_id
 _symmetry_equiv_pos_as_xyz
  1  'x, y, z'
loop_
 _atom_site_type_symbol
 _atom_site_label
 _atom_site_symmetry_multiplicity
 _atom_site_fract_x
 _atom_site_fract_y
 _atom_site_fract_z
 _atom_site_occupancy
  Ho  Ho0  1  0.666667  0.333333  0.000000  1
  Ho  Ho1  1  0.333333  0.666667  0.000000  1
  Ho  Ho2  1  0.819346  0.819346  0.500000  1
  Ho  Ho3  1  0.180654  0.000000  0.500000  1
  Ho  Ho4  1  0.000000  0.180654  0.500000  1
  Hf  Hf5  1  0.441025  0.441025  0.000000  1
  Hf  Hf6  1  0.558975  0.000000  0.000000  1
  Hf  Hf7  1  0.000000  0.558975  0.000000  1
  Co  Co8  1  0.804160  0.182000  0.000000  1
  Co  Co9  1  0.818000  0.622159  0.000000  1
  Co  Co10  1  0.377841  0.195840  0.000000  1
  Co  Co11  1  0.182000  0.804160  0.000000  1
  Co  Co12  1  0.622159  0.818000  0.000000  1
  Co  Co13  1  0.195840  0.377841  0.000000  1
  Co  Co14  1  0.277544  0.277544  0.500000  1
  Co  Co15  1  0.722456  0.000000  0.500000  1
  Co  Co16  1  0.000000  0.722456  0.500000  1
  Co  Co17  1  0.000000  0.000000  0.000000  1
  Ni  Ni18  1  0.875690  0.357788  0.500000  1
  Ni  Ni19  1  0.642212  0.517902  0.500000  1
  Ni  Ni20  1  0.482098  0.124310  0.500000  1
  Ni  Ni21  1  0.357788  0.875690  0.500000  1
  Ni  Ni22  1  0.517902  0.642212  0.500000  1
  Ni  Ni23  1  0.124310  0.482098  0.500000  1
  P  P24  1  0.694393  0.169114  0.500000  1
  P  P25  1  0.830886  0.525279  0.500000  1
  P  P26  1  0.474721  0.305607  0.500000  1
  P  P27  1  0.169114  0.694393  0.500000  1
  P  P28  1  0.525279  0.830886  0.500000  1
  P  P29  1  0.305607  0.474721  0.500000  1
  P  P30  1  0.178967  0.178967  0.000000  1
  P  P31  1  0.821033  0.000000  0.000000  1
  P  P32  1  0.000000  0.821033  0.000000  1
  P  P33  1  0.650750  0.650750  0.000000  1
  P  P34  1  0.349250  0.000000  0.000000  1
  P  P35  1  0.000000  0.349250  0.000000  1
