# generated using pymatgen
data_Zr10ZnBi4PPb2
_symmetry_space_group_name_H-M   'P 1'
_cell_length_a   8.80443006
_cell_length_b   8.80443027
_cell_length_c   5.96945420
_cell_angle_alpha   90.01792032
_cell_angle_beta   90.01791278
_cell_angle_gamma   119.96172629
_symmetry_Int_Tables_number   1
_chemical_formula_structural   Zr10ZnBi4PPb2
_chemical_formula_sum   'Zr10 Zn1 Bi4 P1 Pb2'
_cell_volume   400.89906458
_cell_formula_units_Z   1
loop_
 _symmetry_equiv_pos_site_id
 _symmetry_equiv_pos_as_xyz
  1  'x, y, z'
loop_
 _atom_site_type_symbol
 _atom_site_label
 _atom_site_symmetry_multiplicity
 _atom_site_fract_x
 _atom_site_fract_y
 _atom_site_fract_z
 _atom_site_occupancy
  Zr  Zr0  1  0.666730  0.333701  0.501424  1
  Zr  Zr1  1  0.333701  0.666730  0.501424  1
  Zr  Zr2  1  0.332954  0.666844  0.998046  1
  Zr  Zr3  1  0.666844  0.332954  0.998046  1
  Zr  Zr4  1  0.744063  0.744063  0.237765  1
  Zr  Zr5  1  0.255234  0.999936  0.237435  1
  Zr  Zr6  1  0.999936  0.255234  0.237435  1
  Zr  Zr7  1  0.257029  0.257029  0.762815  1
  Zr  Zr8  1  0.743699  0.000776  0.762639  1
  Zr  Zr9  1  0.000776  0.743699  0.762639  1
  Zn  Zn10  1  0.000274  0.000274  0.500289  1
  Bi  Bi11  1  0.391913  0.391913  0.254356  1
  Bi  Bi12  1  0.606391  0.000410  0.254697  1
  Bi  Bi13  1  0.000410  0.606391  0.254697  1
  Bi  Bi14  1  0.609119  0.609119  0.745568  1
  P  P15  1  0.000201  0.000201  0.000640  1
  Pb  Pb16  1  0.390426  0.000297  0.745041  1
  Pb  Pb17  1  0.000297  0.390426  0.745041  1
