# generated using pymatgen
data_Nd6Ta3NbAl12Os7
_symmetry_space_group_name_H-M   'P 1'
_cell_length_a   9.14441982
_cell_length_b   9.14441872
_cell_length_c   9.14227730
_cell_angle_alpha   59.99225126
_cell_angle_beta   59.99224887
_cell_angle_gamma   60.00000697
_symmetry_Int_Tables_number   1
_chemical_formula_structural   Nd6Ta3NbAl12Os7
_chemical_formula_sum   'Nd6 Ta3 Nb1 Al12 Os7'
_cell_volume   540.50633989
_cell_formula_units_Z   1
loop_
 _symmetry_equiv_pos_site_id
 _symmetry_equiv_pos_as_xyz
  1  'x, y, z'
loop_
 _atom_site_type_symbol
 _atom_site_label
 _atom_site_symmetry_multiplicity
 _atom_site_fract_x
 _atom_site_fract_y
 _atom_site_fract_z
 _atom_site_occupancy
  Nd  Nd0  1  0.703182  0.703182  0.297374  1
  Nd  Nd1  1  0.296263  0.703182  0.297374  1
  Nd  Nd2  1  0.703182  0.296263  0.297374  1
  Nd  Nd3  1  0.297859  0.297859  0.701761  1
  Nd  Nd4  1  0.702521  0.297859  0.701761  1
  Nd  Nd5  1  0.297859  0.702521  0.701761  1
  Ta  Ta6  1  0.879996  0.360425  0.879583  1
  Ta  Ta7  1  0.360425  0.879996  0.879583  1
  Ta  Ta8  1  0.879996  0.879996  0.879583  1
  Nb  Nb9  1  0.879739  0.879739  0.360783  1
  Al  Al10  1  0.119029  0.119029  0.642913  1
  Al  Al11  1  0.119693  0.642146  0.118470  1
  Al  Al12  1  0.642146  0.119693  0.118470  1
  Al  Al13  1  0.119693  0.119693  0.118470  1
  Al  Al14  1  0.669533  0.669533  0.991404  1
  Al  Al15  1  0.669652  0.990769  0.669931  1
  Al  Al16  1  0.990769  0.669652  0.669931  1
  Al  Al17  1  0.669652  0.669652  0.669931  1
  Al  Al18  1  0.328055  0.328055  0.015835  1
  Al  Al19  1  0.327876  0.016125  0.328123  1
  Al  Al20  1  0.016125  0.327876  0.328123  1
  Al  Al21  1  0.327876  0.327876  0.328123  1
  Os  Os22  1  0.000270  0.000270  0.999189  1
  Os  Os23  1  0.996244  0.996244  0.505410  1
  Os  Os24  1  0.502102  0.996244  0.505410  1
  Os  Os25  1  0.996244  0.502102  0.505410  1
  Os  Os26  1  0.504194  0.504194  0.995975  1
  Os  Os27  1  0.995638  0.504194  0.995975  1
  Os  Os28  1  0.504194  0.995638  0.995975  1
