# generated using pymatgen
data_Tb2ThFe(Co4P3)2
_symmetry_space_group_name_H-M   'P 1'
_cell_length_a   3.74148400
_cell_length_b   10.58915900
_cell_length_c   12.26140300
_cell_angle_alpha   90.00000000
_cell_angle_beta   90.00000000
_cell_angle_gamma   90.00000000
_symmetry_Int_Tables_number   1
_chemical_formula_structural   Tb2ThFe(Co4P3)2
_chemical_formula_sum   'Tb4 Th2 Fe2 Co16 P12'
_cell_volume   485.78659729
_cell_formula_units_Z   2
loop_
 _symmetry_equiv_pos_site_id
 _symmetry_equiv_pos_as_xyz
  1  'x, y, z'
loop_
 _atom_site_type_symbol
 _atom_site_label
 _atom_site_symmetry_multiplicity
 _atom_site_fract_x
 _atom_site_fract_y
 _atom_site_fract_z
 _atom_site_occupancy
  Tb  Tb0  1  0.500000  0.816122  0.203527  1
  Tb  Tb1  1  0.500000  0.183878  0.203527  1
  Tb  Tb2  1  0.000000  0.683878  0.796473  1
  Tb  Tb3  1  0.000000  0.316122  0.796473  1
  Th  Th4  1  0.000000  0.500000  0.524347  1
  Th  Th5  1  0.500000  0.000000  0.475653  1
  Fe  Fe6  1  0.500000  0.500000  0.154552  1
  Fe  Fe7  1  0.000000  0.000000  0.845448  1
  Co  Co8  1  0.500000  0.500000  0.702068  1
  Co  Co9  1  0.000000  0.000000  0.297932  1
  Co  Co10  1  0.000000  0.500000  0.985439  1
  Co  Co11  1  0.500000  0.000000  0.014561  1
  Co  Co12  1  0.500000  0.333392  0.995041  1
  Co  Co13  1  0.500000  0.666608  0.995041  1
  Co  Co14  1  0.000000  0.166608  0.004959  1
  Co  Co15  1  0.000000  0.833392  0.004959  1
  Co  Co16  1  0.500000  0.298475  0.430188  1
  Co  Co17  1  0.500000  0.701525  0.430188  1
  Co  Co18  1  0.000000  0.201525  0.569812  1
  Co  Co19  1  0.000000  0.798475  0.569812  1
  Co  Co20  1  0.500000  0.880041  0.712355  1
  Co  Co21  1  0.500000  0.119959  0.712355  1
  Co  Co22  1  0.000000  0.619959  0.287645  1
  Co  Co23  1  0.000000  0.380041  0.287645  1
  P  P24  1  0.500000  0.500000  0.882589  1
  P  P25  1  0.000000  0.000000  0.117411  1
  P  P26  1  0.500000  0.500000  0.337327  1
  P  P27  1  0.000000  0.000000  0.662673  1
  P  P28  1  0.500000  0.305034  0.617985  1
  P  P29  1  0.500000  0.694966  0.617985  1
  P  P30  1  0.000000  0.194966  0.382015  1
  P  P31  1  0.000000  0.805034  0.382015  1
  P  P32  1  0.500000  0.847315  0.894873  1
  P  P33  1  0.500000  0.152685  0.894873  1
  P  P34  1  0.000000  0.652685  0.105127  1
  P  P35  1  0.000000  0.347315  0.105127  1
