# generated using pymatgen
data_LiEu4Se5
_symmetry_space_group_name_H-M   'P 1'
_cell_length_a   7.41689473
_cell_length_b   7.41689441
_cell_length_c   10.49355424
_cell_angle_alpha   62.01181463
_cell_angle_beta   62.01181614
_cell_angle_gamma   33.75978755
_symmetry_Int_Tables_number   1
_chemical_formula_structural   LiEu4Se5
_chemical_formula_sum   'Li1 Eu4 Se5'
_cell_volume   279.56167232
_cell_formula_units_Z   1
loop_
 _symmetry_equiv_pos_site_id
 _symmetry_equiv_pos_as_xyz
  1  'x, y, z'
loop_
 _atom_site_type_symbol
 _atom_site_label
 _atom_site_symmetry_multiplicity
 _atom_site_fract_x
 _atom_site_fract_y
 _atom_site_fract_z
 _atom_site_occupancy
  Li  Li0  1  0.000000  0.000000  0.000000  1
  Eu  Eu1  1  0.598885  0.598885  0.606492  1
  Eu  Eu2  1  0.202479  0.202479  0.193132  1
  Eu  Eu3  1  0.797521  0.797521  0.806868  1
  Eu  Eu4  1  0.401115  0.401115  0.393508  1
  Se  Se5  1  0.200599  0.200599  0.699393  1
  Se  Se6  1  0.799401  0.799401  0.300607  1
  Se  Se7  1  0.400582  0.400582  0.899567  1
  Se  Se8  1  0.000000  0.000000  0.500000  1
  Se  Se9  1  0.599418  0.599418  0.100433  1
