# generated using pymatgen
data_Ca(Pr2Ir)2
_symmetry_space_group_name_H-M   'P 1'
_cell_length_a   8.98196832
_cell_length_b   8.98196749
_cell_length_c   7.46807181
_cell_angle_alpha   83.49987914
_cell_angle_beta   83.49988140
_cell_angle_gamma   43.99424025
_symmetry_Int_Tables_number   1
_chemical_formula_structural   Ca(Pr2Ir)2
_chemical_formula_sum   'Ca2 Pr8 Ir4'
_cell_volume   415.35190394
_cell_formula_units_Z   2
loop_
 _symmetry_equiv_pos_site_id
 _symmetry_equiv_pos_as_xyz
  1  'x, y, z'
loop_
 _atom_site_type_symbol
 _atom_site_label
 _atom_site_symmetry_multiplicity
 _atom_site_fract_x
 _atom_site_fract_y
 _atom_site_fract_z
 _atom_site_occupancy
  Ca  Ca0  1  0.015990  0.800344  0.917356  1
  Ca  Ca1  1  0.199656  0.984010  0.582644  1
  Pr  Pr2  1  0.983813  0.200417  0.084671  1
  Pr  Pr3  1  0.799583  0.016187  0.415329  1
  Pr  Pr4  1  0.350837  0.213988  0.817564  1
  Pr  Pr5  1  0.786012  0.649163  0.682436  1
  Pr  Pr6  1  0.652622  0.787364  0.182332  1
  Pr  Pr7  1  0.212636  0.347378  0.317668  1
  Pr  Pr8  1  0.562852  0.437148  0.750000  1
  Pr  Pr9  1  0.430998  0.569002  0.250000  1
  Ir  Ir10  1  0.179888  0.589949  0.570734  1
  Ir  Ir11  1  0.410051  0.820112  0.929266  1
  Ir  Ir12  1  0.818384  0.403323  0.423738  1
  Ir  Ir13  1  0.596677  0.181616  0.076262  1
