# generated using pymatgen
data_LaTh2CoSn3Rh2
_symmetry_space_group_name_H-M   'P 1'
_cell_length_a   7.59583391
_cell_length_b   7.59583263
_cell_length_c   4.06435900
_cell_angle_alpha   90.00000000
_cell_angle_beta   90.00000000
_cell_angle_gamma   120.22701754
_symmetry_Int_Tables_number   1
_chemical_formula_structural   LaTh2CoSn3Rh2
_chemical_formula_sum   'La1 Th2 Co1 Sn3 Rh2'
_cell_volume   202.61682433
_cell_formula_units_Z   1
loop_
 _symmetry_equiv_pos_site_id
 _symmetry_equiv_pos_as_xyz
  1  'x, y, z'
loop_
 _atom_site_type_symbol
 _atom_site_label
 _atom_site_symmetry_multiplicity
 _atom_site_fract_x
 _atom_site_fract_y
 _atom_site_fract_z
 _atom_site_occupancy
  La  La0  1  0.411536  0.411536  0.500000  1
  Th  Th1  1  0.589572  0.000642  0.500000  1
  Th  Th2  1  0.000642  0.589572  0.500000  1
  Co  Co3  1  0.988229  0.988229  0.500000  1
  Sn  Sn4  1  0.753136  0.753136  0.000000  1
  Sn  Sn5  1  0.242287  0.003331  0.000000  1
  Sn  Sn6  1  0.003331  0.242287  0.000000  1
  Rh  Rh7  1  0.680541  0.330726  0.000000  1
  Rh  Rh8  1  0.330726  0.680541  0.000000  1
