# generated using pymatgen
data_Y4Al18Co4NiAu
_symmetry_space_group_name_H-M   'P 1'
_cell_length_a   7.44073297
_cell_length_b   7.44073261
_cell_length_c   9.33358302
_cell_angle_alpha   89.79136407
_cell_angle_beta   89.79136992
_cell_angle_gamma   119.21374637
_symmetry_Int_Tables_number   1
_chemical_formula_structural   Y4Al18Co4NiAu
_chemical_formula_sum   'Y4 Al18 Co4 Ni1 Au1'
_cell_volume   451.00960526
_cell_formula_units_Z   1
loop_
 _symmetry_equiv_pos_site_id
 _symmetry_equiv_pos_as_xyz
  1  'x, y, z'
loop_
 _atom_site_type_symbol
 _atom_site_label
 _atom_site_symmetry_multiplicity
 _atom_site_fract_x
 _atom_site_fract_y
 _atom_site_fract_z
 _atom_site_occupancy
  Y  Y0  1  0.994850  0.676756  0.251531  1
  Y  Y1  1  0.004141  0.322664  0.748623  1
  Y  Y2  1  0.677336  0.995859  0.251377  1
  Y  Y3  1  0.323244  0.005150  0.748469  1
  Al  Al4  1  0.137483  0.136970  0.263458  1
  Al  Al5  1  0.863030  0.862517  0.736542  1
  Al  Al6  1  0.332002  0.331914  0.542011  1
  Al  Al7  1  0.654343  0.657313  0.053517  1
  Al  Al8  1  0.342687  0.345657  0.946483  1
  Al  Al9  1  0.668086  0.667998  0.457989  1
  Al  Al10  1  0.340645  0.558700  0.252869  1
  Al  Al11  1  0.659613  0.442769  0.744722  1
  Al  Al12  1  0.557231  0.340387  0.255278  1
  Al  Al13  1  0.441300  0.659355  0.747131  1
  Al  Al14  1  0.004627  0.349940  0.077082  1
  Al  Al15  1  0.003826  0.662929  0.568943  1
  Al  Al16  1  0.337071  0.996174  0.431057  1
  Al  Al17  1  0.650060  0.995373  0.922918  1
  Al  Al18  1  0.001913  0.653683  0.922852  1
  Al  Al19  1  0.996254  0.336693  0.430893  1
  Al  Al20  1  0.663307  0.003746  0.569107  1
  Al  Al21  1  0.346317  0.998087  0.077148  1
  Co  Co22  1  0.000182  0.999818  0.500000  1
  Co  Co23  1  0.329252  0.670748  0.500000  1
  Co  Co24  1  0.328966  0.671034  0.000000  1
  Co  Co25  1  0.671087  0.328913  0.500000  1
  Ni  Ni26  1  0.671250  0.328750  0.000000  1
  Au  Au27  1  0.999896  0.000104  0.000000  1
