# generated using pymatgen
data_Dy16Cd3InOs4
_symmetry_space_group_name_H-M   'P 1'
_cell_length_a   9.65797331
_cell_length_b   9.65797364
_cell_length_c   9.65797358
_cell_angle_alpha   59.74595654
_cell_angle_beta   59.74595586
_cell_angle_gamma   59.74595424
_symmetry_Int_Tables_number   1
_chemical_formula_structural   Dy16Cd3InOs4
_chemical_formula_sum   'Dy16 Cd3 In1 Os4'
_cell_volume   633.33042306
_cell_formula_units_Z   1
loop_
 _symmetry_equiv_pos_site_id
 _symmetry_equiv_pos_as_xyz
  1  'x, y, z'
loop_
 _atom_site_type_symbol
 _atom_site_label
 _atom_site_symmetry_multiplicity
 _atom_site_fract_x
 _atom_site_fract_y
 _atom_site_fract_z
 _atom_site_occupancy
  Dy  Dy0  1  0.690486  0.309890  0.309890  1
  Dy  Dy1  1  0.691728  0.691728  0.308409  1
  Dy  Dy2  1  0.309890  0.690486  0.309890  1
  Dy  Dy3  1  0.942388  0.942388  0.556754  1
  Dy  Dy4  1  0.152277  0.152277  0.540529  1
  Dy  Dy5  1  0.556341  0.943216  0.556341  1
  Dy  Dy6  1  0.153355  0.153355  0.153355  1
  Dy  Dy7  1  0.309890  0.309890  0.690486  1
  Dy  Dy8  1  0.943216  0.556341  0.556341  1
  Dy  Dy9  1  0.556341  0.556341  0.943216  1
  Dy  Dy10  1  0.556754  0.942388  0.942388  1
  Dy  Dy11  1  0.942388  0.556754  0.942388  1
  Dy  Dy12  1  0.152277  0.540529  0.152277  1
  Dy  Dy13  1  0.308409  0.691728  0.691728  1
  Dy  Dy14  1  0.691728  0.308409  0.691728  1
  Dy  Dy15  1  0.540529  0.152277  0.152277  1
  Cd  Cd16  1  0.920770  0.920770  0.242001  1
  Cd  Cd17  1  0.242001  0.920770  0.920770  1
  Cd  Cd18  1  0.920770  0.242001  0.920770  1
  In  In19  1  0.919449  0.919449  0.919449  1
  Os  Os20  1  0.361271  0.361271  0.361271  1
  Os  Os21  1  0.917408  0.360166  0.360166  1
  Os  Os22  1  0.360166  0.360166  0.917408  1
  Os  Os23  1  0.360166  0.917408  0.360166  1
