# generated using pymatgen
data_PrCdPd3Au
_symmetry_space_group_name_H-M   'P 1'
_cell_length_a   5.52464728
_cell_length_b   5.52464674
_cell_length_c   5.48082200
_cell_angle_alpha   59.73513897
_cell_angle_beta   59.73513019
_cell_angle_gamma   59.99999442
_symmetry_Int_Tables_number   1
_chemical_formula_structural   PrCdPd3Au
_chemical_formula_sum   'Pr1 Cd1 Pd3 Au1'
_cell_volume   117.81197271
_cell_formula_units_Z   1
loop_
 _symmetry_equiv_pos_site_id
 _symmetry_equiv_pos_as_xyz
  1  'x, y, z'
loop_
 _atom_site_type_symbol
 _atom_site_label
 _atom_site_symmetry_multiplicity
 _atom_site_fract_x
 _atom_site_fract_y
 _atom_site_fract_z
 _atom_site_occupancy
  Pr  Pr0  1  0.249468  0.249468  0.251596  1
  Cd  Cd1  1  0.000285  0.000285  0.999144  1
  Pd  Pd2  1  0.625861  0.123088  0.625192  1
  Pd  Pd3  1  0.123088  0.625861  0.625192  1
  Pd  Pd4  1  0.625861  0.625861  0.625192  1
  Au  Au5  1  0.625438  0.625438  0.123686  1
