# generated using pymatgen
data_Sr6Li17Cd6
_symmetry_space_group_name_H-M   'P 1'
_cell_length_a   10.16820300
_cell_length_b   10.16820229
_cell_length_c   10.16820300
_cell_angle_alpha   119.99999905
_cell_angle_beta   90.00000000
_cell_angle_gamma   119.99999905
_symmetry_Int_Tables_number   1
_chemical_formula_structural   Sr6Li17Cd6
_chemical_formula_sum   'Sr6 Li17 Cd6'
_cell_volume   743.39152963
_cell_formula_units_Z   1
loop_
 _symmetry_equiv_pos_site_id
 _symmetry_equiv_pos_as_xyz
  1  'x, y, z'
loop_
 _atom_site_type_symbol
 _atom_site_label
 _atom_site_symmetry_multiplicity
 _atom_site_fract_x
 _atom_site_fract_y
 _atom_site_fract_z
 _atom_site_occupancy
  Sr  Sr0  1  0.790347  0.000000  0.209652  1
  Sr  Sr1  1  0.209653  0.419305  0.209653  1
  Sr  Sr2  1  0.209653  0.000000  0.209653  1
  Sr  Sr3  1  0.790347  0.000000  0.790347  1
  Sr  Sr4  1  0.209652  0.000000  0.790347  1
  Sr  Sr5  1  0.790347  0.580696  0.790347  1
  Li  Li6  1  0.376638  0.753276  0.129915  1
  Li  Li7  1  0.824157  0.648313  0.175844  1
  Li  Li8  1  0.527531  0.351688  0.175844  1
  Li  Li9  1  0.824157  0.351688  0.175844  1
  Li  Li10  1  0.129915  0.753276  0.376638  1
  Li  Li11  1  0.623362  0.753276  0.376638  1
  Li  Li12  1  0.623362  0.246723  0.376638  1
  Li  Li13  1  0.824157  0.648313  0.472469  1
  Li  Li14  1  0.500000  0.000000  0.500000  1
  Li  Li15  1  0.175844  0.351688  0.527531  1
  Li  Li16  1  0.376638  0.753276  0.623362  1
  Li  Li17  1  0.376638  0.246723  0.623362  1
  Li  Li18  1  0.870085  0.246723  0.623362  1
  Li  Li19  1  0.175844  0.648313  0.824157  1
  Li  Li20  1  0.472469  0.648313  0.824157  1
  Li  Li21  1  0.175844  0.351688  0.824157  1
  Li  Li22  1  0.623362  0.246723  0.870085  1
  Cd  Cd23  1  0.500000  0.000000  0.000000  1
  Cd  Cd24  1  0.000000  0.500000  0.000000  1
  Cd  Cd25  1  0.500000  0.500000  0.000000  1
  Cd  Cd26  1  0.000000  0.000000  0.500000  1
  Cd  Cd27  1  0.000000  0.500000  0.500000  1
  Cd  Cd28  1  0.500000  0.500000  0.500000  1
