# generated using pymatgen
data_DyEr7Ti3Si16Tc9
_symmetry_space_group_name_H-M   'P 1'
_cell_length_a   6.76665809
_cell_length_b   6.76728083
_cell_length_c   12.89764877
_cell_angle_alpha   90.08911579
_cell_angle_beta   89.88997071
_cell_angle_gamma   89.31420907
_symmetry_Int_Tables_number   1
_chemical_formula_structural   DyEr7Ti3Si16Tc9
_chemical_formula_sum   'Dy1 Er7 Ti3 Si16 Tc9'
_cell_volume   590.56339653
_cell_formula_units_Z   1
loop_
 _symmetry_equiv_pos_site_id
 _symmetry_equiv_pos_as_xyz
  1  'x, y, z'
loop_
 _atom_site_type_symbol
 _atom_site_label
 _atom_site_symmetry_multiplicity
 _atom_site_fract_x
 _atom_site_fract_y
 _atom_site_fract_z
 _atom_site_occupancy
  Dy  Dy0  1  0.337814  0.001310  0.471332  1
  Er  Er1  1  0.998839  0.661911  0.028890  1
  Er  Er2  1  0.000016  0.339073  0.528596  1
  Er  Er3  1  0.661914  0.998877  0.970995  1
  Er  Er4  1  0.173977  0.490377  0.782947  1
  Er  Er5  1  0.823367  0.512027  0.283009  1
  Er  Er6  1  0.490440  0.174081  0.216979  1
  Er  Er7  1  0.512142  0.823322  0.716977  1
  Ti  Ti8  1  0.843760  0.155723  0.749076  1
  Ti  Ti9  1  0.155661  0.843817  0.250732  1
  Ti  Ti10  1  0.334916  0.334935  0.999995  1
  Si  Si11  1  0.014521  0.735530  0.444584  1
  Si  Si12  1  0.977125  0.270600  0.942614  1
  Si  Si13  1  0.736808  0.014917  0.555480  1
  Si  Si14  1  0.198304  0.474641  0.185892  1
  Si  Si15  1  0.800115  0.528130  0.685163  1
  Si  Si16  1  0.474642  0.198320  0.814116  1
  Si  Si17  1  0.528512  0.799637  0.314595  1
  Si  Si18  1  0.270565  0.977161  0.057396  1
  Si  Si19  1  0.789293  0.880847  0.180111  1
  Si  Si20  1  0.316678  0.603995  0.561223  1
  Si  Si21  1  0.693329  0.386038  0.063467  1
  Si  Si22  1  0.605224  0.317094  0.438911  1
  Si  Si23  1  0.386037  0.693346  0.936505  1
  Si  Si24  1  0.116965  0.212773  0.318043  1
  Si  Si25  1  0.212155  0.117576  0.681985  1
  Si  Si26  1  0.880848  0.789226  0.819890  1
  Tc  Tc27  1  0.306803  0.522918  0.368979  1
  Tc  Tc28  1  0.817831  0.018154  0.364258  1
  Tc  Tc29  1  0.988697  0.180786  0.136055  1
  Tc  Tc30  1  0.017969  0.817381  0.635908  1
  Tc  Tc31  1  0.523886  0.307302  0.631298  1
  Tc  Tc32  1  0.180790  0.988806  0.863979  1
  Tc  Tc33  1  0.665581  0.664960  0.500073  1
  Tc  Tc34  1  0.480159  0.684218  0.130779  1
  Tc  Tc35  1  0.684316  0.480189  0.869168  1
