# generated using pymatgen
data_Yb11Pr8HoPb16
_symmetry_space_group_name_H-M   'P 1'
_cell_length_a   8.07009493
_cell_length_b   8.63505587
_cell_length_c   16.27728013
_cell_angle_alpha   90.07324661
_cell_angle_beta   90.05389324
_cell_angle_gamma   89.94185969
_symmetry_Int_Tables_number   1
_chemical_formula_structural   Yb11Pr8HoPb16
_chemical_formula_sum   'Yb11 Pr8 Ho1 Pb16'
_cell_volume   1134.29198399
_cell_formula_units_Z   1
loop_
 _symmetry_equiv_pos_site_id
 _symmetry_equiv_pos_as_xyz
  1  'x, y, z'
loop_
 _atom_site_type_symbol
 _atom_site_label
 _atom_site_symmetry_multiplicity
 _atom_site_fract_x
 _atom_site_fract_y
 _atom_site_fract_z
 _atom_site_occupancy
  Yb  Yb0  1  0.167557  0.334605  0.877116  1
  Yb  Yb1  1  0.332919  0.834718  0.122861  1
  Yb  Yb2  1  0.833753  0.665191  0.377908  1
  Yb  Yb3  1  0.332346  0.834950  0.377474  1
  Yb  Yb4  1  0.833140  0.665315  0.122742  1
  Yb  Yb5  1  0.666834  0.164960  0.877218  1
  Yb  Yb6  1  0.166921  0.334576  0.621702  1
  Yb  Yb7  1  0.837063  0.495783  0.750466  1
  Yb  Yb8  1  0.334102  0.004093  0.750879  1
  Yb  Yb9  1  0.163657  0.505623  0.249765  1
  Yb  Yb10  1  0.663388  0.995101  0.250357  1
  Pr  Pr11  1  0.501172  0.683246  0.595133  1
  Pr  Pr12  1  0.002780  0.813830  0.905796  1
  Pr  Pr13  1  0.498154  0.313629  0.095577  1
  Pr  Pr14  1  0.998783  0.186907  0.404117  1
  Pr  Pr15  1  0.497141  0.314352  0.404184  1
  Pr  Pr16  1  0.998354  0.186549  0.095282  1
  Pr  Pr17  1  0.502073  0.684625  0.904560  1
  Pr  Pr18  1  0.002306  0.813166  0.593600  1
  Ho  Ho19  1  0.665338  0.167563  0.623774  1
  Pb  Pb20  1  0.680596  0.962505  0.461469  1
  Pb  Pb21  1  0.178365  0.538719  0.040852  1
  Pb  Pb22  1  0.323156  0.038452  0.958888  1
  Pb  Pb23  1  0.817546  0.458820  0.541337  1
  Pb  Pb24  1  0.327069  0.039621  0.542872  1
  Pb  Pb25  1  0.821996  0.461040  0.958792  1
  Pb  Pb26  1  0.677490  0.961227  0.041075  1
  Pb  Pb27  1  0.179108  0.539006  0.459196  1
  Pb  Pb28  1  0.469724  0.386718  0.750011  1
  Pb  Pb29  1  0.966089  0.112814  0.746717  1
  Pb  Pb30  1  0.531031  0.610434  0.250188  1
  Pb  Pb31  1  0.030863  0.890793  0.249693  1
  Pb  Pb32  1  0.704965  0.854742  0.748203  1
  Pb  Pb33  1  0.205643  0.646081  0.749298  1
  Pb  Pb34  1  0.294097  0.146744  0.250412  1
  Pb  Pb35  1  0.794479  0.353503  0.250488  1
