# generated using pymatgen
data_Th8Ni3IrRu4
_symmetry_space_group_name_H-M   'P 1'
_cell_length_a   4.16288300
_cell_length_b   5.93656162
_cell_length_c   14.59134610
_cell_angle_alpha   90.30671894
_cell_angle_beta   90.00000000
_cell_angle_gamma   90.00000000
_symmetry_Int_Tables_number   1
_chemical_formula_structural   Th8Ni3IrRu4
_chemical_formula_sum   'Th8 Ni3 Ir1 Ru4'
_cell_volume   360.59385438
_cell_formula_units_Z   1
loop_
 _symmetry_equiv_pos_site_id
 _symmetry_equiv_pos_as_xyz
  1  'x, y, z'
loop_
 _atom_site_type_symbol
 _atom_site_label
 _atom_site_symmetry_multiplicity
 _atom_site_fract_x
 _atom_site_fract_y
 _atom_site_fract_z
 _atom_site_occupancy
  Th  Th0  1  0.250000  0.551161  0.286941  1
  Th  Th1  1  0.750000  0.452480  0.715875  1
  Th  Th2  1  0.250000  0.954164  0.783874  1
  Th  Th3  1  0.250000  0.757979  0.536252  1
  Th  Th4  1  0.250000  0.746816  0.032345  1
  Th  Th5  1  0.750000  0.259087  0.963233  1
  Th  Th6  1  0.750000  0.048948  0.215700  1
  Th  Th7  1  0.750000  0.245639  0.464428  1
  Ni  Ni8  1  0.750000  0.768185  0.899690  1
  Ni  Ni9  1  0.250000  0.228883  0.098083  1
  Ni  Ni10  1  0.250000  0.263189  0.602439  1
  Ir  Ir11  1  0.750000  0.552732  0.142532  1
  Ru  Ru12  1  0.250000  0.068580  0.348030  1
  Ru  Ru13  1  0.750000  0.720938  0.405528  1
  Ru  Ru14  1  0.250000  0.439214  0.853373  1
  Ru  Ru15  1  0.750000  0.942006  0.651678  1
