# generated using pymatgen
data_NdLuGa(Co2P)6
_symmetry_space_group_name_H-M   'P 1'
_cell_length_a   9.10991200
_cell_length_b   9.10991181
_cell_length_c   3.59420500
_cell_angle_alpha   90.00000000
_cell_angle_beta   90.00000000
_cell_angle_gamma   120.00000069
_symmetry_Int_Tables_number   1
_chemical_formula_structural   NdLuGa(Co2P)6
_chemical_formula_sum   'Nd1 Lu1 Ga1 Co12 P6'
_cell_volume   258.32225745
_cell_formula_units_Z   1
loop_
 _symmetry_equiv_pos_site_id
 _symmetry_equiv_pos_as_xyz
  1  'x, y, z'
loop_
 _atom_site_type_symbol
 _atom_site_label
 _atom_site_symmetry_multiplicity
 _atom_site_fract_x
 _atom_site_fract_y
 _atom_site_fract_z
 _atom_site_occupancy
  Nd  Nd0  1  0.333333  0.666667  0.500000  1
  Lu  Lu1  1  0.000000  0.000000  0.000000  1
  Ga  Ga2  1  0.666667  0.333333  0.000000  1
  Co  Co3  1  0.103038  0.389476  0.000000  1
  Co  Co4  1  0.610524  0.713562  0.000000  1
  Co  Co5  1  0.286438  0.896962  0.000000  1
  Co  Co6  1  0.049602  0.773810  0.500000  1
  Co  Co7  1  0.226190  0.275791  0.500000  1
  Co  Co8  1  0.724209  0.950398  0.500000  1
  Co  Co9  1  0.827407  0.625088  0.000000  1
  Co  Co10  1  0.374912  0.202322  0.000000  1
  Co  Co11  1  0.797678  0.172593  0.000000  1
  Co  Co12  1  0.919969  0.446151  0.500000  1
  Co  Co13  1  0.553849  0.473818  0.500000  1
  Co  Co14  1  0.526182  0.080031  0.500000  1
  P  P15  1  0.778138  0.737699  0.500000  1
  P  P16  1  0.262301  0.040439  0.500000  1
  P  P17  1  0.959561  0.221862  0.500000  1
  P  P18  1  0.065070  0.623196  0.000000  1
  P  P19  1  0.376804  0.441873  0.000000  1
  P  P20  1  0.558127  0.934930  0.000000  1
