# generated using pymatgen
data_LaNb6TlS12
_symmetry_space_group_name_H-M   'P 1'
_cell_length_a   5.79751300
_cell_length_b   5.79751279
_cell_length_c   14.78884300
_cell_angle_alpha   90.00000000
_cell_angle_beta   90.00000000
_cell_angle_gamma   120.00000693
_symmetry_Int_Tables_number   1
_chemical_formula_structural   LaNb6TlS12
_chemical_formula_sum   'La1 Nb6 Tl1 S12'
_cell_volume   430.47530857
_cell_formula_units_Z   1
loop_
 _symmetry_equiv_pos_site_id
 _symmetry_equiv_pos_as_xyz
  1  'x, y, z'
loop_
 _atom_site_type_symbol
 _atom_site_label
 _atom_site_symmetry_multiplicity
 _atom_site_fract_x
 _atom_site_fract_y
 _atom_site_fract_z
 _atom_site_occupancy
  La  La0  1  0.666667  0.333333  0.750000  1
  Nb  Nb1  1  0.333333  0.666667  0.503863  1
  Nb  Nb2  1  0.666667  0.333333  0.995206  1
  Nb  Nb3  1  0.666667  0.333333  0.504794  1
  Nb  Nb4  1  0.333333  0.666667  0.996137  1
  Nb  Nb5  1  0.000000  0.000000  0.503182  1
  Nb  Nb6  1  0.000000  0.000000  0.996818  1
  Tl  Tl7  1  0.333333  0.666667  0.250000  1
  S  S8  1  0.334351  0.331103  0.100581  1
  S  S9  1  0.668897  0.003248  0.100581  1
  S  S10  1  0.996752  0.665649  0.100581  1
  S  S11  1  0.005446  0.332977  0.610839  1
  S  S12  1  0.667023  0.994554  0.889161  1
  S  S13  1  0.667023  0.672468  0.610839  1
  S  S14  1  0.327532  0.994554  0.610839  1
  S  S15  1  0.668897  0.665649  0.399419  1
  S  S16  1  0.334351  0.003248  0.399419  1
  S  S17  1  0.327532  0.332977  0.889161  1
  S  S18  1  0.005446  0.672468  0.889161  1
  S  S19  1  0.996752  0.331103  0.399419  1
