# generated using pymatgen
data_Ac6CuSn6Ir5
_symmetry_space_group_name_H-M   'P 1'
_cell_length_a   7.70566600
_cell_length_b   7.70566593
_cell_length_c   8.66641900
_cell_angle_alpha   90.00000000
_cell_angle_beta   90.00000000
_cell_angle_gamma   119.99999174
_symmetry_Int_Tables_number   1
_chemical_formula_structural   Ac6CuSn6Ir5
_chemical_formula_sum   'Ac6 Cu1 Sn6 Ir5'
_cell_volume   445.64671273
_cell_formula_units_Z   1
loop_
 _symmetry_equiv_pos_site_id
 _symmetry_equiv_pos_as_xyz
  1  'x, y, z'
loop_
 _atom_site_type_symbol
 _atom_site_label
 _atom_site_symmetry_multiplicity
 _atom_site_fract_x
 _atom_site_fract_y
 _atom_site_fract_z
 _atom_site_occupancy
  Ac  Ac0  1  0.999524  0.415924  0.750000  1
  Ac  Ac1  1  0.584076  0.583600  0.750000  1
  Ac  Ac2  1  0.416400  0.000476  0.750000  1
  Ac  Ac3  1  0.000346  0.420053  0.250000  1
  Ac  Ac4  1  0.579947  0.580291  0.250000  1
  Ac  Ac5  1  0.419709  0.999654  0.250000  1
  Cu  Cu6  1  0.000000  0.000000  0.250000  1
  Sn  Sn7  1  0.243797  0.244721  0.501030  1
  Sn  Sn8  1  0.000925  0.756203  0.501030  1
  Sn  Sn9  1  0.000925  0.756203  0.998970  1
  Sn  Sn10  1  0.755279  0.999075  0.501030  1
  Sn  Sn11  1  0.755279  0.999075  0.998970  1
  Sn  Sn12  1  0.243797  0.244721  0.998970  1
  Ir  Ir13  1  0.333333  0.666667  0.500760  1
  Ir  Ir14  1  0.666667  0.333333  0.499468  1
  Ir  Ir15  1  0.333333  0.666667  0.999240  1
  Ir  Ir16  1  0.000000  0.000000  0.750000  1
  Ir  Ir17  1  0.666667  0.333333  0.000532  1
