# generated using pymatgen
data_TmLuTiNbSi2
_symmetry_space_group_name_H-M   'P 1'
_cell_length_a   3.99267500
_cell_length_b   3.99194300
_cell_length_c   7.50447500
_cell_angle_alpha   90.00000000
_cell_angle_beta   90.00000000
_cell_angle_gamma   90.00000000
_symmetry_Int_Tables_number   1
_chemical_formula_structural   TmLuTiNbSi2
_chemical_formula_sum   'Tm1 Lu1 Ti1 Nb1 Si2'
_cell_volume   119.61030756
_cell_formula_units_Z   1
loop_
 _symmetry_equiv_pos_site_id
 _symmetry_equiv_pos_as_xyz
  1  'x, y, z'
loop_
 _atom_site_type_symbol
 _atom_site_label
 _atom_site_symmetry_multiplicity
 _atom_site_fract_x
 _atom_site_fract_y
 _atom_site_fract_z
 _atom_site_occupancy
  Tm  Tm0  1  0.000000  0.500000  0.347451  1
  Lu  Lu1  1  0.500000  0.000000  0.654039  1
  Ti  Ti2  1  0.500000  0.500000  0.999459  1
  Nb  Nb3  1  0.000000  0.000000  0.999585  1
  Si  Si4  1  0.000000  0.500000  0.753430  1
  Si  Si5  1  0.500000  0.000000  0.246037  1
