# generated using pymatgen
data_Li2Sm6Cd21P
_symmetry_space_group_name_H-M   'P 1'
_cell_length_a   9.92814990
_cell_length_b   9.93144815
_cell_length_c   9.93144857
_cell_angle_alpha   60.21516371
_cell_angle_beta   60.01099340
_cell_angle_gamma   60.01098702
_symmetry_Int_Tables_number   1
_chemical_formula_structural   Li2Sm6Cd21P
_chemical_formula_sum   'Li2 Sm6 Cd21 P1'
_cell_volume   693.66869825
_cell_formula_units_Z   1
loop_
 _symmetry_equiv_pos_site_id
 _symmetry_equiv_pos_as_xyz
  1  'x, y, z'
loop_
 _atom_site_type_symbol
 _atom_site_label
 _atom_site_symmetry_multiplicity
 _atom_site_fract_x
 _atom_site_fract_y
 _atom_site_fract_z
 _atom_site_occupancy
  Li  Li0  1  0.000000  0.500000  0.500000  1
  Li  Li1  1  0.500000  0.500000  0.500000  1
  Sm  Sm2  1  0.795773  0.800376  0.199624  1
  Sm  Sm3  1  0.204227  0.800376  0.199624  1
  Sm  Sm4  1  0.797785  0.202215  0.202215  1
  Sm  Sm5  1  0.204227  0.199624  0.800376  1
  Sm  Sm6  1  0.795773  0.199624  0.800376  1
  Sm  Sm7  1  0.202215  0.797785  0.797785  1
  Cd  Cd8  1  0.838252  0.820345  0.503151  1
  Cd  Cd9  1  0.838252  0.503151  0.820345  1
  Cd  Cd10  1  0.502600  0.831782  0.831782  1
  Cd  Cd11  1  0.833834  0.831782  0.831782  1
  Cd  Cd12  1  0.161748  0.179655  0.496849  1
  Cd  Cd13  1  0.161748  0.496849  0.179655  1
  Cd  Cd14  1  0.497400  0.168218  0.168218  1
  Cd  Cd15  1  0.166166  0.168218  0.168218  1
  Cd  Cd16  1  0.618166  0.614690  0.148979  1
  Cd  Cd17  1  0.618166  0.148979  0.614690  1
  Cd  Cd18  1  0.148435  0.612597  0.612597  1
  Cd  Cd19  1  0.626372  0.612597  0.612597  1
  Cd  Cd20  1  0.381834  0.385310  0.851021  1
  Cd  Cd21  1  0.381834  0.851021  0.385310  1
  Cd  Cd22  1  0.851565  0.387403  0.387403  1
  Cd  Cd23  1  0.373628  0.387403  0.387403  1
  Cd  Cd24  1  0.000000  0.000000  0.500000  1
  Cd  Cd25  1  0.500000  0.000000  0.500000  1
  Cd  Cd26  1  0.500000  0.500000  0.000000  1
  Cd  Cd27  1  0.000000  0.500000  0.000000  1
  Cd  Cd28  1  0.500000  0.000000  0.000000  1
  P  P29  1  0.000000  0.000000  0.000000  1
