# generated using pymatgen
data_La3YbGa2Ir3
_symmetry_space_group_name_H-M   'P 1'
_cell_length_a   7.56008000
_cell_length_b   7.52843965
_cell_length_c   4.13909100
_cell_angle_alpha   90.00000000
_cell_angle_beta   90.00000000
_cell_angle_gamma   120.13913318
_symmetry_Int_Tables_number   1
_chemical_formula_structural   La3YbGa2Ir3
_chemical_formula_sum   'La3 Yb1 Ga2 Ir3'
_cell_volume   203.73065529
_cell_formula_units_Z   1
loop_
 _symmetry_equiv_pos_site_id
 _symmetry_equiv_pos_as_xyz
  1  'x, y, z'
loop_
 _atom_site_type_symbol
 _atom_site_label
 _atom_site_symmetry_multiplicity
 _atom_site_fract_x
 _atom_site_fract_y
 _atom_site_fract_z
 _atom_site_occupancy
  La  La0  1  0.606718  0.000000  0.500000  1
  La  La1  1  0.425310  0.441241  0.500000  1
  La  La2  1  0.984070  0.558759  0.500000  1
  Yb  Yb3  1  0.232999  0.000000  0.000000  1
  Ga  Ga4  1  0.004942  0.244003  0.000000  1
  Ga  Ga5  1  0.760939  0.755997  0.000000  1
  Ir  Ir6  1  0.680709  0.344878  0.000000  1
  Ir  Ir7  1  0.335831  0.655122  0.000000  1
  Ir  Ir8  1  0.968478  0.000000  0.500000  1
