# generated using pymatgen
data_Lu8MgNi2Hg
_symmetry_space_group_name_H-M   'P 1'
_cell_length_a   9.35921677
_cell_length_b   9.35921689
_cell_length_c   9.30834500
_cell_angle_alpha   60.17964566
_cell_angle_beta   60.17964522
_cell_angle_gamma   60.54798577
_symmetry_Int_Tables_number   1
_chemical_formula_structural   Lu8MgNi2Hg
_chemical_formula_sum   'Lu16 Mg2 Ni4 Hg2'
_cell_volume   580.47911096
_cell_formula_units_Z   2
loop_
 _symmetry_equiv_pos_site_id
 _symmetry_equiv_pos_as_xyz
  1  'x, y, z'
loop_
 _atom_site_type_symbol
 _atom_site_label
 _atom_site_symmetry_multiplicity
 _atom_site_fract_x
 _atom_site_fract_y
 _atom_site_fract_z
 _atom_site_occupancy
  Lu  Lu0  1  0.346195  0.346195  0.346021  1
  Lu  Lu1  1  0.346195  0.346195  0.961587  1
  Lu  Lu2  1  0.349769  0.956427  0.346901  1
  Lu  Lu3  1  0.956427  0.349769  0.346901  1
  Lu  Lu4  1  0.811566  0.186114  0.189072  1
  Lu  Lu5  1  0.186114  0.811566  0.813248  1
  Lu  Lu6  1  0.186114  0.811566  0.189072  1
  Lu  Lu7  1  0.811566  0.186114  0.813248  1
  Lu  Lu8  1  0.186376  0.186376  0.813624  1
  Lu  Lu9  1  0.808243  0.808243  0.191757  1
  Lu  Lu10  1  0.933680  0.563656  0.564254  1
  Lu  Lu11  1  0.563656  0.933680  0.938409  1
  Lu  Lu12  1  0.563656  0.933680  0.564254  1
  Lu  Lu13  1  0.933680  0.563656  0.938409  1
  Lu  Lu14  1  0.562694  0.562694  0.937306  1
  Lu  Lu15  1  0.935351  0.935351  0.564649  1
  Mg  Mg16  1  0.581746  0.272062  0.573097  1
  Mg  Mg17  1  0.272062  0.581746  0.573097  1
  Ni  Ni18  1  0.141389  0.141389  0.144004  1
  Ni  Ni19  1  0.141389  0.141389  0.573221  1
  Ni  Ni20  1  0.139582  0.574602  0.142909  1
  Ni  Ni21  1  0.574602  0.139582  0.142909  1
  Hg  Hg22  1  0.583975  0.583975  0.588039  1
  Hg  Hg23  1  0.583975  0.583975  0.244012  1
