# generated using pymatgen
data_Tb11Y(TcPt)2
_symmetry_space_group_name_H-M   'P 1'
_cell_length_a   6.45394495
_cell_length_b   7.29183879
_cell_length_c   9.32053753
_cell_angle_alpha   90.00566543
_cell_angle_beta   90.03847321
_cell_angle_gamma   89.91984009
_symmetry_Int_Tables_number   1
_chemical_formula_structural   Tb11Y(TcPt)2
_chemical_formula_sum   'Tb11 Y1 Tc2 Pt2'
_cell_volume   438.63446207
_cell_formula_units_Z   1
loop_
 _symmetry_equiv_pos_site_id
 _symmetry_equiv_pos_as_xyz
  1  'x, y, z'
loop_
 _atom_site_type_symbol
 _atom_site_label
 _atom_site_symmetry_multiplicity
 _atom_site_fract_x
 _atom_site_fract_y
 _atom_site_fract_z
 _atom_site_occupancy
  Tb  Tb0  1  0.125060  0.039760  0.250118  1
  Tb  Tb1  1  0.625044  0.460662  0.750063  1
  Tb  Tb2  1  0.370015  0.533832  0.249851  1
  Tb  Tb3  1  0.869831  0.966227  0.750134  1
  Tb  Tb4  1  0.673373  0.182165  0.059181  1
  Tb  Tb5  1  0.173167  0.317844  0.941123  1
  Tb  Tb6  1  0.826654  0.674197  0.435176  1
  Tb  Tb7  1  0.326574  0.825845  0.564712  1
  Tb  Tb8  1  0.327135  0.825389  0.935487  1
  Tb  Tb9  1  0.826908  0.674325  0.064831  1
  Tb  Tb10  1  0.173290  0.318099  0.558634  1
  Y  Y11  1  0.672876  0.181876  0.441322  1
  Tc  Tc12  1  0.961931  0.390934  0.249784  1
  Tc  Tc13  1  0.461092  0.109342  0.749843  1
  Pt  Pt14  1  0.543235  0.888672  0.249848  1
  Pt  Pt15  1  0.043816  0.610830  0.749893  1
