# generated using pymatgen
data_Na4Si9Ir13
_symmetry_space_group_name_H-M   'P 1'
_cell_length_a   3.89464700
_cell_length_b   11.01626000
_cell_length_c   19.01216000
_cell_angle_alpha   90.00000000
_cell_angle_beta   90.00000000
_cell_angle_gamma   90.00000000
_symmetry_Int_Tables_number   1
_chemical_formula_structural   Na4Si9Ir13
_chemical_formula_sum   'Na8 Si18 Ir26'
_cell_volume   815.70615328
_cell_formula_units_Z   2
loop_
 _symmetry_equiv_pos_site_id
 _symmetry_equiv_pos_as_xyz
  1  'x, y, z'
loop_
 _atom_site_type_symbol
 _atom_site_label
 _atom_site_symmetry_multiplicity
 _atom_site_fract_x
 _atom_site_fract_y
 _atom_site_fract_z
 _atom_site_occupancy
  Na  Na0  1  0.749999  0.750000  0.020711  1
  Na  Na1  1  0.749999  0.562300  0.206227  1
  Na  Na2  1  0.749999  0.937700  0.206227  1
  Na  Na3  1  0.250001  0.750000  0.478601  1
  Na  Na4  1  0.749999  0.250000  0.521399  1
  Na  Na5  1  0.250001  0.062299  0.793773  1
  Na  Na6  1  0.250001  0.437700  0.793773  1
  Na  Na7  1  0.250001  0.250000  0.979289  1
  Si  Si8  1  0.250001  0.562776  0.079782  1
  Si  Si9  1  0.250001  0.937224  0.079782  1
  Si  Si10  1  0.749999  0.250000  0.104555  1
  Si  Si11  1  0.250001  0.750000  0.268251  1
  Si  Si12  1  0.250001  0.122164  0.269656  1
  Si  Si13  1  0.250001  0.377836  0.269656  1
  Si  Si14  1  0.250001  0.250000  0.401279  1
  Si  Si15  1  0.749999  0.565686  0.413804  1
  Si  Si16  1  0.749999  0.934313  0.413804  1
  Si  Si17  1  0.250001  0.065687  0.586196  1
  Si  Si18  1  0.250001  0.434313  0.586196  1
  Si  Si19  1  0.749999  0.750000  0.598721  1
  Si  Si20  1  0.749999  0.622163  0.730345  1
  Si  Si21  1  0.749999  0.877837  0.730345  1
  Si  Si22  1  0.749999  0.250000  0.731749  1
  Si  Si23  1  0.250001  0.750000  0.895444  1
  Si  Si24  1  0.749999  0.062776  0.920218  1
  Si  Si25  1  0.749999  0.437224  0.920218  1
  Ir  Ir26  1  0.749999  0.053146  0.045614  1
  Ir  Ir27  1  0.749999  0.446854  0.045614  1
  Ir  Ir28  1  0.250001  0.750000  0.142639  1
  Ir  Ir29  1  0.250001  0.124251  0.142724  1
  Ir  Ir30  1  0.250001  0.375749  0.142724  1
  Ir  Ir31  1  0.749999  0.250000  0.228904  1
  Ir  Ir32  1  0.250001  0.566556  0.333155  1
  Ir  Ir33  1  0.250001  0.933445  0.333155  1
  Ir  Ir34  1  0.749999  0.750000  0.343330  1
  Ir  Ir35  1  0.749999  0.124378  0.354826  1
  Ir  Ir36  1  0.749999  0.375622  0.354826  1
  Ir  Ir37  1  0.250001  0.057304  0.460679  1
  Ir  Ir38  1  0.250001  0.442696  0.460679  1
  Ir  Ir39  1  0.749999  0.557304  0.539321  1
  Ir  Ir40  1  0.749999  0.942696  0.539321  1
  Ir  Ir41  1  0.250001  0.624379  0.645174  1
  Ir  Ir42  1  0.250001  0.875621  0.645174  1
  Ir  Ir43  1  0.250001  0.250000  0.656670  1
  Ir  Ir44  1  0.749999  0.066555  0.666845  1
  Ir  Ir45  1  0.749999  0.433444  0.666845  1
  Ir  Ir46  1  0.250001  0.750000  0.771096  1
  Ir  Ir47  1  0.749999  0.624250  0.857276  1
  Ir  Ir48  1  0.749999  0.875749  0.857276  1
  Ir  Ir49  1  0.749999  0.250000  0.857361  1
  Ir  Ir50  1  0.250001  0.553146  0.954386  1
  Ir  Ir51  1  0.250001  0.946854  0.954386  1
