# generated using pymatgen
data_Y3Th5(Ga5Ir9)2
_symmetry_space_group_name_H-M   'P 1'
_cell_length_a   5.60359500
_cell_length_b   5.60359508
_cell_length_c   24.00129300
_cell_angle_alpha   90.00000000
_cell_angle_beta   90.00000000
_cell_angle_gamma   119.99999364
_symmetry_Int_Tables_number   1
_chemical_formula_structural   Y3Th5(Ga5Ir9)2
_chemical_formula_sum   'Y3 Th5 Ga10 Ir18'
_cell_volume   652.67771193
_cell_formula_units_Z   1
loop_
 _symmetry_equiv_pos_site_id
 _symmetry_equiv_pos_as_xyz
  1  'x, y, z'
loop_
 _atom_site_type_symbol
 _atom_site_label
 _atom_site_symmetry_multiplicity
 _atom_site_fract_x
 _atom_site_fract_y
 _atom_site_fract_z
 _atom_site_occupancy
  Y  Y0  1  0.666667  0.333333  0.318491  1
  Y  Y1  1  0.666667  0.333333  0.181285  1
  Y  Y2  1  0.333333  0.666667  0.822465  1
  Th  Th3  1  0.333333  0.666667  0.531003  1
  Th  Th4  1  0.666667  0.333333  0.467357  1
  Th  Th5  1  0.666667  0.333333  0.032694  1
  Th  Th6  1  0.333333  0.666667  0.967884  1
  Th  Th7  1  0.333333  0.666667  0.680107  1
  Ga  Ga8  1  0.000000  0.000000  0.999994  1
  Ga  Ga9  1  0.000000  0.000000  0.500187  1
  Ga  Ga10  1  0.333333  0.666667  0.168209  1
  Ga  Ga11  1  0.666667  0.333333  0.831930  1
  Ga  Ga12  1  0.666667  0.333333  0.667460  1
  Ga  Ga13  1  0.333333  0.666667  0.332008  1
  Ga  Ga14  1  0.000000  0.000000  0.166340  1
  Ga  Ga15  1  0.000000  0.000000  0.833452  1
  Ga  Ga16  1  0.000000  0.000000  0.666036  1
  Ga  Ga17  1  0.000000  0.000000  0.333643  1
  Ir  Ir18  1  0.169291  0.338580  0.083816  1
  Ir  Ir19  1  0.831046  0.662094  0.916362  1
  Ir  Ir20  1  0.661420  0.830709  0.083816  1
  Ir  Ir21  1  0.831230  0.662462  0.583803  1
  Ir  Ir22  1  0.337906  0.168954  0.916362  1
  Ir  Ir23  1  0.169020  0.338039  0.416163  1
  Ir  Ir24  1  0.169291  0.830709  0.083816  1
  Ir  Ir25  1  0.337538  0.168770  0.583803  1
  Ir  Ir26  1  0.831046  0.168954  0.916362  1
  Ir  Ir27  1  0.661961  0.830980  0.416163  1
  Ir  Ir28  1  0.831230  0.168770  0.583803  1
  Ir  Ir29  1  0.169020  0.830980  0.416163  1
  Ir  Ir30  1  0.165751  0.331500  0.250016  1
  Ir  Ir31  1  0.833969  0.667939  0.749659  1
  Ir  Ir32  1  0.668500  0.834249  0.250016  1
  Ir  Ir33  1  0.332061  0.166031  0.749659  1
  Ir  Ir34  1  0.165751  0.834249  0.250016  1
  Ir  Ir35  1  0.833969  0.166031  0.749659  1
