# generated using pymatgen
data_SrMnFe(P2O7)2
_symmetry_space_group_name_H-M   'P 1'
_cell_length_a   4.82744922
_cell_length_b   7.20127617
_cell_length_c   8.10591734
_cell_angle_alpha   87.74269177
_cell_angle_beta   93.62870264
_cell_angle_gamma   106.67753861
_symmetry_Int_Tables_number   1
_chemical_formula_structural   SrMnFe(P2O7)2
_chemical_formula_sum   'Sr1 Mn1 Fe1 P4 O14'
_cell_volume   269.33128801
_cell_formula_units_Z   1
loop_
 _symmetry_equiv_pos_site_id
 _symmetry_equiv_pos_as_xyz
  1  'x, y, z'
loop_
 _atom_site_type_symbol
 _atom_site_label
 _atom_site_symmetry_multiplicity
 _atom_site_fract_x
 _atom_site_fract_y
 _atom_site_fract_z
 _atom_site_occupancy
  Sr  Sr0  1  0.000000  0.000000  0.000000  1
  Mn  Mn1  1  0.500000  0.500000  0.000000  1
  Fe  Fe2  1  0.000000  0.000000  0.500000  1
  P  P3  1  0.981617  0.387327  0.244767  1
  P  P4  1  0.018383  0.612673  0.755233  1
  P  P5  1  0.387721  0.782698  0.294319  1
  P  P6  1  0.612279  0.217302  0.705681  1
  O  O7  1  0.085864  0.793039  0.646648  1
  O  O8  1  0.914136  0.206961  0.353352  1
  O  O9  1  0.295122  0.555258  0.802580  1
  O  O10  1  0.704878  0.444742  0.197420  1
  O  O11  1  0.131325  0.350359  0.089217  1
  O  O12  1  0.868675  0.649641  0.910783  1
  O  O13  1  0.203227  0.560556  0.342197  1
  O  O14  1  0.508790  0.215928  0.882460  1
  O  O15  1  0.491210  0.784072  0.117540  1
  O  O16  1  0.822306  0.091017  0.705494  1
  O  O17  1  0.177694  0.908983  0.294506  1
  O  O18  1  0.376827  0.175484  0.568956  1
  O  O19  1  0.623173  0.824516  0.431044  1
  O  O20  1  0.796773  0.439444  0.657803  1
