# generated using pymatgen
data_Ho2Si4Tc3
_symmetry_space_group_name_H-M   'P 1'
_cell_length_a   6.78501800
_cell_length_b   6.76075008
_cell_length_c   6.78005942
_cell_angle_alpha   69.73612162
_cell_angle_beta   90.00000000
_cell_angle_gamma   90.00000000
_symmetry_Int_Tables_number   1
_chemical_formula_structural   Ho2Si4Tc3
_chemical_formula_sum   'Ho4 Si8 Tc6'
_cell_volume   291.76418522
_cell_formula_units_Z   2
loop_
 _symmetry_equiv_pos_site_id
 _symmetry_equiv_pos_as_xyz
  1  'x, y, z'
loop_
 _atom_site_type_symbol
 _atom_site_label
 _atom_site_symmetry_multiplicity
 _atom_site_fract_x
 _atom_site_fract_y
 _atom_site_fract_z
 _atom_site_occupancy
  Ho  Ho0  1  0.667752  0.441394  0.191647  1
  Ho  Ho1  1  0.167752  0.058606  0.808353  1
  Ho  Ho2  1  0.332248  0.558606  0.808353  1
  Ho  Ho3  1  0.832248  0.941394  0.191647  1
  Si  Si4  1  0.449225  0.122584  0.102175  1
  Si  Si5  1  0.949225  0.377416  0.897825  1
  Si  Si6  1  0.550775  0.877416  0.897825  1
  Si  Si7  1  0.050775  0.622584  0.102175  1
  Si  Si8  1  0.859064  0.130970  0.512363  1
  Si  Si9  1  0.359064  0.369030  0.487637  1
  Si  Si10  1  0.140936  0.869030  0.487637  1
  Si  Si11  1  0.640936  0.630970  0.512363  1
  Tc  Tc12  1  0.500000  0.000000  0.500000  1
  Tc  Tc13  1  0.000000  0.500000  0.500000  1
  Tc  Tc14  1  0.150975  0.243297  0.239397  1
  Tc  Tc15  1  0.650975  0.256703  0.760603  1
  Tc  Tc16  1  0.849025  0.756703  0.760603  1
  Tc  Tc17  1  0.349025  0.743297  0.239397  1
