# generated using pymatgen
data_CaYb2LuSb3
_symmetry_space_group_name_H-M   'P 1'
_cell_length_a   8.14809912
_cell_length_b   8.13045275
_cell_length_c   8.06258045
_cell_angle_alpha   109.45803493
_cell_angle_beta   109.55079491
_cell_angle_gamma   109.79896014
_symmetry_Int_Tables_number   1
_chemical_formula_structural   CaYb2LuSb3
_chemical_formula_sum   'Ca2 Yb4 Lu2 Sb6'
_cell_volume   409.15660216
_cell_formula_units_Z   2
loop_
 _symmetry_equiv_pos_site_id
 _symmetry_equiv_pos_as_xyz
  1  'x, y, z'
loop_
 _atom_site_type_symbol
 _atom_site_label
 _atom_site_symmetry_multiplicity
 _atom_site_fract_x
 _atom_site_fract_y
 _atom_site_fract_z
 _atom_site_occupancy
  Ca  Ca0  1  0.003341  0.354894  0.498689  1
  Ca  Ca1  1  0.351877  0.494493  0.996917  1
  Yb  Yb2  1  0.004573  0.855386  0.500244  1
  Yb  Yb3  1  0.855082  0.498073  0.004035  1
  Yb  Yb4  1  0.498819  0.004061  0.857959  1
  Yb  Yb5  1  0.140980  0.145397  0.141924  1
  Lu  Lu6  1  0.498117  0.000085  0.352623  1
  Lu  Lu7  1  0.645893  0.647116  0.647231  1
  Sb  Sb8  1  0.861349  0.112211  0.736262  1
  Sb  Sb9  1  0.385079  0.253409  0.619170  1
  Sb  Sb10  1  0.121624  0.752170  0.880127  1
  Sb  Sb11  1  0.742017  0.871299  0.119952  1
  Sb  Sb12  1  0.265445  0.634875  0.380895  1
  Sb  Sb13  1  0.625803  0.376529  0.263971  1
