# generated using pymatgen
data_Nd5LuAl24(Os3Rh)2
_symmetry_space_group_name_H-M   'P 1'
_cell_length_a   8.84698820
_cell_length_b   8.86720128
_cell_length_c   9.67634600
_cell_angle_alpha   90.00000000
_cell_angle_beta   90.00000000
_cell_angle_gamma   119.29676481
_symmetry_Int_Tables_number   1
_chemical_formula_structural   Nd5LuAl24(Os3Rh)2
_chemical_formula_sum   'Nd5 Lu1 Al24 Os6 Rh2'
_cell_volume   662.00024229
_cell_formula_units_Z   1
loop_
 _symmetry_equiv_pos_site_id
 _symmetry_equiv_pos_as_xyz
  1  'x, y, z'
loop_
 _atom_site_type_symbol
 _atom_site_label
 _atom_site_symmetry_multiplicity
 _atom_site_fract_x
 _atom_site_fract_y
 _atom_site_fract_z
 _atom_site_occupancy
  Nd  Nd0  1  0.814244  0.616759  0.750000  1
  Nd  Nd1  1  0.619569  0.815586  0.250000  1
  Nd  Nd2  1  0.381865  0.183734  0.750000  1
  Nd  Nd3  1  0.190796  0.807207  0.250000  1
  Nd  Nd4  1  0.807333  0.191840  0.750000  1
  Lu  Lu5  1  0.186713  0.393253  0.250000  1
  Al  Al6  1  0.332827  0.666510  0.020519  1
  Al  Al7  1  0.667161  0.331901  0.983193  1
  Al  Al8  1  0.667161  0.331901  0.516807  1
  Al  Al9  1  0.332827  0.666510  0.479481  1
  Al  Al10  1  0.162309  0.325801  0.571207  1
  Al  Al11  1  0.837230  0.672983  0.424125  1
  Al  Al12  1  0.673484  0.837604  0.574533  1
  Al  Al13  1  0.837230  0.672983  0.075875  1
  Al  Al14  1  0.325041  0.163320  0.423068  1
  Al  Al15  1  0.162309  0.325801  0.928793  1
  Al  Al16  1  0.165021  0.834409  0.573405  1
  Al  Al17  1  0.325041  0.163320  0.076932  1
  Al  Al18  1  0.837442  0.165541  0.424548  1
  Al  Al19  1  0.673484  0.837604  0.925467  1
  Al  Al20  1  0.837442  0.165541  0.075452  1
  Al  Al21  1  0.165021  0.834409  0.926595  1
  Al  Al22  1  0.561326  0.127172  0.250000  1
  Al  Al23  1  0.437489  0.871412  0.750000  1
  Al  Al24  1  0.873361  0.437150  0.250000  1
  Al  Al25  1  0.127232  0.560825  0.750000  1
  Al  Al26  1  0.556953  0.438332  0.250000  1
  Al  Al27  1  0.437686  0.559797  0.750000  1
  Al  Al28  1  0.004798  0.012300  0.250000  1
  Al  Al29  1  0.000682  0.997536  0.750000  1
  Os  Os30  1  0.499642  0.999157  0.000411  1
  Os  Os31  1  0.001593  0.498450  0.002409  1
  Os  Os32  1  0.499642  0.999157  0.499589  1
  Os  Os33  1  0.001593  0.498450  0.497591  1
  Os  Os34  1  0.999790  0.999019  0.000540  1
  Os  Os35  1  0.999790  0.999019  0.499460  1
  Rh  Rh36  1  0.498438  0.498854  0.000954  1
  Rh  Rh37  1  0.498438  0.498854  0.499046  1
