# generated using pymatgen
data_Zr4PaV6Tc
_symmetry_space_group_name_H-M   'P 1'
_cell_length_a   5.35672000
_cell_length_b   5.35672171
_cell_length_c   8.45208100
_cell_angle_alpha   90.00000000
_cell_angle_beta   90.00000000
_cell_angle_gamma   120.00000178
_symmetry_Int_Tables_number   1
_chemical_formula_structural   Zr4PaV6Tc
_chemical_formula_sum   'Zr4 Pa1 V6 Tc1'
_cell_volume   210.03530666
_cell_formula_units_Z   1
loop_
 _symmetry_equiv_pos_site_id
 _symmetry_equiv_pos_as_xyz
  1  'x, y, z'
loop_
 _atom_site_type_symbol
 _atom_site_label
 _atom_site_symmetry_multiplicity
 _atom_site_fract_x
 _atom_site_fract_y
 _atom_site_fract_z
 _atom_site_occupancy
  Zr  Zr0  1  0.333333  0.666667  0.432716  1
  Zr  Zr1  1  0.666667  0.333333  0.567284  1
  Zr  Zr2  1  0.666667  0.333333  0.940213  1
  Zr  Zr3  1  0.333333  0.666667  0.059787  1
  Pa  Pa4  1  0.000000  0.000000  0.500000  1
  V  V5  1  0.828227  0.171773  0.238985  1
  V  V6  1  0.828227  0.656454  0.238985  1
  V  V7  1  0.343546  0.171773  0.238985  1
  V  V8  1  0.171773  0.828227  0.761015  1
  V  V9  1  0.171773  0.343546  0.761015  1
  V  V10  1  0.656454  0.828227  0.761015  1
  Tc  Tc11  1  0.000000  0.000000  0.000000  1
