# generated using pymatgen
data_Ti3Nb3V4Si6B
_symmetry_space_group_name_H-M   'P 1'
_cell_length_a   7.42578100
_cell_length_b   7.42578176
_cell_length_c   5.01030200
_cell_angle_alpha   90.00000000
_cell_angle_beta   90.00000000
_cell_angle_gamma   120.00000998
_symmetry_Int_Tables_number   1
_chemical_formula_structural   Ti3Nb3V4Si6B
_chemical_formula_sum   'Ti3 Nb3 V4 Si6 B1'
_cell_volume   239.26479964
_cell_formula_units_Z   1
loop_
 _symmetry_equiv_pos_site_id
 _symmetry_equiv_pos_as_xyz
  1  'x, y, z'
loop_
 _atom_site_type_symbol
 _atom_site_label
 _atom_site_symmetry_multiplicity
 _atom_site_fract_x
 _atom_site_fract_y
 _atom_site_fract_z
 _atom_site_occupancy
  Ti  Ti0  1  0.000000  0.755850  0.245685  1
  Ti  Ti1  1  0.244150  0.244150  0.245685  1
  Ti  Ti2  1  0.755850  0.000000  0.245685  1
  Nb  Nb3  1  0.000000  0.247514  0.753110  1
  Nb  Nb4  1  0.752486  0.752486  0.753110  1
  Nb  Nb5  1  0.247514  0.000000  0.753110  1
  V  V6  1  0.333333  0.666667  0.498742  1
  V  V7  1  0.666667  0.333333  0.498742  1
  V  V8  1  0.666667  0.333333  0.003409  1
  V  V9  1  0.333333  0.666667  0.003409  1
  Si  Si10  1  0.000000  0.402525  0.248915  1
  Si  Si11  1  0.597475  0.597475  0.248915  1
  Si  Si12  1  0.402525  0.000000  0.248915  1
  Si  Si13  1  0.000000  0.597847  0.753079  1
  Si  Si14  1  0.402153  0.402153  0.753079  1
  Si  Si15  1  0.597847  0.000000  0.753079  1
  B  B16  1  0.000000  0.000000  0.493328  1
