# generated using pymatgen
data_CaPr6NiI12
_symmetry_space_group_name_H-M   'P 1'
_cell_length_a   10.05101448
_cell_length_b   10.05101488
_cell_length_c   10.05101600
_cell_angle_alpha   106.86497100
_cell_angle_beta   106.86496572
_cell_angle_gamma   106.86497310
_symmetry_Int_Tables_number   1
_chemical_formula_structural   CaPr6NiI12
_chemical_formula_sum   'Ca1 Pr6 Ni1 I12'
_cell_volume   848.71601956
_cell_formula_units_Z   1
loop_
 _symmetry_equiv_pos_site_id
 _symmetry_equiv_pos_as_xyz
  1  'x, y, z'
loop_
 _atom_site_type_symbol
 _atom_site_label
 _atom_site_symmetry_multiplicity
 _atom_site_fract_x
 _atom_site_fract_y
 _atom_site_fract_z
 _atom_site_occupancy
  Ca  Ca0  1  0.500000  0.500000  0.500000  1
  Pr  Pr1  1  0.900007  0.974164  0.697373  1
  Pr  Pr2  1  0.697373  0.900007  0.974164  1
  Pr  Pr3  1  0.974164  0.697373  0.900007  1
  Pr  Pr4  1  0.099993  0.025836  0.302627  1
  Pr  Pr5  1  0.302627  0.099993  0.025836  1
  Pr  Pr6  1  0.025836  0.302627  0.099993  1
  Ni  Ni7  1  0.000000  0.000000  0.000000  1
  I  I8  1  0.925676  0.320634  0.773211  1
  I  I9  1  0.773211  0.925676  0.320634  1
  I  I10  1  0.320634  0.773211  0.925676  1
  I  I11  1  0.074324  0.679366  0.226789  1
  I  I12  1  0.226789  0.074324  0.679366  1
  I  I13  1  0.679366  0.226789  0.074324  1
  I  I14  1  0.538072  0.841713  0.616119  1
  I  I15  1  0.616119  0.538072  0.841713  1
  I  I16  1  0.841713  0.616119  0.538072  1
  I  I17  1  0.461928  0.158287  0.383881  1
  I  I18  1  0.383881  0.461928  0.158287  1
  I  I19  1  0.158287  0.383881  0.461928  1
