# generated using pymatgen
data_Y2HoCd(Ir2O7)2
_symmetry_space_group_name_H-M   'P 1'
_cell_length_a   7.19991676
_cell_length_b   7.19650030
_cell_length_c   7.19650010
_cell_angle_alpha   60.98761880
_cell_angle_beta   60.98053603
_cell_angle_gamma   60.98053628
_symmetry_Int_Tables_number   1
_chemical_formula_structural   Y2HoCd(Ir2O7)2
_chemical_formula_sum   'Y2 Ho1 Cd1 Ir4 O14'
_cell_volume   269.50478061
_cell_formula_units_Z   1
loop_
 _symmetry_equiv_pos_site_id
 _symmetry_equiv_pos_as_xyz
  1  'x, y, z'
loop_
 _atom_site_type_symbol
 _atom_site_label
 _atom_site_symmetry_multiplicity
 _atom_site_fract_x
 _atom_site_fract_y
 _atom_site_fract_z
 _atom_site_occupancy
  Y  Y0  1  0.125000  0.625000  0.125000  1
  Y  Y1  1  0.125000  0.125000  0.625000  1
  Ho  Ho2  1  0.625000  0.125000  0.125000  1
  Cd  Cd3  1  0.125000  0.125000  0.125000  1
  Ir  Ir4  1  0.125000  0.625000  0.625000  1
  Ir  Ir5  1  0.625000  0.125000  0.625000  1
  Ir  Ir6  1  0.625000  0.625000  0.125000  1
  Ir  Ir7  1  0.625000  0.625000  0.625000  1
  O  O8  1  0.710325  0.713359  0.290015  1
  O  O9  1  0.295781  0.295441  0.698470  1
  O  O10  1  0.710325  0.290015  0.713359  1
  O  O11  1  0.295781  0.698470  0.295441  1
  O  O12  1  0.290631  0.711398  0.711398  1
  O  O13  1  0.697390  0.295038  0.295038  1
  O  O14  1  0.539675  0.536641  0.959985  1
  O  O15  1  0.954219  0.954559  0.551530  1
  O  O16  1  0.539675  0.959985  0.536641  1
  O  O17  1  0.954219  0.551530  0.954559  1
  O  O18  1  0.959369  0.538602  0.538602  1
  O  O19  1  0.552610  0.954962  0.954962  1
  O  O20  1  0.253374  0.250628  0.250628  1
  O  O21  1  0.996626  0.999372  0.999372  1
