# generated using pymatgen
data_Hf8Co3ReOs4
_symmetry_space_group_name_H-M   'P 1'
_cell_length_a   6.46888600
_cell_length_b   4.57160800
_cell_length_c   9.13037800
_cell_angle_alpha   90.00000000
_cell_angle_beta   90.00000000
_cell_angle_gamma   90.00000000
_symmetry_Int_Tables_number   1
_chemical_formula_structural   Hf8Co3ReOs4
_chemical_formula_sum   'Hf8 Co3 Re1 Os4'
_cell_volume   270.01459500
_cell_formula_units_Z   1
loop_
 _symmetry_equiv_pos_site_id
 _symmetry_equiv_pos_as_xyz
  1  'x, y, z'
loop_
 _atom_site_type_symbol
 _atom_site_label
 _atom_site_symmetry_multiplicity
 _atom_site_fract_x
 _atom_site_fract_y
 _atom_site_fract_z
 _atom_site_occupancy
  Hf  Hf0  1  0.500376  0.749999  0.126253  1
  Hf  Hf1  1  0.999629  0.749999  0.126252  1
  Hf  Hf2  1  0.499423  0.250000  0.375001  1
  Hf  Hf3  1  0.000581  0.250000  0.375001  1
  Hf  Hf4  1  0.500376  0.749999  0.623748  1
  Hf  Hf5  1  0.999629  0.749999  0.623749  1
  Hf  Hf6  1  0.501265  0.250000  0.874999  1
  Hf  Hf7  1  0.998733  0.250000  0.874999  1
  Co  Co8  1  0.750000  0.250000  0.125524  1
  Co  Co9  1  0.250004  0.749999  0.374999  1
  Co  Co10  1  0.750002  0.250000  0.624476  1
  Re  Re11  1  0.249976  0.749999  0.875001  1
  Os  Os12  1  0.249999  0.250000  0.128007  1
  Os  Os13  1  0.750002  0.749999  0.374998  1
  Os  Os14  1  0.250000  0.250000  0.621992  1
  Os  Os15  1  0.750001  0.749999  0.875003  1
