# generated using pymatgen
data_Dy7Y(Sc3Sn4)4
_symmetry_space_group_name_H-M   'P 1'
_cell_length_a   7.68956500
_cell_length_b   7.96143200
_cell_length_c   14.84237800
_cell_angle_alpha   89.99834630
_cell_angle_beta   89.99877524
_cell_angle_gamma   90.00256259
_symmetry_Int_Tables_number   1
_chemical_formula_structural   Dy7Y(Sc3Sn4)4
_chemical_formula_sum   'Dy7 Y1 Sc12 Sn16'
_cell_volume   908.64962133
_cell_formula_units_Z   1
loop_
 _symmetry_equiv_pos_site_id
 _symmetry_equiv_pos_as_xyz
  1  'x, y, z'
loop_
 _atom_site_type_symbol
 _atom_site_label
 _atom_site_symmetry_multiplicity
 _atom_site_fract_x
 _atom_site_fract_y
 _atom_site_fract_z
 _atom_site_occupancy
  Dy  Dy0  1  0.003802  0.823317  0.905559  1
  Dy  Dy1  1  0.503802  0.676623  0.905581  1
  Dy  Dy2  1  0.003795  0.823354  0.594421  1
  Dy  Dy3  1  0.496192  0.323373  0.094438  1
  Dy  Dy4  1  0.996214  0.176629  0.405587  1
  Dy  Dy5  1  0.496191  0.323372  0.405571  1
  Dy  Dy6  1  0.503816  0.676638  0.594422  1
  Y  Y7  1  0.996088  0.176584  0.094369  1
  Sc  Sc8  1  0.163666  0.496668  0.750002  1
  Sc  Sc9  1  0.836300  0.503379  0.250023  1
  Sc  Sc10  1  0.336374  0.996686  0.250007  1
  Sc  Sc11  1  0.663674  0.003321  0.749983  1
  Sc  Sc12  1  0.334924  0.162220  0.627212  1
  Sc  Sc13  1  0.665058  0.837757  0.372786  1
  Sc  Sc14  1  0.165095  0.662215  0.372775  1
  Sc  Sc15  1  0.665023  0.837756  0.127230  1
  Sc  Sc16  1  0.834931  0.337800  0.627212  1
  Sc  Sc17  1  0.334886  0.162226  0.872795  1
  Sc  Sc18  1  0.834906  0.337824  0.872743  1
  Sc  Sc19  1  0.165074  0.662217  0.127214  1
  Sn  Sn20  1  0.026218  0.124693  0.750006  1
  Sn  Sn21  1  0.973739  0.875222  0.250061  1
  Sn  Sn22  1  0.473780  0.624705  0.250012  1
  Sn  Sn23  1  0.526237  0.375301  0.750003  1
  Sn  Sn24  1  0.305734  0.850675  0.750004  1
  Sn  Sn25  1  0.694190  0.149299  0.250028  1
  Sn  Sn26  1  0.194374  0.350758  0.250059  1
  Sn  Sn27  1  0.805737  0.649308  0.749992  1
  Sn  Sn28  1  0.179472  0.458096  0.542384  1
  Sn  Sn29  1  0.820513  0.541922  0.457599  1
  Sn  Sn30  1  0.320550  0.958083  0.457598  1
  Sn  Sn31  1  0.820487  0.542030  0.042386  1
  Sn  Sn32  1  0.679459  0.041906  0.542387  1
  Sn  Sn33  1  0.179513  0.458183  0.957575  1
  Sn  Sn34  1  0.679453  0.041894  0.957594  1
  Sn  Sn35  1  0.320732  0.957967  0.042382  1
