# generated using pymatgen
data_Er16CdIn2AgRh4
_symmetry_space_group_name_H-M   'P 1'
_cell_length_a   9.57078170
_cell_length_b   9.54027298
_cell_length_c   9.53897997
_cell_angle_alpha   59.90489621
_cell_angle_beta   59.88965464
_cell_angle_gamma   59.89416432
_symmetry_Int_Tables_number   1
_chemical_formula_structural   Er16CdIn2AgRh4
_chemical_formula_sum   'Er16 Cd1 In2 Ag1 Rh4'
_cell_volume   614.42881020
_cell_formula_units_Z   1
loop_
 _symmetry_equiv_pos_site_id
 _symmetry_equiv_pos_as_xyz
  1  'x, y, z'
loop_
 _atom_site_type_symbol
 _atom_site_label
 _atom_site_symmetry_multiplicity
 _atom_site_fract_x
 _atom_site_fract_y
 _atom_site_fract_z
 _atom_site_occupancy
  Er  Er0  1  0.188553  0.189805  0.810843  1
  Er  Er1  1  0.438750  0.064263  0.058237  1
  Er  Er2  1  0.435773  0.062686  0.434940  1
  Er  Er3  1  0.068188  0.436544  0.058420  1
  Er  Er4  1  0.651365  0.051502  0.645768  1
  Er  Er5  1  0.188052  0.812349  0.811546  1
  Er  Er6  1  0.066602  0.062686  0.434940  1
  Er  Er7  1  0.808993  0.190916  0.191099  1
  Er  Er8  1  0.810868  0.810931  0.189668  1
  Er  Er9  1  0.650437  0.647102  0.052024  1
  Er  Er10  1  0.653473  0.650413  0.649179  1
  Er  Er11  1  0.065556  0.434660  0.434228  1
  Er  Er12  1  0.046935  0.650413  0.649179  1
  Er  Er13  1  0.810800  0.189805  0.810843  1
  Er  Er14  1  0.436847  0.436544  0.058420  1
  Er  Er15  1  0.188534  0.810931  0.189668  1
  Cd  Cd16  1  0.416777  0.743053  0.423393  1
  In  In17  1  0.744298  0.418742  0.422055  1
  In  In18  1  0.414905  0.418742  0.422055  1
  Ag  Ag19  1  0.415390  0.416777  0.752444  1
  Rh  Rh20  1  0.857668  0.426559  0.858104  1
  Rh  Rh21  1  0.857384  0.858524  0.426709  1
  Rh  Rh22  1  0.428662  0.858028  0.858120  1
  Rh  Rh23  1  0.855190  0.858028  0.858120  1
