# generated using pymatgen
data_DyYTm2(B6Os)2
_symmetry_space_group_name_H-M   'P 1'
_cell_length_a   3.63626000
_cell_length_b   9.10885503
_cell_length_c   11.50172003
_cell_angle_alpha   89.99140980
_cell_angle_beta   90.00000000
_cell_angle_gamma   90.00000000
_symmetry_Int_Tables_number   1
_chemical_formula_structural   DyYTm2(B6Os)2
_chemical_formula_sum   'Dy2 Y2 Tm4 B24 Os4'
_cell_volume   380.96186643
_cell_formula_units_Z   2
loop_
 _symmetry_equiv_pos_site_id
 _symmetry_equiv_pos_as_xyz
  1  'x, y, z'
loop_
 _atom_site_type_symbol
 _atom_site_label
 _atom_site_symmetry_multiplicity
 _atom_site_fract_x
 _atom_site_fract_y
 _atom_site_fract_z
 _atom_site_occupancy
  Dy  Dy0  1  0.000000  0.821703  0.086059  1
  Dy  Dy1  1  0.000000  0.178297  0.913941  1
  Y  Y2  1  0.000000  0.321475  0.413931  1
  Y  Y3  1  0.000000  0.678525  0.586069  1
  Tm  Tm4  1  0.000000  0.944089  0.373021  1
  Tm  Tm5  1  0.000000  0.055911  0.626980  1
  Tm  Tm6  1  0.000000  0.444081  0.126862  1
  Tm  Tm7  1  0.000000  0.555919  0.873137  1
  B  B8  1  0.500000  0.554184  0.432822  1
  B  B9  1  0.500000  0.445816  0.567178  1
  B  B10  1  0.500000  0.054111  0.067035  1
  B  B11  1  0.500000  0.945889  0.932965  1
  B  B12  1  0.500000  0.749089  0.419488  1
  B  B13  1  0.500000  0.250911  0.580512  1
  B  B14  1  0.500000  0.248991  0.080266  1
  B  B15  1  0.500000  0.751009  0.919734  1
  B  B16  1  0.500000  0.791576  0.266260  1
  B  B17  1  0.500000  0.208424  0.733740  1
  B  B18  1  0.500000  0.291478  0.233475  1
  B  B19  1  0.500000  0.708521  0.766525  1
  B  B20  1  0.500000  0.631271  0.184800  1
  B  B21  1  0.500000  0.368729  0.815200  1
  B  B22  1  0.500000  0.131062  0.314994  1
  B  B23  1  0.500000  0.868938  0.685006  1
  B  B24  1  0.500000  0.982839  0.213418  1
  B  B25  1  0.500000  0.017161  0.786582  1
  B  B26  1  0.500000  0.482960  0.286371  1
  B  B27  1  0.500000  0.517040  0.713629  1
  B  B28  1  0.500000  0.605654  0.029160  1
  B  B29  1  0.500000  0.394346  0.970840  1
  B  B30  1  0.500000  0.105450  0.470873  1
  B  B31  1  0.500000  0.894550  0.529127  1
  Os  Os32  1  0.000000  0.638058  0.320547  1
  Os  Os33  1  0.000000  0.361942  0.679453  1
  Os  Os34  1  0.000000  0.137827  0.179123  1
  Os  Os35  1  0.000000  0.862173  0.820877  1
