# generated using pymatgen
data_Ce2Tm13Th(CdIr)4
_symmetry_space_group_name_H-M   'P 1'
_cell_length_a   9.60774810
_cell_length_b   9.59984333
_cell_length_c   9.64709000
_cell_angle_alpha   59.83706052
_cell_angle_beta   59.86445210
_cell_angle_gamma   59.65875956
_symmetry_Int_Tables_number   1
_chemical_formula_structural   Ce2Tm13Th(CdIr)4
_chemical_formula_sum   'Ce2 Tm13 Th1 Cd4 Ir4'
_cell_volume   626.11795920
_cell_formula_units_Z   1
loop_
 _symmetry_equiv_pos_site_id
 _symmetry_equiv_pos_as_xyz
  1  'x, y, z'
loop_
 _atom_site_type_symbol
 _atom_site_label
 _atom_site_symmetry_multiplicity
 _atom_site_fract_x
 _atom_site_fract_y
 _atom_site_fract_z
 _atom_site_occupancy
  Ce  Ce0  1  0.597846  0.600527  0.599111  1
  Ce  Ce1  1  0.597846  0.600527  0.202517  1
  Tm  Tm2  1  0.196692  0.601868  0.600720  1
  Tm  Tm3  1  0.060958  0.438416  0.440166  1
  Tm  Tm4  1  0.436176  0.062506  0.063540  1
  Tm  Tm5  1  0.436176  0.062506  0.437777  1
  Tm  Tm6  1  0.060958  0.438416  0.060458  1
  Tm  Tm7  1  0.438019  0.438297  0.061841  1
  Tm  Tm8  1  0.063269  0.061022  0.437854  1
  Tm  Tm9  1  0.189118  0.812169  0.812641  1
  Tm  Tm10  1  0.815022  0.186290  0.183931  1
  Tm  Tm11  1  0.815022  0.186290  0.814757  1
  Tm  Tm12  1  0.189118  0.812169  0.186071  1
  Tm  Tm13  1  0.814573  0.813697  0.185865  1
  Tm  Tm14  1  0.186059  0.186047  0.813947  1
  Th  Th15  1  0.598756  0.200241  0.600501  1
  Cd  Cd16  1  0.834024  0.829030  0.833740  1
  Cd  Cd17  1  0.834024  0.829030  0.503206  1
  Cd  Cd18  1  0.832241  0.503424  0.832167  1
  Cd  Cd19  1  0.501509  0.829760  0.834365  1
  Ir  Ir20  1  0.392738  0.394852  0.389484  1
  Ir  Ir21  1  0.392738  0.394852  0.822926  1
  Ir  Ir22  1  0.394726  0.822973  0.391151  1
  Ir  Ir23  1  0.822391  0.395086  0.391262  1
