# generated using pymatgen
data_Pm4Hf(FeO4)3
_symmetry_space_group_name_H-M   'P 1'
_cell_length_a   5.52600497
_cell_length_b   5.80427654
_cell_length_c   7.90375276
_cell_angle_alpha   90.22341550
_cell_angle_beta   89.40838261
_cell_angle_gamma   90.70134406
_symmetry_Int_Tables_number   1
_chemical_formula_structural   Pm4Hf(FeO4)3
_chemical_formula_sum   'Pm4 Hf1 Fe3 O12'
_cell_volume   253.47429978
_cell_formula_units_Z   1
loop_
 _symmetry_equiv_pos_site_id
 _symmetry_equiv_pos_as_xyz
  1  'x, y, z'
loop_
 _atom_site_type_symbol
 _atom_site_label
 _atom_site_symmetry_multiplicity
 _atom_site_fract_x
 _atom_site_fract_y
 _atom_site_fract_z
 _atom_site_occupancy
  Pm  Pm0  1  0.984960  0.071548  0.253740  1
  Pm  Pm1  1  0.519459  0.558832  0.256675  1
  Pm  Pm2  1  0.480542  0.441168  0.743325  1
  Pm  Pm3  1  0.015039  0.928452  0.746260  1
  Hf  Hf4  1  0.500000  0.000000  0.000000  1
  Fe  Fe5  1  0.000000  0.499999  0.000000  1
  Fe  Fe6  1  0.500000  0.000000  0.500000  1
  Fe  Fe7  1  0.000000  0.499999  0.500000  1
  O  O8  1  0.684712  0.301843  0.058973  1
  O  O9  1  0.802772  0.815401  0.057248  1
  O  O10  1  0.112149  0.462944  0.259570  1
  O  O11  1  0.392113  0.961897  0.253668  1
  O  O12  1  0.698941  0.298091  0.444990  1
  O  O13  1  0.797509  0.802934  0.444401  1
  O  O14  1  0.202492  0.197066  0.555600  1
  O  O15  1  0.301060  0.701909  0.555011  1
  O  O16  1  0.607888  0.038103  0.746332  1
  O  O17  1  0.887852  0.537056  0.740430  1
  O  O18  1  0.197229  0.184599  0.942753  1
  O  O19  1  0.315289  0.698157  0.941028  1
