# generated using pymatgen
data_CsNi2(Sb6Os)2
_symmetry_space_group_name_H-M   'P 1'
_cell_length_a   8.15083603
_cell_length_b   8.15359043
_cell_length_c   8.15359013
_cell_angle_alpha   109.35609309
_cell_angle_beta   109.49147013
_cell_angle_gamma   109.57990730
_symmetry_Int_Tables_number   1
_chemical_formula_structural   CsNi2(Sb6Os)2
_chemical_formula_sum   'Cs1 Ni2 Sb12 Os2'
_cell_volume   417.06403479
_cell_formula_units_Z   1
loop_
 _symmetry_equiv_pos_site_id
 _symmetry_equiv_pos_as_xyz
  1  'x, y, z'
loop_
 _atom_site_type_symbol
 _atom_site_label
 _atom_site_symmetry_multiplicity
 _atom_site_fract_x
 _atom_site_fract_y
 _atom_site_fract_z
 _atom_site_occupancy
  Cs  Cs0  1  0.000000  0.000000  0.000000  1
  Ni  Ni1  1  0.000000  0.000000  0.500000  1
  Ni  Ni2  1  0.000000  0.500000  0.000000  1
  Sb  Sb3  1  0.341302  0.183315  0.839325  1
  Sb  Sb4  1  0.658698  0.816685  0.160675  1
  Sb  Sb5  1  0.658698  0.498022  0.842014  1
  Sb  Sb6  1  0.341302  0.501978  0.157986  1
  Sb  Sb7  1  0.182712  0.839685  0.343027  1
  Sb  Sb8  1  0.817288  0.160315  0.656973  1
  Sb  Sb9  1  0.499433  0.842851  0.656584  1
  Sb  Sb10  1  0.500567  0.157149  0.343416  1
  Sb  Sb11  1  0.842595  0.344649  0.183873  1
  Sb  Sb12  1  0.157405  0.655351  0.816127  1
  Sb  Sb13  1  0.842595  0.658722  0.497945  1
  Sb  Sb14  1  0.157405  0.341278  0.502055  1
  Os  Os15  1  0.500000  0.000000  0.000000  1
  Os  Os16  1  0.500000  0.500000  0.500000  1
