# generated using pymatgen
data_Dy3NiSn3IrRh
_symmetry_space_group_name_H-M   'P 1'
_cell_length_a   7.52257200
_cell_length_b   7.52257197
_cell_length_c   3.81685100
_cell_angle_alpha   90.00000000
_cell_angle_beta   90.00000000
_cell_angle_gamma   119.99999132
_symmetry_Int_Tables_number   1
_chemical_formula_structural   Dy3NiSn3IrRh
_chemical_formula_sum   'Dy3 Ni1 Sn3 Ir1 Rh1'
_cell_volume   187.05468107
_cell_formula_units_Z   1
loop_
 _symmetry_equiv_pos_site_id
 _symmetry_equiv_pos_as_xyz
  1  'x, y, z'
loop_
 _atom_site_type_symbol
 _atom_site_label
 _atom_site_symmetry_multiplicity
 _atom_site_fract_x
 _atom_site_fract_y
 _atom_site_fract_z
 _atom_site_occupancy
  Dy  Dy0  1  0.405684  0.408477  0.500000  1
  Dy  Dy1  1  0.591523  0.997207  0.500000  1
  Dy  Dy2  1  0.002793  0.594316  0.500000  1
  Ni  Ni3  1  0.000000  0.000000  0.500000  1
  Sn  Sn4  1  0.747395  0.744652  0.000000  1
  Sn  Sn5  1  0.255348  0.002743  0.000000  1
  Sn  Sn6  1  0.997257  0.252605  0.000000  1
  Ir  Ir7  1  0.333333  0.666667  0.000000  1
  Rh  Rh8  1  0.666667  0.333333  0.000000  1
