# generated using pymatgen
data_Dy6P12Ru13Rh5
_symmetry_space_group_name_H-M   'P 1'
_cell_length_a   3.97913300
_cell_length_b   11.23017484
_cell_length_c   12.55853167
_cell_angle_alpha   89.60211681
_cell_angle_beta   90.00000000
_cell_angle_gamma   90.00000000
_symmetry_Int_Tables_number   1
_chemical_formula_structural   Dy6P12Ru13Rh5
_chemical_formula_sum   'Dy6 P12 Ru13 Rh5'
_cell_volume   561.18152678
_cell_formula_units_Z   1
loop_
 _symmetry_equiv_pos_site_id
 _symmetry_equiv_pos_as_xyz
  1  'x, y, z'
loop_
 _atom_site_type_symbol
 _atom_site_label
 _atom_site_symmetry_multiplicity
 _atom_site_fract_x
 _atom_site_fract_y
 _atom_site_fract_z
 _atom_site_occupancy
  Dy  Dy0  1  0.000000  0.498344  0.522763  1
  Dy  Dy1  1  0.500000  0.002293  0.477804  1
  Dy  Dy2  1  0.500000  0.818888  0.204085  1
  Dy  Dy3  1  0.500000  0.179779  0.204404  1
  Dy  Dy4  1  0.000000  0.681760  0.795541  1
  Dy  Dy5  1  0.000000  0.320014  0.795478  1
  P  P6  1  0.500000  0.501359  0.883486  1
  P  P7  1  0.000000  0.998992  0.116472  1
  P  P8  1  0.500000  0.499803  0.345456  1
  P  P9  1  0.000000  0.993377  0.657179  1
  P  P10  1  0.500000  0.305732  0.615047  1
  P  P11  1  0.500000  0.697554  0.617054  1
  P  P12  1  0.000000  0.193511  0.385254  1
  P  P13  1  0.000000  0.804121  0.383414  1
  P  P14  1  0.500000  0.845654  0.894827  1
  P  P15  1  0.500000  0.156892  0.898203  1
  P  P16  1  0.000000  0.655843  0.102291  1
  P  P17  1  0.000000  0.343653  0.102614  1
  Ru  Ru18  1  0.500000  0.500089  0.159734  1
  Ru  Ru19  1  0.000000  0.001788  0.841734  1
  Ru  Ru20  1  0.000000  0.500578  0.987644  1
  Ru  Ru21  1  0.500000  0.999566  0.012737  1
  Ru  Ru22  1  0.500000  0.332723  0.991314  1
  Ru  Ru23  1  0.500000  0.668750  0.990596  1
  Ru  Ru24  1  0.000000  0.168008  0.009490  1
  Ru  Ru25  1  0.000000  0.832115  0.009274  1
  Ru  Ru26  1  0.500000  0.298670  0.428256  1
  Ru  Ru27  1  0.500000  0.700208  0.428195  1
  Ru  Ru28  1  0.000000  0.199030  0.572109  1
  Ru  Ru29  1  0.000000  0.797701  0.569138  1
  Ru  Ru30  1  0.500000  0.878766  0.712802  1
  Rh  Rh31  1  0.500000  0.500556  0.695350  1
  Rh  Rh32  1  0.000000  0.999340  0.304457  1
  Rh  Rh33  1  0.500000  0.126473  0.716626  1
  Rh  Rh34  1  0.000000  0.623547  0.284637  1
  Rh  Rh35  1  0.000000  0.374525  0.284536  1
