# generated using pymatgen
data_Dy9Tm6Lu(Ga3Co)2
_symmetry_space_group_name_H-M   'P 1'
_cell_length_a   9.91893344
_cell_length_b   9.91893407
_cell_length_c   6.95439721
_cell_angle_alpha   90.02448033
_cell_angle_beta   89.97551595
_cell_angle_gamma   119.97645694
_symmetry_Int_Tables_number   1
_chemical_formula_structural   Dy9Tm6Lu(Ga3Co)2
_chemical_formula_sum   'Dy9 Tm6 Lu1 Ga6 Co2'
_cell_volume   592.68376604
_cell_formula_units_Z   1
loop_
 _symmetry_equiv_pos_site_id
 _symmetry_equiv_pos_as_xyz
  1  'x, y, z'
loop_
 _atom_site_type_symbol
 _atom_site_label
 _atom_site_symmetry_multiplicity
 _atom_site_fract_x
 _atom_site_fract_y
 _atom_site_fract_z
 _atom_site_occupancy
  Dy  Dy0  1  0.666669  0.333331  0.328470  1
  Dy  Dy1  1  0.463170  0.536830  0.207824  1
  Dy  Dy2  1  0.073438  0.537215  0.208152  1
  Dy  Dy3  1  0.462785  0.926562  0.208152  1
  Dy  Dy4  1  0.536377  0.463623  0.708528  1
  Dy  Dy5  1  0.927862  0.464307  0.708424  1
  Dy  Dy6  1  0.535693  0.072138  0.708424  1
  Dy  Dy7  1  0.000375  0.999625  0.233177  1
  Dy  Dy8  1  0.000140  0.999860  0.730416  1
  Tm  Tm9  1  0.652633  0.826224  0.513021  1
  Tm  Tm10  1  0.173776  0.347367  0.513021  1
  Tm  Tm11  1  0.827063  0.172937  0.011622  1
  Tm  Tm12  1  0.345716  0.172839  0.011795  1
  Tm  Tm13  1  0.827161  0.654284  0.011795  1
  Tm  Tm14  1  0.333105  0.666895  0.825428  1
  Lu  Lu15  1  0.174007  0.825993  0.513265  1
  Ga  Ga16  1  0.163793  0.836207  0.954550  1
  Ga  Ga17  1  0.672146  0.836098  0.955808  1
  Ga  Ga18  1  0.163902  0.327854  0.955808  1
  Ga  Ga19  1  0.837323  0.162677  0.457672  1
  Ga  Ga20  1  0.324761  0.161433  0.457807  1
  Ga  Ga21  1  0.838567  0.675239  0.457807  1
  Co  Co22  1  0.332868  0.667132  0.446169  1
  Co  Co23  1  0.666668  0.333332  0.947702  1
