# generated using pymatgen
data_Pr8Sc12Sn9Sb7
_symmetry_space_group_name_H-M   'P 1'
_cell_length_a   7.99336487
_cell_length_b   7.99128337
_cell_length_c   15.06110000
_cell_angle_alpha   90.04848209
_cell_angle_beta   89.90997809
_cell_angle_gamma   90.02054588
_symmetry_Int_Tables_number   1
_chemical_formula_structural   Pr8Sc12Sn9Sb7
_chemical_formula_sum   'Pr8 Sc12 Sn9 Sb7'
_cell_volume   962.05996229
_cell_formula_units_Z   1
loop_
 _symmetry_equiv_pos_site_id
 _symmetry_equiv_pos_as_xyz
  1  'x, y, z'
loop_
 _atom_site_type_symbol
 _atom_site_label
 _atom_site_symmetry_multiplicity
 _atom_site_fract_x
 _atom_site_fract_y
 _atom_site_fract_z
 _atom_site_occupancy
  Pr  Pr0  1  0.980925  0.178241  0.095613  1
  Pr  Pr1  1  0.021300  0.821858  0.903752  1
  Pr  Pr2  1  0.520623  0.678838  0.903373  1
  Pr  Pr3  1  0.021136  0.819676  0.596108  1
  Pr  Pr4  1  0.478953  0.320658  0.096864  1
  Pr  Pr5  1  0.978477  0.179543  0.404057  1
  Pr  Pr6  1  0.478697  0.319704  0.404030  1
  Pr  Pr7  1  0.521613  0.679880  0.596030  1
  Sc  Sc8  1  0.186080  0.494963  0.749962  1
  Sc  Sc9  1  0.813788  0.505426  0.249869  1
  Sc  Sc10  1  0.314117  0.994519  0.249144  1
  Sc  Sc11  1  0.686609  0.005158  0.749605  1
  Sc  Sc12  1  0.358661  0.156531  0.625872  1
  Sc  Sc13  1  0.641596  0.843434  0.374116  1
  Sc  Sc14  1  0.140738  0.656232  0.374340  1
  Sc  Sc15  1  0.641377  0.842180  0.127790  1
  Sc  Sc16  1  0.858734  0.343851  0.625970  1
  Sc  Sc17  1  0.357841  0.157915  0.872874  1
  Sc  Sc18  1  0.857525  0.342550  0.873550  1
  Sc  Sc19  1  0.142391  0.657677  0.126306  1
  Sn  Sn20  1  0.051672  0.132242  0.749339  1
  Sn  Sn21  1  0.948699  0.868073  0.250802  1
  Sn  Sn22  1  0.447445  0.631667  0.251152  1
  Sn  Sn23  1  0.552112  0.368425  0.749234  1
  Sn  Sn24  1  0.326683  0.857578  0.749738  1
  Sn  Sn25  1  0.674359  0.142722  0.250250  1
  Sn  Sn26  1  0.173063  0.357550  0.250346  1
  Sn  Sn27  1  0.826739  0.642785  0.750136  1
  Sn  Sn28  1  0.303441  0.952764  0.045305  1
  Sb  Sb29  1  0.199910  0.452066  0.546112  1
  Sb  Sb30  1  0.799989  0.547688  0.453930  1
  Sb  Sb31  1  0.300088  0.951928  0.453933  1
  Sb  Sb32  1  0.800766  0.547637  0.046000  1
  Sb  Sb33  1  0.699910  0.048052  0.546210  1
  Sb  Sb34  1  0.198695  0.452432  0.953509  1
  Sb  Sb35  1  0.695248  0.047556  0.954776  1
