# generated using pymatgen
data_Gd3NbRe3RuN12
_symmetry_space_group_name_H-M   'P 1'
_cell_length_a   11.14131779
_cell_length_b   11.14131822
_cell_length_c   11.14131700
_cell_angle_alpha   109.47122205
_cell_angle_beta   109.47122284
_cell_angle_gamma   109.47122020
_symmetry_Int_Tables_number   1
_chemical_formula_structural   Gd3NbRe3RuN12
_chemical_formula_sum   'Gd12 Nb4 Re12 Ru4 N48'
_cell_volume   1064.60319216
_cell_formula_units_Z   4
loop_
 _symmetry_equiv_pos_site_id
 _symmetry_equiv_pos_as_xyz
  1  'x, y, z'
loop_
 _atom_site_type_symbol
 _atom_site_label
 _atom_site_symmetry_multiplicity
 _atom_site_fract_x
 _atom_site_fract_y
 _atom_site_fract_z
 _atom_site_occupancy
  Gd  Gd0  1  0.250000  0.378137  0.128136  1
  Gd  Gd1  1  0.371864  0.750000  0.121864  1
  Gd  Gd2  1  0.378137  0.128136  0.250000  1
  Gd  Gd3  1  0.878136  0.628136  0.250000  1
  Gd  Gd4  1  0.750000  0.121864  0.371864  1
  Gd  Gd5  1  0.128136  0.250000  0.378137  1
  Gd  Gd6  1  0.871864  0.750000  0.621864  1
  Gd  Gd7  1  0.250000  0.878136  0.628136  1
  Gd  Gd8  1  0.121864  0.371864  0.750000  1
  Gd  Gd9  1  0.621864  0.871864  0.750000  1
  Gd  Gd10  1  0.628136  0.250000  0.878136  1
  Gd  Gd11  1  0.750000  0.621864  0.871864  1
  Nb  Nb12  1  0.000000  0.000000  0.000000  1
  Nb  Nb13  1  0.500000  0.500000  0.000000  1
  Nb  Nb14  1  0.500000  0.000000  0.500000  1
  Nb  Nb15  1  0.000000  0.500000  0.500000  1
  Re  Re16  1  0.874742  0.250000  0.124741  1
  Re  Re17  1  0.750000  0.875258  0.125258  1
  Re  Re18  1  0.624742  0.374742  0.250000  1
  Re  Re19  1  0.124741  0.874742  0.250000  1
  Re  Re20  1  0.250000  0.624742  0.374742  1
  Re  Re21  1  0.625258  0.750000  0.375259  1
  Re  Re22  1  0.374742  0.250000  0.624742  1
  Re  Re23  1  0.750000  0.375259  0.625258  1
  Re  Re24  1  0.875258  0.125258  0.750000  1
  Re  Re25  1  0.375259  0.625258  0.750000  1
  Re  Re26  1  0.250000  0.124741  0.874742  1
  Re  Re27  1  0.125258  0.750000  0.875258  1
  Ru  Ru28  1  0.500001  0.000000  0.000000  1
  Ru  Ru29  1  0.000000  0.500001  0.000000  1
  Ru  Ru30  1  0.000000  0.000000  0.500001  1
  Ru  Ru31  1  0.500001  0.500001  0.500001  1
  N  N32  1  0.314365  0.897747  0.015502  1
  N  N33  1  0.203482  0.118497  0.018608  1
  N  N34  1  0.882244  0.397747  0.083382  1
  N  N35  1  0.703482  0.684874  0.084985  1
  N  N36  1  0.984497  0.685635  0.102253  1
  N  N37  1  0.618497  0.415015  0.099889  1
  N  N38  1  0.602253  0.916618  0.117755  1
  N  N39  1  0.018608  0.203482  0.118497  1
  N  N40  1  0.201138  0.583382  0.185635  1
  N  N41  1  0.481393  0.599890  0.184874  1
  N  N42  1  0.583382  0.185635  0.201138  1
  N  N43  1  0.118497  0.018608  0.203482  1
  N  N44  1  0.484498  0.382245  0.298862  1
  N  N45  1  0.315126  0.915015  0.296518  1
  N  N46  1  0.897747  0.015502  0.314365  1
  N  N47  1  0.915015  0.296518  0.315126  1
  N  N48  1  0.298862  0.484498  0.382245  1
  N  N49  1  0.584985  0.900112  0.381504  1
  N  N50  1  0.815126  0.518608  0.400112  1
  N  N51  1  0.083382  0.882244  0.397747  1
  N  N52  1  0.099889  0.618497  0.415015  1
  N  N53  1  0.814365  0.798862  0.416618  1
  N  N54  1  0.599890  0.184874  0.481393  1
  N  N55  1  0.382245  0.298862  0.484498  1
  N  N56  1  0.617755  0.701137  0.515502  1
  N  N57  1  0.400112  0.815126  0.518608  1
  N  N58  1  0.185635  0.201138  0.583382  1
  N  N59  1  0.900112  0.381504  0.584985  1
  N  N60  1  0.916618  0.117755  0.602253  1
  N  N61  1  0.184874  0.481393  0.599890  1
  N  N62  1  0.415015  0.099889  0.618497  1
  N  N63  1  0.701137  0.515502  0.617755  1
  N  N64  1  0.084985  0.703482  0.684874  1
  N  N65  1  0.102253  0.984497  0.685635  1
  N  N66  1  0.684874  0.084985  0.703482  1
  N  N67  1  0.515502  0.617755  0.701137  1
  N  N68  1  0.416618  0.814365  0.798862  1
  N  N69  1  0.881504  0.981393  0.796519  1
  N  N70  1  0.518608  0.400112  0.815126  1
  N  N71  1  0.798862  0.416618  0.814365  1
  N  N72  1  0.397747  0.083382  0.882244  1
  N  N73  1  0.981393  0.796519  0.881504  1
  N  N74  1  0.015502  0.314365  0.897747  1
  N  N75  1  0.381504  0.584985  0.900112  1
  N  N76  1  0.296518  0.315126  0.915015  1
  N  N77  1  0.117755  0.602253  0.916618  1
  N  N78  1  0.685635  0.102253  0.984497  1
  N  N79  1  0.796519  0.881504  0.981393  1
