# generated using pymatgen
data_La9Pr7Cd4TcPt3
_symmetry_space_group_name_H-M   'P 1'
_cell_length_a   10.17795313
_cell_length_b   10.17795375
_cell_length_c   10.17907832
_cell_angle_alpha   59.44882610
_cell_angle_beta   59.44882177
_cell_angle_gamma   59.65988966
_symmetry_Int_Tables_number   1
_chemical_formula_structural   La9Pr7Cd4TcPt3
_chemical_formula_sum   'La9 Pr7 Cd4 Tc1 Pt3'
_cell_volume   737.45531504
_cell_formula_units_Z   1
loop_
 _symmetry_equiv_pos_site_id
 _symmetry_equiv_pos_as_xyz
  1  'x, y, z'
loop_
 _atom_site_type_symbol
 _atom_site_label
 _atom_site_symmetry_multiplicity
 _atom_site_fract_x
 _atom_site_fract_y
 _atom_site_fract_z
 _atom_site_occupancy
  La  La0  1  0.350660  0.350660  0.351572  1
  La  La1  1  0.345276  0.345276  0.958567  1
  La  La2  1  0.345916  0.959294  0.344864  1
  La  La3  1  0.959294  0.345916  0.344864  1
  La  La4  1  0.816406  0.187779  0.189562  1
  La  La5  1  0.190805  0.804416  0.805488  1
  La  La6  1  0.187779  0.816406  0.189562  1
  La  La7  1  0.804416  0.190805  0.805488  1
  La  La8  1  0.189025  0.189025  0.816977  1
  Pr  Pr9  1  0.803388  0.803388  0.193109  1
  Pr  Pr10  1  0.934557  0.566736  0.565428  1
  Pr  Pr11  1  0.558414  0.935807  0.936567  1
  Pr  Pr12  1  0.566736  0.934557  0.565428  1
  Pr  Pr13  1  0.935807  0.558414  0.936567  1
  Pr  Pr14  1  0.565648  0.565648  0.935933  1
  Pr  Pr15  1  0.936712  0.936712  0.557547  1
  Cd  Cd16  1  0.580431  0.580431  0.578699  1
  Cd  Cd17  1  0.581223  0.581223  0.257525  1
  Cd  Cd18  1  0.581032  0.257423  0.580427  1
  Cd  Cd19  1  0.257423  0.581032  0.580427  1
  Tc  Tc20  1  0.140881  0.140881  0.140331  1
  Pt  Pt21  1  0.144370  0.144370  0.577396  1
  Pt  Pt22  1  0.146844  0.576952  0.143834  1
  Pt  Pt23  1  0.576952  0.146844  0.143834  1
