# generated using pymatgen
data_La8MgCdOs2
_symmetry_space_group_name_H-M   'P 1'
_cell_length_a   10.15034334
_cell_length_b   10.12540661
_cell_length_c   10.12540749
_cell_angle_alpha   59.85912036
_cell_angle_beta   59.91849609
_cell_angle_gamma   59.91849672
_symmetry_Int_Tables_number   1
_chemical_formula_structural   La8MgCdOs2
_chemical_formula_sum   'La16 Mg2 Cd2 Os4'
_cell_volume   734.16083362
_cell_formula_units_Z   2
loop_
 _symmetry_equiv_pos_site_id
 _symmetry_equiv_pos_as_xyz
  1  'x, y, z'
loop_
 _atom_site_type_symbol
 _atom_site_label
 _atom_site_symmetry_multiplicity
 _atom_site_fract_x
 _atom_site_fract_y
 _atom_site_fract_z
 _atom_site_occupancy
  La  La0  1  0.942245  0.942091  0.557011  1
  La  La1  1  0.558653  0.942091  0.557011  1
  La  La2  1  0.558142  0.941858  0.941858  1
  La  La3  1  0.688596  0.688640  0.311717  1
  La  La4  1  0.155116  0.155471  0.534297  1
  La  La5  1  0.312251  0.687749  0.687749  1
  La  La6  1  0.154515  0.155045  0.155045  1
  La  La7  1  0.535395  0.155045  0.155045  1
  La  La8  1  0.311048  0.688640  0.311717  1
  La  La9  1  0.311048  0.311717  0.688640  1
  La  La10  1  0.688596  0.311717  0.688640  1
  La  La11  1  0.942950  0.557050  0.557050  1
  La  La12  1  0.558653  0.557011  0.942091  1
  La  La13  1  0.155116  0.534297  0.155471  1
  La  La14  1  0.689638  0.310362  0.310362  1
  La  La15  1  0.942245  0.557011  0.942091  1
  Mg  Mg16  1  0.232742  0.922776  0.922776  1
  Mg  Mg17  1  0.921706  0.922776  0.922776  1
  Cd  Cd18  1  0.921105  0.920690  0.237101  1
  Cd  Cd19  1  0.921105  0.237101  0.920690  1
  Os  Os20  1  0.913179  0.362611  0.362611  1
  Os  Os21  1  0.362179  0.363251  0.912390  1
  Os  Os22  1  0.362179  0.912390  0.363251  1
  Os  Os23  1  0.361599  0.362611  0.362611  1
