# generated using pymatgen
data_Tb2DyLu2Si3
_symmetry_space_group_name_H-M   'P 1'
_cell_length_a   8.39754355
_cell_length_b   8.40281453
_cell_length_c   6.26331200
_cell_angle_alpha   90.00000000
_cell_angle_beta   90.00000000
_cell_angle_gamma   120.02076006
_symmetry_Int_Tables_number   1
_chemical_formula_structural   Tb2DyLu2Si3
_chemical_formula_sum   'Tb4 Dy2 Lu4 Si6'
_cell_volume   382.66684123
_cell_formula_units_Z   2
loop_
 _symmetry_equiv_pos_site_id
 _symmetry_equiv_pos_as_xyz
  1  'x, y, z'
loop_
 _atom_site_type_symbol
 _atom_site_label
 _atom_site_symmetry_multiplicity
 _atom_site_fract_x
 _atom_site_fract_y
 _atom_site_fract_z
 _atom_site_occupancy
  Tb  Tb0  1  0.755594  0.755552  0.250000  1
  Tb  Tb1  1  0.755594  0.000042  0.750000  1
  Tb  Tb2  1  0.244406  0.244448  0.750000  1
  Tb  Tb3  1  0.244406  0.999958  0.250000  1
  Dy  Dy4  1  0.000000  0.755272  0.750000  1
  Dy  Dy5  1  0.000000  0.244728  0.250000  1
  Lu  Lu6  1  0.333208  0.666605  0.500000  1
  Lu  Lu7  1  0.666792  0.333395  0.000000  1
  Lu  Lu8  1  0.666792  0.333395  0.500000  1
  Lu  Lu9  1  0.333208  0.666605  0.000000  1
  Si  Si10  1  0.395385  0.999841  0.750000  1
  Si  Si11  1  0.395385  0.395544  0.250000  1
  Si  Si12  1  0.000000  0.604104  0.250000  1
  Si  Si13  1  0.000000  0.395896  0.750000  1
  Si  Si14  1  0.604615  0.604456  0.750000  1
  Si  Si15  1  0.604615  0.000159  0.250000  1
