# generated using pymatgen
data_Tm4CuAs5Rh7
_symmetry_space_group_name_H-M   'P 1'
_cell_length_a   7.21488537
_cell_length_b   7.21488449
_cell_length_c   7.21488496
_cell_angle_alpha   109.98822242
_cell_angle_beta   108.44209420
_cell_angle_gamma   109.98821678
_symmetry_Int_Tables_number   1
_chemical_formula_structural   Tm4CuAs5Rh7
_chemical_formula_sum   'Tm4 Cu1 As5 Rh7'
_cell_volume   289.04235798
_cell_formula_units_Z   1
loop_
 _symmetry_equiv_pos_site_id
 _symmetry_equiv_pos_as_xyz
  1  'x, y, z'
loop_
 _atom_site_type_symbol
 _atom_site_label
 _atom_site_symmetry_multiplicity
 _atom_site_fract_x
 _atom_site_fract_y
 _atom_site_fract_z
 _atom_site_occupancy
  Tm  Tm0  1  0.499844  0.510998  0.499844  1
  Tm  Tm1  1  0.988846  0.489002  0.988846  1
  Tm  Tm2  1  0.499844  0.000000  0.988846  1
  Tm  Tm3  1  0.988846  0.000000  0.499844  1
  Cu  Cu4  1  0.696991  0.000000  0.696991  1
  As  As5  1  0.683082  0.686090  0.996992  1
  As  As6  1  0.310902  0.313910  0.996992  1
  As  As7  1  0.996992  0.686090  0.683082  1
  As  As8  1  0.996992  0.313910  0.310902  1
  As  As9  1  0.333675  0.000000  0.333675  1
  Rh  Rh10  1  0.497009  0.747990  0.244999  1
  Rh  Rh11  1  0.749019  0.252010  0.497009  1
  Rh  Rh12  1  0.244999  0.747990  0.497009  1
  Rh  Rh13  1  0.246497  0.500000  0.746497  1
  Rh  Rh14  1  0.022958  0.000000  0.022958  1
  Rh  Rh15  1  0.497009  0.252010  0.749019  1
  Rh  Rh16  1  0.746497  0.500000  0.246497  1
