# generated using pymatgen
data_Zr10BeTl3SiBi3
_symmetry_space_group_name_H-M   'P 1'
_cell_length_a   8.79662400
_cell_length_b   8.79662463
_cell_length_c   5.90068900
_cell_angle_alpha   90.00000000
_cell_angle_beta   90.00000000
_cell_angle_gamma   120.00000516
_symmetry_Int_Tables_number   1
_chemical_formula_structural   Zr10BeTl3SiBi3
_chemical_formula_sum   'Zr10 Be1 Tl3 Si1 Bi3'
_cell_volume   395.42618398
_cell_formula_units_Z   1
loop_
 _symmetry_equiv_pos_site_id
 _symmetry_equiv_pos_as_xyz
  1  'x, y, z'
loop_
 _atom_site_type_symbol
 _atom_site_label
 _atom_site_symmetry_multiplicity
 _atom_site_fract_x
 _atom_site_fract_y
 _atom_site_fract_z
 _atom_site_occupancy
  Zr  Zr0  1  0.666667  0.333333  0.504592  1
  Zr  Zr1  1  0.333333  0.666667  0.504592  1
  Zr  Zr2  1  0.333333  0.666667  0.995420  1
  Zr  Zr3  1  0.666667  0.333333  0.995420  1
  Zr  Zr4  1  0.754077  0.754077  0.257373  1
  Zr  Zr5  1  0.245923  0.000000  0.257373  1
  Zr  Zr6  1  0.000000  0.245923  0.257373  1
  Zr  Zr7  1  0.256572  0.256572  0.742511  1
  Zr  Zr8  1  0.743428  0.000000  0.742511  1
  Zr  Zr9  1  0.000000  0.743428  0.742511  1
  Be  Be10  1  0.000000  0.000000  0.515499  1
  Tl  Tl11  1  0.611499  0.611499  0.750305  1
  Tl  Tl12  1  0.388501  0.000000  0.750305  1
  Tl  Tl13  1  0.000000  0.388501  0.750305  1
  Si  Si14  1  0.000000  0.000000  0.986734  1
  Bi  Bi15  1  0.395928  0.395928  0.249058  1
  Bi  Bi16  1  0.604072  0.000000  0.249058  1
  Bi  Bi17  1  0.000000  0.604072  0.249058  1
