# generated using pymatgen
data_Li3Er4AlRuPt3
_symmetry_space_group_name_H-M   'P 1'
_cell_length_a   3.97126500
_cell_length_b   7.02895728
_cell_length_c   8.31431605
_cell_angle_alpha   90.79390801
_cell_angle_beta   90.00000000
_cell_angle_gamma   90.00000000
_symmetry_Int_Tables_number   1
_chemical_formula_structural   Li3Er4AlRuPt3
_chemical_formula_sum   'Li3 Er4 Al1 Ru1 Pt3'
_cell_volume   232.06230848
_cell_formula_units_Z   1
loop_
 _symmetry_equiv_pos_site_id
 _symmetry_equiv_pos_as_xyz
  1  'x, y, z'
loop_
 _atom_site_type_symbol
 _atom_site_label
 _atom_site_symmetry_multiplicity
 _atom_site_fract_x
 _atom_site_fract_y
 _atom_site_fract_z
 _atom_site_occupancy
  Li  Li0  1  0.250000  0.868484  0.942798  1
  Li  Li1  1  0.750000  0.124952  0.060564  1
  Li  Li2  1  0.250000  0.368358  0.559809  1
  Er  Er3  1  0.250000  0.456895  0.179620  1
  Er  Er4  1  0.750000  0.544205  0.813339  1
  Er  Er5  1  0.750000  0.038828  0.677363  1
  Er  Er6  1  0.250000  0.956183  0.326302  1
  Al  Al7  1  0.750000  0.633379  0.444625  1
  Ru  Ru8  1  0.250000  0.749819  0.610230  1
  Pt  Pt9  1  0.750000  0.262035  0.376734  1
  Pt  Pt10  1  0.750000  0.744384  0.133934  1
  Pt  Pt11  1  0.250000  0.252478  0.874682  1
