# generated using pymatgen
data_Nd2Y18Si15Pt
_symmetry_space_group_name_H-M   'P 1'
_cell_length_a   7.43675611
_cell_length_b   7.76472473
_cell_length_c   14.71518420
_cell_angle_alpha   89.77191158
_cell_angle_beta   90.00854519
_cell_angle_gamma   89.90721406
_symmetry_Int_Tables_number   1
_chemical_formula_structural   Nd2Y18Si15Pt
_chemical_formula_sum   'Nd2 Y18 Si15 Pt1'
_cell_volume   849.71109667
_cell_formula_units_Z   1
loop_
 _symmetry_equiv_pos_site_id
 _symmetry_equiv_pos_as_xyz
  1  'x, y, z'
loop_
 _atom_site_type_symbol
 _atom_site_label
 _atom_site_symmetry_multiplicity
 _atom_site_fract_x
 _atom_site_fract_y
 _atom_site_fract_z
 _atom_site_occupancy
  Nd  Nd0  1  0.523929  0.568395  0.343875  1
  Nd  Nd1  1  0.024413  0.430936  0.655650  1
  Y  Y2  1  0.811944  0.575130  0.874450  1
  Y  Y3  1  0.318720  0.426866  0.125950  1
  Y  Y4  1  0.182702  0.927569  0.373342  1
  Y  Y5  1  0.682257  0.070243  0.626865  1
  Y  Y6  1  0.182694  0.928251  0.628021  1
  Y  Y7  1  0.682266  0.070319  0.371819  1
  Y  Y8  1  0.814280  0.571983  0.126837  1
  Y  Y9  1  0.320414  0.430281  0.872880  1
  Y  Y10  1  0.643815  0.234768  0.999581  1
  Y  Y11  1  0.155016  0.759610  0.000688  1
  Y  Y12  1  0.350669  0.263624  0.499942  1
  Y  Y13  1  0.850888  0.735254  0.499926  1
  Y  Y14  1  0.475216  0.931901  0.845976  1
  Y  Y15  1  0.973471  0.067116  0.153019  1
  Y  Y16  1  0.474008  0.931881  0.153557  1
  Y  Y17  1  0.972322  0.068049  0.847774  1
  Y  Y18  1  0.528385  0.565626  0.652148  1
  Y  Y19  1  0.028294  0.433770  0.347652  1
  Si  Si20  1  0.019626  0.351017  0.999815  1
  Si  Si21  1  0.477248  0.856476  0.500597  1
  Si  Si22  1  0.977474  0.142517  0.499478  1
  Si  Si23  1  0.650551  0.277218  0.789939  1
  Si  Si24  1  0.150595  0.721647  0.209993  1
  Si  Si25  1  0.352381  0.218361  0.288708  1
  Si  Si26  1  0.852609  0.781204  0.711854  1
  Si  Si27  1  0.358487  0.220907  0.709960  1
  Si  Si28  1  0.858088  0.778777  0.289511  1
  Si  Si29  1  0.645845  0.271739  0.207371  1
  Si  Si30  1  0.145163  0.726348  0.792387  1
  Si  Si31  1  0.770865  0.880945  0.000859  1
  Si  Si32  1  0.258602  0.125757  0.999435  1
  Si  Si33  1  0.234545  0.625643  0.501212  1
  Si  Si34  1  0.733592  0.374519  0.498779  1
  Pt  Pt35  1  0.518631  0.655352  0.000153  1
