# generated using pymatgen
data_Ca3TbLu2(Si3Ru)8
_symmetry_space_group_name_H-M   'P 1'
_cell_length_a   10.14873194
_cell_length_b   10.14841675
_cell_length_c   8.13163340
_cell_angle_alpha   89.93220775
_cell_angle_beta   90.05514769
_cell_angle_gamma   132.74236892
_symmetry_Int_Tables_number   1
_chemical_formula_structural   Ca3TbLu2(Si3Ru)8
_chemical_formula_sum   'Ca3 Tb1 Lu2 Si24 Ru8'
_cell_volume   615.07468845
_cell_formula_units_Z   1
loop_
 _symmetry_equiv_pos_site_id
 _symmetry_equiv_pos_as_xyz
  1  'x, y, z'
loop_
 _atom_site_type_symbol
 _atom_site_label
 _atom_site_symmetry_multiplicity
 _atom_site_fract_x
 _atom_site_fract_y
 _atom_site_fract_z
 _atom_site_occupancy
  Ca  Ca0  1  0.500056  0.499890  0.499819  1
  Ca  Ca1  1  0.500994  0.000846  0.749857  1
  Ca  Ca2  1  0.999243  0.499085  0.250154  1
  Tb  Tb3  1  0.001701  0.501738  0.749849  1
  Lu  Lu4  1  0.999956  0.999981  0.000139  1
  Lu  Lu5  1  0.498837  0.998822  0.250266  1
  Si  Si6  1  0.793945  0.203737  0.498815  1
  Si  Si7  1  0.295453  0.707161  0.001395  1
  Si  Si8  1  0.206705  0.795887  0.498592  1
  Si  Si9  1  0.704236  0.293445  0.001184  1
  Si  Si10  1  0.331499  0.336105  0.832111  1
  Si  Si11  1  0.663580  0.668619  0.167837  1
  Si  Si12  1  0.169806  0.165006  0.333638  1
  Si  Si13  1  0.834705  0.830286  0.666416  1
  Si  Si14  1  0.122744  0.889698  0.728776  1
  Si  Si15  1  0.110813  0.877953  0.271778  1
  Si  Si16  1  0.608308  0.375264  0.229000  1
  Si  Si17  1  0.624028  0.391017  0.770503  1
  Si  Si18  1  0.874974  0.107904  0.271546  1
  Si  Si19  1  0.891454  0.124370  0.728982  1
  Si  Si20  1  0.389425  0.622678  0.770480  1
  Si  Si21  1  0.378021  0.611121  0.228973  1
  Si  Si22  1  0.345652  0.112427  0.504523  1
  Si  Si23  1  0.887220  0.653786  0.494736  1
  Si  Si24  1  0.388208  0.155366  0.007276  1
  Si  Si25  1  0.845130  0.612313  0.993437  1
  Si  Si26  1  0.654135  0.886872  0.491951  1
  Si  Si27  1  0.113624  0.346329  0.507285  1
  Si  Si28  1  0.611175  0.844379  0.996780  1
  Si  Si29  1  0.155041  0.388445  0.003974  1
  Ru  Ru30  1  0.669681  0.327800  0.498955  1
  Ru  Ru31  1  0.169676  0.832795  0.001332  1
  Ru  Ru32  1  0.331043  0.671387  0.498597  1
  Ru  Ru33  1  0.829419  0.167976  0.001006  1
  Ru  Ru34  1  0.123835  0.124735  0.628566  1
  Ru  Ru35  1  0.875160  0.875798  0.371770  1
  Ru  Ru36  1  0.371525  0.370868  0.124001  1
  Ru  Ru37  1  0.628994  0.628107  0.875696  1
