# generated using pymatgen
data_Er2Tm2Pd3PtF28
_symmetry_space_group_name_H-M   'P 1'
_cell_length_a   5.49135634
_cell_length_b   8.76915421
_cell_length_c   11.85646508
_cell_angle_alpha   62.63891414
_cell_angle_beta   90.01266326
_cell_angle_gamma   89.97197464
_symmetry_Int_Tables_number   1
_chemical_formula_structural   Er2Tm2Pd3PtF28
_chemical_formula_sum   'Er2 Tm2 Pd3 Pt1 F28'
_cell_volume   507.06996632
_cell_formula_units_Z   1
loop_
 _symmetry_equiv_pos_site_id
 _symmetry_equiv_pos_as_xyz
  1  'x, y, z'
loop_
 _atom_site_type_symbol
 _atom_site_label
 _atom_site_symmetry_multiplicity
 _atom_site_fract_x
 _atom_site_fract_y
 _atom_site_fract_z
 _atom_site_occupancy
  Er  Er0  1  0.238006  0.186485  0.234630  1
  Er  Er1  1  0.738367  0.814475  0.263931  1
  Tm  Tm2  1  0.761718  0.814094  0.764253  1
  Tm  Tm3  1  0.260849  0.185442  0.736361  1
  Pd  Pd4  1  0.759063  0.272903  0.955897  1
  Pd  Pd5  1  0.259516  0.727170  0.544175  1
  Pd  Pd6  1  0.241127  0.728167  0.042022  1
  Pt  Pt7  1  0.741331  0.272051  0.457750  1
  F  F8  1  0.436673  0.701292  0.915724  1
  F  F9  1  0.938344  0.298732  0.585758  1
  F  F10  1  0.563217  0.298740  0.082557  1
  F  F11  1  0.063284  0.701347  0.417389  1
  F  F12  1  0.436929  0.277615  0.544066  1
  F  F13  1  0.939160  0.722007  0.956738  1
  F  F14  1  0.560085  0.720946  0.458171  1
  F  F15  1  0.059916  0.279354  0.041384  1
  F  F16  1  0.775093  0.522491  0.857236  1
  F  F17  1  0.276094  0.477509  0.643277  1
  F  F18  1  0.224065  0.478861  0.141349  1
  F  F19  1  0.724994  0.523571  0.357685  1
  F  F20  1  0.754476  0.024097  0.048796  1
  F  F21  1  0.254426  0.976165  0.450934  1
  F  F22  1  0.246663  0.977047  0.949698  1
  F  F23  1  0.746317  0.020742  0.551416  1
  F  F24  1  0.966995  0.724062  0.638117  1
  F  F25  1  0.466358  0.275102  0.862478  1
  F  F26  1  0.037694  0.275391  0.363819  1
  F  F27  1  0.534906  0.724389  0.135256  1
  F  F28  1  0.052033  0.746476  0.175098  1
  F  F29  1  0.550841  0.253207  0.323815  1
  F  F30  1  0.950023  0.253977  0.823887  1
  F  F31  1  0.450086  0.745607  0.676757  1
  F  F32  1  0.414107  0.969760  0.231918  1
  F  F33  1  0.914080  0.030607  0.267843  1
  F  F34  1  0.581657  0.028402  0.767009  1
  F  F35  1  0.081503  0.971719  0.732807  1
