# generated using pymatgen
data_Tb6CuTcSn
_symmetry_space_group_name_H-M   'P 1'
_cell_length_a   8.53917622
_cell_length_b   8.53917774
_cell_length_c   8.53917627
_cell_angle_alpha   104.18448586
_cell_angle_beta   110.91832446
_cell_angle_gamma   113.44810718
_symmetry_Int_Tables_number   1
_chemical_formula_structural   Tb6CuTcSn
_chemical_formula_sum   'Tb12 Cu2 Tc2 Sn2'
_cell_volume   476.04099121
_cell_formula_units_Z   2
loop_
 _symmetry_equiv_pos_site_id
 _symmetry_equiv_pos_as_xyz
  1  'x, y, z'
loop_
 _atom_site_type_symbol
 _atom_site_label
 _atom_site_symmetry_multiplicity
 _atom_site_fract_x
 _atom_site_fract_y
 _atom_site_fract_z
 _atom_site_occupancy
  Tb  Tb0  1  0.699677  0.261634  0.961311  1
  Tb  Tb1  1  0.300323  0.738366  0.038689  1
  Tb  Tb2  1  0.699677  0.738366  0.438043  1
  Tb  Tb3  1  0.300323  0.261634  0.561957  1
  Tb  Tb4  1  0.813560  0.148868  0.335308  1
  Tb  Tb5  1  0.813560  0.478252  0.664692  1
  Tb  Tb6  1  0.186440  0.851132  0.664692  1
  Tb  Tb7  1  0.186440  0.521748  0.335308  1
  Tb  Tb8  1  0.595052  0.781550  0.813503  1
  Tb  Tb9  1  0.968048  0.781550  0.186497  1
  Tb  Tb10  1  0.031952  0.218450  0.813503  1
  Tb  Tb11  1  0.404948  0.218450  0.186497  1
  Cu  Cu12  1  0.000000  0.119093  0.119093  1
  Cu  Cu13  1  0.000000  0.880907  0.880907  1
  Tc  Tc14  1  0.825258  0.500000  0.325258  1
  Tc  Tc15  1  0.174742  0.500000  0.674742  1
  Sn  Sn16  1  0.500000  0.500000  0.000000  1
  Sn  Sn17  1  0.500000  0.000000  0.500000  1
