# generated using pymatgen
data_Dy3TmAl15(GaIr2)3
_symmetry_space_group_name_H-M   'P 1'
_cell_length_a   7.52861727
_cell_length_b   7.53013780
_cell_length_c   9.52009400
_cell_angle_alpha   90.00000000
_cell_angle_beta   90.00000000
_cell_angle_gamma   119.43441435
_symmetry_Int_Tables_number   1
_chemical_formula_structural   Dy3TmAl15(GaIr2)3
_chemical_formula_sum   'Dy3 Tm1 Al15 Ga3 Ir6'
_cell_volume   470.04240917
_cell_formula_units_Z   1
loop_
 _symmetry_equiv_pos_site_id
 _symmetry_equiv_pos_as_xyz
  1  'x, y, z'
loop_
 _atom_site_type_symbol
 _atom_site_label
 _atom_site_symmetry_multiplicity
 _atom_site_fract_x
 _atom_site_fract_y
 _atom_site_fract_z
 _atom_site_occupancy
  Dy  Dy0  1  0.997813  0.674770  0.250000  1
  Dy  Dy1  1  0.005721  0.325958  0.750000  1
  Dy  Dy2  1  0.670455  0.991443  0.250000  1
  Tm  Tm3  1  0.324848  0.003533  0.750000  1
  Al  Al4  1  0.001584  0.335371  0.072693  1
  Al  Al5  1  0.998743  0.664727  0.926041  1
  Al  Al6  1  0.998743  0.664727  0.573959  1
  Al  Al7  1  0.336022  0.003118  0.427636  1
  Al  Al8  1  0.001584  0.335371  0.427307  1
  Al  Al9  1  0.663877  0.999062  0.573737  1
  Al  Al10  1  0.663877  0.999062  0.926263  1
  Al  Al11  1  0.336022  0.003118  0.072364  1
  Al  Al12  1  0.334328  0.333799  0.557041  1
  Al  Al13  1  0.665987  0.665620  0.447854  1
  Al  Al14  1  0.665987  0.665620  0.052146  1
  Al  Al15  1  0.334328  0.333799  0.942959  1
  Al  Al16  1  0.661999  0.449800  0.750000  1
  Al  Al17  1  0.550017  0.339203  0.250000  1
  Al  Al18  1  0.451041  0.663022  0.750000  1
  Ga  Ga19  1  0.132035  0.132654  0.250000  1
  Ga  Ga20  1  0.865562  0.865083  0.750000  1
  Ga  Ga21  1  0.339136  0.546199  0.250000  1
  Ir  Ir22  1  0.671240  0.328914  0.999974  1
  Ir  Ir23  1  0.328365  0.672903  0.997656  1
  Ir  Ir24  1  0.328365  0.672903  0.502344  1
  Ir  Ir25  1  0.671240  0.328914  0.500026  1
  Ir  Ir26  1  0.000540  0.000657  0.999532  1
  Ir  Ir27  1  0.000540  0.000657  0.500468  1
