# generated using pymatgen
data_Yb6Y3HoSn8
_symmetry_space_group_name_H-M   'P 1'
_cell_length_a   7.84240900
_cell_length_b   8.43166400
_cell_length_c   16.07478001
_cell_angle_alpha   89.99607221
_cell_angle_beta   90.00000000
_cell_angle_gamma   90.00000000
_symmetry_Int_Tables_number   1
_chemical_formula_structural   Yb6Y3HoSn8
_chemical_formula_sum   'Yb12 Y6 Ho2 Sn16'
_cell_volume   1062.93771539
_cell_formula_units_Z   2
loop_
 _symmetry_equiv_pos_site_id
 _symmetry_equiv_pos_as_xyz
  1  'x, y, z'
loop_
 _atom_site_type_symbol
 _atom_site_label
 _atom_site_symmetry_multiplicity
 _atom_site_fract_x
 _atom_site_fract_y
 _atom_site_fract_z
 _atom_site_occupancy
  Yb  Yb0  1  0.499449  0.686818  0.593277  1
  Yb  Yb1  1  0.999449  0.813182  0.906723  1
  Yb  Yb2  1  0.500534  0.313120  0.093216  1
  Yb  Yb3  1  0.000534  0.186880  0.406784  1
  Yb  Yb4  1  0.500478  0.313126  0.406747  1
  Yb  Yb5  1  0.000478  0.186874  0.093253  1
  Yb  Yb6  1  0.499490  0.686868  0.906719  1
  Yb  Yb7  1  0.999490  0.813132  0.593281  1
  Yb  Yb8  1  0.828225  0.511200  0.750000  1
  Yb  Yb9  1  0.328225  0.988800  0.750000  1
  Yb  Yb10  1  0.171820  0.488660  0.250004  1
  Yb  Yb11  1  0.671820  0.011340  0.249996  1
  Y  Y12  1  0.667374  0.167323  0.622145  1
  Y  Y13  1  0.167374  0.332677  0.877855  1
  Y  Y14  1  0.332688  0.832737  0.122122  1
  Y  Y15  1  0.832688  0.667263  0.377878  1
  Y  Y16  1  0.332670  0.832703  0.377883  1
  Y  Y17  1  0.832670  0.667297  0.122117  1
  Ho  Ho18  1  0.667271  0.167227  0.877825  1
  Ho  Ho19  1  0.167271  0.332773  0.622175  1
  Sn  Sn20  1  0.673519  0.964528  0.460190  1
  Sn  Sn21  1  0.173519  0.535472  0.039810  1
  Sn  Sn22  1  0.326769  0.035582  0.960091  1
  Sn  Sn23  1  0.826769  0.464418  0.539909  1
  Sn  Sn24  1  0.326212  0.035856  0.539928  1
  Sn  Sn25  1  0.826212  0.464144  0.960072  1
  Sn  Sn26  1  0.673561  0.964731  0.039634  1
  Sn  Sn27  1  0.173561  0.535269  0.460366  1
  Sn  Sn28  1  0.463879  0.375202  0.750022  1
  Sn  Sn29  1  0.963879  0.124798  0.749978  1
  Sn  Sn30  1  0.536104  0.624510  0.250003  1
  Sn  Sn31  1  0.036104  0.875490  0.249997  1
  Sn  Sn32  1  0.708821  0.872996  0.750122  1
  Sn  Sn33  1  0.208821  0.627004  0.749878  1
  Sn  Sn34  1  0.291136  0.127236  0.250003  1
  Sn  Sn35  1  0.791136  0.372764  0.249997  1
