# generated using pymatgen
data_Hf2AlGaPdRh
_symmetry_space_group_name_H-M   'P 1'
_cell_length_a   7.26249000
_cell_length_b   7.26248878
_cell_length_c   6.78843100
_cell_angle_alpha   90.00000000
_cell_angle_beta   90.00000000
_cell_angle_gamma   119.99999646
_symmetry_Int_Tables_number   1
_chemical_formula_structural   Hf2AlGaPdRh
_chemical_formula_sum   'Hf6 Al3 Ga3 Pd3 Rh3'
_cell_volume   310.07808762
_cell_formula_units_Z   3
loop_
 _symmetry_equiv_pos_site_id
 _symmetry_equiv_pos_as_xyz
  1  'x, y, z'
loop_
 _atom_site_type_symbol
 _atom_site_label
 _atom_site_symmetry_multiplicity
 _atom_site_fract_x
 _atom_site_fract_y
 _atom_site_fract_z
 _atom_site_occupancy
  Hf  Hf0  1  0.599163  0.600456  0.252751  1
  Hf  Hf1  1  0.011023  0.406168  0.747309  1
  Hf  Hf2  1  0.399544  0.998706  0.252751  1
  Hf  Hf3  1  0.001294  0.400837  0.252751  1
  Hf  Hf4  1  0.395144  0.988977  0.747309  1
  Hf  Hf5  1  0.593832  0.604856  0.747309  1
  Al  Al6  1  0.265182  0.261418  0.500107  1
  Al  Al7  1  0.738582  0.003763  0.500107  1
  Al  Al8  1  0.996237  0.734818  0.500107  1
  Ga  Ga9  1  0.728220  0.000982  0.000336  1
  Ga  Ga10  1  0.272760  0.271780  0.000336  1
  Ga  Ga11  1  0.999018  0.727240  0.000336  1
  Pd  Pd12  1  0.000000  0.000000  0.752926  1
  Pd  Pd13  1  0.000000  0.000000  0.247528  1
  Pd  Pd14  1  0.666667  0.333333  0.991609  1
  Rh  Rh15  1  0.333333  0.666667  0.494708  1
  Rh  Rh16  1  0.333333  0.666667  0.006933  1
  Rh  Rh17  1  0.666667  0.333333  0.504787  1
