# generated using pymatgen
data_NpCoSi3
_symmetry_space_group_name_H-M   'P 1'
_cell_length_a   5.57870182
_cell_length_b   5.57870192
_cell_length_c   5.57870131
_cell_angle_alpha   137.83964881
_cell_angle_beta   137.30747550
_cell_angle_gamma   61.55777019
_symmetry_Int_Tables_number   1
_chemical_formula_structural   NpCoSi3
_chemical_formula_sum   'Np1 Co1 Si3'
_cell_volume   78.11638032
_cell_formula_units_Z   1
loop_
 _symmetry_equiv_pos_site_id
 _symmetry_equiv_pos_as_xyz
  1  'x, y, z'
loop_
 _atom_site_type_symbol
 _atom_site_label
 _atom_site_symmetry_multiplicity
 _atom_site_fract_x
 _atom_site_fract_y
 _atom_site_fract_z
 _atom_site_occupancy
  Np  Np0  1  0.001609  0.001609  0.000000  1
  Co  Co1  1  0.660382  0.660382  0.000000  1
  Si  Si2  1  0.429731  0.429731  0.000000  1
  Si  Si3  1  0.260924  0.760924  0.500000  1
  Si  Si4  1  0.762354  0.262354  0.500000  1
