# generated using pymatgen
data_Eu2Pd3Pt
_symmetry_space_group_name_H-M   'P 1'
_cell_length_a   5.54256244
_cell_length_b   5.54256211
_cell_length_c   5.53931847
_cell_angle_alpha   59.98063230
_cell_angle_beta   59.98063024
_cell_angle_gamma   59.99999980
_symmetry_Int_Tables_number   1
_chemical_formula_structural   Eu2Pd3Pt
_chemical_formula_sum   'Eu2 Pd3 Pt1'
_cell_volume   120.29159794
_cell_formula_units_Z   1
loop_
 _symmetry_equiv_pos_site_id
 _symmetry_equiv_pos_as_xyz
  1  'x, y, z'
loop_
 _atom_site_type_symbol
 _atom_site_label
 _atom_site_symmetry_multiplicity
 _atom_site_fract_x
 _atom_site_fract_y
 _atom_site_fract_z
 _atom_site_occupancy
  Eu  Eu0  1  0.251086  0.251086  0.246743  1
  Eu  Eu1  1  0.998914  0.998914  0.003257  1
  Pd  Pd2  1  0.625000  0.125000  0.625000  1
  Pd  Pd3  1  0.125000  0.625000  0.625000  1
  Pd  Pd4  1  0.625000  0.625000  0.625000  1
  Pt  Pt5  1  0.625000  0.625000  0.125000  1
