# generated using pymatgen
data_KCeMnS3
_symmetry_space_group_name_H-M   'P 1'
_cell_length_a   7.38387608
_cell_length_b   7.38387676
_cell_length_c   10.86953000
_cell_angle_alpha   90.00000000
_cell_angle_beta   90.00000000
_cell_angle_gamma   147.70317075
_symmetry_Int_Tables_number   1
_chemical_formula_structural   KCeMnS3
_chemical_formula_sum   'K2 Ce2 Mn2 S6'
_cell_volume   316.64257403
_cell_formula_units_Z   2
loop_
 _symmetry_equiv_pos_site_id
 _symmetry_equiv_pos_as_xyz
  1  'x, y, z'
loop_
 _atom_site_type_symbol
 _atom_site_label
 _atom_site_symmetry_multiplicity
 _atom_site_fract_x
 _atom_site_fract_y
 _atom_site_fract_z
 _atom_site_occupancy
  K  K0  1  0.742422  0.257579  0.250000  1
  K  K1  1  0.257579  0.742422  0.750000  1
  Ce  Ce2  1  0.000000  0.000000  0.000000  1
  Ce  Ce3  1  0.000000  0.000000  0.500000  1
  Mn  Mn4  1  0.466305  0.533696  0.250000  1
  Mn  Mn5  1  0.533696  0.466305  0.750000  1
  S  S6  1  0.376686  0.623314  0.070184  1
  S  S7  1  0.058058  0.941943  0.250000  1
  S  S8  1  0.376686  0.623314  0.429816  1
  S  S9  1  0.623314  0.376686  0.570184  1
  S  S10  1  0.941943  0.058058  0.750000  1
  S  S11  1  0.623314  0.376686  0.929816  1
