# generated using pymatgen
data_Cd6RuIO12
_symmetry_space_group_name_H-M   'P 1'
_cell_length_a   5.73622162
_cell_length_b   5.59634401
_cell_length_c   9.85096012
_cell_angle_alpha   55.86398867
_cell_angle_beta   90.28404654
_cell_angle_gamma   90.53085546
_symmetry_Int_Tables_number   1
_chemical_formula_structural   Cd6RuIO12
_chemical_formula_sum   'Cd6 Ru1 I1 O12'
_cell_volume   261.73829810
_cell_formula_units_Z   1
loop_
 _symmetry_equiv_pos_site_id
 _symmetry_equiv_pos_as_xyz
  1  'x, y, z'
loop_
 _atom_site_type_symbol
 _atom_site_label
 _atom_site_symmetry_multiplicity
 _atom_site_fract_x
 _atom_site_fract_y
 _atom_site_fract_z
 _atom_site_occupancy
  Cd  Cd0  1  0.958918  0.271124  0.227122  1
  Cd  Cd1  1  0.449428  0.774483  0.240823  1
  Cd  Cd2  1  0.041082  0.728876  0.772878  1
  Cd  Cd3  1  0.550572  0.225517  0.759177  1
  Cd  Cd4  1  0.000000  0.500000  0.500000  1
  Cd  Cd5  1  0.500000  0.500000  0.000000  1
  Ru  Ru6  1  0.000000  0.000000  0.000000  1
  I  I7  1  0.500000  0.000000  0.500000  1
  O  O8  1  0.279878  0.904277  0.923170  1
  O  O9  1  0.775064  0.070101  0.585187  1
  O  O10  1  0.720122  0.095723  0.076830  1
  O  O11  1  0.224936  0.929899  0.414813  1
  O  O12  1  0.178251  0.248634  0.044382  1
  O  O13  1  0.669976  0.775804  0.443326  1
  O  O14  1  0.821749  0.751366  0.955618  1
  O  O15  1  0.330024  0.224196  0.556674  1
  O  O16  1  0.423420  0.659730  0.713464  1
  O  O17  1  0.926608  0.341848  0.768825  1
  O  O18  1  0.576580  0.340270  0.286536  1
  O  O19  1  0.073392  0.658152  0.231175  1
