# generated using pymatgen
data_Hf18GaMo3W5Se
_symmetry_space_group_name_H-M   'P 1'
_cell_length_a   8.73048500
_cell_length_b   8.73048406
_cell_length_c   8.69012200
_cell_angle_alpha   90.00000000
_cell_angle_beta   90.00000000
_cell_angle_gamma   119.99999977
_symmetry_Int_Tables_number   1
_chemical_formula_structural   Hf18GaMo3W5Se
_chemical_formula_sum   'Hf18 Ga1 Mo3 W5 Se1'
_cell_volume   573.63177549
_cell_formula_units_Z   1
loop_
 _symmetry_equiv_pos_site_id
 _symmetry_equiv_pos_as_xyz
  1  'x, y, z'
loop_
 _atom_site_type_symbol
 _atom_site_label
 _atom_site_symmetry_multiplicity
 _atom_site_fract_x
 _atom_site_fract_y
 _atom_site_fract_z
 _atom_site_occupancy
  Hf  Hf0  1  0.194869  0.805131  0.451991  1
  Hf  Hf1  1  0.194869  0.389737  0.451991  1
  Hf  Hf2  1  0.610263  0.805131  0.451991  1
  Hf  Hf3  1  0.805379  0.194621  0.546665  1
  Hf  Hf4  1  0.805379  0.610760  0.546665  1
  Hf  Hf5  1  0.389240  0.194621  0.546665  1
  Hf  Hf6  1  0.805379  0.194621  0.953335  1
  Hf  Hf7  1  0.805379  0.610760  0.953335  1
  Hf  Hf8  1  0.389240  0.194621  0.953335  1
  Hf  Hf9  1  0.194869  0.805131  0.048009  1
  Hf  Hf10  1  0.194869  0.389737  0.048009  1
  Hf  Hf11  1  0.610263  0.805131  0.048009  1
  Hf  Hf12  1  0.539785  0.460215  0.250000  1
  Hf  Hf13  1  0.539785  0.079570  0.250000  1
  Hf  Hf14  1  0.920430  0.460215  0.250000  1
  Hf  Hf15  1  0.456268  0.543732  0.750000  1
  Hf  Hf16  1  0.456268  0.912535  0.750000  1
  Hf  Hf17  1  0.087465  0.543732  0.750000  1
  Ga  Ga18  1  0.333333  0.666667  0.250000  1
  Mo  Mo19  1  0.110769  0.889231  0.750000  1
  Mo  Mo20  1  0.110769  0.221538  0.750000  1
  Mo  Mo21  1  0.778462  0.889231  0.750000  1
  W  W22  1  0.889714  0.110286  0.250000  1
  W  W23  1  0.889714  0.779427  0.250000  1
  W  W24  1  0.220573  0.110286  0.250000  1
  W  W25  1  0.000000  0.000000  0.500867  1
  W  W26  1  0.000000  0.000000  0.999133  1
  Se  Se27  1  0.666667  0.333333  0.750000  1
