# generated using pymatgen
data_Hf4TaB4SbRu10
_symmetry_space_group_name_H-M   'P 1'
_cell_length_a   9.47869400
_cell_length_b   9.47869400
_cell_length_c   3.11099400
_cell_angle_alpha   90.00000000
_cell_angle_beta   90.00000000
_cell_angle_gamma   90.00000000
_symmetry_Int_Tables_number   1
_chemical_formula_structural   Hf4TaB4SbRu10
_chemical_formula_sum   'Hf4 Ta1 B4 Sb1 Ru10'
_cell_volume   279.50924680
_cell_formula_units_Z   1
loop_
 _symmetry_equiv_pos_site_id
 _symmetry_equiv_pos_as_xyz
  1  'x, y, z'
loop_
 _atom_site_type_symbol
 _atom_site_label
 _atom_site_symmetry_multiplicity
 _atom_site_fract_x
 _atom_site_fract_y
 _atom_site_fract_z
 _atom_site_occupancy
  Hf  Hf0  1  0.825551  0.676897  0.000000  1
  Hf  Hf1  1  0.174449  0.323103  0.000000  1
  Hf  Hf2  1  0.323103  0.825551  0.000000  1
  Hf  Hf3  1  0.676897  0.174449  0.000000  1
  Ta  Ta4  1  0.000000  0.000000  0.000000  1
  B  B5  1  0.620801  0.878833  0.000000  1
  B  B6  1  0.379199  0.121167  0.000000  1
  B  B7  1  0.121167  0.620801  0.000000  1
  B  B8  1  0.878833  0.379199  0.000000  1
  Sb  Sb9  1  0.500000  0.500000  0.000000  1
  Ru  Ru10  1  0.571917  0.719860  0.500000  1
  Ru  Ru11  1  0.428083  0.280140  0.500000  1
  Ru  Ru12  1  0.070149  0.781830  0.500000  1
  Ru  Ru13  1  0.929851  0.218170  0.500000  1
  Ru  Ru14  1  0.280140  0.571917  0.500000  1
  Ru  Ru15  1  0.719860  0.428083  0.500000  1
  Ru  Ru16  1  0.218170  0.070149  0.500000  1
  Ru  Ru17  1  0.781830  0.929851  0.500000  1
  Ru  Ru18  1  0.500000  0.000000  0.500000  1
  Ru  Ru19  1  0.000000  0.500000  0.500000  1
