# generated using pymatgen
data_Th4Ga18(TcRh)3
_symmetry_space_group_name_H-M   'P 1'
_cell_length_a   7.72333122
_cell_length_b   7.72333208
_cell_length_c   9.74615021
_cell_angle_alpha   90.04142505
_cell_angle_beta   90.04142461
_cell_angle_gamma   120.78011836
_symmetry_Int_Tables_number   1
_chemical_formula_structural   Th4Ga18(TcRh)3
_chemical_formula_sum   'Th4 Ga18 Tc3 Rh3'
_cell_volume   499.46457604
_cell_formula_units_Z   1
loop_
 _symmetry_equiv_pos_site_id
 _symmetry_equiv_pos_as_xyz
  1  'x, y, z'
loop_
 _atom_site_type_symbol
 _atom_site_label
 _atom_site_symmetry_multiplicity
 _atom_site_fract_x
 _atom_site_fract_y
 _atom_site_fract_z
 _atom_site_occupancy
  Th  Th0  1  0.997617  0.662296  0.248408  1
  Th  Th1  1  0.008299  0.341552  0.751317  1
  Th  Th2  1  0.658448  0.991701  0.248683  1
  Th  Th3  1  0.337704  0.002383  0.751592  1
  Ga  Ga4  1  0.126078  0.124990  0.250849  1
  Ga  Ga5  1  0.875010  0.873922  0.749151  1
  Ga  Ga6  1  0.008549  0.329151  0.077522  1
  Ga  Ga7  1  0.991929  0.669469  0.924219  1
  Ga  Ga8  1  0.994589  0.670052  0.575064  1
  Ga  Ga9  1  0.329948  0.005411  0.424936  1
  Ga  Ga10  1  0.003593  0.330359  0.423968  1
  Ga  Ga11  1  0.669641  0.996407  0.576032  1
  Ga  Ga12  1  0.670849  0.991451  0.922478  1
  Ga  Ga13  1  0.330531  0.008071  0.075781  1
  Ga  Ga14  1  0.339240  0.342449  0.559947  1
  Ga  Ga15  1  0.657551  0.660760  0.440053  1
  Ga  Ga16  1  0.657374  0.656216  0.059743  1
  Ga  Ga17  1  0.343784  0.342626  0.940257  1
  Ga  Ga18  1  0.334461  0.539954  0.250639  1
  Ga  Ga19  1  0.665778  0.458835  0.750311  1
  Ga  Ga20  1  0.541165  0.334222  0.249689  1
  Ga  Ga21  1  0.460046  0.665539  0.749361  1
  Tc  Tc22  1  0.676514  0.323486  0.000000  1
  Tc  Tc23  1  0.324364  0.675636  0.000000  1
  Tc  Tc24  1  0.325247  0.674753  0.500000  1
  Rh  Rh25  1  0.671613  0.328387  0.500000  1
  Rh  Rh26  1  0.999970  0.000030  0.000000  1
  Rh  Rh27  1  0.000113  0.999887  0.500000  1
