# generated using pymatgen
data_LaCrH9
_symmetry_space_group_name_H-M   'P 1'
_cell_length_a   4.68922700
_cell_length_b   4.68922837
_cell_length_c   8.73482300
_cell_angle_alpha   90.00000000
_cell_angle_beta   90.00000000
_cell_angle_gamma   119.99999739
_symmetry_Int_Tables_number   1
_chemical_formula_structural   LaCrH9
_chemical_formula_sum   'La2 Cr2 H18'
_cell_volume   166.33643641
_cell_formula_units_Z   2
loop_
 _symmetry_equiv_pos_site_id
 _symmetry_equiv_pos_as_xyz
  1  'x, y, z'
loop_
 _atom_site_type_symbol
 _atom_site_label
 _atom_site_symmetry_multiplicity
 _atom_site_fract_x
 _atom_site_fract_y
 _atom_site_fract_z
 _atom_site_occupancy
  La  La0  1  0.000000  0.000000  0.000000  1
  La  La1  1  0.000000  0.000000  0.500000  1
  Cr  Cr2  1  0.333333  0.666667  0.250000  1
  Cr  Cr3  1  0.666667  0.333333  0.750000  1
  H  H4  1  0.476877  0.523123  0.380846  1
  H  H5  1  0.476877  0.953754  0.380846  1
  H  H6  1  0.046246  0.523123  0.380846  1
  H  H7  1  0.953754  0.476877  0.880846  1
  H  H8  1  0.138763  0.277527  0.250000  1
  H  H9  1  0.861237  0.138763  0.750000  1
  H  H10  1  0.277527  0.138763  0.750000  1
  H  H11  1  0.722473  0.861237  0.250000  1
  H  H12  1  0.138763  0.861237  0.250000  1
  H  H13  1  0.861237  0.722473  0.750000  1
  H  H14  1  0.476877  0.953754  0.119154  1
  H  H15  1  0.523123  0.476877  0.619154  1
  H  H16  1  0.953754  0.476877  0.619154  1
  H  H17  1  0.046246  0.523123  0.119154  1
  H  H18  1  0.476877  0.523123  0.119154  1
  H  H19  1  0.523123  0.046246  0.880846  1
  H  H20  1  0.523123  0.476877  0.880846  1
  H  H21  1  0.523123  0.046246  0.619154  1
