# generated using pymatgen
data_Ti2MnB2
_symmetry_space_group_name_H-M   'P 1'
_cell_length_a   5.76728700
_cell_length_b   5.76728700
_cell_length_c   3.14401100
_cell_angle_alpha   90.00000000
_cell_angle_beta   90.00000000
_cell_angle_gamma   90.00000000
_symmetry_Int_Tables_number   1
_chemical_formula_structural   Ti2MnB2
_chemical_formula_sum   'Ti4 Mn2 B4'
_cell_volume   104.57483420
_cell_formula_units_Z   2
loop_
 _symmetry_equiv_pos_site_id
 _symmetry_equiv_pos_as_xyz
  1  'x, y, z'
loop_
 _atom_site_type_symbol
 _atom_site_label
 _atom_site_symmetry_multiplicity
 _atom_site_fract_x
 _atom_site_fract_y
 _atom_site_fract_z
 _atom_site_occupancy
  Ti  Ti0  1  0.818048  0.681952  0.500000  1
  Ti  Ti1  1  0.181952  0.318048  0.500000  1
  Ti  Ti2  1  0.681952  0.181952  0.500000  1
  Ti  Ti3  1  0.318048  0.818048  0.500000  1
  Mn  Mn4  1  0.500000  0.500000  0.000000  1
  Mn  Mn5  1  0.000000  0.000000  0.000000  1
  B  B6  1  0.110291  0.610291  0.000000  1
  B  B7  1  0.889709  0.389709  0.000000  1
  B  B8  1  0.610291  0.889709  0.000000  1
  B  B9  1  0.389709  0.110291  0.000000  1
