# generated using pymatgen
data_Nd8Er2(IrPt)3
_symmetry_space_group_name_H-M   'P 1'
_cell_length_a   11.33265854
_cell_length_b   11.32662000
_cell_length_c   6.47901545
_cell_angle_alpha   90.00000000
_cell_angle_beta   90.07673578
_cell_angle_gamma   90.00000000
_symmetry_Int_Tables_number   1
_chemical_formula_structural   Nd8Er2(IrPt)3
_chemical_formula_sum   'Nd16 Er4 Ir6 Pt6'
_cell_volume   831.65032233
_cell_formula_units_Z   2
loop_
 _symmetry_equiv_pos_site_id
 _symmetry_equiv_pos_as_xyz
  1  'x, y, z'
loop_
 _atom_site_type_symbol
 _atom_site_label
 _atom_site_symmetry_multiplicity
 _atom_site_fract_x
 _atom_site_fract_y
 _atom_site_fract_z
 _atom_site_occupancy
  Nd  Nd0  1  0.292745  0.090097  0.376492  1
  Nd  Nd1  1  0.292745  0.909903  0.876492  1
  Nd  Nd2  1  0.707679  0.087136  0.876526  1
  Nd  Nd3  1  0.707679  0.912864  0.376526  1
  Nd  Nd4  1  0.584436  0.789936  0.876449  1
  Nd  Nd5  1  0.584436  0.210064  0.376449  1
  Nd  Nd6  1  0.411207  0.790031  0.381792  1
  Nd  Nd7  1  0.411207  0.209969  0.881792  1
  Nd  Nd8  1  0.211718  0.413993  0.619244  1
  Nd  Nd9  1  0.211718  0.586007  0.119244  1
  Nd  Nd10  1  0.791903  0.412635  0.122398  1
  Nd  Nd11  1  0.791903  0.587365  0.622398  1
  Nd  Nd12  1  0.913245  0.707779  0.123434  1
  Nd  Nd13  1  0.913245  0.292221  0.623434  1
  Nd  Nd14  1  0.090501  0.707168  0.623611  1
  Nd  Nd15  1  0.090501  0.292832  0.123611  1
  Er  Er16  1  0.000109  0.999770  0.499980  1
  Er  Er17  1  0.000109  0.000230  0.999980  1
  Er  Er18  1  0.497116  0.499676  0.000046  1
  Er  Er19  1  0.497116  0.500324  0.500046  1
  Ir  Ir20  1  0.352592  0.351705  0.249979  1
  Ir  Ir21  1  0.352592  0.648295  0.749979  1
  Ir  Ir22  1  0.500524  0.999508  0.118687  1
  Ir  Ir23  1  0.500524  0.000492  0.618687  1
  Ir  Ir24  1  0.998703  0.500158  0.881347  1
  Ir  Ir25  1  0.998703  0.499842  0.381347  1
  Pt  Pt26  1  0.852867  0.147009  0.249977  1
  Pt  Pt27  1  0.852867  0.852991  0.749977  1
  Pt  Pt28  1  0.146521  0.146788  0.749900  1
  Pt  Pt29  1  0.146521  0.853212  0.249900  1
  Pt  Pt30  1  0.648134  0.352402  0.750137  1
  Pt  Pt31  1  0.648134  0.647598  0.250137  1
