# generated using pymatgen
data_Nd8Dy12Si15Ni
_symmetry_space_group_name_H-M   'P 1'
_cell_length_a   7.54913222
_cell_length_b   7.79356545
_cell_length_c   14.80651300
_cell_angle_alpha   89.85123129
_cell_angle_beta   89.81767191
_cell_angle_gamma   90.29003524
_symmetry_Int_Tables_number   1
_chemical_formula_structural   Nd8Dy12Si15Ni
_chemical_formula_sum   'Nd8 Dy12 Si15 Ni1'
_cell_volume   871.11755515
_cell_formula_units_Z   1
loop_
 _symmetry_equiv_pos_site_id
 _symmetry_equiv_pos_as_xyz
  1  'x, y, z'
loop_
 _atom_site_type_symbol
 _atom_site_label
 _atom_site_symmetry_multiplicity
 _atom_site_fract_x
 _atom_site_fract_y
 _atom_site_fract_z
 _atom_site_occupancy
  Nd  Nd0  1  0.974893  0.817770  0.097473  1
  Nd  Nd1  1  0.473866  0.679410  0.401525  1
  Nd  Nd2  1  0.529029  0.322492  0.900936  1
  Nd  Nd3  1  0.027739  0.181411  0.599596  1
  Nd  Nd4  1  0.025837  0.180123  0.901300  1
  Nd  Nd5  1  0.528382  0.320013  0.599509  1
  Nd  Nd6  1  0.470489  0.681101  0.101658  1
  Nd  Nd7  1  0.972052  0.819668  0.399796  1
  Dy  Dy8  1  0.649937  0.994150  0.249309  1
  Dy  Dy9  1  0.148386  0.509634  0.247985  1
  Dy  Dy10  1  0.847536  0.490345  0.757187  1
  Dy  Dy11  1  0.349676  0.009336  0.752415  1
  Dy  Dy12  1  0.683573  0.812569  0.881895  1
  Dy  Dy13  1  0.178889  0.681022  0.622219  1
  Dy  Dy14  1  0.818272  0.334747  0.116844  1
  Dy  Dy15  1  0.315895  0.177426  0.376191  1
  Dy  Dy16  1  0.321149  0.179386  0.123006  1
  Dy  Dy17  1  0.819255  0.320289  0.377089  1
  Dy  Dy18  1  0.175683  0.673337  0.878995  1
  Dy  Dy19  1  0.681792  0.820517  0.623103  1
  Si  Si20  1  0.765843  0.623752  0.250858  1
  Si  Si21  1  0.266910  0.878552  0.250596  1
  Si  Si22  1  0.732783  0.117782  0.750761  1
  Si  Si23  1  0.233377  0.379434  0.747466  1
  Si  Si24  1  0.021568  0.114488  0.247495  1
  Si  Si25  1  0.525333  0.389518  0.251020  1
  Si  Si26  1  0.471312  0.612450  0.748279  1
  Si  Si27  1  0.974324  0.888017  0.749142  1
  Si  Si28  1  0.356536  0.970640  0.539875  1
  Si  Si29  1  0.643757  0.030252  0.040811  1
  Si  Si30  1  0.144399  0.469132  0.460093  1
  Si  Si31  1  0.147011  0.468193  0.040016  1
  Si  Si32  1  0.642604  0.030707  0.459958  1
  Si  Si33  1  0.356191  0.968140  0.961184  1
  Si  Si34  1  0.856409  0.531199  0.538766  1
  Ni  Ni35  1  0.869312  0.522998  0.955653  1
