# generated using pymatgen
data_CaYbY(BPt2)3
_symmetry_space_group_name_H-M   'P 1'
_cell_length_a   5.44110916
_cell_length_b   5.43067189
_cell_length_c   7.69543400
_cell_angle_alpha   90.00000000
_cell_angle_beta   90.00000000
_cell_angle_gamma   119.72825777
_symmetry_Int_Tables_number   1
_chemical_formula_structural   CaYbY(BPt2)3
_chemical_formula_sum   'Ca1 Yb1 Y1 B3 Pt6'
_cell_volume   197.46378644
_cell_formula_units_Z   1
loop_
 _symmetry_equiv_pos_site_id
 _symmetry_equiv_pos_as_xyz
  1  'x, y, z'
loop_
 _atom_site_type_symbol
 _atom_site_label
 _atom_site_symmetry_multiplicity
 _atom_site_fract_x
 _atom_site_fract_y
 _atom_site_fract_z
 _atom_site_occupancy
  Ca  Ca0  1  0.500000  0.500000  0.829967  1
  Yb  Yb1  1  0.500000  0.000000  0.502693  1
  Y  Y2  1  0.000000  0.500000  0.167204  1
  B  B3  1  0.500000  0.500000  0.336459  1
  B  B4  1  0.500000  0.000000  0.997763  1
  B  B5  1  0.000000  0.500000  0.665563  1
  Pt  Pt6  1  0.144304  0.847543  0.834619  1
  Pt  Pt7  1  0.141559  0.293520  0.496926  1
  Pt  Pt8  1  0.699955  0.851629  0.168631  1
  Pt  Pt9  1  0.855696  0.152457  0.834619  1
  Pt  Pt10  1  0.858441  0.706480  0.496926  1
  Pt  Pt11  1  0.300045  0.148371  0.168631  1
