# generated using pymatgen
data_Li4YEr3Si8
_symmetry_space_group_name_H-M   'P 1'
_cell_length_a   3.77964800
_cell_length_b   7.57890477
_cell_length_c   10.11305844
_cell_angle_alpha   90.00855890
_cell_angle_beta   90.00000000
_cell_angle_gamma   90.00000000
_symmetry_Int_Tables_number   1
_chemical_formula_structural   Li4YEr3Si8
_chemical_formula_sum   'Li4 Y1 Er3 Si8'
_cell_volume   289.69454533
_cell_formula_units_Z   1
loop_
 _symmetry_equiv_pos_site_id
 _symmetry_equiv_pos_as_xyz
  1  'x, y, z'
loop_
 _atom_site_type_symbol
 _atom_site_label
 _atom_site_symmetry_multiplicity
 _atom_site_fract_x
 _atom_site_fract_y
 _atom_site_fract_z
 _atom_site_occupancy
  Li  Li0  1  0.250000  0.990612  0.392971  1
  Li  Li1  1  0.250000  0.488276  0.106317  1
  Li  Li2  1  0.750000  0.011837  0.608370  1
  Li  Li3  1  0.750000  0.511484  0.893948  1
  Y  Y4  1  0.750000  0.359847  0.363155  1
  Er  Er5  1  0.250000  0.137537  0.863228  1
  Er  Er6  1  0.250000  0.638848  0.636415  1
  Er  Er7  1  0.750000  0.861141  0.135928  1
  Si  Si8  1  0.250000  0.234076  0.569338  1
  Si  Si9  1  0.250000  0.733819  0.932752  1
  Si  Si10  1  0.750000  0.768310  0.432604  1
  Si  Si11  1  0.750000  0.264124  0.065311  1
  Si  Si12  1  0.250000  0.657035  0.319026  1
  Si  Si13  1  0.250000  0.153625  0.178936  1
  Si  Si14  1  0.750000  0.345111  0.682654  1
  Si  Si15  1  0.750000  0.844320  0.819046  1
