# generated using pymatgen
data_Tm5Lu3(B6Rh)4
_symmetry_space_group_name_H-M   'P 1'
_cell_length_a   3.60608400
_cell_length_b   9.09423705
_cell_length_c   11.42179707
_cell_angle_alpha   89.98775622
_cell_angle_beta   90.00000000
_cell_angle_gamma   90.00000000
_symmetry_Int_Tables_number   1
_chemical_formula_structural   Tm5Lu3(B6Rh)4
_chemical_formula_sum   'Tm5 Lu3 B24 Rh4'
_cell_volume   374.57306017
_cell_formula_units_Z   1
loop_
 _symmetry_equiv_pos_site_id
 _symmetry_equiv_pos_as_xyz
  1  'x, y, z'
loop_
 _atom_site_type_symbol
 _atom_site_label
 _atom_site_symmetry_multiplicity
 _atom_site_fract_x
 _atom_site_fract_y
 _atom_site_fract_z
 _atom_site_occupancy
  Tm  Tm0  1  0.500000  0.321500  0.413831  1
  Tm  Tm1  1  0.500000  0.678511  0.586374  1
  Tm  Tm2  1  0.500000  0.178174  0.913462  1
  Tm  Tm3  1  0.500000  0.821886  0.086241  1
  Tm  Tm4  1  0.500000  0.444510  0.126434  1
  Lu  Lu5  1  0.500000  0.555547  0.873035  1
  Lu  Lu6  1  0.500000  0.055673  0.626744  1
  Lu  Lu7  1  0.500000  0.944383  0.373505  1
  B  B8  1  0.000000  0.107439  0.470971  1
  B  B9  1  0.000000  0.892546  0.529238  1
  B  B10  1  0.000000  0.391701  0.970143  1
  B  B11  1  0.000000  0.608711  0.028934  1
  B  B12  1  0.000000  0.132470  0.316924  1
  B  B13  1  0.000000  0.867422  0.683250  1
  B  B14  1  0.000000  0.367305  0.816506  1
  B  B15  1  0.000000  0.633238  0.183495  1
  B  B16  1  0.000000  0.053802  0.064956  1
  B  B17  1  0.000000  0.945907  0.934851  1
  B  B18  1  0.000000  0.445950  0.565148  1
  B  B19  1  0.000000  0.554162  0.435136  1
  B  B20  1  0.000000  0.482398  0.286954  1
  B  B21  1  0.000000  0.517857  0.713463  1
  B  B22  1  0.000000  0.017890  0.786447  1
  B  B23  1  0.000000  0.982073  0.213645  1
  B  B24  1  0.000000  0.249889  0.078936  1
  B  B25  1  0.000000  0.749515  0.920727  1
  B  B26  1  0.000000  0.249301  0.579096  1
  B  B27  1  0.000000  0.750754  0.421083  1
  B  B28  1  0.000000  0.294571  0.236502  1
  B  B29  1  0.000000  0.704999  0.763756  1
  B  B30  1  0.000000  0.204931  0.736081  1
  B  B31  1  0.000000  0.795254  0.263963  1
  Rh  Rh32  1  0.500000  0.139346  0.179250  1
  Rh  Rh33  1  0.500000  0.860011  0.820703  1
  Rh  Rh34  1  0.500000  0.359930  0.679109  1
  Rh  Rh35  1  0.500000  0.640444  0.321107  1
