# generated using pymatgen
data_K2YbP2O7
_symmetry_space_group_name_H-M   'P 1'
_cell_length_a   5.73018419
_cell_length_b   5.73018337
_cell_length_c   13.11846678
_cell_angle_alpha   75.66593933
_cell_angle_beta   75.66593979
_cell_angle_gamma   59.09332375
_symmetry_Int_Tables_number   1
_chemical_formula_structural   K2YbP2O7
_chemical_formula_sum   'K4 Yb2 P4 O14'
_cell_volume   354.29956723
_cell_formula_units_Z   2
loop_
 _symmetry_equiv_pos_site_id
 _symmetry_equiv_pos_as_xyz
  1  'x, y, z'
loop_
 _atom_site_type_symbol
 _atom_site_label
 _atom_site_symmetry_multiplicity
 _atom_site_fract_x
 _atom_site_fract_y
 _atom_site_fract_z
 _atom_site_occupancy
  K  K0  1  0.932939  0.361197  0.835679  1
  K  K1  1  0.067061  0.638803  0.164321  1
  K  K2  1  0.638803  0.067061  0.664321  1
  K  K3  1  0.361197  0.932939  0.335679  1
  Yb  Yb4  1  0.500000  0.000000  0.000000  1
  Yb  Yb5  1  0.000000  0.500000  0.500000  1
  P  P6  1  0.694620  0.247911  0.369133  1
  P  P7  1  0.247911  0.694620  0.869133  1
  P  P8  1  0.752089  0.305380  0.130867  1
  P  P9  1  0.305380  0.752089  0.630867  1
  O  O10  1  0.155542  0.844458  0.750000  1
  O  O11  1  0.569557  0.193569  0.117749  1
  O  O12  1  0.844458  0.155542  0.250000  1
  O  O13  1  0.430443  0.806431  0.882251  1
  O  O14  1  0.595931  0.616905  0.131392  1
  O  O15  1  0.029516  0.199576  0.059569  1
  O  O16  1  0.806431  0.430443  0.382251  1
  O  O17  1  0.199576  0.029516  0.559569  1
  O  O18  1  0.193569  0.569557  0.617749  1
  O  O19  1  0.383095  0.404069  0.368608  1
  O  O20  1  0.800424  0.970484  0.440431  1
  O  O21  1  0.404069  0.383095  0.868608  1
  O  O22  1  0.970484  0.800424  0.940431  1
  O  O23  1  0.616905  0.595931  0.631392  1
