# generated using pymatgen
data_Zr16Ni3Os5
_symmetry_space_group_name_H-M   'P 1'
_cell_length_a   8.75218975
_cell_length_b   8.75050515
_cell_length_c   8.78526147
_cell_angle_alpha   60.01766807
_cell_angle_beta   59.91112808
_cell_angle_gamma   59.99871273
_symmetry_Int_Tables_number   1
_chemical_formula_structural   Zr16Ni3Os5
_chemical_formula_sum   'Zr16 Ni3 Os5'
_cell_volume   475.50014977
_cell_formula_units_Z   1
loop_
 _symmetry_equiv_pos_site_id
 _symmetry_equiv_pos_as_xyz
  1  'x, y, z'
loop_
 _atom_site_type_symbol
 _atom_site_label
 _atom_site_symmetry_multiplicity
 _atom_site_fract_x
 _atom_site_fract_y
 _atom_site_fract_z
 _atom_site_occupancy
  Zr  Zr0  1  0.059060  0.646970  0.646982  1
  Zr  Zr1  1  0.648940  0.065184  0.642853  1
  Zr  Zr2  1  0.649104  0.642930  0.065161  1
  Zr  Zr3  1  0.649002  0.643055  0.642763  1
  Zr  Zr4  1  0.796133  0.793962  0.204977  1
  Zr  Zr5  1  0.203307  0.209281  0.793576  1
  Zr  Zr6  1  0.796207  0.204910  0.793943  1
  Zr  Zr7  1  0.203318  0.793774  0.209286  1
  Zr  Zr8  1  0.203307  0.793911  0.793504  1
  Zr  Zr9  1  0.796175  0.204902  0.204986  1
  Zr  Zr10  1  0.435974  0.434669  0.064703  1
  Zr  Zr11  1  0.066623  0.065665  0.433904  1
  Zr  Zr12  1  0.435907  0.064594  0.434886  1
  Zr  Zr13  1  0.066552  0.433959  0.065468  1
  Zr  Zr14  1  0.066590  0.433829  0.433986  1
  Zr  Zr15  1  0.435930  0.064615  0.064686  1
  Ni  Ni16  1  0.856257  0.422394  0.860700  1
  Ni  Ni17  1  0.856323  0.860613  0.422416  1
  Ni  Ni18  1  0.856292  0.860601  0.860689  1
  Os  Os19  1  0.743408  0.418864  0.418873  1
  Os  Os20  1  0.417383  0.745415  0.418581  1
  Os  Os21  1  0.417387  0.418584  0.745455  1
  Os  Os22  1  0.417366  0.418634  0.418584  1
  Os  Os23  1  0.423459  0.858685  0.859034  1
