# generated using pymatgen
data_Ho16Tl2InHgRh4
_symmetry_space_group_name_H-M   'P 1'
_cell_length_a   9.62066259
_cell_length_b   9.61370541
_cell_length_c   9.62066245
_cell_angle_alpha   59.94699093
_cell_angle_beta   59.99438884
_cell_angle_gamma   59.94699301
_symmetry_Int_Tables_number   1
_chemical_formula_structural   Ho16Tl2InHgRh4
_chemical_formula_sum   'Ho16 Tl2 In1 Hg1 Rh4'
_cell_volume   628.66452417
_cell_formula_units_Z   1
loop_
 _symmetry_equiv_pos_site_id
 _symmetry_equiv_pos_as_xyz
  1  'x, y, z'
loop_
 _atom_site_type_symbol
 _atom_site_label
 _atom_site_symmetry_multiplicity
 _atom_site_fract_x
 _atom_site_fract_y
 _atom_site_fract_z
 _atom_site_occupancy
  Ho  Ho0  1  0.188078  0.189173  0.811438  1
  Ho  Ho1  1  0.602379  0.601810  0.197982  1
  Ho  Ho2  1  0.438758  0.060373  0.438758  1
  Ho  Ho3  1  0.439713  0.438314  0.060126  1
  Ho  Ho4  1  0.813473  0.184782  0.813473  1
  Ho  Ho5  1  0.189071  0.811089  0.189071  1
  Ho  Ho6  1  0.436414  0.061616  0.061731  1
  Ho  Ho7  1  0.184284  0.813157  0.813201  1
  Ho  Ho8  1  0.061281  0.436023  0.061281  1
  Ho  Ho9  1  0.813201  0.813157  0.184284  1
  Ho  Ho10  1  0.197982  0.601810  0.602379  1
  Ho  Ho11  1  0.060126  0.438314  0.439713  1
  Ho  Ho12  1  0.061731  0.061616  0.436414  1
  Ho  Ho13  1  0.811438  0.189173  0.188078  1
  Ho  Ho14  1  0.602202  0.198019  0.602202  1
  Ho  Ho15  1  0.598354  0.597723  0.598354  1
  Tl  Tl16  1  0.835038  0.833718  0.496409  1
  Tl  Tl17  1  0.496409  0.833718  0.835038  1
  In  In18  1  0.833129  0.500778  0.833129  1
  Hg  Hg19  1  0.837396  0.835935  0.837396  1
  Rh  Rh20  1  0.391601  0.822728  0.391601  1
  Rh  Rh21  1  0.393455  0.393580  0.393455  1
  Rh  Rh22  1  0.822991  0.391699  0.391496  1
  Rh  Rh23  1  0.391496  0.391699  0.822991  1
