# generated using pymatgen
data_Yb2Dy3Y3(ReC2)4
_symmetry_space_group_name_H-M   'P 1'
_cell_length_a   5.12737300
_cell_length_b   6.56571097
_cell_length_c   10.00333557
_cell_angle_alpha   88.82485618
_cell_angle_beta   90.00000000
_cell_angle_gamma   90.00000000
_symmetry_Int_Tables_number   1
_chemical_formula_structural   Yb2Dy3Y3(ReC2)4
_chemical_formula_sum   'Yb2 Dy3 Y3 Re4 C8'
_cell_volume   336.68995362
_cell_formula_units_Z   1
loop_
 _symmetry_equiv_pos_site_id
 _symmetry_equiv_pos_as_xyz
  1  'x, y, z'
loop_
 _atom_site_type_symbol
 _atom_site_label
 _atom_site_symmetry_multiplicity
 _atom_site_fract_x
 _atom_site_fract_y
 _atom_site_fract_z
 _atom_site_occupancy
  Yb  Yb0  1  0.750000  0.964043  0.721619  1
  Yb  Yb1  1  0.250000  0.035862  0.278558  1
  Dy  Dy2  1  0.250000  0.687848  0.554215  1
  Dy  Dy3  1  0.750000  0.312236  0.445713  1
  Dy  Dy4  1  0.750000  0.820368  0.054893  1
  Y  Y5  1  0.250000  0.179988  0.945156  1
  Y  Y6  1  0.250000  0.534667  0.220622  1
  Y  Y7  1  0.750000  0.465244  0.779419  1
  Re  Re8  1  0.250000  0.720196  0.861649  1
  Re  Re9  1  0.750000  0.279927  0.138445  1
  Re  Re10  1  0.750000  0.774411  0.362721  1
  Re  Re11  1  0.250000  0.225717  0.637250  1
  C  C12  1  0.250000  0.455495  0.759273  1
  C  C13  1  0.750000  0.544947  0.240546  1
  C  C14  1  0.750000  0.043696  0.260407  1
  C  C15  1  0.250000  0.956010  0.739265  1
  C  C16  1  0.250000  0.814011  0.041990  1
  C  C17  1  0.750000  0.185322  0.958255  1
  C  C18  1  0.750000  0.677862  0.544371  1
  C  C19  1  0.250000  0.322149  0.455634  1
