# generated using pymatgen
data_Pr3Ho3Al24Os7Au
_symmetry_space_group_name_H-M   'P 1'
_cell_length_a   8.89927356
_cell_length_b   8.88574669
_cell_length_c   9.65967911
_cell_angle_alpha   90.11844562
_cell_angle_beta   89.84978889
_cell_angle_gamma   119.80090586
_symmetry_Int_Tables_number   1
_chemical_formula_structural   Pr3Ho3Al24Os7Au
_chemical_formula_sum   'Pr3 Ho3 Al24 Os7 Au1'
_cell_volume   662.83883953
_cell_formula_units_Z   1
loop_
 _symmetry_equiv_pos_site_id
 _symmetry_equiv_pos_as_xyz
  1  'x, y, z'
loop_
 _atom_site_type_symbol
 _atom_site_label
 _atom_site_symmetry_multiplicity
 _atom_site_fract_x
 _atom_site_fract_y
 _atom_site_fract_z
 _atom_site_occupancy
  Pr  Pr0  1  0.187671  0.381238  0.249601  1
  Pr  Pr1  1  0.811568  0.619682  0.750819  1
  Pr  Pr2  1  0.617554  0.810583  0.249319  1
  Ho  Ho3  1  0.389584  0.190802  0.749007  1
  Ho  Ho4  1  0.194917  0.804198  0.252953  1
  Ho  Ho5  1  0.804300  0.194363  0.746756  1
  Al  Al6  1  0.327440  0.671981  0.019922  1
  Al  Al7  1  0.670996  0.328125  0.975355  1
  Al  Al8  1  0.666718  0.332437  0.522343  1
  Al  Al9  1  0.332295  0.666960  0.481479  1
  Al  Al10  1  0.163307  0.326618  0.575918  1
  Al  Al11  1  0.837560  0.671339  0.426439  1
  Al  Al12  1  0.671079  0.837070  0.574986  1
  Al  Al13  1  0.851113  0.677019  0.079419  1
  Al  Al14  1  0.327837  0.162120  0.428966  1
  Al  Al15  1  0.149821  0.322147  0.918961  1
  Al  Al16  1  0.165070  0.837380  0.574330  1
  Al  Al17  1  0.322637  0.149568  0.076624  1
  Al  Al18  1  0.835031  0.164381  0.427418  1
  Al  Al19  1  0.676811  0.851348  0.919375  1
  Al  Al20  1  0.834499  0.165162  0.071881  1
  Al  Al21  1  0.165550  0.837404  0.925781  1
  Al  Al22  1  0.559166  0.122965  0.249256  1
  Al  Al23  1  0.439172  0.878454  0.750376  1
  Al  Al24  1  0.875841  0.439107  0.249539  1
  Al  Al25  1  0.122916  0.559790  0.750641  1
  Al  Al26  1  0.565001  0.432876  0.256880  1
  Al  Al27  1  0.433342  0.563261  0.744534  1
  Al  Al28  1  0.001677  0.997132  0.250460  1
  Al  Al29  1  0.005882  0.006515  0.749766  1
  Os  Os30  1  0.498938  0.001396  0.998151  1
  Os  Os31  1  0.999275  0.499786  0.999572  1
  Os  Os32  1  0.498908  0.000842  0.501450  1
  Os  Os33  1  0.999497  0.499576  0.500539  1
  Os  Os34  1  0.498983  0.497797  0.501596  1
  Os  Os35  1  0.999545  0.000075  0.999599  1
  Os  Os36  1  0.999247  0.999669  0.500605  1
  Au  Au37  1  0.499253  0.498832  0.999387  1
