# generated using pymatgen
data_Ho12Th4Mg3CdRu4
_symmetry_space_group_name_H-M   'P 1'
_cell_length_a   9.71603193
_cell_length_b   9.71603106
_cell_length_c   9.71603205
_cell_angle_alpha   60.00925558
_cell_angle_beta   60.00925900
_cell_angle_gamma   60.00925730
_symmetry_Int_Tables_number   1
_chemical_formula_structural   Ho12Th4Mg3CdRu4
_chemical_formula_sum   'Ho12 Th4 Mg3 Cd1 Ru4'
_cell_volume   648.69851832
_cell_formula_units_Z   1
loop_
 _symmetry_equiv_pos_site_id
 _symmetry_equiv_pos_as_xyz
  1  'x, y, z'
loop_
 _atom_site_type_symbol
 _atom_site_label
 _atom_site_symmetry_multiplicity
 _atom_site_fract_x
 _atom_site_fract_y
 _atom_site_fract_z
 _atom_site_occupancy
  Ho  Ho0  1  0.812553  0.186870  0.186870  1
  Ho  Ho1  1  0.186775  0.812687  0.812687  1
  Ho  Ho2  1  0.186870  0.812553  0.186870  1
  Ho  Ho3  1  0.812687  0.186775  0.812687  1
  Ho  Ho4  1  0.186870  0.186870  0.812553  1
  Ho  Ho5  1  0.812687  0.812687  0.186775  1
  Ho  Ho6  1  0.933028  0.564775  0.564775  1
  Ho  Ho7  1  0.563118  0.935602  0.935602  1
  Ho  Ho8  1  0.564775  0.933028  0.564775  1
  Ho  Ho9  1  0.935602  0.563118  0.935602  1
  Ho  Ho10  1  0.564775  0.564775  0.933028  1
  Ho  Ho11  1  0.935602  0.935602  0.563118  1
  Th  Th12  1  0.346180  0.346180  0.346180  1
  Th  Th13  1  0.347604  0.347604  0.958243  1
  Th  Th14  1  0.347604  0.958243  0.347604  1
  Th  Th15  1  0.958243  0.347604  0.347604  1
  Mg  Mg16  1  0.579773  0.579773  0.261975  1
  Mg  Mg17  1  0.579773  0.261975  0.579773  1
  Mg  Mg18  1  0.261975  0.579773  0.579773  1
  Cd  Cd19  1  0.581782  0.581782  0.581782  1
  Ru  Ru20  1  0.143000  0.143000  0.143000  1
  Ru  Ru21  1  0.144434  0.144434  0.569853  1
  Ru  Ru22  1  0.144434  0.569853  0.144434  1
  Ru  Ru23  1  0.569853  0.144434  0.144434  1
