# generated using pymatgen
data_YMn2(FeP)3
_symmetry_space_group_name_H-M   'P 1'
_cell_length_a   3.64369000
_cell_length_b   10.26498300
_cell_length_c   12.12371900
_cell_angle_alpha   90.00000000
_cell_angle_beta   90.00000000
_cell_angle_gamma   90.00000000
_symmetry_Int_Tables_number   1
_chemical_formula_structural   YMn2(FeP)3
_chemical_formula_sum   'Y4 Mn8 Fe12 P12'
_cell_volume   453.45638038
_cell_formula_units_Z   4
loop_
 _symmetry_equiv_pos_site_id
 _symmetry_equiv_pos_as_xyz
  1  'x, y, z'
loop_
 _atom_site_type_symbol
 _atom_site_label
 _atom_site_symmetry_multiplicity
 _atom_site_fract_x
 _atom_site_fract_y
 _atom_site_fract_z
 _atom_site_occupancy
  Y  Y0  1  0.250000  0.580742  0.710524  1
  Y  Y1  1  0.250000  0.919258  0.210524  1
  Y  Y2  1  0.750000  0.419258  0.289476  1
  Y  Y3  1  0.750000  0.080742  0.789476  1
  Mn  Mn4  1  0.250000  0.705714  0.992164  1
  Mn  Mn5  1  0.250000  0.794286  0.492164  1
  Mn  Mn6  1  0.750000  0.294286  0.007836  1
  Mn  Mn7  1  0.750000  0.205714  0.507836  1
  Mn  Mn8  1  0.250000  0.408245  0.490376  1
  Mn  Mn9  1  0.250000  0.091755  0.990376  1
  Mn  Mn10  1  0.750000  0.591755  0.509624  1
  Mn  Mn11  1  0.750000  0.908245  0.009624  1
  Fe  Fe12  1  0.250000  0.220512  0.171460  1
  Fe  Fe13  1  0.250000  0.279488  0.671460  1
  Fe  Fe14  1  0.750000  0.779488  0.828540  1
  Fe  Fe15  1  0.750000  0.720512  0.328540  1
  Fe  Fe16  1  0.250000  0.877117  0.695674  1
  Fe  Fe17  1  0.250000  0.622883  0.195674  1
  Fe  Fe18  1  0.750000  0.122883  0.304326  1
  Fe  Fe19  1  0.750000  0.377117  0.804326  1
  Fe  Fe20  1  0.250000  0.462890  0.936033  1
  Fe  Fe21  1  0.250000  0.037110  0.436033  1
  Fe  Fe22  1  0.750000  0.537110  0.063967  1
  Fe  Fe23  1  0.750000  0.962890  0.563967  1
  P  P24  1  0.250000  0.423232  0.112785  1
  P  P25  1  0.250000  0.076768  0.612785  1
  P  P26  1  0.750000  0.576768  0.887215  1
  P  P27  1  0.750000  0.923232  0.387215  1
  P  P28  1  0.250000  0.269185  0.860838  1
  P  P29  1  0.250000  0.230815  0.360838  1
  P  P30  1  0.750000  0.730815  0.139162  1
  P  P31  1  0.750000  0.769185  0.639162  1
  P  P32  1  0.250000  0.603490  0.381358  1
  P  P33  1  0.250000  0.896510  0.881358  1
  P  P34  1  0.750000  0.396510  0.618642  1
  P  P35  1  0.750000  0.103490  0.118642  1
