# generated using pymatgen
data_Sc2ZnSi2Rh5
_symmetry_space_group_name_H-M   'P 1'
_cell_length_a   9.46266000
_cell_length_b   9.46266000
_cell_length_c   3.41886100
_cell_angle_alpha   90.00000000
_cell_angle_beta   90.00000000
_cell_angle_gamma   90.00000000
_symmetry_Int_Tables_number   1
_chemical_formula_structural   Sc2ZnSi2Rh5
_chemical_formula_sum   'Sc4 Zn2 Si4 Rh10'
_cell_volume   306.13142696
_cell_formula_units_Z   2
loop_
 _symmetry_equiv_pos_site_id
 _symmetry_equiv_pos_as_xyz
  1  'x, y, z'
loop_
 _atom_site_type_symbol
 _atom_site_label
 _atom_site_symmetry_multiplicity
 _atom_site_fract_x
 _atom_site_fract_y
 _atom_site_fract_z
 _atom_site_occupancy
  Sc  Sc0  1  0.827696  0.327696  0.000000  1
  Sc  Sc1  1  0.327696  0.172304  0.000000  1
  Sc  Sc2  1  0.672304  0.827696  0.000000  1
  Sc  Sc3  1  0.172304  0.672304  0.000000  1
  Zn  Zn4  1  0.000000  0.000000  0.000000  1
  Zn  Zn5  1  0.500000  0.500000  0.000000  1
  Si  Si6  1  0.628495  0.128495  0.000000  1
  Si  Si7  1  0.128495  0.371505  0.000000  1
  Si  Si8  1  0.871505  0.628495  0.000000  1
  Si  Si9  1  0.371505  0.871505  0.000000  1
  Rh  Rh10  1  0.069605  0.207868  0.500000  1
  Rh  Rh11  1  0.207868  0.930395  0.500000  1
  Rh  Rh12  1  0.792132  0.069605  0.500000  1
  Rh  Rh13  1  0.930395  0.792132  0.500000  1
  Rh  Rh14  1  0.430395  0.707868  0.500000  1
  Rh  Rh15  1  0.569605  0.292132  0.500000  1
  Rh  Rh16  1  0.707868  0.569605  0.500000  1
  Rh  Rh17  1  0.292132  0.430395  0.500000  1
  Rh  Rh18  1  0.500000  0.000000  0.500000  1
  Rh  Rh19  1  0.000000  0.500000  0.500000  1
