# generated using pymatgen
data_LaEr11Ti8(ReN4)12
_symmetry_space_group_name_H-M   'P 1'
_cell_length_a   10.99715817
_cell_length_b   10.99852965
_cell_length_c   10.99842120
_cell_angle_alpha   109.21635658
_cell_angle_beta   109.59946669
_cell_angle_gamma   109.60361406
_symmetry_Int_Tables_number   1
_chemical_formula_structural   LaEr11Ti8(ReN4)12
_chemical_formula_sum   'La1 Er11 Ti8 Re12 N48'
_cell_volume   1023.97109433
_cell_formula_units_Z   1
loop_
 _symmetry_equiv_pos_site_id
 _symmetry_equiv_pos_as_xyz
  1  'x, y, z'
loop_
 _atom_site_type_symbol
 _atom_site_label
 _atom_site_symmetry_multiplicity
 _atom_site_fract_x
 _atom_site_fract_y
 _atom_site_fract_z
 _atom_site_occupancy
  La  La0  1  0.250009  0.374960  0.124964  1
  Er  Er1  1  0.376618  0.751916  0.125337  1
  Er  Er2  1  0.376549  0.124652  0.251212  1
  Er  Er3  1  0.874679  0.625190  0.250339  1
  Er  Er4  1  0.750004  0.124977  0.374972  1
  Er  Er5  1  0.123387  0.248723  0.375309  1
  Er  Er6  1  0.874727  0.749556  0.624387  1
  Er  Er7  1  0.249992  0.875007  0.625008  1
  Er  Er8  1  0.123446  0.374659  0.748098  1
  Er  Er9  1  0.625320  0.875654  0.750502  1
  Er  Er10  1  0.625271  0.249672  0.874829  1
  Er  Er11  1  0.750006  0.625040  0.875042  1
  Ti  Ti12  1  0.007638  0.004627  0.007159  1
  Ti  Ti13  1  0.500374  0.999382  0.010872  1
  Ti  Ti14  1  0.007497  0.502992  0.000467  1
  Ti  Ti15  1  0.492345  0.499512  0.996983  1
  Ti  Ti16  1  0.999627  0.010533  0.499008  1
  Ti  Ti17  1  0.500385  0.000984  0.489541  1
  Ti  Ti18  1  0.999618  0.489141  0.500601  1
  Ti  Ti19  1  0.492488  0.492963  0.495482  1
  Re  Re20  1  0.871808  0.248557  0.124115  1
  Re  Re21  1  0.750014  0.872650  0.122649  1
  Re  Re22  1  0.628203  0.375892  0.251413  1
  Re  Re23  1  0.123354  0.873206  0.249424  1
  Re  Re24  1  0.250015  0.631026  0.381036  1
  Re  Re25  1  0.628198  0.752300  0.376753  1
  Re  Re26  1  0.376727  0.250648  0.626871  1
  Re  Re27  1  0.750003  0.377311  0.627308  1
  Re  Re28  1  0.871765  0.123200  0.747669  1
  Re  Re29  1  0.376667  0.626079  0.749870  1
  Re  Re30  1  0.249980  0.119008  0.869010  1
  Re  Re31  1  0.123270  0.750140  0.873927  1
  N  N32  1  0.203703  0.109803  0.013858  1
  N  N33  1  0.315832  0.902329  0.020593  1
  N  N34  1  0.880887  0.400909  0.085880  1
  N  N35  1  0.706845  0.683615  0.085515  1
  N  N36  1  0.619111  0.414108  0.099092  1
  N  N37  1  0.977004  0.684085  0.097371  1
  N  N38  1  0.597114  0.911255  0.117462  1
  N  N39  1  0.014109  0.197768  0.117373  1
  N  N40  1  0.203770  0.593920  0.189897  1
  N  N41  1  0.485886  0.603249  0.183650  1
  N  N42  1  0.118729  0.021087  0.205977  1
  N  N43  1  0.588096  0.183715  0.205211  1
  N  N44  1  0.485866  0.382604  0.302193  1
  N  N45  1  0.315854  0.913496  0.295240  1
  N  N46  1  0.911894  0.294776  0.316293  1
  N  N47  1  0.902894  0.020345  0.314135  1
  N  N48  1  0.296231  0.486130  0.390151  1
  N  N49  1  0.588095  0.904396  0.382877  1
  N  N50  1  0.817109  0.522468  0.402903  1
  N  N51  1  0.086056  0.880546  0.400849  1
  N  N52  1  0.096983  0.621962  0.416504  1
  N  N53  1  0.817090  0.794633  0.414195  1
  N  N54  1  0.597088  0.185861  0.479618  1
  N  N55  1  0.381255  0.293981  0.478881  1
  N  N56  1  0.619110  0.704992  0.520031  1
  N  N57  1  0.403023  0.819528  0.524979  1
  N  N58  1  0.184164  0.204751  0.586493  1
  N  N59  1  0.902923  0.382542  0.588788  1
  N  N60  1  0.911904  0.117111  0.595615  1
  N  N61  1  0.184161  0.479399  0.597651  1
  N  N62  1  0.413955  0.099159  0.619446  1
  N  N63  1  0.706868  0.523227  0.621318  1
  N  N64  1  0.086053  0.705503  0.685215  1
  N  N65  1  0.097002  0.975027  0.680489  1
  N  N66  1  0.682875  0.085792  0.705358  1
  N  N67  1  0.522993  0.620373  0.707086  1
  N  N68  1  0.413950  0.814798  0.794494  1
  N  N69  1  0.880889  0.979986  0.795000  1
  N  N70  1  0.523037  0.402654  0.815936  1
  N  N71  1  0.793138  0.414451  0.816366  1
  N  N72  1  0.402991  0.083483  0.878026  1
  N  N73  1  0.976983  0.792906  0.879624  1
  N  N74  1  0.014135  0.316325  0.896733  1
  N  N75  1  0.381261  0.587249  0.902359  1
  N  N76  1  0.296300  0.310143  0.906104  1
  N  N77  1  0.118739  0.597634  0.912719  1
  N  N78  1  0.682912  0.097107  0.977544  1
  N  N79  1  0.793152  0.878667  0.976752  1
