# generated using pymatgen
data_CaNd4Sn3H
_symmetry_space_group_name_H-M   'P 1'
_cell_length_a   9.40076731
_cell_length_b   9.40076708
_cell_length_c   9.40076792
_cell_angle_alpha   128.15182736
_cell_angle_beta   128.15182914
_cell_angle_gamma   76.37920050
_symmetry_Int_Tables_number   1
_chemical_formula_structural   CaNd4Sn3H
_chemical_formula_sum   'Ca2 Nd8 Sn6 H2'
_cell_volume   499.20139069
_cell_formula_units_Z   2
loop_
 _symmetry_equiv_pos_site_id
 _symmetry_equiv_pos_as_xyz
  1  'x, y, z'
loop_
 _atom_site_type_symbol
 _atom_site_label
 _atom_site_symmetry_multiplicity
 _atom_site_fract_x
 _atom_site_fract_y
 _atom_site_fract_z
 _atom_site_occupancy
  Ca  Ca0  1  0.500000  0.500000  0.000000  1
  Ca  Ca1  1  0.000000  0.000000  0.000000  1
  Nd  Nd2  1  0.513938  0.013938  0.829318  1
  Nd  Nd3  1  0.184620  0.684620  0.170682  1
  Nd  Nd4  1  0.013938  0.184620  0.500000  1
  Nd  Nd5  1  0.684620  0.513938  0.500000  1
  Nd  Nd6  1  0.486062  0.986062  0.170682  1
  Nd  Nd7  1  0.815380  0.315380  0.829318  1
  Nd  Nd8  1  0.986062  0.815380  0.500000  1
  Nd  Nd9  1  0.315380  0.486062  0.500000  1
  Sn  Sn10  1  0.250000  0.250000  0.000000  1
  Sn  Sn11  1  0.750000  0.750000  0.000000  1
  Sn  Sn12  1  0.869849  0.369849  0.239700  1
  Sn  Sn13  1  0.130151  0.630151  0.760300  1
  Sn  Sn14  1  0.369849  0.130151  0.500000  1
  Sn  Sn15  1  0.630151  0.869849  0.500000  1
  H  H16  1  0.250000  0.750000  0.500000  1
  H  H17  1  0.750000  0.250000  0.500000  1
