# generated using pymatgen
data_Er7Tm5(CoNi)2
_symmetry_space_group_name_H-M   'P 1'
_cell_length_a   6.20932027
_cell_length_b   6.80782754
_cell_length_c   9.32969086
_cell_angle_alpha   90.04929702
_cell_angle_beta   90.00201340
_cell_angle_gamma   89.97344101
_symmetry_Int_Tables_number   1
_chemical_formula_structural   Er7Tm5(CoNi)2
_chemical_formula_sum   'Er7 Tm5 Co2 Ni2'
_cell_volume   394.38433135
_cell_formula_units_Z   1
loop_
 _symmetry_equiv_pos_site_id
 _symmetry_equiv_pos_as_xyz
  1  'x, y, z'
loop_
 _atom_site_type_symbol
 _atom_site_label
 _atom_site_symmetry_multiplicity
 _atom_site_fract_x
 _atom_site_fract_y
 _atom_site_fract_z
 _atom_site_occupancy
  Er  Er0  1  0.633857  0.040245  0.250677  1
  Er  Er1  1  0.365746  0.959557  0.749382  1
  Er  Er2  1  0.140152  0.464620  0.749411  1
  Er  Er3  1  0.860142  0.535839  0.250488  1
  Er  Er4  1  0.178667  0.181825  0.066679  1
  Er  Er5  1  0.821199  0.817956  0.933717  1
  Er  Er6  1  0.675432  0.322482  0.934638  1
  Tm  Tm7  1  0.821066  0.818268  0.566493  1
  Tm  Tm8  1  0.324618  0.677700  0.065809  1
  Tm  Tm9  1  0.178890  0.181657  0.433532  1
  Tm  Tm10  1  0.324218  0.677639  0.434374  1
  Tm  Tm11  1  0.675681  0.322352  0.565124  1
  Co  Co12  1  0.451893  0.391604  0.250405  1
  Co  Co13  1  0.547930  0.608654  0.749576  1
  Ni  Ni14  1  0.951206  0.108449  0.749116  1
  Ni  Ni15  1  0.049302  0.891154  0.250578  1
