# generated using pymatgen
data_Tm5Lu11(CdNi)4
_symmetry_space_group_name_H-M   'P 1'
_cell_length_a   9.36943635
_cell_length_b   9.36820161
_cell_length_c   9.36820121
_cell_angle_alpha   59.97552786
_cell_angle_beta   59.99563508
_cell_angle_gamma   59.99563827
_symmetry_Int_Tables_number   1
_chemical_formula_structural   Tm5Lu11(CdNi)4
_chemical_formula_sum   'Tm5 Lu11 Cd4 Ni4'
_cell_volume   581.30209070
_cell_formula_units_Z   1
loop_
 _symmetry_equiv_pos_site_id
 _symmetry_equiv_pos_as_xyz
  1  'x, y, z'
loop_
 _atom_site_type_symbol
 _atom_site_label
 _atom_site_symmetry_multiplicity
 _atom_site_fract_x
 _atom_site_fract_y
 _atom_site_fract_z
 _atom_site_occupancy
  Tm  Tm0  1  0.347858  0.348238  0.348238  1
  Tm  Tm1  1  0.348118  0.348300  0.955462  1
  Tm  Tm2  1  0.348118  0.955462  0.348300  1
  Tm  Tm3  1  0.955663  0.348238  0.348238  1
  Tm  Tm4  1  0.811735  0.188265  0.188265  1
  Lu  Lu5  1  0.188214  0.811786  0.811786  1
  Lu  Lu6  1  0.188492  0.811443  0.188212  1
  Lu  Lu7  1  0.811853  0.188212  0.811443  1
  Lu  Lu8  1  0.188492  0.188212  0.811443  1
  Lu  Lu9  1  0.811853  0.811443  0.188212  1
  Lu  Lu10  1  0.935946  0.564054  0.564054  1
  Lu  Lu11  1  0.564032  0.935968  0.935968  1
  Lu  Lu12  1  0.563849  0.935897  0.564212  1
  Lu  Lu13  1  0.936041  0.564212  0.935897  1
  Lu  Lu14  1  0.563849  0.564212  0.935897  1
  Lu  Lu15  1  0.936041  0.935897  0.564212  1
  Cd  Cd16  1  0.581603  0.581678  0.581678  1
  Cd  Cd17  1  0.581636  0.581734  0.254995  1
  Cd  Cd18  1  0.581636  0.254995  0.581734  1
  Cd  Cd19  1  0.255041  0.581678  0.581678  1
  Ni  Ni20  1  0.142102  0.141737  0.141737  1
  Ni  Ni21  1  0.141699  0.141761  0.574842  1
  Ni  Ni22  1  0.141699  0.574842  0.141761  1
  Ni  Ni23  1  0.574426  0.141737  0.141737  1
