# generated using pymatgen
data_Zr12AlGa2Co(Ir2N)4
_symmetry_space_group_name_H-M   'P 1'
_cell_length_a   8.62147904
_cell_length_b   8.62147988
_cell_length_c   8.62148000
_cell_angle_alpha   59.18460430
_cell_angle_beta   59.18460095
_cell_angle_gamma   59.18460159
_symmetry_Int_Tables_number   1
_chemical_formula_structural   Zr12AlGa2Co(Ir2N)4
_chemical_formula_sum   'Zr12 Al1 Ga2 Co1 Ir8 N4'
_cell_volume   444.71889419
_cell_formula_units_Z   1
loop_
 _symmetry_equiv_pos_site_id
 _symmetry_equiv_pos_as_xyz
  1  'x, y, z'
loop_
 _atom_site_type_symbol
 _atom_site_label
 _atom_site_symmetry_multiplicity
 _atom_site_fract_x
 _atom_site_fract_y
 _atom_site_fract_z
 _atom_site_occupancy
  Zr  Zr0  1  0.805219  0.805219  0.197124  1
  Zr  Zr1  1  0.191577  0.191577  0.808442  1
  Zr  Zr2  1  0.804930  0.196907  0.805738  1
  Zr  Zr3  1  0.191644  0.808122  0.191742  1
  Zr  Zr4  1  0.196907  0.804930  0.805738  1
  Zr  Zr5  1  0.808122  0.191644  0.191742  1
  Zr  Zr6  1  0.444781  0.444781  0.052876  1
  Zr  Zr7  1  0.058423  0.058423  0.441558  1
  Zr  Zr8  1  0.445070  0.053093  0.444262  1
  Zr  Zr9  1  0.058356  0.441878  0.058258  1
  Zr  Zr10  1  0.053093  0.445070  0.444262  1
  Zr  Zr11  1  0.441878  0.058356  0.058258  1
  Al  Al12  1  0.625000  0.625000  0.125000  1
  Ga  Ga13  1  0.125000  0.625000  0.625000  1
  Ga  Ga14  1  0.625000  0.125000  0.625000  1
  Co  Co15  1  0.625000  0.625000  0.625000  1
  Ir  Ir16  1  0.751277  0.419139  0.416114  1
  Ir  Ir17  1  0.419139  0.751277  0.416114  1
  Ir  Ir18  1  0.417936  0.417936  0.751581  1
  Ir  Ir19  1  0.415725  0.415725  0.413259  1
  Ir  Ir20  1  0.498723  0.830861  0.833886  1
  Ir  Ir21  1  0.830861  0.498723  0.833886  1
  Ir  Ir22  1  0.832064  0.832064  0.498419  1
  Ir  Ir23  1  0.834275  0.834275  0.836741  1
  N  N24  1  0.625000  0.125000  0.125000  1
  N  N25  1  0.125000  0.625000  0.125000  1
  N  N26  1  0.125000  0.125000  0.625000  1
  N  N27  1  0.125000  0.125000  0.125000  1
