# generated using pymatgen
data_ZnCd3Cu2
_symmetry_space_group_name_H-M   'P 1'
_cell_length_a   8.30382714
_cell_length_b   8.30382685
_cell_length_c   8.30382700
_cell_angle_alpha   59.99999543
_cell_angle_beta   59.99999656
_cell_angle_gamma   59.99999887
_symmetry_Int_Tables_number   1
_chemical_formula_structural   ZnCd3Cu2
_chemical_formula_sum   'Zn4 Cd12 Cu8'
_cell_volume   404.87396371
_cell_formula_units_Z   4
loop_
 _symmetry_equiv_pos_site_id
 _symmetry_equiv_pos_as_xyz
  1  'x, y, z'
loop_
 _atom_site_type_symbol
 _atom_site_label
 _atom_site_symmetry_multiplicity
 _atom_site_fract_x
 _atom_site_fract_y
 _atom_site_fract_z
 _atom_site_occupancy
  Zn  Zn0  1  0.125000  0.625000  0.625000  1
  Zn  Zn1  1  0.625000  0.125000  0.625000  1
  Zn  Zn2  1  0.625000  0.625000  0.125000  1
  Zn  Zn3  1  0.625000  0.625000  0.625000  1
  Cd  Cd4  1  0.808301  0.808301  0.191699  1
  Cd  Cd5  1  0.191699  0.191699  0.808301  1
  Cd  Cd6  1  0.808301  0.191699  0.808301  1
  Cd  Cd7  1  0.191699  0.808301  0.191699  1
  Cd  Cd8  1  0.191699  0.808301  0.808301  1
  Cd  Cd9  1  0.808301  0.191699  0.191699  1
  Cd  Cd10  1  0.441699  0.441699  0.058301  1
  Cd  Cd11  1  0.058301  0.058301  0.441699  1
  Cd  Cd12  1  0.441699  0.058301  0.441699  1
  Cd  Cd13  1  0.058301  0.441699  0.058301  1
  Cd  Cd14  1  0.058301  0.441699  0.441699  1
  Cd  Cd15  1  0.441699  0.058301  0.058301  1
  Cu  Cu16  1  0.741648  0.419450  0.419450  1
  Cu  Cu17  1  0.419450  0.741648  0.419450  1
  Cu  Cu18  1  0.419450  0.419450  0.741648  1
  Cu  Cu19  1  0.419450  0.419450  0.419450  1
  Cu  Cu20  1  0.508352  0.830550  0.830550  1
  Cu  Cu21  1  0.830550  0.508352  0.830550  1
  Cu  Cu22  1  0.830550  0.830550  0.508352  1
  Cu  Cu23  1  0.830550  0.830550  0.830550  1
