# generated using pymatgen
data_Sr5Zr3(As3Pd4)4
_symmetry_space_group_name_H-M   'P 1'
_cell_length_a   13.70482500
_cell_length_b   13.70482473
_cell_length_c   4.21703500
_cell_angle_alpha   90.00000000
_cell_angle_beta   90.00000000
_cell_angle_gamma   120.00000307
_symmetry_Int_Tables_number   1
_chemical_formula_structural   Sr5Zr3(As3Pd4)4
_chemical_formula_sum   'Sr5 Zr3 As12 Pd16'
_cell_volume   685.93790665
_cell_formula_units_Z   1
loop_
 _symmetry_equiv_pos_site_id
 _symmetry_equiv_pos_as_xyz
  1  'x, y, z'
loop_
 _atom_site_type_symbol
 _atom_site_label
 _atom_site_symmetry_multiplicity
 _atom_site_fract_x
 _atom_site_fract_y
 _atom_site_fract_z
 _atom_site_occupancy
  Sr  Sr0  1  0.187152  0.187152  0.500000  1
  Sr  Sr1  1  0.812848  0.000000  0.500000  1
  Sr  Sr2  1  0.000000  0.812848  0.500000  1
  Sr  Sr3  1  0.333333  0.666667  0.000000  1
  Sr  Sr4  1  0.666667  0.333333  0.000000  1
  Zr  Zr5  1  0.558329  0.558329  0.000000  1
  Zr  Zr6  1  0.441671  0.000000  0.000000  1
  Zr  Zr7  1  0.000000  0.441671  0.000000  1
  As  As8  1  0.821412  0.821412  0.000000  1
  As  As9  1  0.178588  0.000000  0.000000  1
  As  As10  1  0.000000  0.178588  0.000000  1
  As  As11  1  0.163407  0.477934  0.500000  1
  As  As12  1  0.522066  0.685473  0.500000  1
  As  As13  1  0.314527  0.836593  0.500000  1
  As  As14  1  0.685473  0.522066  0.500000  1
  As  As15  1  0.836593  0.314527  0.500000  1
  As  As16  1  0.477934  0.163407  0.500000  1
  As  As17  1  0.363007  0.363007  0.000000  1
  As  As18  1  0.636993  0.000000  0.000000  1
  As  As19  1  0.000000  0.636993  0.000000  1
  Pd  Pd20  1  0.722567  0.722567  0.500000  1
  Pd  Pd21  1  0.277433  0.000000  0.500000  1
  Pd  Pd22  1  0.000000  0.277433  0.500000  1
  Pd  Pd23  1  0.185699  0.380140  0.000000  1
  Pd  Pd24  1  0.619860  0.805559  0.000000  1
  Pd  Pd25  1  0.194441  0.814301  0.000000  1
  Pd  Pd26  1  0.805559  0.619860  0.000000  1
  Pd  Pd27  1  0.814301  0.194441  0.000000  1
  Pd  Pd28  1  0.380140  0.185699  0.000000  1
  Pd  Pd29  1  0.359597  0.484396  0.500000  1
  Pd  Pd30  1  0.515604  0.875201  0.500000  1
  Pd  Pd31  1  0.124799  0.640403  0.500000  1
  Pd  Pd32  1  0.875201  0.515604  0.500000  1
  Pd  Pd33  1  0.640403  0.124799  0.500000  1
  Pd  Pd34  1  0.484396  0.359597  0.500000  1
  Pd  Pd35  1  0.000000  0.000000  0.000000  1
