# generated using pymatgen
data_Ho9ErCo4
_symmetry_space_group_name_H-M   'P 1'
_cell_length_a   8.52906106
_cell_length_b   8.52906039
_cell_length_c   6.90551672
_cell_angle_alpha   83.76230498
_cell_angle_beta   83.76230424
_cell_angle_gamma   42.89219916
_symmetry_Int_Tables_number   1
_chemical_formula_structural   Ho9ErCo4
_chemical_formula_sum   'Ho9 Er1 Co4'
_cell_volume   339.56627038
_cell_formula_units_Z   1
loop_
 _symmetry_equiv_pos_site_id
 _symmetry_equiv_pos_as_xyz
  1  'x, y, z'
loop_
 _atom_site_type_symbol
 _atom_site_label
 _atom_site_symmetry_multiplicity
 _atom_site_fract_x
 _atom_site_fract_y
 _atom_site_fract_z
 _atom_site_occupancy
  Ho  Ho0  1  0.014292  0.796957  0.913599  1
  Ho  Ho1  1  0.203043  0.985708  0.586401  1
  Ho  Ho2  1  0.985914  0.202575  0.086797  1
  Ho  Ho3  1  0.797425  0.014086  0.413203  1
  Ho  Ho4  1  0.352468  0.215733  0.815599  1
  Ho  Ho5  1  0.784267  0.647532  0.684401  1
  Ho  Ho6  1  0.647269  0.784233  0.184573  1
  Ho  Ho7  1  0.215767  0.352731  0.315427  1
  Ho  Ho8  1  0.570728  0.429272  0.750000  1
  Er  Er9  1  0.429401  0.570599  0.250000  1
  Co  Co10  1  0.176230  0.600519  0.572364  1
  Co  Co11  1  0.399481  0.823770  0.927636  1
  Co  Co12  1  0.823461  0.399748  0.427211  1
  Co  Co13  1  0.600252  0.176539  0.072789  1
