# generated using pymatgen
data_Ca4La3CoNi3Sn13
_symmetry_space_group_name_H-M   'P 1'
_cell_length_a   11.32176696
_cell_length_b   11.32406692
_cell_length_c   4.63836600
_cell_angle_alpha   90.00000000
_cell_angle_beta   90.00000000
_cell_angle_gamma   90.13568826
_symmetry_Int_Tables_number   1
_chemical_formula_structural   Ca4La3CoNi3Sn13
_chemical_formula_sum   'Ca4 La3 Co1 Ni3 Sn13'
_cell_volume   594.67603231
_cell_formula_units_Z   1
loop_
 _symmetry_equiv_pos_site_id
 _symmetry_equiv_pos_as_xyz
  1  'x, y, z'
loop_
 _atom_site_type_symbol
 _atom_site_label
 _atom_site_symmetry_multiplicity
 _atom_site_fract_x
 _atom_site_fract_y
 _atom_site_fract_z
 _atom_site_occupancy
  Ca  Ca0  1  0.838101  0.171022  0.000000  1
  Ca  Ca1  1  0.829186  0.837986  0.000000  1
  Ca  Ca2  1  0.161556  0.828768  0.000000  1
  Ca  Ca3  1  0.170891  0.161592  0.000000  1
  La  La4  1  0.501295  0.500761  0.500000  1
  La  La5  1  0.999495  0.499292  0.000000  1
  La  La6  1  0.500186  0.999980  0.000000  1
  Co  Co7  1  0.775535  0.617842  0.500000  1
  Ni  Ni8  1  0.380488  0.778009  0.500000  1
  Ni  Ni9  1  0.619278  0.221923  0.500000  1
  Ni  Ni10  1  0.222144  0.380271  0.500000  1
  Sn  Sn11  1  0.018573  0.282456  0.500000  1
  Sn  Sn12  1  0.977292  0.714788  0.500000  1
  Sn  Sn13  1  0.213913  0.612535  0.500000  1
  Sn  Sn14  1  0.574835  0.305422  0.000000  1
  Sn  Sn15  1  0.697846  0.575707  0.000000  1
  Sn  Sn16  1  0.785280  0.389080  0.500000  1
  Sn  Sn17  1  0.716620  0.019147  0.500000  1
  Sn  Sn18  1  0.999995  0.000403  0.500000  1
  Sn  Sn19  1  0.282905  0.981125  0.500000  1
  Sn  Sn20  1  0.428376  0.696301  0.000000  1
  Sn  Sn21  1  0.614202  0.783618  0.500000  1
  Sn  Sn22  1  0.304062  0.427134  0.000000  1
  Sn  Sn23  1  0.387947  0.214839  0.500000  1
