# generated using pymatgen
data_Dy8Tm2Si5Pb
_symmetry_space_group_name_H-M   'P 1'
_cell_length_a   8.53564494
_cell_length_b   8.53564407
_cell_length_c   6.38536609
_cell_angle_alpha   89.99059109
_cell_angle_beta   89.99025820
_cell_angle_gamma   120.25157236
_symmetry_Int_Tables_number   1
_chemical_formula_structural   Dy8Tm2Si5Pb
_chemical_formula_sum   'Dy8 Tm2 Si5 Pb1'
_cell_volume   401.86715741
_cell_formula_units_Z   1
loop_
 _symmetry_equiv_pos_site_id
 _symmetry_equiv_pos_as_xyz
  1  'x, y, z'
loop_
 _atom_site_type_symbol
 _atom_site_label
 _atom_site_symmetry_multiplicity
 _atom_site_fract_x
 _atom_site_fract_y
 _atom_site_fract_z
 _atom_site_occupancy
  Dy  Dy0  1  0.675153  0.330939  0.503812  1
  Dy  Dy1  1  0.330940  0.675152  0.503813  1
  Dy  Dy2  1  0.766520  0.766521  0.249099  1
  Dy  Dy3  1  0.240889  0.987841  0.248984  1
  Dy  Dy4  1  0.987842  0.240890  0.248984  1
  Dy  Dy5  1  0.240893  0.240891  0.750760  1
  Dy  Dy6  1  0.755162  0.998058  0.751104  1
  Dy  Dy7  1  0.998059  0.755161  0.751102  1
  Tm  Tm8  1  0.331021  0.675364  0.996237  1
  Tm  Tm9  1  0.675361  0.331024  0.996240  1
  Si  Si10  1  0.603371  0.998253  0.247007  1
  Si  Si11  1  0.998252  0.603372  0.247011  1
  Si  Si12  1  0.605066  0.605065  0.752393  1
  Si  Si13  1  0.394005  0.001799  0.752981  1
  Si  Si14  1  0.001798  0.394003  0.752981  1
  Pb  Pb15  1  0.395667  0.395668  0.247492  1
