# generated using pymatgen
data_Tm5LuAl14(Si5Ru4)2
_symmetry_space_group_name_H-M   'P 1'
_cell_length_a   8.64291804
_cell_length_b   8.64940353
_cell_length_c   9.29734800
_cell_angle_alpha   89.99991074
_cell_angle_beta   90.00160331
_cell_angle_gamma   119.98836576
_symmetry_Int_Tables_number   1
_chemical_formula_structural   Tm5LuAl14(Si5Ru4)2
_chemical_formula_sum   'Tm5 Lu1 Al14 Si10 Ru8'
_cell_volume   601.98708544
_cell_formula_units_Z   1
loop_
 _symmetry_equiv_pos_site_id
 _symmetry_equiv_pos_as_xyz
  1  'x, y, z'
loop_
 _atom_site_type_symbol
 _atom_site_label
 _atom_site_symmetry_multiplicity
 _atom_site_fract_x
 _atom_site_fract_y
 _atom_site_fract_z
 _atom_site_occupancy
  Tm  Tm0  1  0.192351  0.806072  0.250000  1
  Tm  Tm1  1  0.387292  0.196013  0.750003  1
  Tm  Tm2  1  0.613933  0.806125  0.250003  1
  Tm  Tm3  1  0.805452  0.611058  0.749996  1
  Tm  Tm4  1  0.193636  0.387061  0.249996  1
  Lu  Lu5  1  0.807461  0.197209  0.749981  1
  Al  Al6  1  0.835109  0.165346  0.418495  1
  Al  Al7  1  0.164544  0.836905  0.581511  1
  Al  Al8  1  0.330792  0.165564  0.418218  1
  Al  Al9  1  0.164540  0.836902  0.918489  1
  Al  Al10  1  0.672990  0.837446  0.581735  1
  Al  Al11  1  0.835104  0.165347  0.081502  1
  Al  Al12  1  0.834266  0.668470  0.419027  1
  Al  Al13  1  0.672984  0.837443  0.918263  1
  Al  Al14  1  0.163436  0.327447  0.581897  1
  Al  Al15  1  0.330784  0.165558  0.081784  1
  Al  Al16  1  0.163426  0.327440  0.918104  1
  Al  Al17  1  0.834256  0.668461  0.080973  1
  Al  Al18  1  0.435937  0.871365  0.749998  1
  Al  Al19  1  0.998624  0.000457  0.749997  1
  Si  Si20  1  0.665839  0.331575  0.957582  1
  Si  Si21  1  0.334463  0.668673  0.041357  1
  Si  Si22  1  0.334474  0.668676  0.458636  1
  Si  Si23  1  0.665841  0.331577  0.542416  1
  Si  Si24  1  0.435944  0.561692  0.750002  1
  Si  Si25  1  0.561688  0.437050  0.250002  1
  Si  Si26  1  0.124959  0.560964  0.749999  1
  Si  Si27  1  0.875097  0.436616  0.249998  1
  Si  Si28  1  0.563253  0.125748  0.249997  1
  Si  Si29  1  0.000173  0.000575  0.249991  1
  Ru  Ru30  1  0.500039  0.499314  0.000979  1
  Ru  Ru31  1  0.998925  0.498802  0.000658  1
  Ru  Ru32  1  0.500057  0.499325  0.499029  1
  Ru  Ru33  1  0.501040  0.001579  0.006315  1
  Ru  Ru34  1  0.998943  0.498820  0.499341  1
  Ru  Ru35  1  0.501044  0.001578  0.493679  1
  Ru  Ru36  1  0.000638  0.999866  0.007408  1
  Ru  Ru37  1  0.000663  0.999885  0.492638  1
