# generated using pymatgen
data_Dy5TmMg2(Co4P3)4
_symmetry_space_group_name_H-M   'P 1'
_cell_length_a   3.72887800
_cell_length_b   10.62213403
_cell_length_c   12.27048103
_cell_angle_alpha   89.99189333
_cell_angle_beta   90.00000000
_cell_angle_gamma   90.00000000
_symmetry_Int_Tables_number   1
_chemical_formula_structural   Dy5TmMg2(Co4P3)4
_chemical_formula_sum   'Dy5 Tm1 Mg2 Co16 P12'
_cell_volume   486.01708404
_cell_formula_units_Z   1
loop_
 _symmetry_equiv_pos_site_id
 _symmetry_equiv_pos_as_xyz
  1  'x, y, z'
loop_
 _atom_site_type_symbol
 _atom_site_label
 _atom_site_symmetry_multiplicity
 _atom_site_fract_x
 _atom_site_fract_y
 _atom_site_fract_z
 _atom_site_occupancy
  Dy  Dy0  1  0.000000  0.499836  0.525793  1
  Dy  Dy1  1  0.500000  0.999991  0.474377  1
  Dy  Dy2  1  0.500000  0.822138  0.206113  1
  Dy  Dy3  1  0.500000  0.178031  0.206751  1
  Dy  Dy4  1  0.000000  0.677483  0.793564  1
  Tm  Tm5  1  0.000000  0.322419  0.793667  1
  Mg  Mg6  1  0.500000  0.499699  0.156040  1
  Mg  Mg7  1  0.000000  0.000189  0.843983  1
  Co  Co8  1  0.500000  0.498861  0.705615  1
  Co  Co9  1  0.000000  0.000254  0.294808  1
  Co  Co10  1  0.000000  0.499454  0.988037  1
  Co  Co11  1  0.500000  0.000543  0.011023  1
  Co  Co12  1  0.500000  0.332477  0.996049  1
  Co  Co13  1  0.500000  0.667057  0.996279  1
  Co  Co14  1  0.000000  0.168028  0.002677  1
  Co  Co15  1  0.000000  0.832547  0.003283  1
  Co  Co16  1  0.500000  0.296493  0.432750  1
  Co  Co17  1  0.500000  0.703400  0.431909  1
  Co  Co18  1  0.000000  0.203921  0.568989  1
  Co  Co19  1  0.000000  0.796086  0.567990  1
  Co  Co20  1  0.500000  0.878013  0.705464  1
  Co  Co21  1  0.500000  0.123126  0.706480  1
  Co  Co22  1  0.000000  0.622096  0.294140  1
  Co  Co23  1  0.000000  0.377869  0.294556  1
  P  P24  1  0.500000  0.499091  0.884687  1
  P  P25  1  0.000000  0.000406  0.114514  1
  P  P26  1  0.500000  0.499942  0.355141  1
  P  P27  1  0.000000  0.999885  0.645019  1
  P  P28  1  0.500000  0.309753  0.616682  1
  P  P29  1  0.500000  0.690188  0.615345  1
  P  P30  1  0.000000  0.190837  0.385266  1
  P  P31  1  0.000000  0.809355  0.384513  1
  P  P32  1  0.500000  0.838906  0.892987  1
  P  P33  1  0.500000  0.162006  0.891986  1
  P  P34  1  0.000000  0.660780  0.106632  1
  P  P35  1  0.000000  0.338837  0.106888  1
