# generated using pymatgen
data_Hf3ZrCu3Si4Ni
_symmetry_space_group_name_H-M   'P 1'
_cell_length_a   3.88826600
_cell_length_b   6.45705524
_cell_length_c   7.27564553
_cell_angle_alpha   89.99375609
_cell_angle_beta   90.00000000
_cell_angle_gamma   90.00000000
_symmetry_Int_Tables_number   1
_chemical_formula_structural   Hf3ZrCu3Si4Ni
_chemical_formula_sum   'Hf3 Zr1 Cu3 Si4 Ni1'
_cell_volume   182.66780031
_cell_formula_units_Z   1
loop_
 _symmetry_equiv_pos_site_id
 _symmetry_equiv_pos_as_xyz
  1  'x, y, z'
loop_
 _atom_site_type_symbol
 _atom_site_label
 _atom_site_symmetry_multiplicity
 _atom_site_fract_x
 _atom_site_fract_y
 _atom_site_fract_z
 _atom_site_occupancy
  Hf  Hf0  1  0.250000  0.013768  0.310229  1
  Hf  Hf1  1  0.250000  0.509286  0.192452  1
  Hf  Hf2  1  0.750000  0.485517  0.807069  1
  Zr  Zr3  1  0.750000  0.986340  0.689670  1
  Cu  Cu4  1  0.250000  0.167907  0.927192  1
  Cu  Cu5  1  0.250000  0.660585  0.570656  1
  Cu  Cu6  1  0.750000  0.834040  0.075543  1
  Si  Si7  1  0.250000  0.279271  0.598864  1
  Si  Si8  1  0.250000  0.774847  0.896124  1
  Si  Si9  1  0.750000  0.719182  0.393743  1
  Si  Si10  1  0.750000  0.225330  0.110454  1
  Ni  Ni11  1  0.750000  0.343926  0.428002  1
