# generated using pymatgen
data_Th3Pa(Sn5Rh3)2
_symmetry_space_group_name_H-M   'P 1'
_cell_length_a   13.59902509
_cell_length_b   13.59902615
_cell_length_c   7.33028641
_cell_angle_alpha   90.13402509
_cell_angle_beta   89.86597601
_cell_angle_gamma   160.85076165
_symmetry_Int_Tables_number   1
_chemical_formula_structural   Th3Pa(Sn5Rh3)2
_chemical_formula_sum   'Th3 Pa1 Sn10 Rh6'
_cell_volume   444.68108609
_cell_formula_units_Z   1
loop_
 _symmetry_equiv_pos_site_id
 _symmetry_equiv_pos_as_xyz
  1  'x, y, z'
loop_
 _atom_site_type_symbol
 _atom_site_label
 _atom_site_symmetry_multiplicity
 _atom_site_fract_x
 _atom_site_fract_y
 _atom_site_fract_z
 _atom_site_occupancy
  Th  Th0  1  0.170632  0.829368  0.762342  1
  Th  Th1  1  0.828705  0.171295  0.256001  1
  Th  Th2  1  0.475207  0.524793  0.727049  1
  Pa  Pa3  1  0.525509  0.474491  0.234562  1
  Sn  Sn4  1  0.878105  0.121895  0.732469  1
  Sn  Sn5  1  0.122122  0.877878  0.235562  1
  Sn  Sn6  1  0.703510  0.296490  0.056013  1
  Sn  Sn7  1  0.296166  0.703834  0.554481  1
  Sn  Sn8  1  0.597450  0.402550  0.606849  1
  Sn  Sn9  1  0.403560  0.596440  0.103378  1
  Sn  Sn10  1  0.952175  0.047825  0.386928  1
  Sn  Sn11  1  0.048167  0.951833  0.895453  1
  Sn  Sn12  1  0.288381  0.711619  0.977552  1
  Sn  Sn13  1  0.712061  0.287939  0.481630  1
  Rh  Rh14  1  0.050823  0.949177  0.507347  1
  Rh  Rh15  1  0.950183  0.049817  0.009595  1
  Rh  Rh16  1  0.777057  0.222943  0.772295  1
  Rh  Rh17  1  0.223674  0.776326  0.275052  1
  Rh  Rh18  1  0.396726  0.603274  0.481061  1
  Rh  Rh19  1  0.599787  0.400213  0.000376  1
