# generated using pymatgen
data_Ho9Lu(Sn3P)2
_symmetry_space_group_name_H-M   'P 1'
_cell_length_a   9.02087500
_cell_length_b   9.02087656
_cell_length_c   6.63425200
_cell_angle_alpha   90.00000000
_cell_angle_beta   90.00000000
_cell_angle_gamma   119.99999063
_symmetry_Int_Tables_number   1
_chemical_formula_structural   Ho9Lu(Sn3P)2
_chemical_formula_sum   'Ho9 Lu1 Sn6 P2'
_cell_volume   467.54136623
_cell_formula_units_Z   1
loop_
 _symmetry_equiv_pos_site_id
 _symmetry_equiv_pos_as_xyz
  1  'x, y, z'
loop_
 _atom_site_type_symbol
 _atom_site_label
 _atom_site_symmetry_multiplicity
 _atom_site_fract_x
 _atom_site_fract_y
 _atom_site_fract_z
 _atom_site_occupancy
  Ho  Ho0  1  0.333333  0.666667  0.000000  1
  Ho  Ho1  1  0.333333  0.666667  0.500000  1
  Ho  Ho2  1  0.666667  0.333333  0.500000  1
  Ho  Ho3  1  0.758060  0.757841  0.750146  1
  Ho  Ho4  1  0.242159  0.000219  0.750146  1
  Ho  Ho5  1  0.999781  0.241940  0.750146  1
  Ho  Ho6  1  0.242159  0.241940  0.249854  1
  Ho  Ho7  1  0.758060  0.000219  0.249854  1
  Ho  Ho8  1  0.999781  0.757841  0.249854  1
  Lu  Lu9  1  0.666667  0.333333  0.000000  1
  Sn  Sn10  1  0.398586  0.397874  0.750630  1
  Sn  Sn11  1  0.602126  0.000712  0.750630  1
  Sn  Sn12  1  0.999288  0.601414  0.750630  1
  Sn  Sn13  1  0.602126  0.601414  0.249370  1
  Sn  Sn14  1  0.398586  0.000712  0.249370  1
  Sn  Sn15  1  0.999288  0.397874  0.249370  1
  P  P16  1  0.000000  0.000000  0.000000  1
  P  P17  1  0.000000  0.000000  0.500000  1
