# generated using pymatgen
data_SmDy2Hf3(SnRh)6
_symmetry_space_group_name_H-M   'P 1'
_cell_length_a   7.48080865
_cell_length_b   7.48612060
_cell_length_c   7.55861800
_cell_angle_alpha   90.00000000
_cell_angle_beta   90.00000000
_cell_angle_gamma   119.96506803
_symmetry_Int_Tables_number   1
_chemical_formula_structural   SmDy2Hf3(SnRh)6
_chemical_formula_sum   'Sm1 Dy2 Hf3 Sn6 Rh6'
_cell_volume   366.71709628
_cell_formula_units_Z   1
loop_
 _symmetry_equiv_pos_site_id
 _symmetry_equiv_pos_as_xyz
  1  'x, y, z'
loop_
 _atom_site_type_symbol
 _atom_site_label
 _atom_site_symmetry_multiplicity
 _atom_site_fract_x
 _atom_site_fract_y
 _atom_site_fract_z
 _atom_site_occupancy
  Sm  Sm0  1  0.406508  0.999592  0.250000  1
  Dy  Dy1  1  0.001313  0.406902  0.250000  1
  Dy  Dy2  1  0.594671  0.592973  0.250000  1
  Hf  Hf3  1  0.998446  0.392223  0.750000  1
  Hf  Hf4  1  0.605798  0.608040  0.750000  1
  Hf  Hf5  1  0.393834  0.999877  0.750000  1
  Sn  Sn6  1  0.266648  0.267606  0.508081  1
  Sn  Sn7  1  0.998555  0.732271  0.508393  1
  Sn  Sn8  1  0.998555  0.732271  0.991607  1
  Sn  Sn9  1  0.734782  0.000313  0.507414  1
  Sn  Sn10  1  0.734782  0.000313  0.992586  1
  Sn  Sn11  1  0.266648  0.267606  0.991919  1
  Rh  Rh12  1  0.333353  0.666283  0.541533  1
  Rh  Rh13  1  0.667090  0.333634  0.542055  1
  Rh  Rh14  1  0.333353  0.666283  0.958467  1
  Rh  Rh15  1  0.999622  0.000312  0.750000  1
  Rh  Rh16  1  0.998952  0.999867  0.250000  1
  Rh  Rh17  1  0.667090  0.333634  0.957945  1
