# generated using pymatgen
data_Dy10ZnGePb6
_symmetry_space_group_name_H-M   'P 1'
_cell_length_a   9.24838403
_cell_length_b   9.24838640
_cell_length_c   6.71111408
_cell_angle_alpha   90.00643496
_cell_angle_beta   90.00605211
_cell_angle_gamma   119.98215552
_symmetry_Int_Tables_number   1
_chemical_formula_structural   Dy10ZnGePb6
_chemical_formula_sum   'Dy10 Zn1 Ge1 Pb6'
_cell_volume   497.20458807
_cell_formula_units_Z   1
loop_
 _symmetry_equiv_pos_site_id
 _symmetry_equiv_pos_as_xyz
  1  'x, y, z'
loop_
 _atom_site_type_symbol
 _atom_site_label
 _atom_site_symmetry_multiplicity
 _atom_site_fract_x
 _atom_site_fract_y
 _atom_site_fract_z
 _atom_site_occupancy
  Dy  Dy0  1  0.255132  0.999940  0.236771  1
  Dy  Dy1  1  0.744868  0.000060  0.763229  1
  Dy  Dy2  1  0.999940  0.255132  0.236772  1
  Dy  Dy3  1  0.000060  0.744868  0.763228  1
  Dy  Dy4  1  0.744836  0.744836  0.236758  1
  Dy  Dy5  1  0.255164  0.255164  0.763242  1
  Dy  Dy6  1  0.333395  0.666603  0.000000  1
  Dy  Dy7  1  0.666605  0.333397  0.000000  1
  Dy  Dy8  1  0.666763  0.333237  0.500000  1
  Dy  Dy9  1  0.333237  0.666763  0.500000  1
  Zn  Zn10  1  0.000000  0.000000  0.500000  1
  Ge  Ge11  1  0.000000  0.000000  0.000000  1
  Pb  Pb12  1  0.608574  0.999968  0.249231  1
  Pb  Pb13  1  0.391426  0.000032  0.750769  1
  Pb  Pb14  1  0.999968  0.608574  0.249231  1
  Pb  Pb15  1  0.000032  0.391426  0.750769  1
  Pb  Pb16  1  0.391494  0.391492  0.249324  1
  Pb  Pb17  1  0.608506  0.608508  0.750676  1
