# generated using pymatgen
data_Pr4CoAg
_symmetry_space_group_name_H-M   'P 1'
_cell_length_a   9.76449276
_cell_length_b   9.76449172
_cell_length_c   9.76449200
_cell_angle_alpha   59.99999904
_cell_angle_beta   60.00000256
_cell_angle_gamma   60.00000014
_symmetry_Int_Tables_number   1
_chemical_formula_structural   Pr4CoAg
_chemical_formula_sum   'Pr16 Co4 Ag4'
_cell_volume   658.31536366
_cell_formula_units_Z   4
loop_
 _symmetry_equiv_pos_site_id
 _symmetry_equiv_pos_as_xyz
  1  'x, y, z'
loop_
 _atom_site_type_symbol
 _atom_site_label
 _atom_site_symmetry_multiplicity
 _atom_site_fract_x
 _atom_site_fract_y
 _atom_site_fract_z
 _atom_site_occupancy
  Pr  Pr0  1  0.293641  0.902120  0.902120  1
  Pr  Pr1  1  0.688334  0.688334  0.311666  1
  Pr  Pr2  1  0.902120  0.902120  0.293641  1
  Pr  Pr3  1  0.311666  0.688334  0.311666  1
  Pr  Pr4  1  0.688334  0.311666  0.311666  1
  Pr  Pr5  1  0.060273  0.439727  0.439727  1
  Pr  Pr6  1  0.439727  0.060273  0.060273  1
  Pr  Pr7  1  0.060273  0.060273  0.439727  1
  Pr  Pr8  1  0.311666  0.311666  0.688334  1
  Pr  Pr9  1  0.439727  0.060273  0.439727  1
  Pr  Pr10  1  0.902120  0.902120  0.902120  1
  Pr  Pr11  1  0.439727  0.439727  0.060273  1
  Pr  Pr12  1  0.311666  0.688334  0.688334  1
  Pr  Pr13  1  0.688334  0.311666  0.688334  1
  Pr  Pr14  1  0.060273  0.439727  0.060273  1
  Pr  Pr15  1  0.902120  0.293641  0.902120  1
  Co  Co16  1  0.109167  0.109167  0.109167  1
  Co  Co17  1  0.109167  0.109167  0.672499  1
  Co  Co18  1  0.672499  0.109167  0.109167  1
  Co  Co19  1  0.109167  0.672499  0.109167  1
  Ag  Ag20  1  0.670554  0.670554  0.988338  1
  Ag  Ag21  1  0.988338  0.670554  0.670554  1
  Ag  Ag22  1  0.670554  0.988338  0.670554  1
  Ag  Ag23  1  0.670554  0.670554  0.670554  1
