# generated using pymatgen
data_Y4Ga4IrPt3
_symmetry_space_group_name_H-M   'P 1'
_cell_length_a   4.45620100
_cell_length_b   6.89997246
_cell_length_c   7.69092690
_cell_angle_alpha   89.72064641
_cell_angle_beta   90.00000000
_cell_angle_gamma   90.00000000
_symmetry_Int_Tables_number   1
_chemical_formula_structural   Y4Ga4IrPt3
_chemical_formula_sum   'Y4 Ga4 Ir1 Pt3'
_cell_volume   236.47522682
_cell_formula_units_Z   1
loop_
 _symmetry_equiv_pos_site_id
 _symmetry_equiv_pos_as_xyz
  1  'x, y, z'
loop_
 _atom_site_type_symbol
 _atom_site_label
 _atom_site_symmetry_multiplicity
 _atom_site_fract_x
 _atom_site_fract_y
 _atom_site_fract_z
 _atom_site_occupancy
  Y  Y0  1  0.250000  0.986806  0.305122  1
  Y  Y1  1  0.250000  0.482300  0.197771  1
  Y  Y2  1  0.750000  0.021358  0.692126  1
  Y  Y3  1  0.750000  0.516964  0.805133  1
  Ga  Ga4  1  0.250000  0.329446  0.570718  1
  Ga  Ga5  1  0.250000  0.830533  0.928007  1
  Ga  Ga6  1  0.750000  0.662781  0.427404  1
  Ga  Ga7  1  0.750000  0.171464  0.074741  1
  Ir  Ir8  1  0.750000  0.275392  0.397460  1
  Pt  Pt9  1  0.250000  0.222196  0.897986  1
  Pt  Pt10  1  0.250000  0.722239  0.602270  1
  Pt  Pt11  1  0.750000  0.778521  0.101262  1
