# generated using pymatgen
data_Tb15ThCd2Ni3Hg2Rh
_symmetry_space_group_name_H-M   'P 1'
_cell_length_a   9.58562701
_cell_length_b   9.58562800
_cell_length_c   9.59401900
_cell_angle_alpha   60.11606433
_cell_angle_beta   60.11606091
_cell_angle_gamma   60.11114714
_symmetry_Int_Tables_number   1
_chemical_formula_structural   Tb15ThCd2Ni3Hg2Rh
_chemical_formula_sum   'Tb15 Th1 Cd2 Ni3 Hg2 Rh1'
_cell_volume   624.95835822
_cell_formula_units_Z   1
loop_
 _symmetry_equiv_pos_site_id
 _symmetry_equiv_pos_as_xyz
  1  'x, y, z'
loop_
 _atom_site_type_symbol
 _atom_site_label
 _atom_site_symmetry_multiplicity
 _atom_site_fract_x
 _atom_site_fract_y
 _atom_site_fract_z
 _atom_site_occupancy
  Tb  Tb0  1  0.350640  0.350640  0.950223  1
  Tb  Tb1  1  0.351491  0.948631  0.350814  1
  Tb  Tb2  1  0.948631  0.351491  0.350814  1
  Tb  Tb3  1  0.809600  0.188767  0.189459  1
  Tb  Tb4  1  0.189541  0.811452  0.811716  1
  Tb  Tb5  1  0.188767  0.809600  0.189459  1
  Tb  Tb6  1  0.811452  0.189541  0.811716  1
  Tb  Tb7  1  0.188530  0.188530  0.810624  1
  Tb  Tb8  1  0.810889  0.810889  0.190918  1
  Tb  Tb9  1  0.935678  0.564197  0.564769  1
  Tb  Tb10  1  0.564717  0.934489  0.936332  1
  Tb  Tb11  1  0.564197  0.935678  0.564769  1
  Tb  Tb12  1  0.934489  0.564717  0.936332  1
  Tb  Tb13  1  0.563824  0.563824  0.936939  1
  Tb  Tb14  1  0.934741  0.934741  0.565516  1
  Th  Th15  1  0.344586  0.344586  0.344541  1
  Cd  Cd16  1  0.581155  0.256734  0.581540  1
  Cd  Cd17  1  0.256734  0.581155  0.581540  1
  Ni  Ni18  1  0.143144  0.143144  0.571849  1
  Ni  Ni19  1  0.143202  0.571916  0.143052  1
  Ni  Ni20  1  0.571916  0.143202  0.143052  1
  Hg  Hg21  1  0.584685  0.584685  0.586074  1
  Hg  Hg22  1  0.585045  0.585045  0.245202  1
  Rh  Rh23  1  0.142344  0.142344  0.142750  1
