# generated using pymatgen
data_TaNb4Re6Si6W
_symmetry_space_group_name_H-M   'P 1'
_cell_length_a   7.52769655
_cell_length_b   7.57473726
_cell_length_c   7.52769593
_cell_angle_alpha   127.44545242
_cell_angle_beta   123.90215822
_cell_angle_gamma   80.29772479
_symmetry_Int_Tables_number   1
_chemical_formula_structural   TaNb4Re6Si6W
_chemical_formula_sum   'Ta1 Nb4 Re6 Si6 W1'
_cell_volume   273.20152638
_cell_formula_units_Z   1
loop_
 _symmetry_equiv_pos_site_id
 _symmetry_equiv_pos_as_xyz
  1  'x, y, z'
loop_
 _atom_site_type_symbol
 _atom_site_label
 _atom_site_symmetry_multiplicity
 _atom_site_fract_x
 _atom_site_fract_y
 _atom_site_fract_z
 _atom_site_occupancy
  Ta  Ta0  1  0.441756  0.477348  0.535592  1
  Nb  Nb1  1  0.966732  0.500176  0.033445  1
  Nb  Nb2  1  0.038127  0.071255  0.533128  1
  Nb  Nb3  1  0.754372  0.911833  0.657461  1
  Nb  Nb4  1  0.245795  0.910929  0.165134  1
  Re  Re5  1  0.524941  0.246383  0.774209  1
  Re  Re6  1  0.972175  0.246383  0.221442  1
  Re  Re7  1  0.166563  0.750162  0.663514  1
  Re  Re8  1  0.837228  0.492039  0.584237  1
  Re  Re9  1  0.586649  0.750162  0.083599  1
  Re  Re10  1  0.407803  0.492039  0.154812  1
  Si  Si11  1  0.781861  0.552748  0.270887  1
  Si  Si12  1  0.225453  0.468301  0.742848  1
  Si  Si13  1  0.339507  0.827254  0.502933  1
  Si  Si14  1  0.664352  0.160781  0.490881  1
  Si  Si15  1  0.824321  0.827254  0.987746  1
  Si  Si16  1  0.169899  0.160781  0.996427  1
  W  W17  1  0.552466  0.096373  0.043905  1
