# generated using pymatgen
data_Lu9Ta(SiB4)4
_symmetry_space_group_name_H-M   'P 1'
_cell_length_a   7.08269700
_cell_length_b   7.08269700
_cell_length_c   7.69604200
_cell_angle_alpha   90.00000000
_cell_angle_beta   90.00000000
_cell_angle_gamma   90.00000000
_symmetry_Int_Tables_number   1
_chemical_formula_structural   Lu9Ta(SiB4)4
_chemical_formula_sum   'Lu9 Ta1 Si4 B16'
_cell_volume   386.06884384
_cell_formula_units_Z   1
loop_
 _symmetry_equiv_pos_site_id
 _symmetry_equiv_pos_as_xyz
  1  'x, y, z'
loop_
 _atom_site_type_symbol
 _atom_site_label
 _atom_site_symmetry_multiplicity
 _atom_site_fract_x
 _atom_site_fract_y
 _atom_site_fract_z
 _atom_site_occupancy
  Lu  Lu0  1  0.681947  0.179458  0.229142  1
  Lu  Lu1  1  0.318053  0.820542  0.770858  1
  Lu  Lu2  1  0.318053  0.820542  0.229142  1
  Lu  Lu3  1  0.820542  0.681947  0.229142  1
  Lu  Lu4  1  0.820542  0.681947  0.770858  1
  Lu  Lu5  1  0.681947  0.179458  0.770858  1
  Lu  Lu6  1  0.179458  0.318053  0.770858  1
  Lu  Lu7  1  0.179458  0.318053  0.229142  1
  Lu  Lu8  1  0.500000  0.500000  0.500000  1
  Ta  Ta9  1  0.000000  0.000000  0.500000  1
  Si  Si10  1  0.110540  0.632072  0.500000  1
  Si  Si11  1  0.889460  0.367928  0.500000  1
  Si  Si12  1  0.367928  0.110540  0.500000  1
  Si  Si13  1  0.632072  0.889460  0.500000  1
  B  B14  1  0.172865  0.039129  0.000000  1
  B  B15  1  0.827135  0.960871  0.000000  1
  B  B16  1  0.960871  0.172865  0.000000  1
  B  B17  1  0.327118  0.539073  0.000000  1
  B  B18  1  0.039129  0.827135  0.000000  1
  B  B19  1  0.672882  0.460927  0.000000  1
  B  B20  1  0.539073  0.672882  0.000000  1
  B  B21  1  0.460927  0.327118  0.000000  1
  B  B22  1  0.089708  0.589586  0.000000  1
  B  B23  1  0.910292  0.410414  0.000000  1
  B  B24  1  0.410414  0.089708  0.000000  1
  B  B25  1  0.589586  0.910292  0.000000  1
  B  B26  1  0.000000  0.000000  0.175238  1
  B  B27  1  0.000000  0.000000  0.824762  1
  B  B28  1  0.500000  0.500000  0.829491  1
  B  B29  1  0.500000  0.500000  0.170509  1
