# generated using pymatgen
data_Y20Bi8Ru3Au
_symmetry_space_group_name_H-M   'P 1'
_cell_length_a   8.05798026
_cell_length_b   9.09993500
_cell_length_c   12.49545100
_cell_angle_alpha   90.00000000
_cell_angle_beta   90.04290439
_cell_angle_gamma   90.00000000
_symmetry_Int_Tables_number   1
_chemical_formula_structural   Y20Bi8Ru3Au
_chemical_formula_sum   'Y20 Bi8 Ru3 Au1'
_cell_volume   916.25488552
_cell_formula_units_Z   1
loop_
 _symmetry_equiv_pos_site_id
 _symmetry_equiv_pos_as_xyz
  1  'x, y, z'
loop_
 _atom_site_type_symbol
 _atom_site_label
 _atom_site_symmetry_multiplicity
 _atom_site_fract_x
 _atom_site_fract_y
 _atom_site_fract_z
 _atom_site_occupancy
  Y  Y0  1  0.832066  0.750000  0.782009  1
  Y  Y1  1  0.159100  0.250000  0.207907  1
  Y  Y2  1  0.343002  0.250000  0.707120  1
  Y  Y3  1  0.655085  0.750000  0.295599  1
  Y  Y4  1  0.374990  0.750000  0.696579  1
  Y  Y5  1  0.620849  0.250000  0.305801  1
  Y  Y6  1  0.877075  0.250000  0.806533  1
  Y  Y7  1  0.132144  0.750000  0.201958  1
  Y  Y8  1  0.949672  0.750000  0.501490  1
  Y  Y9  1  0.055083  0.250000  0.496310  1
  Y  Y10  1  0.451751  0.250000  0.998024  1
  Y  Y11  1  0.542365  0.750000  0.000780  1
  Y  Y12  1  0.676342  0.040201  0.563505  1
  Y  Y13  1  0.324410  0.957363  0.437192  1
  Y  Y14  1  0.180128  0.967439  0.932392  1
  Y  Y15  1  0.324410  0.542637  0.437192  1
  Y  Y16  1  0.821043  0.052511  0.066417  1
  Y  Y17  1  0.676342  0.459799  0.563505  1
  Y  Y18  1  0.821043  0.447489  0.066417  1
  Y  Y19  1  0.180128  0.532561  0.932392  1
  Bi  Bi20  1  0.571507  0.490878  0.828004  1
  Bi  Bi21  1  0.430410  0.508824  0.172047  1
  Bi  Bi22  1  0.068595  0.508101  0.671892  1
  Bi  Bi23  1  0.430410  0.991176  0.172047  1
  Bi  Bi24  1  0.930023  0.491511  0.326462  1
  Bi  Bi25  1  0.571507  0.009122  0.828004  1
  Bi  Bi26  1  0.930023  0.008489  0.326462  1
  Bi  Bi27  1  0.068595  0.991899  0.671892  1
  Ru  Ru28  1  0.575401  0.750000  0.514148  1
  Ru  Ru29  1  0.427021  0.250000  0.489101  1
  Ru  Ru30  1  0.074661  0.250000  0.989171  1
  Au  Au31  1  0.924816  0.750000  0.011646  1
