# generated using pymatgen
data_Ho10Ir2Pd3Pt
_symmetry_space_group_name_H-M   'P 1'
_cell_length_a   11.05526313
_cell_length_b   11.05517600
_cell_length_c   6.33103963
_cell_angle_alpha   90.00000000
_cell_angle_beta   90.05145626
_cell_angle_gamma   90.00000000
_symmetry_Int_Tables_number   1
_chemical_formula_structural   Ho10Ir2Pd3Pt
_chemical_formula_sum   'Ho20 Ir4 Pd6 Pt2'
_cell_volume   773.76592732
_cell_formula_units_Z   2
loop_
 _symmetry_equiv_pos_site_id
 _symmetry_equiv_pos_as_xyz
  1  'x, y, z'
loop_
 _atom_site_type_symbol
 _atom_site_label
 _atom_site_symmetry_multiplicity
 _atom_site_fract_x
 _atom_site_fract_y
 _atom_site_fract_z
 _atom_site_occupancy
  Ho  Ho0  1  0.297691  0.088801  0.371303  1
  Ho  Ho1  1  0.297691  0.911199  0.871303  1
  Ho  Ho2  1  0.702441  0.086728  0.870781  1
  Ho  Ho3  1  0.702441  0.913272  0.370781  1
  Ho  Ho4  1  0.584784  0.795530  0.871294  1
  Ho  Ho5  1  0.584784  0.204470  0.371294  1
  Ho  Ho6  1  0.412413  0.795833  0.374802  1
  Ho  Ho7  1  0.412413  0.204167  0.874802  1
  Ho  Ho8  1  0.205307  0.414477  0.625757  1
  Ho  Ho9  1  0.205307  0.585523  0.125757  1
  Ho  Ho10  1  0.796626  0.413016  0.128254  1
  Ho  Ho11  1  0.796626  0.586984  0.628254  1
  Ho  Ho12  1  0.913679  0.702766  0.128751  1
  Ho  Ho13  1  0.913679  0.297234  0.628751  1
  Ho  Ho14  1  0.089279  0.702093  0.629278  1
  Ho  Ho15  1  0.089279  0.297907  0.129278  1
  Ho  Ho16  1  0.000095  0.000097  0.499961  1
  Ho  Ho17  1  0.000095  0.999903  0.999961  1
  Ho  Ho18  1  0.498418  0.499846  0.999990  1
  Ho  Ho19  1  0.498418  0.500154  0.499990  1
  Ir  Ir20  1  0.500375  0.999638  0.119740  1
  Ir  Ir21  1  0.500375  0.000362  0.619740  1
  Ir  Ir22  1  0.999020  0.500020  0.880142  1
  Ir  Ir23  1  0.999020  0.499980  0.380142  1
  Pd  Pd24  1  0.846171  0.153769  0.250094  1
  Pd  Pd25  1  0.846171  0.846231  0.750094  1
  Pd  Pd26  1  0.153530  0.153632  0.749922  1
  Pd  Pd27  1  0.153530  0.846368  0.249922  1
  Pd  Pd28  1  0.653856  0.346270  0.750136  1
  Pd  Pd29  1  0.653856  0.653730  0.250136  1
  Pt  Pt30  1  0.346315  0.346225  0.249795  1
  Pt  Pt31  1  0.346315  0.653775  0.749795  1
