# generated using pymatgen
data_Hf6Ga6Pd5Pt
_symmetry_space_group_name_H-M   'P 1'
_cell_length_a   7.21244000
_cell_length_b   7.21243927
_cell_length_c   6.97440800
_cell_angle_alpha   90.00000000
_cell_angle_beta   90.00000000
_cell_angle_gamma   119.99999417
_symmetry_Int_Tables_number   1
_chemical_formula_structural   Hf6Ga6Pd5Pt
_chemical_formula_sum   'Hf6 Ga6 Pd5 Pt1'
_cell_volume   314.19725741
_cell_formula_units_Z   1
loop_
 _symmetry_equiv_pos_site_id
 _symmetry_equiv_pos_as_xyz
  1  'x, y, z'
loop_
 _atom_site_type_symbol
 _atom_site_label
 _atom_site_symmetry_multiplicity
 _atom_site_fract_x
 _atom_site_fract_y
 _atom_site_fract_z
 _atom_site_occupancy
  Hf  Hf0  1  0.612319  0.592089  0.250510  1
  Hf  Hf1  1  0.022528  0.409438  0.748867  1
  Hf  Hf2  1  0.407911  0.020230  0.250510  1
  Hf  Hf3  1  0.979770  0.387681  0.250510  1
  Hf  Hf4  1  0.386910  0.977472  0.748867  1
  Hf  Hf5  1  0.590562  0.613090  0.748867  1
  Ga  Ga6  1  0.269547  0.266912  0.499502  1
  Ga  Ga7  1  0.733088  0.002635  0.499502  1
  Ga  Ga8  1  0.997365  0.730453  0.499502  1
  Ga  Ga9  1  0.731165  0.000185  0.999681  1
  Ga  Ga10  1  0.269020  0.268835  0.999681  1
  Ga  Ga11  1  0.999815  0.730980  0.999681  1
  Pd  Pd12  1  0.000000  0.000000  0.749036  1
  Pd  Pd13  1  0.000000  0.000000  0.250407  1
  Pd  Pd14  1  0.333333  0.666667  0.034781  1
  Pd  Pd15  1  0.666667  0.333333  0.531820  1
  Pd  Pd16  1  0.666667  0.333333  0.968018  1
  Pt  Pt17  1  0.333333  0.666667  0.470255  1
