# generated using pymatgen
data_Dy2Y3(In2Pt)2
_symmetry_space_group_name_H-M   'P 1'
_cell_length_a   3.63574400
_cell_length_b   8.18819300
_cell_length_c   18.29285700
_cell_angle_alpha   90.00000000
_cell_angle_beta   90.00000000
_cell_angle_gamma   90.00000000
_symmetry_Int_Tables_number   1
_chemical_formula_structural   Dy2Y3(In2Pt)2
_chemical_formula_sum   'Dy4 Y6 In8 Pt4'
_cell_volume   544.58152799
_cell_formula_units_Z   2
loop_
 _symmetry_equiv_pos_site_id
 _symmetry_equiv_pos_as_xyz
  1  'x, y, z'
loop_
 _atom_site_type_symbol
 _atom_site_label
 _atom_site_symmetry_multiplicity
 _atom_site_fract_x
 _atom_site_fract_y
 _atom_site_fract_z
 _atom_site_occupancy
  Dy  Dy0  1  0.000000  0.243576  0.220699  1
  Dy  Dy1  1  0.000000  0.756424  0.779301  1
  Dy  Dy2  1  0.000000  0.256424  0.720699  1
  Dy  Dy3  1  0.000000  0.743576  0.279301  1
  Y  Y4  1  0.000000  0.117219  0.415209  1
  Y  Y5  1  0.000000  0.882781  0.584791  1
  Y  Y6  1  0.000000  0.382781  0.915209  1
  Y  Y7  1  0.000000  0.617219  0.084791  1
  Y  Y8  1  0.000000  0.000000  0.000000  1
  Y  Y9  1  0.000000  0.500000  0.500000  1
  In  In10  1  0.500000  0.424819  0.351308  1
  In  In11  1  0.500000  0.575181  0.648692  1
  In  In12  1  0.500000  0.075181  0.851308  1
  In  In13  1  0.500000  0.924819  0.148692  1
  In  In14  1  0.500000  0.292192  0.067289  1
  In  In15  1  0.500000  0.707808  0.932711  1
  In  In16  1  0.500000  0.207808  0.567289  1
  In  In17  1  0.500000  0.792192  0.432711  1
  Pt  Pt18  1  0.500000  0.024317  0.302595  1
  Pt  Pt19  1  0.500000  0.975683  0.697405  1
  Pt  Pt20  1  0.500000  0.475683  0.802595  1
  Pt  Pt21  1  0.500000  0.524317  0.197405  1
