# generated using pymatgen
data_Ca21Ga8SbPb6
_symmetry_space_group_name_H-M   'P 1'
_cell_length_a   11.43043691
_cell_length_b   11.43043809
_cell_length_c   11.43043800
_cell_angle_alpha   60.00000606
_cell_angle_beta   60.00000263
_cell_angle_gamma   60.00000017
_symmetry_Int_Tables_number   1
_chemical_formula_structural   Ca21Ga8SbPb6
_chemical_formula_sum   'Ca21 Ga8 Sb1 Pb6'
_cell_volume   1056.02356687
_cell_formula_units_Z   1
loop_
 _symmetry_equiv_pos_site_id
 _symmetry_equiv_pos_as_xyz
  1  'x, y, z'
loop_
 _atom_site_type_symbol
 _atom_site_label
 _atom_site_symmetry_multiplicity
 _atom_site_fract_x
 _atom_site_fract_y
 _atom_site_fract_z
 _atom_site_occupancy
  Ca  Ca0  1  0.869186  0.869186  0.392442  1
  Ca  Ca1  1  0.607558  0.130814  0.130814  1
  Ca  Ca2  1  0.869186  0.392442  0.869186  1
  Ca  Ca3  1  0.130814  0.130814  0.130814  1
  Ca  Ca4  1  0.392442  0.869186  0.869186  1
  Ca  Ca5  1  0.869186  0.869186  0.869186  1
  Ca  Ca6  1  0.179723  0.820277  0.500000  1
  Ca  Ca7  1  0.820277  0.500000  0.500000  1
  Ca  Ca8  1  0.130814  0.130814  0.607558  1
  Ca  Ca9  1  0.820277  0.179723  0.500000  1
  Ca  Ca10  1  0.179723  0.500000  0.500000  1
  Ca  Ca11  1  0.130814  0.607558  0.130814  1
  Ca  Ca12  1  0.500000  0.500000  0.179723  1
  Ca  Ca13  1  0.500000  0.179723  0.820277  1
  Ca  Ca14  1  0.500000  0.820277  0.179723  1
  Ca  Ca15  1  0.500000  0.500000  0.820277  1
  Ca  Ca16  1  0.500000  0.179723  0.500000  1
  Ca  Ca17  1  0.179723  0.500000  0.820277  1
  Ca  Ca18  1  0.000000  0.000000  0.000000  1
  Ca  Ca19  1  0.500000  0.820277  0.500000  1
  Ca  Ca20  1  0.820277  0.500000  0.179723  1
  Ga  Ga21  1  0.690404  0.928789  0.690404  1
  Ga  Ga22  1  0.690404  0.690404  0.928789  1
  Ga  Ga23  1  0.690404  0.690404  0.690404  1
  Ga  Ga24  1  0.309596  0.071211  0.309596  1
  Ga  Ga25  1  0.928789  0.690404  0.690404  1
  Ga  Ga26  1  0.309596  0.309596  0.071211  1
  Ga  Ga27  1  0.071211  0.309596  0.309596  1
  Ga  Ga28  1  0.309596  0.309596  0.309596  1
  Sb  Sb29  1  0.500000  0.500000  0.500000  1
  Pb  Pb30  1  0.787414  0.212586  0.787414  1
  Pb  Pb31  1  0.787414  0.212586  0.212586  1
  Pb  Pb32  1  0.212586  0.787414  0.212586  1
  Pb  Pb33  1  0.212586  0.787414  0.787414  1
  Pb  Pb34  1  0.787414  0.787414  0.212586  1
  Pb  Pb35  1  0.212586  0.212586  0.787414  1
