# generated using pymatgen
data_Pa2CS
_symmetry_space_group_name_H-M   'P 1'
_cell_length_a   6.85471684
_cell_length_b   6.85471686
_cell_length_c   6.85471708
_cell_angle_alpha   30.72342474
_cell_angle_beta   30.72342470
_cell_angle_gamma   30.72342281
_symmetry_Int_Tables_number   1
_chemical_formula_structural   Pa2CS
_chemical_formula_sum   'Pa2 C1 S1'
_cell_volume   74.54674736
_cell_formula_units_Z   1
loop_
 _symmetry_equiv_pos_site_id
 _symmetry_equiv_pos_as_xyz
  1  'x, y, z'
loop_
 _atom_site_type_symbol
 _atom_site_label
 _atom_site_symmetry_multiplicity
 _atom_site_fract_x
 _atom_site_fract_y
 _atom_site_fract_z
 _atom_site_occupancy
  Pa  Pa0  1  0.260681  0.260681  0.260681  1
  Pa  Pa1  1  0.739319  0.739319  0.739319  1
  C  C2  1  0.000000  0.000000  0.000000  1
  S  S3  1  0.500000  0.500000  0.500000  1
