# generated using pymatgen
data_SrCa3(NiH6)2
_symmetry_space_group_name_H-M   'P 1'
_cell_length_a   7.15670925
_cell_length_b   7.15671053
_cell_length_c   5.13602302
_cell_angle_alpha   89.99011659
_cell_angle_beta   89.99010851
_cell_angle_gamma   137.97808451
_symmetry_Int_Tables_number   1
_chemical_formula_structural   SrCa3(NiH6)2
_chemical_formula_sum   'Sr1 Ca3 Ni2 H12'
_cell_volume   176.09582218
_cell_formula_units_Z   1
loop_
 _symmetry_equiv_pos_site_id
 _symmetry_equiv_pos_as_xyz
  1  'x, y, z'
loop_
 _atom_site_type_symbol
 _atom_site_label
 _atom_site_symmetry_multiplicity
 _atom_site_fract_x
 _atom_site_fract_y
 _atom_site_fract_z
 _atom_site_occupancy
  Sr  Sr0  1  0.144861  0.855139  0.500000  1
  Ca  Ca1  1  0.649972  0.350028  0.000000  1
  Ca  Ca2  1  0.355594  0.644406  0.000000  1
  Ca  Ca3  1  0.854297  0.145703  0.500000  1
  Ni  Ni4  1  0.998296  0.001704  0.000000  1
  Ni  Ni5  1  0.497503  0.502497  0.500000  1
  H  H6  1  0.883318  0.116682  0.000000  1
  H  H7  1  0.114712  0.885288  0.000000  1
  H  H8  1  0.613913  0.386087  0.500000  1
  H  H9  1  0.381953  0.618047  0.500000  1
  H  H10  1  0.998817  0.489776  0.243261  1
  H  H11  1  0.996882  0.487777  0.757339  1
  H  H12  1  0.510224  0.001183  0.756739  1
  H  H13  1  0.512223  0.003118  0.242661  1
  H  H14  1  0.223334  0.229990  0.225467  1
  H  H15  1  0.770010  0.776666  0.774533  1
  H  H16  1  0.275009  0.280922  0.730913  1
  H  H17  1  0.719078  0.724991  0.269087  1
