# generated using pymatgen
data_NdGdMnFe5Co6P7
_symmetry_space_group_name_H-M   'P 1'
_cell_length_a   9.04378858
_cell_length_b   9.02493980
_cell_length_c   3.63341800
_cell_angle_alpha   90.00000000
_cell_angle_beta   90.00000000
_cell_angle_gamma   119.96777372
_symmetry_Int_Tables_number   1
_chemical_formula_structural   NdGdMnFe5Co6P7
_chemical_formula_sum   'Nd1 Gd1 Mn1 Fe5 Co6 P7'
_cell_volume   256.91037797
_cell_formula_units_Z   1
loop_
 _symmetry_equiv_pos_site_id
 _symmetry_equiv_pos_as_xyz
  1  'x, y, z'
loop_
 _atom_site_type_symbol
 _atom_site_label
 _atom_site_symmetry_multiplicity
 _atom_site_fract_x
 _atom_site_fract_y
 _atom_site_fract_z
 _atom_site_occupancy
  Nd  Nd0  1  0.333291  0.666055  0.500000  1
  Gd  Gd1  1  0.665515  0.332210  0.000000  1
  Mn  Mn2  1  0.102898  0.876678  0.500000  1
  Fe  Fe3  1  0.272005  0.120716  0.000000  1
  Fe  Fe4  1  0.846993  0.726109  0.000000  1
  Fe  Fe5  1  0.879346  0.152220  0.000000  1
  Fe  Fe6  1  0.772812  0.898537  0.500000  1
  Fe  Fe7  1  0.127025  0.229496  0.500000  1
  Co  Co8  1  0.058212  0.626761  0.000000  1
  Co  Co9  1  0.568784  0.942102  0.000000  1
  Co  Co10  1  0.373468  0.430764  0.000000  1
  Co  Co11  1  0.436424  0.054032  0.500000  1
  Co  Co12  1  0.616498  0.564369  0.500000  1
  Co  Co13  1  0.947090  0.382113  0.500000  1
  P  P14  1  0.297457  0.893550  0.000000  1
  P  P15  1  0.597978  0.705971  0.000000  1
  P  P16  1  0.107200  0.401281  0.000000  1
  P  P17  1  0.398895  0.288980  0.500000  1
  P  P18  1  0.887588  0.597757  0.500000  1
  P  P19  1  0.711328  0.110097  0.500000  1
  P  P20  1  0.999192  0.000201  0.000000  1
