# generated using pymatgen
data_Er2TmGaSn3Rh2
_symmetry_space_group_name_H-M   'P 1'
_cell_length_a   7.43000909
_cell_length_b   7.42521324
_cell_length_c   4.03904700
_cell_angle_alpha   90.00000000
_cell_angle_beta   90.00000000
_cell_angle_gamma   119.95918815
_symmetry_Int_Tables_number   1
_chemical_formula_structural   Er2TmGaSn3Rh2
_chemical_formula_sum   'Er2 Tm1 Ga1 Sn3 Rh2'
_cell_volume   193.05731864
_cell_formula_units_Z   1
loop_
 _symmetry_equiv_pos_site_id
 _symmetry_equiv_pos_as_xyz
  1  'x, y, z'
loop_
 _atom_site_type_symbol
 _atom_site_label
 _atom_site_symmetry_multiplicity
 _atom_site_fract_x
 _atom_site_fract_y
 _atom_site_fract_z
 _atom_site_occupancy
  Er  Er0  1  0.013598  0.409311  0.000000  1
  Er  Er1  1  0.590605  0.604362  0.000000  1
  Tm  Tm2  1  0.395247  0.985883  0.000000  1
  Ga  Ga3  1  0.666475  0.333093  0.500000  1
  Sn  Sn4  1  0.254312  0.257979  0.500000  1
  Sn  Sn5  1  0.003958  0.745807  0.500000  1
  Sn  Sn6  1  0.741726  0.996144  0.500000  1
  Rh  Rh7  1  0.333603  0.667346  0.500000  1
  Rh  Rh8  1  0.000476  0.000075  0.000000  1
