# generated using pymatgen
data_Tb13Th3Mg2(CdIr2)2
_symmetry_space_group_name_H-M   'P 1'
_cell_length_a   9.78107467
_cell_length_b   9.78700837
_cell_length_c   9.79554800
_cell_angle_alpha   59.97112539
_cell_angle_beta   59.95103213
_cell_angle_gamma   59.92016156
_symmetry_Int_Tables_number   1
_chemical_formula_structural   Tb13Th3Mg2(CdIr2)2
_chemical_formula_sum   'Tb13 Th3 Mg2 Cd2 Ir4'
_cell_volume   662.26542405
_cell_formula_units_Z   1
loop_
 _symmetry_equiv_pos_site_id
 _symmetry_equiv_pos_as_xyz
  1  'x, y, z'
loop_
 _atom_site_type_symbol
 _atom_site_label
 _atom_site_symmetry_multiplicity
 _atom_site_fract_x
 _atom_site_fract_y
 _atom_site_fract_z
 _atom_site_occupancy
  Tb  Tb0  1  0.202353  0.599278  0.599185  1
  Tb  Tb1  1  0.061885  0.438235  0.438871  1
  Tb  Tb2  1  0.437849  0.062480  0.062741  1
  Tb  Tb3  1  0.437849  0.062480  0.436930  1
  Tb  Tb4  1  0.061885  0.438235  0.061009  1
  Tb  Tb5  1  0.439121  0.438480  0.061199  1
  Tb  Tb6  1  0.063399  0.062351  0.437125  1
  Tb  Tb7  1  0.189596  0.813558  0.813650  1
  Tb  Tb8  1  0.814764  0.187589  0.183159  1
  Tb  Tb9  1  0.814764  0.187589  0.814488  1
  Tb  Tb10  1  0.189596  0.813558  0.183197  1
  Tb  Tb11  1  0.815903  0.815400  0.184349  1
  Tb  Tb12  1  0.187463  0.187161  0.812688  1
  Th  Th13  1  0.596465  0.598866  0.598484  1
  Th  Th14  1  0.596465  0.598866  0.206187  1
  Th  Th15  1  0.596174  0.205775  0.599027  1
  Mg  Mg16  1  0.827989  0.827072  0.830251  1
  Mg  Mg17  1  0.827989  0.827072  0.514689  1
  Cd  Cd18  1  0.833232  0.503912  0.831429  1
  Cd  Cd19  1  0.502369  0.832736  0.832448  1
  Ir  Ir20  1  0.394681  0.392360  0.391923  1
  Ir  Ir21  1  0.394681  0.392360  0.821037  1
  Ir  Ir22  1  0.394188  0.821138  0.392337  1
  Ir  Ir23  1  0.819342  0.393458  0.393600  1
