# generated using pymatgen
data_Sc6Co4NiSn6Pt
_symmetry_space_group_name_H-M   'P 1'
_cell_length_a   7.38547100
_cell_length_b   7.38546945
_cell_length_c   6.82168800
_cell_angle_alpha   90.00000000
_cell_angle_beta   90.00000000
_cell_angle_gamma   120.00000248
_symmetry_Int_Tables_number   1
_chemical_formula_structural   Sc6Co4NiSn6Pt
_chemical_formula_sum   'Sc6 Co4 Ni1 Sn6 Pt1'
_cell_volume   322.23950094
_cell_formula_units_Z   1
loop_
 _symmetry_equiv_pos_site_id
 _symmetry_equiv_pos_as_xyz
  1  'x, y, z'
loop_
 _atom_site_type_symbol
 _atom_site_label
 _atom_site_symmetry_multiplicity
 _atom_site_fract_x
 _atom_site_fract_y
 _atom_site_fract_z
 _atom_site_occupancy
  Sc  Sc0  1  0.390441  0.991038  0.249326  1
  Sc  Sc1  1  0.600597  0.609559  0.249326  1
  Sc  Sc2  1  0.008962  0.399403  0.249326  1
  Sc  Sc3  1  0.390041  0.990386  0.750832  1
  Sc  Sc4  1  0.600346  0.609959  0.750832  1
  Sc  Sc5  1  0.009614  0.399654  0.750832  1
  Co  Co6  1  0.000000  0.000000  0.770151  1
  Co  Co7  1  0.000000  0.000000  0.229967  1
  Co  Co8  1  0.333333  0.666667  0.499330  1
  Co  Co9  1  0.333333  0.666667  0.000892  1
  Ni  Ni10  1  0.666667  0.333333  0.997861  1
  Sn  Sn11  1  0.279649  0.277147  0.000032  1
  Sn  Sn12  1  0.997498  0.720351  0.000032  1
  Sn  Sn13  1  0.006467  0.741817  0.500029  1
  Sn  Sn14  1  0.735350  0.993533  0.500029  1
  Sn  Sn15  1  0.258183  0.264650  0.500029  1
  Sn  Sn16  1  0.722853  0.002502  0.000032  1
  Pt  Pt17  1  0.666667  0.333333  0.501140  1
