# generated using pymatgen
data_Ho2LuSc2(In2Pt)2
_symmetry_space_group_name_H-M   'P 1'
_cell_length_a   3.57508200
_cell_length_b   7.93010648
_cell_length_c   17.80834068
_cell_angle_alpha   89.71019855
_cell_angle_beta   90.00000000
_cell_angle_gamma   90.00000000
_symmetry_Int_Tables_number   1
_chemical_formula_structural   Ho2LuSc2(In2Pt)2
_chemical_formula_sum   'Ho4 Lu2 Sc4 In8 Pt4'
_cell_volume   504.87390720
_cell_formula_units_Z   2
loop_
 _symmetry_equiv_pos_site_id
 _symmetry_equiv_pos_as_xyz
  1  'x, y, z'
loop_
 _atom_site_type_symbol
 _atom_site_label
 _atom_site_symmetry_multiplicity
 _atom_site_fract_x
 _atom_site_fract_y
 _atom_site_fract_z
 _atom_site_occupancy
  Ho  Ho0  1  0.000000  0.257822  0.717318  1
  Ho  Ho1  1  0.000000  0.742178  0.282682  1
  Ho  Ho2  1  0.000000  0.000000  0.000000  1
  Ho  Ho3  1  0.000000  0.500000  0.500000  1
  Lu  Lu4  1  0.000000  0.242581  0.217842  1
  Lu  Lu5  1  0.000000  0.757419  0.782158  1
  Sc  Sc6  1  0.000000  0.117730  0.414277  1
  Sc  Sc7  1  0.000000  0.882270  0.585723  1
  Sc  Sc8  1  0.000000  0.382603  0.914244  1
  Sc  Sc9  1  0.000000  0.617397  0.085756  1
  In  In10  1  0.500000  0.413988  0.350930  1
  In  In11  1  0.500000  0.586012  0.649070  1
  In  In12  1  0.500000  0.084385  0.851109  1
  In  In13  1  0.500000  0.915615  0.148891  1
  In  In14  1  0.500000  0.304714  0.061213  1
  In  In15  1  0.500000  0.695286  0.938787  1
  In  In16  1  0.500000  0.194354  0.560686  1
  In  In17  1  0.500000  0.805646  0.439314  1
  Pt  Pt18  1  0.500000  0.032685  0.306762  1
  Pt  Pt19  1  0.500000  0.967315  0.693238  1
  Pt  Pt20  1  0.500000  0.471885  0.807489  1
  Pt  Pt21  1  0.500000  0.528115  0.192511  1
