# generated using pymatgen
data_Zr6Zn12Cu11S
_symmetry_space_group_name_H-M   'P 1'
_cell_length_a   8.58532909
_cell_length_b   8.57338401
_cell_length_c   8.55285600
_cell_angle_alpha   60.07917417
_cell_angle_beta   60.12504189
_cell_angle_gamma   60.06898465
_symmetry_Int_Tables_number   1
_chemical_formula_structural   Zr6Zn12Cu11S
_chemical_formula_sum   'Zr6 Zn12 Cu11 S1'
_cell_volume   446.06731816
_cell_formula_units_Z   1
loop_
 _symmetry_equiv_pos_site_id
 _symmetry_equiv_pos_as_xyz
  1  'x, y, z'
loop_
 _atom_site_type_symbol
 _atom_site_label
 _atom_site_symmetry_multiplicity
 _atom_site_fract_x
 _atom_site_fract_y
 _atom_site_fract_z
 _atom_site_occupancy
  Zr  Zr0  1  0.714453  0.285443  0.293443  1
  Zr  Zr1  1  0.281632  0.714199  0.713840  1
  Zr  Zr2  1  0.281632  0.714199  0.290329  1
  Zr  Zr3  1  0.714453  0.285443  0.706663  1
  Zr  Zr4  1  0.290372  0.289843  0.709892  1
  Zr  Zr5  1  0.718185  0.709446  0.286185  1
  Zn  Zn6  1  0.882862  0.359905  0.878616  1
  Zn  Zn7  1  0.636360  0.119710  0.121965  1
  Zn  Zn8  1  0.364831  0.879331  0.877918  1
  Zn  Zn9  1  0.328775  0.334341  0.332604  1
  Zn  Zn10  1  0.668072  0.668898  0.663973  1
  Zn  Zn11  1  0.328775  0.334341  0.004282  1
  Zn  Zn12  1  0.328085  0.005510  0.333203  1
  Zn  Zn13  1  0.668072  0.668898  0.999055  1
  Zn  Zn14  1  0.673170  0.990175  0.668327  1
  Zn  Zn15  1  0.013202  0.329126  0.328836  1
  Zn  Zn16  1  0.989604  0.674109  0.668143  1
  Zn  Zn17  1  0.002954  0.990388  0.003329  1
  Cu  Cu18  1  0.118919  0.120747  0.119458  1
  Cu  Cu19  1  0.879215  0.879882  0.879431  1
  Cu  Cu20  1  0.118919  0.120747  0.640876  1
  Cu  Cu21  1  0.121022  0.634981  0.121999  1
  Cu  Cu22  1  0.879215  0.879882  0.361471  1
  Cu  Cu23  1  0.498927  0.001676  0.999768  1
  Cu  Cu24  1  0.999295  0.500534  0.501002  1
  Cu  Cu25  1  0.999295  0.500534  0.999170  1
  Cu  Cu26  1  0.498927  0.001676  0.499631  1
  Cu  Cu27  1  0.999821  0.001836  0.499171  1
  Cu  Cu28  1  0.502317  0.499490  0.999096  1
  S  S29  1  0.498633  0.504715  0.498326  1
