# generated using pymatgen
data_LaPrB8(Os3Rh)2
_symmetry_space_group_name_H-M   'P 1'
_cell_length_a   4.00939800
_cell_length_b   7.64618181
_cell_length_c   7.63978728
_cell_angle_alpha   89.62905744
_cell_angle_beta   90.00000000
_cell_angle_gamma   90.00000000
_symmetry_Int_Tables_number   1
_chemical_formula_structural   LaPrB8(Os3Rh)2
_chemical_formula_sum   'La1 Pr1 B8 Os6 Rh2'
_cell_volume   234.20488761
_cell_formula_units_Z   1
loop_
 _symmetry_equiv_pos_site_id
 _symmetry_equiv_pos_as_xyz
  1  'x, y, z'
loop_
 _atom_site_type_symbol
 _atom_site_label
 _atom_site_symmetry_multiplicity
 _atom_site_fract_x
 _atom_site_fract_y
 _atom_site_fract_z
 _atom_site_occupancy
  La  La0  1  0.756769  0.750000  0.750000  1
  Pr  Pr1  1  0.243223  0.250000  0.250000  1
  B  B2  1  0.360671  0.916198  0.040169  1
  B  B3  1  0.360671  0.583802  0.459831  1
  B  B4  1  0.858837  0.532951  0.086144  1
  B  B5  1  0.858837  0.967049  0.413856  1
  B  B6  1  0.641888  0.093887  0.973028  1
  B  B7  1  0.641888  0.406113  0.526972  1
  B  B8  1  0.140591  0.463720  0.920263  1
  B  B9  1  0.140591  0.036280  0.579737  1
  Os  Os10  1  0.639032  0.140630  0.605369  1
  Os  Os11  1  0.639032  0.359370  0.894631  1
  Os  Os12  1  0.858769  0.603245  0.357584  1
  Os  Os13  1  0.858769  0.896755  0.142416  1
  Os  Os14  1  0.359080  0.856657  0.394607  1
  Os  Os15  1  0.359080  0.643343  0.105393  1
  Rh  Rh16  1  0.141137  0.399216  0.640497  1
  Rh  Rh17  1  0.141137  0.100784  0.859503  1
