# generated using pymatgen
data_Sc4VCu2Os5
_symmetry_space_group_name_H-M   'P 1'
_cell_length_a   5.24868492
_cell_length_b   5.10854844
_cell_length_c   8.55086100
_cell_angle_alpha   90.00000000
_cell_angle_beta   90.00000000
_cell_angle_gamma   121.72231528
_symmetry_Int_Tables_number   1
_chemical_formula_structural   Sc4VCu2Os5
_chemical_formula_sum   'Sc4 V1 Cu2 Os5'
_cell_volume   195.02330163
_cell_formula_units_Z   1
loop_
 _symmetry_equiv_pos_site_id
 _symmetry_equiv_pos_as_xyz
  1  'x, y, z'
loop_
 _atom_site_type_symbol
 _atom_site_label
 _atom_site_symmetry_multiplicity
 _atom_site_fract_x
 _atom_site_fract_y
 _atom_site_fract_z
 _atom_site_occupancy
  Sc  Sc0  1  0.329081  0.669069  0.438400  1
  Sc  Sc1  1  0.663395  0.341850  0.564210  1
  Sc  Sc2  1  0.663395  0.341850  0.935790  1
  Sc  Sc3  1  0.329081  0.669069  0.061600  1
  V  V4  1  0.163607  0.337930  0.750000  1
  Cu  Cu5  1  0.352502  0.156670  0.250000  1
  Cu  Cu6  1  0.845610  0.648305  0.250000  1
  Os  Os7  1  0.168596  0.827469  0.750000  1
  Os  Os8  1  0.650696  0.829906  0.750000  1
  Os  Os9  1  0.994562  0.010863  0.003099  1
  Os  Os10  1  0.844910  0.156157  0.250000  1
  Os  Os11  1  0.994562  0.010863  0.496901  1
