# generated using pymatgen
data_Y3Tm5(LuRu)4
_symmetry_space_group_name_H-M   'P 1'
_cell_length_a   6.22309614
_cell_length_b   7.31974014
_cell_length_c   8.96992504
_cell_angle_alpha   89.99935609
_cell_angle_beta   89.98941067
_cell_angle_gamma   89.82746353
_symmetry_Int_Tables_number   1
_chemical_formula_structural   Y3Tm5(LuRu)4
_chemical_formula_sum   'Y3 Tm5 Lu4 Ru4'
_cell_volume   408.59120165
_cell_formula_units_Z   1
loop_
 _symmetry_equiv_pos_site_id
 _symmetry_equiv_pos_as_xyz
  1  'x, y, z'
loop_
 _atom_site_type_symbol
 _atom_site_label
 _atom_site_symmetry_multiplicity
 _atom_site_fract_x
 _atom_site_fract_y
 _atom_site_fract_z
 _atom_site_occupancy
  Y  Y0  1  0.871251  0.539085  0.250330  1
  Y  Y1  1  0.629845  0.040526  0.249712  1
  Y  Y2  1  0.129351  0.460937  0.750313  1
  Tm  Tm3  1  0.334791  0.676942  0.063636  1
  Tm  Tm4  1  0.166745  0.174249  0.436791  1
  Tm  Tm5  1  0.664809  0.323193  0.564686  1
  Tm  Tm6  1  0.832664  0.825201  0.935498  1
  Tm  Tm7  1  0.368960  0.958448  0.749664  1
  Lu  Lu8  1  0.663614  0.324146  0.935544  1
  Lu  Lu9  1  0.833904  0.825893  0.564312  1
  Lu  Lu10  1  0.335985  0.676079  0.436401  1
  Lu  Lu11  1  0.165681  0.173285  0.063120  1
  Ru  Ru12  1  0.045350  0.884314  0.251646  1
  Ru  Ru13  1  0.453792  0.385083  0.248039  1
  Ru  Ru14  1  0.959763  0.114843  0.752047  1
  Ru  Ru15  1  0.543494  0.617776  0.748262  1
