# generated using pymatgen
data_Ta3Nb3Re5Si6Os
_symmetry_space_group_name_H-M   'P 1'
_cell_length_a   7.53807603
_cell_length_b   7.57209400
_cell_length_c   7.52418681
_cell_angle_alpha   127.31606731
_cell_angle_beta   123.66383231
_cell_angle_gamma   80.57724001
_symmetry_Int_Tables_number   1
_chemical_formula_structural   Ta3Nb3Re5Si6Os
_chemical_formula_sum   'Ta3 Nb3 Re5 Si6 Os1'
_cell_volume   274.48148521
_cell_formula_units_Z   1
loop_
 _symmetry_equiv_pos_site_id
 _symmetry_equiv_pos_as_xyz
  1  'x, y, z'
loop_
 _atom_site_type_symbol
 _atom_site_label
 _atom_site_symmetry_multiplicity
 _atom_site_fract_x
 _atom_site_fract_y
 _atom_site_fract_z
 _atom_site_occupancy
  Ta  Ta0  1  0.549232  0.097262  0.051011  1
  Ta  Ta1  1  0.442908  0.481910  0.534378  1
  Ta  Ta2  1  0.969901  0.505195  0.042822  1
  Nb  Nb3  1  0.032395  0.070213  0.529158  1
  Nb  Nb4  1  0.757099  0.907219  0.654525  1
  Nb  Nb5  1  0.245797  0.914641  0.162586  1
  Re  Re6  1  0.970449  0.245702  0.216694  1
  Re  Re7  1  0.164117  0.749328  0.663146  1
  Re  Re8  1  0.844332  0.494115  0.594104  1
  Re  Re9  1  0.588477  0.748293  0.086475  1
  Re  Re10  1  0.397481  0.493940  0.146966  1
  Si  Si11  1  0.777771  0.547158  0.269218  1
  Si  Si12  1  0.232165  0.454745  0.725895  1
  Si  Si13  1  0.340601  0.833586  0.506627  1
  Si  Si14  1  0.665825  0.163499  0.498903  1
  Si  Si15  1  0.824641  0.827757  0.987836  1
  Si  Si16  1  0.165180  0.161114  0.992278  1
  Os  Os17  1  0.531628  0.246526  0.779578  1
