# generated using pymatgen
data_ThPaF36
_symmetry_space_group_name_H-M   'P 1'
_cell_length_a   6.15191889
_cell_length_b   10.91037776
_cell_length_c   11.05866744
_cell_angle_alpha   92.73121091
_cell_angle_beta   101.69046999
_cell_angle_gamma   74.47516282
_symmetry_Int_Tables_number   1
_chemical_formula_structural   ThPaF36
_chemical_formula_sum   'Th1 Pa1 F36'
_cell_volume   700.32132854
_cell_formula_units_Z   1
loop_
 _symmetry_equiv_pos_site_id
 _symmetry_equiv_pos_as_xyz
  1  'x, y, z'
loop_
 _atom_site_type_symbol
 _atom_site_label
 _atom_site_symmetry_multiplicity
 _atom_site_fract_x
 _atom_site_fract_y
 _atom_site_fract_z
 _atom_site_occupancy
  Th  Th0  1  0.746628  0.834903  0.874540  1
  Pa  Pa1  1  0.222426  0.197503  0.133189  1
  F  F2  1  0.334816  0.421102  0.883989  1
  F  F3  1  0.615391  0.632859  0.120855  1
  F  F4  1  0.323840  0.266270  0.585351  1
  F  F5  1  0.670726  0.746023  0.426597  1
  F  F6  1  0.872139  0.224464  0.810504  1
  F  F7  1  0.149707  0.768429  0.193626  1
  F  F8  1  0.666445  0.840852  0.051543  1
  F  F9  1  0.326562  0.125735  0.972790  1
  F  F10  1  0.802804  0.613039  0.866206  1
  F  F11  1  0.209971  0.377180  0.080253  1
  F  F12  1  0.448048  0.458131  0.796854  1
  F  F13  1  0.600398  0.511951  0.157794  1
  F  F14  1  0.731313  0.701096  0.702939  1
  F  F15  1  0.258093  0.260886  0.311426  1
  F  F16  1  0.746474  0.974707  0.552711  1
  F  F17  1  0.248604  0.015600  0.452248  1
  F  F18  1  0.304251  0.179874  0.672860  1
  F  F19  1  0.690289  0.811717  0.322483  1
  F  F20  1  0.818378  0.087008  0.589466  1
  F  F21  1  0.170387  0.908940  0.401276  1
  F  F22  1  0.830889  0.008236  0.861075  1
  F  F23  1  0.178900  0.024229  0.170478  1
  F  F24  1  0.916774  0.344605  0.795466  1
  F  F25  1  0.112908  0.644990  0.196361  1
  F  F26  1  0.163745  0.754193  0.909526  1
  F  F27  1  0.841152  0.258697  0.092162  1
  F  F28  1  0.388352  0.938679  0.748423  1
  F  F29  1  0.608903  0.063352  0.239585  1
  F  F30  1  0.115633  0.752882  0.579108  1
  F  F31  1  0.866866  0.247843  0.425846  1
  F  F32  1  0.202925  0.637122  0.649152  1
  F  F33  1  0.805006  0.364763  0.358765  1
  F  F34  1  0.277602  0.844914  0.829981  1
  F  F35  1  0.709035  0.155569  0.173291  1
  F  F36  1  0.530911  0.447786  0.545261  1
  F  F37  1  0.492708  0.553869  0.466025  1
