# generated using pymatgen
data_Y2(ThIr)3
_symmetry_space_group_name_H-M   'P 1'
_cell_length_a   8.38394000
_cell_length_b   8.38394003
_cell_length_c   6.54511500
_cell_angle_alpha   90.00000000
_cell_angle_beta   90.00000000
_cell_angle_gamma   120.00123766
_symmetry_Int_Tables_number   1
_chemical_formula_structural   Y2(ThIr)3
_chemical_formula_sum   'Y4 Th6 Ir6'
_cell_volume   398.41788159
_cell_formula_units_Z   2
loop_
 _symmetry_equiv_pos_site_id
 _symmetry_equiv_pos_as_xyz
  1  'x, y, z'
loop_
 _atom_site_type_symbol
 _atom_site_label
 _atom_site_symmetry_multiplicity
 _atom_site_fract_x
 _atom_site_fract_y
 _atom_site_fract_z
 _atom_site_occupancy
  Y  Y0  1  0.666667  0.333335  0.000000  1
  Y  Y1  1  0.333335  0.666666  0.000000  1
  Y  Y2  1  0.666666  0.333333  0.500000  1
  Y  Y3  1  0.333333  0.666666  0.500000  1
  Th  Th4  1  0.744700  0.744700  0.250001  1
  Th  Th5  1  0.255297  0.999993  0.250000  1
  Th  Th6  1  0.999993  0.255297  0.250000  1
  Th  Th7  1  0.255298  0.255299  0.750001  1
  Th  Th8  1  0.744703  0.000006  0.750000  1
  Th  Th9  1  0.000008  0.744704  0.750000  1
  Ir  Ir10  1  0.619602  0.999997  0.249998  1
  Ir  Ir11  1  0.999998  0.619602  0.249998  1
  Ir  Ir12  1  0.380399  0.380398  0.250003  1
  Ir  Ir13  1  0.380398  0.000002  0.749998  1
  Ir  Ir14  1  0.000001  0.380398  0.749998  1
  Ir  Ir15  1  0.619601  0.619601  0.750003  1
