# generated using pymatgen
data_TbHo3(Sc3Ga4)2
_symmetry_space_group_name_H-M   'P 1'
_cell_length_a   7.27161600
_cell_length_b   7.57646001
_cell_length_c   14.46639801
_cell_angle_alpha   90.00476245
_cell_angle_beta   90.00163925
_cell_angle_gamma   90.00228439
_symmetry_Int_Tables_number   1
_chemical_formula_structural   TbHo3(Sc3Ga4)2
_chemical_formula_sum   'Tb2 Ho6 Sc12 Ga16'
_cell_volume   796.99882205
_cell_formula_units_Z   2
loop_
 _symmetry_equiv_pos_site_id
 _symmetry_equiv_pos_as_xyz
  1  'x, y, z'
loop_
 _atom_site_type_symbol
 _atom_site_label
 _atom_site_symmetry_multiplicity
 _atom_site_fract_x
 _atom_site_fract_y
 _atom_site_fract_z
 _atom_site_occupancy
  Tb  Tb0  1  0.010949  0.180220  0.094418  1
  Tb  Tb1  1  0.989051  0.819780  0.905582  1
  Ho  Ho2  1  0.489043  0.680246  0.905589  1
  Ho  Ho3  1  0.989051  0.819750  0.594423  1
  Ho  Ho4  1  0.510957  0.319754  0.094411  1
  Ho  Ho5  1  0.010949  0.180250  0.405577  1
  Ho  Ho6  1  0.510958  0.319749  0.405584  1
  Ho  Ho7  1  0.489042  0.680251  0.594416  1
  Sc  Sc8  1  0.162371  0.503282  0.749990  1
  Sc  Sc9  1  0.837629  0.496718  0.250010  1
  Sc  Sc10  1  0.337674  0.003283  0.250012  1
  Sc  Sc11  1  0.662326  0.996717  0.749988  1
  Sc  Sc12  1  0.329675  0.172193  0.624565  1
  Sc  Sc13  1  0.670325  0.827807  0.375435  1
  Sc  Sc14  1  0.170327  0.672205  0.375442  1
  Sc  Sc15  1  0.670288  0.827790  0.124570  1
  Sc  Sc16  1  0.829673  0.327795  0.624558  1
  Sc  Sc17  1  0.329712  0.172210  0.875430  1
  Sc  Sc18  1  0.829653  0.327806  0.875419  1
  Sc  Sc19  1  0.170347  0.672194  0.124581  1
  Ga  Ga20  1  0.030151  0.116257  0.749989  1
  Ga  Ga21  1  0.969849  0.883743  0.250011  1
  Ga  Ga22  1  0.469853  0.616236  0.250000  1
  Ga  Ga23  1  0.530147  0.383764  0.750000  1
  Ga  Ga24  1  0.283092  0.870801  0.749976  1
  Ga  Ga25  1  0.716908  0.129199  0.250024  1
  Ga  Ga26  1  0.216968  0.370823  0.250016  1
  Ga  Ga27  1  0.783032  0.629177  0.749984  1
  Ga  Ga28  1  0.162157  0.465016  0.540514  1
  Ga  Ga29  1  0.837843  0.534984  0.459486  1
  Ga  Ga30  1  0.337845  0.965006  0.459483  1
  Ga  Ga31  1  0.837805  0.535010  0.040520  1
  Ga  Ga32  1  0.662155  0.034994  0.540517  1
  Ga  Ga33  1  0.162195  0.464990  0.959480  1
  Ga  Ga34  1  0.662072  0.035015  0.959494  1
  Ga  Ga35  1  0.337928  0.964985  0.040506  1
