# generated using pymatgen
data_CeSmPa2(InRh2)2
_symmetry_space_group_name_H-M   'P 1'
_cell_length_a   7.76056422
_cell_length_b   7.76056422
_cell_length_c   3.65148200
_cell_angle_alpha   90.00000000
_cell_angle_beta   90.00000000
_cell_angle_gamma   93.68255387
_symmetry_Int_Tables_number   1
_chemical_formula_structural   CeSmPa2(InRh2)2
_chemical_formula_sum   'Ce1 Sm1 Pa2 In2 Rh4'
_cell_volume   219.46138180
_cell_formula_units_Z   1
loop_
 _symmetry_equiv_pos_site_id
 _symmetry_equiv_pos_as_xyz
  1  'x, y, z'
loop_
 _atom_site_type_symbol
 _atom_site_label
 _atom_site_symmetry_multiplicity
 _atom_site_fract_x
 _atom_site_fract_y
 _atom_site_fract_z
 _atom_site_occupancy
  Ce  Ce0  1  0.828248  0.671752  0.500000  1
  Sm  Sm1  1  0.171182  0.328818  0.500000  1
  Pa  Pa2  1  0.668426  0.168340  0.500000  1
  Pa  Pa3  1  0.331660  0.831574  0.500000  1
  In  In4  1  0.000095  0.003342  0.000000  1
  In  In5  1  0.496658  0.499905  0.000000  1
  Rh  Rh6  1  0.142699  0.652964  0.000000  1
  Rh  Rh7  1  0.847036  0.357301  0.000000  1
  Rh  Rh8  1  0.631883  0.868117  0.000000  1
  Rh  Rh9  1  0.382112  0.117888  0.000000  1
