# generated using pymatgen
data_Dy4Y5Ho(In2Pt)4
_symmetry_space_group_name_H-M   'P 1'
_cell_length_a   3.63217500
_cell_length_b   8.17896012
_cell_length_c   18.28993226
_cell_angle_alpha   90.01938768
_cell_angle_beta   90.00000000
_cell_angle_gamma   90.00000000
_symmetry_Int_Tables_number   1
_chemical_formula_structural   Dy4Y5Ho(In2Pt)4
_chemical_formula_sum   'Dy4 Y5 Ho1 In8 Pt4'
_cell_volume   543.34656710
_cell_formula_units_Z   1
loop_
 _symmetry_equiv_pos_site_id
 _symmetry_equiv_pos_as_xyz
  1  'x, y, z'
loop_
 _atom_site_type_symbol
 _atom_site_label
 _atom_site_symmetry_multiplicity
 _atom_site_fract_x
 _atom_site_fract_y
 _atom_site_fract_z
 _atom_site_occupancy
  Dy  Dy0  1  0.000000  0.243514  0.220735  1
  Dy  Dy1  1  0.000000  0.756572  0.779297  1
  Dy  Dy2  1  0.000000  0.256510  0.720753  1
  Dy  Dy3  1  0.000000  0.743407  0.279345  1
  Y  Y4  1  0.000000  0.882946  0.584723  1
  Y  Y5  1  0.000000  0.382829  0.915199  1
  Y  Y6  1  0.000000  0.617200  0.084845  1
  Y  Y7  1  0.000000  0.999923  0.999983  1
  Y  Y8  1  0.000000  0.499745  0.499935  1
  Ho  Ho9  1  0.000000  0.116675  0.414541  1
  In  In10  1  0.500000  0.424013  0.351342  1
  In  In11  1  0.500000  0.575667  0.648688  1
  In  In12  1  0.500000  0.075466  0.851309  1
  In  In13  1  0.500000  0.924464  0.148791  1
  In  In14  1  0.500000  0.292388  0.067361  1
  In  In15  1  0.500000  0.707601  0.932595  1
  In  In16  1  0.500000  0.207646  0.567192  1
  In  In17  1  0.500000  0.792806  0.432653  1
  Pt  Pt18  1  0.500000  0.024625  0.303375  1
  Pt  Pt19  1  0.500000  0.975875  0.697347  1
  Pt  Pt20  1  0.500000  0.475935  0.802651  1
  Pt  Pt21  1  0.500000  0.524192  0.197340  1
