# generated using pymatgen
data_AcSc2ZnPt2
_symmetry_space_group_name_H-M   'P 1'
_cell_length_a   4.69058719
_cell_length_b   4.69058764
_cell_length_c   7.09906232
_cell_angle_alpha   89.83964923
_cell_angle_beta   90.16035392
_cell_angle_gamma   120.57933349
_symmetry_Int_Tables_number   1
_chemical_formula_structural   AcSc2ZnPt2
_chemical_formula_sum   'Ac1 Sc2 Zn1 Pt2'
_cell_volume   134.46795921
_cell_formula_units_Z   1
loop_
 _symmetry_equiv_pos_site_id
 _symmetry_equiv_pos_as_xyz
  1  'x, y, z'
loop_
 _atom_site_type_symbol
 _atom_site_label
 _atom_site_symmetry_multiplicity
 _atom_site_fract_x
 _atom_site_fract_y
 _atom_site_fract_z
 _atom_site_occupancy
  Ac  Ac0  1  0.000000  0.000000  0.500000  1
  Sc  Sc1  1  0.668290  0.331710  0.147218  1
  Sc  Sc2  1  0.331710  0.668290  0.852782  1
  Zn  Zn3  1  0.000000  0.000000  0.000000  1
  Pt  Pt4  1  0.337092  0.662908  0.228767  1
  Pt  Pt5  1  0.662908  0.337092  0.771233  1
