# generated using pymatgen
data_Pr6Y3ErPb6
_symmetry_space_group_name_H-M   'P 1'
_cell_length_a   9.32818500
_cell_length_b   9.32818509
_cell_length_c   6.81625200
_cell_angle_alpha   90.00000000
_cell_angle_beta   90.00000000
_cell_angle_gamma   120.00000322
_symmetry_Int_Tables_number   1
_chemical_formula_structural   Pr6Y3ErPb6
_chemical_formula_sum   'Pr6 Y3 Er1 Pb6'
_cell_volume   513.65386611
_cell_formula_units_Z   1
loop_
 _symmetry_equiv_pos_site_id
 _symmetry_equiv_pos_as_xyz
  1  'x, y, z'
loop_
 _atom_site_type_symbol
 _atom_site_label
 _atom_site_symmetry_multiplicity
 _atom_site_fract_x
 _atom_site_fract_y
 _atom_site_fract_z
 _atom_site_occupancy
  Pr  Pr0  1  0.239645  0.999989  0.249998  1
  Pr  Pr1  1  0.239645  0.239655  0.750002  1
  Pr  Pr2  1  0.000011  0.760355  0.750002  1
  Pr  Pr3  1  0.000011  0.239655  0.249998  1
  Pr  Pr4  1  0.760345  0.760355  0.249998  1
  Pr  Pr5  1  0.760345  0.999989  0.750002  1
  Y  Y6  1  0.333333  0.666667  0.000000  1
  Y  Y7  1  0.666667  0.333333  0.500000  1
  Y  Y8  1  0.666667  0.333333  0.000000  1
  Er  Er9  1  0.333333  0.666667  0.500000  1
  Pb  Pb10  1  0.600838  0.999796  0.250179  1
  Pb  Pb11  1  0.600838  0.601042  0.749821  1
  Pb  Pb12  1  0.000204  0.399162  0.749821  1
  Pb  Pb13  1  0.000204  0.601042  0.250179  1
  Pb  Pb14  1  0.398958  0.399162  0.250179  1
  Pb  Pb15  1  0.398958  0.999796  0.749821  1
