# generated using pymatgen
data_Tm2Nb2Ni10P7
_symmetry_space_group_name_H-M   'P 1'
_cell_length_a   9.25499525
_cell_length_b   9.17662776
_cell_length_c   3.68323900
_cell_angle_alpha   90.00000000
_cell_angle_beta   90.00000000
_cell_angle_gamma   120.07278955
_symmetry_Int_Tables_number   1
_chemical_formula_structural   Tm2Nb2Ni10P7
_chemical_formula_sum   'Tm2 Nb2 Ni10 P7'
_cell_volume   270.70784129
_cell_formula_units_Z   1
loop_
 _symmetry_equiv_pos_site_id
 _symmetry_equiv_pos_as_xyz
  1  'x, y, z'
loop_
 _atom_site_type_symbol
 _atom_site_label
 _atom_site_symmetry_multiplicity
 _atom_site_fract_x
 _atom_site_fract_y
 _atom_site_fract_z
 _atom_site_occupancy
  Tm  Tm0  1  0.340142  0.667425  0.000000  1
  Tm  Tm1  1  0.665913  0.335803  0.500001  1
  Nb  Nb2  1  0.218799  0.098858  0.500001  1
  Nb  Nb3  1  0.897855  0.118641  0.500001  1
  Ni  Ni4  1  0.432692  0.060898  0.000000  1
  Ni  Ni5  1  0.159379  0.290190  0.000000  1
  Ni  Ni6  1  0.937100  0.375407  0.000000  1
  Ni  Ni7  1  0.632378  0.565091  0.000000  1
  Ni  Ni8  1  0.122670  0.835212  0.000000  1
  Ni  Ni9  1  0.715563  0.871194  0.000000  1
  Ni  Ni10  1  0.389325  0.444544  0.500001  1
  Ni  Ni11  1  0.049122  0.614669  0.500001  1
  Ni  Ni12  1  0.875323  0.776921  0.500001  1
  Ni  Ni13  1  0.557437  0.941998  0.500001  1
  P  P14  1  0.995150  0.989931  0.000000  1
  P  P15  1  0.696642  0.114599  0.000000  1
  P  P16  1  0.414683  0.303149  0.000000  1
  P  P17  1  0.884517  0.590607  0.000000  1
  P  P18  1  0.123582  0.415636  0.500001  1
  P  P19  1  0.599197  0.712214  0.500001  1
  P  P20  1  0.292531  0.877013  0.500001  1
