# generated using pymatgen
data_LuZr8ScPb6
_symmetry_space_group_name_H-M   'P 1'
_cell_length_a   8.70878778
_cell_length_b   8.72090048
_cell_length_c   5.93965500
_cell_angle_alpha   90.00000000
_cell_angle_beta   90.00000000
_cell_angle_gamma   120.59235424
_symmetry_Int_Tables_number   1
_chemical_formula_structural   LuZr8ScPb6
_chemical_formula_sum   'Lu1 Zr8 Sc1 Pb6'
_cell_volume   388.31801155
_cell_formula_units_Z   1
loop_
 _symmetry_equiv_pos_site_id
 _symmetry_equiv_pos_as_xyz
  1  'x, y, z'
loop_
 _atom_site_type_symbol
 _atom_site_label
 _atom_site_symmetry_multiplicity
 _atom_site_fract_x
 _atom_site_fract_y
 _atom_site_fract_z
 _atom_site_occupancy
  Lu  Lu0  1  0.767501  0.764763  0.250000  1
  Zr  Zr1  1  0.754622  0.998489  0.750000  1
  Zr  Zr2  1  0.333739  0.668492  0.500529  1
  Zr  Zr3  1  0.249641  0.000147  0.250000  1
  Zr  Zr4  1  0.662733  0.332902  0.500451  1
  Zr  Zr5  1  0.998866  0.755036  0.750000  1
  Zr  Zr6  1  0.333739  0.668492  0.999471  1
  Zr  Zr7  1  0.237172  0.236229  0.750000  1
  Zr  Zr8  1  0.662733  0.332902  0.999549  1
  Sc  Sc9  1  0.002143  0.246921  0.250000  1
  Pb  Pb10  1  0.606041  0.607107  0.750000  1
  Pb  Pb11  1  0.390122  0.999194  0.750000  1
  Pb  Pb12  1  0.612143  0.004130  0.250000  1
  Pb  Pb13  1  0.998883  0.389323  0.750000  1
  Pb  Pb14  1  0.388183  0.391148  0.250000  1
  Pb  Pb15  1  0.001739  0.604726  0.250000  1
