# generated using pymatgen
data_Cs11RbAl2(FeSe6)2
_symmetry_space_group_name_H-M   'P 1'
_cell_length_a   11.03102075
_cell_length_b   11.02974149
_cell_length_c   14.17329567
_cell_angle_alpha   89.93263978
_cell_angle_beta   89.86669394
_cell_angle_gamma   139.60593534
_symmetry_Int_Tables_number   1
_chemical_formula_structural   Cs11RbAl2(FeSe6)2
_chemical_formula_sum   'Cs11 Rb1 Al2 Fe2 Se12'
_cell_volume   1117.50301546
_cell_formula_units_Z   1
loop_
 _symmetry_equiv_pos_site_id
 _symmetry_equiv_pos_as_xyz
  1  'x, y, z'
loop_
 _atom_site_type_symbol
 _atom_site_label
 _atom_site_symmetry_multiplicity
 _atom_site_fract_x
 _atom_site_fract_y
 _atom_site_fract_z
 _atom_site_occupancy
  Cs  Cs0  1  0.140630  0.140690  0.325629  1
  Cs  Cs1  1  0.640269  0.640287  0.170939  1
  Cs  Cs2  1  0.360271  0.360393  0.823773  1
  Cs  Cs3  1  0.164020  0.518325  0.128239  1
  Cs  Cs4  1  0.484157  0.834363  0.873709  1
  Cs  Cs5  1  0.979668  0.334204  0.629541  1
  Cs  Cs6  1  0.665846  0.017006  0.373473  1
  Cs  Cs7  1  0.835226  0.484735  0.874135  1
  Cs  Cs8  1  0.517730  0.163184  0.127901  1
  Cs  Cs9  1  0.016449  0.664996  0.373815  1
  Cs  Cs10  1  0.335098  0.980316  0.629137  1
  Rb  Rb11  1  0.850704  0.851069  0.665509  1
  Al  Al12  1  0.923203  0.083011  0.998858  1
  Al  Al13  1  0.417033  0.575699  0.501214  1
  Fe  Fe14  1  0.083148  0.923065  0.998961  1
  Fe  Fe15  1  0.575897  0.417012  0.501284  1
  Se  Se16  1  0.288286  0.289151  0.570301  1
  Se  Se17  1  0.698299  0.698961  0.428848  1
  Se  Se18  1  0.203063  0.203847  0.070366  1
  Se  Se19  1  0.808096  0.808983  0.921744  1
  Se  Se20  1  0.710700  0.000791  0.114946  1
  Se  Se21  1  0.003044  0.297951  0.886627  1
  Se  Se22  1  0.501877  0.787633  0.617587  1
  Se  Se23  1  0.208148  0.501531  0.387050  1
  Se  Se24  1  0.297198  0.001983  0.887329  1
  Se  Se25  1  0.002055  0.711264  0.114457  1
  Se  Se26  1  0.502687  0.208765  0.387643  1
  Se  Se27  1  0.787202  0.500788  0.616985  1
