# generated using pymatgen
data_Pr4Ga24CoPd
_symmetry_space_group_name_H-M   'P 1'
_cell_length_a   6.12851000
_cell_length_b   6.12851000
_cell_length_c   15.57482500
_cell_angle_alpha   90.00000000
_cell_angle_beta   90.00000000
_cell_angle_gamma   90.00000000
_symmetry_Int_Tables_number   1
_chemical_formula_structural   Pr4Ga24CoPd
_chemical_formula_sum   'Pr4 Ga24 Co1 Pd1'
_cell_volume   584.96916456
_cell_formula_units_Z   1
loop_
 _symmetry_equiv_pos_site_id
 _symmetry_equiv_pos_as_xyz
  1  'x, y, z'
loop_
 _atom_site_type_symbol
 _atom_site_label
 _atom_site_symmetry_multiplicity
 _atom_site_fract_x
 _atom_site_fract_y
 _atom_site_fract_z
 _atom_site_occupancy
  Pr  Pr0  1  0.750000  0.250000  0.246318  1
  Pr  Pr1  1  0.250000  0.750000  0.241713  1
  Pr  Pr2  1  0.250000  0.750000  0.758287  1
  Pr  Pr3  1  0.750000  0.250000  0.753682  1
  Ga  Ga4  1  0.250000  0.250000  0.184838  1
  Ga  Ga5  1  0.750000  0.750000  0.184838  1
  Ga  Ga6  1  0.750000  0.750000  0.815162  1
  Ga  Ga7  1  0.250000  0.250000  0.815162  1
  Ga  Ga8  1  0.250000  0.250000  0.343996  1
  Ga  Ga9  1  0.750000  0.750000  0.343996  1
  Ga  Ga10  1  0.750000  0.750000  0.656004  1
  Ga  Ga11  1  0.250000  0.250000  0.656004  1
  Ga  Ga12  1  0.509966  0.009966  0.914974  1
  Ga  Ga13  1  0.990138  0.009862  0.915371  1
  Ga  Ga14  1  0.509862  0.490138  0.915371  1
  Ga  Ga15  1  0.990034  0.490034  0.914974  1
  Ga  Ga16  1  0.509862  0.009862  0.084629  1
  Ga  Ga17  1  0.990034  0.009966  0.085026  1
  Ga  Ga18  1  0.509966  0.490034  0.085026  1
  Ga  Ga19  1  0.990138  0.490138  0.084629  1
  Ga  Ga20  1  0.579934  0.079934  0.431823  1
  Ga  Ga21  1  0.081438  0.918562  0.430689  1
  Ga  Ga22  1  0.418562  0.581438  0.430689  1
  Ga  Ga23  1  0.920066  0.420066  0.431823  1
  Ga  Ga24  1  0.418562  0.918562  0.569311  1
  Ga  Ga25  1  0.920066  0.079934  0.568177  1
  Ga  Ga26  1  0.579934  0.420066  0.568177  1
  Ga  Ga27  1  0.081438  0.581438  0.569311  1
  Co  Co28  1  0.750000  0.250000  0.000000  1
  Pd  Pd29  1  0.250000  0.750000  0.000000  1
