# generated using pymatgen
data_BaSrCd(Si3Pd10)2
_symmetry_space_group_name_H-M   'P 1'
_cell_length_a   8.79882167
_cell_length_b   8.79882190
_cell_length_c   8.79882300
_cell_angle_alpha   59.99999962
_cell_angle_beta   59.99999878
_cell_angle_gamma   60.00000003
_symmetry_Int_Tables_number   1
_chemical_formula_structural   BaSrCd(Si3Pd10)2
_chemical_formula_sum   'Ba1 Sr1 Cd1 Si6 Pd20'
_cell_volume   481.68000799
_cell_formula_units_Z   1
loop_
 _symmetry_equiv_pos_site_id
 _symmetry_equiv_pos_as_xyz
  1  'x, y, z'
loop_
 _atom_site_type_symbol
 _atom_site_label
 _atom_site_symmetry_multiplicity
 _atom_site_fract_x
 _atom_site_fract_y
 _atom_site_fract_z
 _atom_site_occupancy
  Ba  Ba0  1  0.250000  0.250000  0.250000  1
  Sr  Sr1  1  0.750000  0.750000  0.750000  1
  Cd  Cd2  1  0.000000  0.000000  0.000000  1
  Si  Si3  1  0.732501  0.267499  0.267499  1
  Si  Si4  1  0.267499  0.732501  0.732501  1
  Si  Si5  1  0.267499  0.732501  0.267499  1
  Si  Si6  1  0.732501  0.267499  0.732501  1
  Si  Si7  1  0.267499  0.267499  0.732501  1
  Si  Si8  1  0.732501  0.732501  0.267499  1
  Pd  Pd9  1  0.388378  0.388378  0.388378  1
  Pd  Pd10  1  0.613915  0.613915  0.613915  1
  Pd  Pd11  1  0.388378  0.388378  0.834866  1
  Pd  Pd12  1  0.388378  0.834866  0.388378  1
  Pd  Pd13  1  0.613915  0.613915  0.158254  1
  Pd  Pd14  1  0.613915  0.158254  0.613915  1
  Pd  Pd15  1  0.834866  0.388378  0.388378  1
  Pd  Pd16  1  0.158254  0.613915  0.613915  1
  Pd  Pd17  1  0.344238  0.998153  0.998153  1
  Pd  Pd18  1  0.659455  0.998153  0.998153  1
  Pd  Pd19  1  0.998153  0.344238  0.659455  1
  Pd  Pd20  1  0.998153  0.659455  0.344238  1
  Pd  Pd21  1  0.998153  0.344238  0.998153  1
  Pd  Pd22  1  0.659455  0.998153  0.344238  1
  Pd  Pd23  1  0.998153  0.659455  0.998153  1
  Pd  Pd24  1  0.344238  0.998153  0.659455  1
  Pd  Pd25  1  0.998153  0.998153  0.344238  1
  Pd  Pd26  1  0.998153  0.998153  0.659455  1
  Pd  Pd27  1  0.659455  0.344238  0.998153  1
  Pd  Pd28  1  0.344238  0.659455  0.998153  1
