# generated using pymatgen
data_NdDy2Mg(Co4P3)2
_symmetry_space_group_name_H-M   'P 1'
_cell_length_a   3.75889700
_cell_length_b   10.68992300
_cell_length_c   12.36025900
_cell_angle_alpha   90.00000000
_cell_angle_beta   90.00000000
_cell_angle_gamma   90.00000000
_symmetry_Int_Tables_number   1
_chemical_formula_structural   NdDy2Mg(Co4P3)2
_chemical_formula_sum   'Nd2 Dy4 Mg2 Co16 P12'
_cell_volume   496.66387618
_cell_formula_units_Z   2
loop_
 _symmetry_equiv_pos_site_id
 _symmetry_equiv_pos_as_xyz
  1  'x, y, z'
loop_
 _atom_site_type_symbol
 _atom_site_label
 _atom_site_symmetry_multiplicity
 _atom_site_fract_x
 _atom_site_fract_y
 _atom_site_fract_z
 _atom_site_occupancy
  Nd  Nd0  1  0.000000  0.500000  0.526408  1
  Nd  Nd1  1  0.500000  0.000000  0.473592  1
  Dy  Dy2  1  0.500000  0.821792  0.205366  1
  Dy  Dy3  1  0.500000  0.178208  0.205366  1
  Dy  Dy4  1  0.000000  0.678208  0.794634  1
  Dy  Dy5  1  0.000000  0.321792  0.794634  1
  Mg  Mg6  1  0.500000  0.500000  0.153774  1
  Mg  Mg7  1  0.000000  0.000000  0.846226  1
  Co  Co8  1  0.500000  0.500000  0.708426  1
  Co  Co9  1  0.000000  0.000000  0.291574  1
  Co  Co10  1  0.000000  0.500000  0.988618  1
  Co  Co11  1  0.500000  0.000000  0.011382  1
  Co  Co12  1  0.500000  0.332519  0.996616  1
  Co  Co13  1  0.500000  0.667481  0.996616  1
  Co  Co14  1  0.000000  0.167481  0.003384  1
  Co  Co15  1  0.000000  0.832519  0.003384  1
  Co  Co16  1  0.500000  0.296169  0.430654  1
  Co  Co17  1  0.500000  0.703831  0.430654  1
  Co  Co18  1  0.000000  0.203831  0.569346  1
  Co  Co19  1  0.000000  0.796169  0.569346  1
  Co  Co20  1  0.500000  0.878301  0.708296  1
  Co  Co21  1  0.500000  0.121699  0.708296  1
  Co  Co22  1  0.000000  0.621699  0.291704  1
  Co  Co23  1  0.000000  0.378301  0.291704  1
  P  P24  1  0.500000  0.500000  0.886082  1
  P  P25  1  0.000000  0.000000  0.113918  1
  P  P26  1  0.500000  0.500000  0.351161  1
  P  P27  1  0.000000  0.000000  0.648839  1
  P  P28  1  0.500000  0.306019  0.616559  1
  P  P29  1  0.500000  0.693981  0.616559  1
  P  P30  1  0.000000  0.193981  0.383441  1
  P  P31  1  0.000000  0.806019  0.383441  1
  P  P32  1  0.500000  0.838803  0.894115  1
  P  P33  1  0.500000  0.161197  0.894115  1
  P  P34  1  0.000000  0.661197  0.105885  1
  P  P35  1  0.000000  0.338803  0.105885  1
