# generated using pymatgen
data_Ho12Co2Ni3Bi
_symmetry_space_group_name_H-M   'P 1'
_cell_length_a   8.29987304
_cell_length_b   8.29984318
_cell_length_c   8.29987432
_cell_angle_alpha   111.15695977
_cell_angle_beta   109.34687529
_cell_angle_gamma   107.92620703
_symmetry_Int_Tables_number   1
_chemical_formula_structural   Ho12Co2Ni3Bi
_chemical_formula_sum   'Ho12 Co2 Ni3 Bi1'
_cell_volume   439.78710352
_cell_formula_units_Z   1
loop_
 _symmetry_equiv_pos_site_id
 _symmetry_equiv_pos_as_xyz
  1  'x, y, z'
loop_
 _atom_site_type_symbol
 _atom_site_label
 _atom_site_symmetry_multiplicity
 _atom_site_fract_x
 _atom_site_fract_y
 _atom_site_fract_z
 _atom_site_occupancy
  Ho  Ho0  1  0.819487  0.710192  0.529681  1
  Ho  Ho1  1  0.180513  0.289808  0.470319  1
  Ho  Ho2  1  0.180512  0.710192  0.890705  1
  Ho  Ho3  1  0.819488  0.289808  0.109295  1
  Ho  Ho4  1  0.685115  0.375414  0.690300  1
  Ho  Ho5  1  0.314885  0.624586  0.309700  1
  Ho  Ho6  1  0.685115  0.994818  0.309703  1
  Ho  Ho7  1  0.314885  0.005182  0.690297  1
  Ho  Ho8  1  0.596389  0.790824  0.805568  1
  Ho  Ho9  1  0.403611  0.209176  0.194432  1
  Ho  Ho10  1  0.985256  0.790824  0.194435  1
  Ho  Ho11  1  0.014744  0.209176  0.805565  1
  Co  Co12  1  0.113829  0.613829  0.500000  1
  Co  Co13  1  0.886171  0.386171  0.500000  1
  Ni  Ni14  1  0.631888  0.000000  0.631888  1
  Ni  Ni15  1  0.368112  0.000000  0.368112  1
  Ni  Ni16  1  0.000000  0.000000  0.000000  1
  Bi  Bi17  1  0.500000  0.500000  0.000000  1
