# generated using pymatgen
data_Ba8Nb3PN12
_symmetry_space_group_name_H-M   'P 1'
_cell_length_a   6.68027349
_cell_length_b   6.66719271
_cell_length_c   13.25378207
_cell_angle_alpha   90.23346790
_cell_angle_beta   89.10839506
_cell_angle_gamma   125.78637893
_symmetry_Int_Tables_number   1
_chemical_formula_structural   Ba8Nb3PN12
_chemical_formula_sum   'Ba8 Nb3 P1 N12'
_cell_volume   478.79061559
_cell_formula_units_Z   1
loop_
 _symmetry_equiv_pos_site_id
 _symmetry_equiv_pos_as_xyz
  1  'x, y, z'
loop_
 _atom_site_type_symbol
 _atom_site_label
 _atom_site_symmetry_multiplicity
 _atom_site_fract_x
 _atom_site_fract_y
 _atom_site_fract_z
 _atom_site_occupancy
  Ba  Ba0  1  0.561189  0.934308  0.853388  1
  Ba  Ba1  1  0.951566  0.555508  0.360840  1
  Ba  Ba2  1  0.447193  0.043844  0.141214  1
  Ba  Ba3  1  0.046404  0.452006  0.645107  1
  Ba  Ba4  1  0.650373  0.867176  0.433987  1
  Ba  Ba5  1  0.131762  0.349143  0.072799  1
  Ba  Ba6  1  0.367461  0.142211  0.580062  1
  Ba  Ba7  1  0.858493  0.631893  0.916825  1
  Nb  Nb8  1  0.264980  0.259816  0.337258  1
  Nb  Nb9  1  0.245742  0.252513  0.822830  1
  Nb  Nb10  1  0.743200  0.732138  0.165911  1
  P  P11  1  0.743766  0.758678  0.664439  1
  N  N12  1  0.680005  0.850275  0.046916  1
  N  N13  1  0.145795  0.329383  0.456464  1
  N  N14  1  0.333741  0.150824  0.940406  1
  N  N15  1  0.836121  0.676280  0.566593  1
  N  N16  1  0.987919  0.011370  0.252078  1
  N  N17  1  0.992563  0.955743  0.739582  1
  N  N18  1  0.436940  0.562150  0.251222  1
  N  N19  1  0.098860  0.415860  0.866660  1
  N  N20  1  0.462987  0.143647  0.373647  1
  N  N21  1  0.859587  0.532595  0.130593  1
  N  N22  1  0.600777  0.889951  0.641080  1
  N  N23  1  0.552577  0.502688  0.740100  1
