# generated using pymatgen
data_TbDy3(ReB6)2
_symmetry_space_group_name_H-M   'P 1'
_cell_length_a   3.68924700
_cell_length_b   9.18521501
_cell_length_c   11.57329201
_cell_angle_alpha   89.99547320
_cell_angle_beta   90.00000000
_cell_angle_gamma   90.00000000
_symmetry_Int_Tables_number   1
_chemical_formula_structural   TbDy3(ReB6)2
_chemical_formula_sum   'Tb2 Dy6 Re4 B24'
_cell_volume   392.17866987
_cell_formula_units_Z   2
loop_
 _symmetry_equiv_pos_site_id
 _symmetry_equiv_pos_as_xyz
  1  'x, y, z'
loop_
 _atom_site_type_symbol
 _atom_site_label
 _atom_site_symmetry_multiplicity
 _atom_site_fract_x
 _atom_site_fract_y
 _atom_site_fract_z
 _atom_site_occupancy
  Tb  Tb0  1  0.000000  0.323669  0.413732  1
  Tb  Tb1  1  0.000000  0.676331  0.586268  1
  Dy  Dy2  1  0.000000  0.823798  0.086164  1
  Dy  Dy3  1  0.000000  0.176202  0.913836  1
  Dy  Dy4  1  0.000000  0.943191  0.369862  1
  Dy  Dy5  1  0.000000  0.056809  0.630138  1
  Dy  Dy6  1  0.000000  0.443176  0.129855  1
  Dy  Dy7  1  0.000000  0.556824  0.870145  1
  Re  Re8  1  0.000000  0.638982  0.320699  1
  Re  Re9  1  0.000000  0.361018  0.679301  1
  Re  Re10  1  0.000000  0.138706  0.178878  1
  Re  Re11  1  0.000000  0.861294  0.821122  1
  B  B12  1  0.500000  0.553409  0.432533  1
  B  B13  1  0.500000  0.446591  0.567467  1
  B  B14  1  0.500000  0.053183  0.067071  1
  B  B15  1  0.500000  0.946817  0.932929  1
  B  B16  1  0.500000  0.748870  0.418051  1
  B  B17  1  0.500000  0.251130  0.581949  1
  B  B18  1  0.500000  0.248682  0.081421  1
  B  B19  1  0.500000  0.751318  0.918579  1
  B  B20  1  0.500000  0.791991  0.265354  1
  B  B21  1  0.500000  0.208009  0.734646  1
  B  B22  1  0.500000  0.291733  0.234081  1
  B  B23  1  0.500000  0.708267  0.765919  1
  B  B24  1  0.500000  0.631065  0.185577  1
  B  B25  1  0.500000  0.368935  0.814423  1
  B  B26  1  0.500000  0.130758  0.313911  1
  B  B27  1  0.500000  0.869242  0.686089  1
  B  B28  1  0.500000  0.982530  0.211723  1
  B  B29  1  0.500000  0.017470  0.788277  1
  B  B30  1  0.500000  0.482830  0.287796  1
  B  B31  1  0.500000  0.517170  0.712204  1
  B  B32  1  0.500000  0.600344  0.028058  1
  B  B33  1  0.500000  0.399656  0.971942  1
  B  B34  1  0.500000  0.099716  0.472078  1
  B  B35  1  0.500000  0.900284  0.527922  1
