# generated using pymatgen
data_Ho10Co4HgRh
_symmetry_space_group_name_H-M   'P 1'
_cell_length_a   7.26022404
_cell_length_b   7.26022465
_cell_length_c   8.66317042
_cell_angle_alpha   114.77323617
_cell_angle_beta   114.77324033
_cell_angle_gamma   90.00000658
_symmetry_Int_Tables_number   1
_chemical_formula_structural   Ho10Co4HgRh
_chemical_formula_sum   'Ho10 Co4 Hg1 Rh1'
_cell_volume   367.82625703
_cell_formula_units_Z   1
loop_
 _symmetry_equiv_pos_site_id
 _symmetry_equiv_pos_as_xyz
  1  'x, y, z'
loop_
 _atom_site_type_symbol
 _atom_site_label
 _atom_site_symmetry_multiplicity
 _atom_site_fract_x
 _atom_site_fract_y
 _atom_site_fract_z
 _atom_site_occupancy
  Ho  Ho0  1  0.011150  0.011150  0.022300  1
  Ho  Ho1  1  0.488850  0.488850  0.977700  1
  Ho  Ho2  1  0.477440  0.323900  0.276133  1
  Ho  Ho3  1  0.952234  0.477440  0.276133  1
  Ho  Ho4  1  0.323900  0.798692  0.276133  1
  Ho  Ho5  1  0.798692  0.952234  0.276133  1
  Ho  Ho6  1  0.176100  0.022560  0.723866  1
  Ho  Ho7  1  0.701306  0.176100  0.723866  1
  Ho  Ho8  1  0.022560  0.547766  0.723866  1
  Ho  Ho9  1  0.547766  0.701306  0.723866  1
  Co  Co10  1  0.613406  0.113406  0.000000  1
  Co  Co11  1  0.113406  0.386595  0.000000  1
  Co  Co12  1  0.886594  0.613406  0.000000  1
  Co  Co13  1  0.386595  0.886594  0.000000  1
  Hg  Hg14  1  0.250000  0.250000  0.500000  1
  Rh  Rh15  1  0.750000  0.750000  0.500000  1
