# generated using pymatgen
data_Ba2YbCe(Ge4N7)2
_symmetry_space_group_name_H-M   'P 1'
_cell_length_a   6.35845400
_cell_length_b   6.35845253
_cell_length_c   10.42668100
_cell_angle_alpha   90.00000000
_cell_angle_beta   90.00000000
_cell_angle_gamma   120.00000763
_symmetry_Int_Tables_number   1
_chemical_formula_structural   Ba2YbCe(Ge4N7)2
_chemical_formula_sum   'Ba2 Yb1 Ce1 Ge8 N14'
_cell_volume   365.07294763
_cell_formula_units_Z   1
loop_
 _symmetry_equiv_pos_site_id
 _symmetry_equiv_pos_as_xyz
  1  'x, y, z'
loop_
 _atom_site_type_symbol
 _atom_site_label
 _atom_site_symmetry_multiplicity
 _atom_site_fract_x
 _atom_site_fract_y
 _atom_site_fract_z
 _atom_site_occupancy
  Ba  Ba0  1  0.333333  0.666667  0.353823  1
  Ba  Ba1  1  0.666667  0.333333  0.877042  1
  Yb  Yb2  1  0.666667  0.333333  0.237282  1
  Ce  Ce3  1  0.333333  0.666667  0.735129  1
  Ge  Ge4  1  0.827416  0.654831  0.544147  1
  Ge  Ge5  1  0.174682  0.825318  0.048933  1
  Ge  Ge6  1  0.650634  0.825318  0.048933  1
  Ge  Ge7  1  0.345169  0.172584  0.544147  1
  Ge  Ge8  1  0.827416  0.172584  0.544147  1
  Ge  Ge9  1  0.174682  0.349366  0.048933  1
  Ge  Ge10  1  0.000000  0.000000  0.810789  1
  Ge  Ge11  1  0.000000  0.000000  0.314804  1
  N  N12  1  0.000000  0.000000  0.622153  1
  N  N13  1  0.000000  0.000000  0.120413  1
  N  N14  1  0.158442  0.316886  0.868514  1
  N  N15  1  0.841810  0.158190  0.370271  1
  N  N16  1  0.316381  0.158190  0.370271  1
  N  N17  1  0.683114  0.841558  0.868514  1
  N  N18  1  0.158442  0.841558  0.868514  1
  N  N19  1  0.841810  0.683619  0.370271  1
  N  N20  1  0.985089  0.492544  0.606265  1
  N  N21  1  0.494731  0.989461  0.100661  1
  N  N22  1  0.494731  0.505269  0.100661  1
  N  N23  1  0.507456  0.492544  0.606265  1
  N  N24  1  0.010539  0.505269  0.100661  1
  N  N25  1  0.507456  0.014911  0.606265  1
