# generated using pymatgen
data_TaNb6Zn5Ru12
_symmetry_space_group_name_H-M   'P 1'
_cell_length_a   4.40385500
_cell_length_b   6.27986200
_cell_length_c   13.17444800
_cell_angle_alpha   90.00000000
_cell_angle_beta   89.99704250
_cell_angle_gamma   90.00000000
_symmetry_Int_Tables_number   1
_chemical_formula_structural   TaNb6Zn5Ru12
_chemical_formula_sum   'Ta1 Nb6 Zn5 Ru12'
_cell_volume   364.34728584
_cell_formula_units_Z   1
loop_
 _symmetry_equiv_pos_site_id
 _symmetry_equiv_pos_as_xyz
  1  'x, y, z'
loop_
 _atom_site_type_symbol
 _atom_site_label
 _atom_site_symmetry_multiplicity
 _atom_site_fract_x
 _atom_site_fract_y
 _atom_site_fract_z
 _atom_site_occupancy
  Ta  Ta0  1  0.000000  0.000000  0.000000  1
  Nb  Nb1  1  0.000000  0.500000  0.000000  1
  Nb  Nb2  1  0.499921  0.000000  0.177949  1
  Nb  Nb3  1  0.999839  0.500000  0.336130  1
  Nb  Nb4  1  0.499999  0.000000  0.500000  1
  Nb  Nb5  1  0.000161  0.500000  0.663870  1
  Nb  Nb6  1  0.500079  0.000000  0.822051  1
  Zn  Zn7  1  0.499908  0.500000  0.166384  1
  Zn  Zn8  1  0.999843  0.000000  0.333983  1
  Zn  Zn9  1  0.499999  0.500000  0.500000  1
  Zn  Zn10  1  0.000158  0.000000  0.666017  1
  Zn  Zn11  1  0.500090  0.500000  0.833616  1
  Ru  Ru12  1  0.499999  0.244137  0.000000  1
  Ru  Ru13  1  0.499999  0.755864  0.000000  1
  Ru  Ru14  1  0.999944  0.247749  0.163611  1
  Ru  Ru15  1  0.999944  0.752252  0.163611  1
  Ru  Ru16  1  0.499843  0.252588  0.334075  1
  Ru  Ru17  1  0.499843  0.747411  0.334075  1
  Ru  Ru18  1  0.000000  0.252257  0.500000  1
  Ru  Ru19  1  0.000000  0.747744  0.500000  1
  Ru  Ru20  1  0.500158  0.252588  0.665925  1
  Ru  Ru21  1  0.500158  0.747411  0.665925  1
  Ru  Ru22  1  0.000057  0.247749  0.836389  1
  Ru  Ru23  1  0.000057  0.752252  0.836389  1
