# generated using pymatgen
data_Ho3ThGa6Ir7
_symmetry_space_group_name_H-M   'P 1'
_cell_length_a   7.32547575
_cell_length_b   7.33422596
_cell_length_c   7.32547665
_cell_angle_alpha   109.49541700
_cell_angle_beta   109.44700606
_cell_angle_gamma   109.49542463
_symmetry_Int_Tables_number   1
_chemical_formula_structural   Ho3ThGa6Ir7
_chemical_formula_sum   'Ho3 Th1 Ga6 Ir7'
_cell_volume   302.88261298
_cell_formula_units_Z   1
loop_
 _symmetry_equiv_pos_site_id
 _symmetry_equiv_pos_as_xyz
  1  'x, y, z'
loop_
 _atom_site_type_symbol
 _atom_site_label
 _atom_site_symmetry_multiplicity
 _atom_site_fract_x
 _atom_site_fract_y
 _atom_site_fract_z
 _atom_site_occupancy
  Ho  Ho0  1  0.000000  0.000000  0.500000  1
  Ho  Ho1  1  0.500000  0.000000  0.000000  1
  Ho  Ho2  1  0.500000  0.500000  0.500000  1
  Th  Th3  1  0.000000  0.500000  0.000000  1
  Ga  Ga4  1  0.681165  0.687833  0.000000  1
  Ga  Ga5  1  0.318835  0.006668  0.318835  1
  Ga  Ga6  1  0.000000  0.312167  0.318835  1
  Ga  Ga7  1  0.318835  0.312167  0.000000  1
  Ga  Ga8  1  0.681165  0.993332  0.681165  1
  Ga  Ga9  1  0.000000  0.687833  0.681165  1
  Ir  Ir10  1  0.750062  0.250062  0.500125  1
  Ir  Ir11  1  0.750062  0.500000  0.249938  1
  Ir  Ir12  1  0.500125  0.250062  0.750062  1
  Ir  Ir13  1  0.249938  0.500000  0.750062  1
  Ir  Ir14  1  0.249938  0.749938  0.499875  1
  Ir  Ir15  1  0.499875  0.749938  0.249938  1
  Ir  Ir16  1  0.000000  0.000000  0.000000  1
