# generated using pymatgen
data_Ca11Pr(AgPb)6
_symmetry_space_group_name_H-M   'P 1'
_cell_length_a   5.42496603
_cell_length_b   7.65273500
_cell_length_c   16.23618601
_cell_angle_alpha   90.00000000
_cell_angle_beta   90.00458735
_cell_angle_gamma   90.00000000
_symmetry_Int_Tables_number   1
_chemical_formula_structural   Ca11Pr(AgPb)6
_chemical_formula_sum   'Ca11 Pr1 Ag6 Pb6'
_cell_volume   674.05869383
_cell_formula_units_Z   1
loop_
 _symmetry_equiv_pos_site_id
 _symmetry_equiv_pos_as_xyz
  1  'x, y, z'
loop_
 _atom_site_type_symbol
 _atom_site_label
 _atom_site_symmetry_multiplicity
 _atom_site_fract_x
 _atom_site_fract_y
 _atom_site_fract_z
 _atom_site_occupancy
  Ca  Ca0  1  0.500000  0.749877  0.000000  1
  Ca  Ca1  1  0.000003  0.250572  0.168287  1
  Ca  Ca2  1  0.000003  0.749613  0.166840  1
  Ca  Ca3  1  0.499990  0.249386  0.333215  1
  Ca  Ca4  1  0.499989  0.750894  0.333383  1
  Ca  Ca5  1  0.000000  0.250291  0.500000  1
  Ca  Ca6  1  0.000000  0.749651  0.500000  1
  Ca  Ca7  1  0.500010  0.249386  0.666785  1
  Ca  Ca8  1  0.500011  0.750894  0.666617  1
  Ca  Ca9  1  0.999997  0.250572  0.831713  1
  Ca  Ca10  1  0.999997  0.749613  0.833160  1
  Pr  Pr11  1  0.500000  0.248371  0.000000  1
  Ag  Ag12  1  0.000000  0.998614  0.000000  1
  Ag  Ag13  1  0.499960  0.500117  0.166695  1
  Ag  Ag14  1  0.999997  0.999992  0.333226  1
  Ag  Ag15  1  0.500000  0.500378  0.500000  1
  Ag  Ag16  1  0.000003  0.999992  0.666774  1
  Ag  Ag17  1  0.500040  0.500117  0.833305  1
  Pb  Pb18  1  0.000000  0.502331  0.000000  1
  Pb  Pb19  1  0.500012  0.999603  0.167395  1
  Pb  Pb20  1  0.999995  0.500529  0.333412  1
  Pb  Pb21  1  0.500000  0.999080  0.500000  1
  Pb  Pb22  1  0.000005  0.500529  0.666588  1
  Pb  Pb23  1  0.499988  0.999603  0.832605  1
