# generated using pymatgen
data_Ba6Nb(RhO6)2
_symmetry_space_group_name_H-M   'P 1'
_cell_length_a   9.17013067
_cell_length_b   9.17013086
_cell_length_c   7.29037300
_cell_angle_alpha   67.85153070
_cell_angle_beta   67.85153022
_cell_angle_gamma   36.86397044
_symmetry_Int_Tables_number   1
_chemical_formula_structural   Ba6Nb(RhO6)2
_chemical_formula_sum   'Ba6 Nb1 Rh2 O12'
_cell_volume   337.49568772
_cell_formula_units_Z   1
loop_
 _symmetry_equiv_pos_site_id
 _symmetry_equiv_pos_as_xyz
  1  'x, y, z'
loop_
 _atom_site_type_symbol
 _atom_site_label
 _atom_site_symmetry_multiplicity
 _atom_site_fract_x
 _atom_site_fract_y
 _atom_site_fract_z
 _atom_site_occupancy
  Ba  Ba0  1  0.875601  0.875601  0.715669  1
  Ba  Ba1  1  0.219736  0.219736  0.711681  1
  Ba  Ba2  1  0.549000  0.549000  0.704571  1
  Ba  Ba3  1  0.451000  0.451000  0.295429  1
  Ba  Ba4  1  0.780264  0.780264  0.288319  1
  Ba  Ba5  1  0.124399  0.124399  0.284331  1
  Nb  Nb6  1  0.000000  0.000000  0.000000  1
  Rh  Rh7  1  0.665349  0.665349  0.999624  1
  Rh  Rh8  1  0.334651  0.334651  0.000376  1
  O  O9  1  0.949231  0.949231  0.303419  1
  O  O10  1  0.282951  0.282951  0.313578  1
  O  O11  1  0.612967  0.612967  0.313366  1
  O  O12  1  0.387033  0.387033  0.686634  1
  O  O13  1  0.717049  0.717049  0.686422  1
  O  O14  1  0.050769  0.050769  0.696581  1
  O  O15  1  0.500000  0.000000  0.000000  1
  O  O16  1  0.834674  0.329469  0.000149  1
  O  O17  1  0.165326  0.670531  0.999851  1
  O  O18  1  0.000000  0.500000  0.000000  1
  O  O19  1  0.329469  0.834674  0.000149  1
  O  O20  1  0.670531  0.165326  0.999851  1
