# generated using pymatgen
data_KSnRhS4
_symmetry_space_group_name_H-M   'P 1'
_cell_length_a   3.71583800
_cell_length_b   7.76856661
_cell_length_c   6.32483068
_cell_angle_alpha   73.99355625
_cell_angle_beta   90.00000000
_cell_angle_gamma   90.00000000
_symmetry_Int_Tables_number   1
_chemical_formula_structural   KSnRhS4
_chemical_formula_sum   'K1 Sn1 Rh1 S4'
_cell_volume   175.49881883
_cell_formula_units_Z   1
loop_
 _symmetry_equiv_pos_site_id
 _symmetry_equiv_pos_as_xyz
  1  'x, y, z'
loop_
 _atom_site_type_symbol
 _atom_site_label
 _atom_site_symmetry_multiplicity
 _atom_site_fract_x
 _atom_site_fract_y
 _atom_site_fract_z
 _atom_site_occupancy
  K  K0  1  0.500000  0.495286  0.656451  1
  Sn  Sn1  1  0.000000  0.997415  0.002369  1
  Rh  Rh2  1  0.500000  0.002800  0.502135  1
  S  S3  1  0.000000  0.833957  0.414539  1
  S  S4  1  0.500000  0.814186  0.874670  1
  S  S5  1  0.000000  0.170055  0.591754  1
  S  S6  1  0.500000  0.185421  0.125042  1
