# generated using pymatgen
data_Pr2Si4AgPd
_symmetry_space_group_name_H-M   'P 1'
_cell_length_a   8.97063591
_cell_length_b   8.97063588
_cell_length_c   4.21604200
_cell_angle_alpha   90.00000000
_cell_angle_beta   90.00000000
_cell_angle_gamma   152.53520323
_symmetry_Int_Tables_number   1
_chemical_formula_structural   Pr2Si4AgPd
_chemical_formula_sum   'Pr2 Si4 Ag1 Pd1'
_cell_volume   156.47465987
_cell_formula_units_Z   1
loop_
 _symmetry_equiv_pos_site_id
 _symmetry_equiv_pos_as_xyz
  1  'x, y, z'
loop_
 _atom_site_type_symbol
 _atom_site_label
 _atom_site_symmetry_multiplicity
 _atom_site_fract_x
 _atom_site_fract_y
 _atom_site_fract_z
 _atom_site_occupancy
  Pr  Pr0  1  0.598659  0.401341  0.250000  1
  Pr  Pr1  1  0.400818  0.599182  0.750000  1
  Si  Si2  1  0.964806  0.035194  0.250000  1
  Si  Si3  1  0.035245  0.964755  0.750000  1
  Si  Si4  1  0.829122  0.170878  0.250000  1
  Si  Si5  1  0.170688  0.829312  0.750000  1
  Ag  Ag6  1  0.747638  0.252362  0.750000  1
  Pd  Pd7  1  0.253023  0.746977  0.250000  1
