# generated using pymatgen
data_RbBa3(Ni3N2)2
_symmetry_space_group_name_H-M   'P 1'
_cell_length_a   6.37227486
_cell_length_b   6.36802511
_cell_length_c   7.47489263
_cell_angle_alpha   89.15259426
_cell_angle_beta   90.57382312
_cell_angle_gamma   112.79972075
_symmetry_Int_Tables_number   1
_chemical_formula_structural   RbBa3(Ni3N2)2
_chemical_formula_sum   'Rb1 Ba3 Ni6 N4'
_cell_volume   279.58854898
_cell_formula_units_Z   1
loop_
 _symmetry_equiv_pos_site_id
 _symmetry_equiv_pos_as_xyz
  1  'x, y, z'
loop_
 _atom_site_type_symbol
 _atom_site_label
 _atom_site_symmetry_multiplicity
 _atom_site_fract_x
 _atom_site_fract_y
 _atom_site_fract_z
 _atom_site_occupancy
  Rb  Rb0  1  0.676683  0.333123  0.406067  1
  Ba  Ba1  1  0.337951  0.664012  0.587312  1
  Ba  Ba2  1  0.832469  0.167973  0.905352  1
  Ba  Ba3  1  0.168021  0.836671  0.093103  1
  Ni  Ni4  1  0.174584  0.324429  0.253392  1
  Ni  Ni5  1  0.321809  0.169172  0.744603  1
  Ni  Ni6  1  0.820824  0.669900  0.766928  1
  Ni  Ni7  1  0.674014  0.826639  0.238925  1
  Ni  Ni8  1  0.032221  0.027696  0.499342  1
  Ni  Ni9  1  0.523810  0.541450  0.999918  1
  N  N10  1  0.928859  0.066004  0.275524  1
  N  N11  1  0.069438  0.915544  0.721204  1
  N  N12  1  0.563202  0.419691  0.788306  1
  N  N13  1  0.417118  0.578698  0.220024  1
