# generated using pymatgen
data_YbTmLu(Al3Ni2)3
_symmetry_space_group_name_H-M   'P 1'
_cell_length_a   9.02157100
_cell_length_b   9.02157154
_cell_length_c   4.02425800
_cell_angle_alpha   90.00000000
_cell_angle_beta   90.00000000
_cell_angle_gamma   120.00000170
_symmetry_Int_Tables_number   1
_chemical_formula_structural   YbTmLu(Al3Ni2)3
_chemical_formula_sum   'Yb1 Tm1 Lu1 Al9 Ni6'
_cell_volume   283.64870752
_cell_formula_units_Z   1
loop_
 _symmetry_equiv_pos_site_id
 _symmetry_equiv_pos_as_xyz
  1  'x, y, z'
loop_
 _atom_site_type_symbol
 _atom_site_label
 _atom_site_symmetry_multiplicity
 _atom_site_fract_x
 _atom_site_fract_y
 _atom_site_fract_z
 _atom_site_occupancy
  Yb  Yb0  1  0.000000  0.000000  0.000000  1
  Tm  Tm1  1  0.666667  0.333333  0.500000  1
  Lu  Lu2  1  0.333333  0.666667  0.500000  1
  Al  Al3  1  0.499958  0.500042  0.000000  1
  Al  Al4  1  0.499958  0.999915  0.000000  1
  Al  Al5  1  0.000085  0.500042  0.000000  1
  Al  Al6  1  0.699036  0.699241  0.500000  1
  Al  Al7  1  0.300759  0.999795  0.500000  1
  Al  Al8  1  0.000205  0.300964  0.500000  1
  Al  Al9  1  0.300759  0.300964  0.500000  1
  Al  Al10  1  0.699036  0.999795  0.500000  1
  Al  Al11  1  0.000205  0.699241  0.500000  1
  Ni  Ni12  1  0.818511  0.181489  0.000000  1
  Ni  Ni13  1  0.818511  0.637023  0.000000  1
  Ni  Ni14  1  0.362977  0.181489  0.000000  1
  Ni  Ni15  1  0.181754  0.818246  0.000000  1
  Ni  Ni16  1  0.636492  0.818246  0.000000  1
  Ni  Ni17  1  0.181754  0.363508  0.000000  1
