# generated using pymatgen
data_Sm2ReB8Ru
_symmetry_space_group_name_H-M   'P 1'
_cell_length_a   3.63372900
_cell_length_b   6.03107678
_cell_length_c   11.66740608
_cell_angle_alpha   89.79317363
_cell_angle_beta   90.00000000
_cell_angle_gamma   90.00000000
_symmetry_Int_Tables_number   1
_chemical_formula_structural   Sm2ReB8Ru
_chemical_formula_sum   'Sm4 Re2 B16 Ru2'
_cell_volume   255.69302235
_cell_formula_units_Z   2
loop_
 _symmetry_equiv_pos_site_id
 _symmetry_equiv_pos_as_xyz
  1  'x, y, z'
loop_
 _atom_site_type_symbol
 _atom_site_label
 _atom_site_symmetry_multiplicity
 _atom_site_fract_x
 _atom_site_fract_y
 _atom_site_fract_z
 _atom_site_occupancy
  Sm  Sm0  1  0.500000  0.374530  0.152262  1
  Sm  Sm1  1  0.500000  0.625470  0.847738  1
  Sm  Sm2  1  0.500000  0.125605  0.647969  1
  Sm  Sm3  1  0.500000  0.874395  0.352031  1
  Re  Re4  1  0.500000  0.130709  0.913217  1
  Re  Re5  1  0.500000  0.869291  0.086783  1
  B  B6  1  0.000000  0.112532  0.046362  1
  B  B7  1  0.000000  0.887468  0.953638  1
  B  B8  1  0.000000  0.387947  0.545662  1
  B  B9  1  0.000000  0.612053  0.454338  1
  B  B10  1  0.000000  0.138363  0.468353  1
  B  B11  1  0.000000  0.861637  0.531647  1
  B  B12  1  0.000000  0.361544  0.968394  1
  B  B13  1  0.000000  0.638456  0.031606  1
  B  B14  1  0.000000  0.024416  0.190932  1
  B  B15  1  0.000000  0.975584  0.809068  1
  B  B16  1  0.000000  0.473640  0.689962  1
  B  B17  1  0.000000  0.526360  0.310038  1
  B  B18  1  0.000000  0.214780  0.316256  1
  B  B19  1  0.000000  0.785220  0.683744  1
  B  B20  1  0.000000  0.283857  0.815216  1
  B  B21  1  0.000000  0.716143  0.184784  1
  Ru  Ru22  1  0.500000  0.362975  0.407903  1
  Ru  Ru23  1  0.500000  0.637025  0.592097  1
