# generated using pymatgen
data_BaPrBiSe4
_symmetry_space_group_name_H-M   'P 1'
_cell_length_a   4.37720800
_cell_length_b   12.95327300
_cell_length_c   15.62967800
_cell_angle_alpha   90.00000000
_cell_angle_beta   90.00000000
_cell_angle_gamma   90.00000000
_symmetry_Int_Tables_number   1
_chemical_formula_structural   BaPrBiSe4
_chemical_formula_sum   'Ba4 Pr4 Bi4 Se16'
_cell_volume   886.18977312
_cell_formula_units_Z   4
loop_
 _symmetry_equiv_pos_site_id
 _symmetry_equiv_pos_as_xyz
  1  'x, y, z'
loop_
 _atom_site_type_symbol
 _atom_site_label
 _atom_site_symmetry_multiplicity
 _atom_site_fract_x
 _atom_site_fract_y
 _atom_site_fract_z
 _atom_site_occupancy
  Ba  Ba0  1  0.250000  0.756781  0.336572  1
  Ba  Ba1  1  0.250000  0.256781  0.163428  1
  Ba  Ba2  1  0.750000  0.243219  0.663428  1
  Ba  Ba3  1  0.750000  0.743219  0.836572  1
  Pr  Pr4  1  0.250000  0.426911  0.394105  1
  Pr  Pr5  1  0.250000  0.926911  0.105895  1
  Pr  Pr6  1  0.750000  0.573089  0.605895  1
  Pr  Pr7  1  0.750000  0.073089  0.894105  1
  Bi  Bi8  1  0.250000  0.425458  0.899221  1
  Bi  Bi9  1  0.250000  0.925458  0.600779  1
  Bi  Bi10  1  0.750000  0.574542  0.100779  1
  Bi  Bi11  1  0.750000  0.074542  0.399221  1
  Se  Se12  1  0.250000  0.206032  0.827108  1
  Se  Se13  1  0.250000  0.706032  0.672892  1
  Se  Se14  1  0.750000  0.793968  0.172892  1
  Se  Se15  1  0.750000  0.293968  0.327108  1
  Se  Se16  1  0.250000  0.130709  0.529915  1
  Se  Se17  1  0.250000  0.630709  0.970085  1
  Se  Se18  1  0.750000  0.869291  0.470085  1
  Se  Se19  1  0.750000  0.369291  0.029915  1
  Se  Se20  1  0.250000  0.522256  0.214794  1
  Se  Se21  1  0.250000  0.022256  0.285206  1
  Se  Se22  1  0.750000  0.477744  0.785206  1
  Se  Se23  1  0.750000  0.977744  0.714794  1
  Se  Se24  1  0.250000  0.415275  0.582135  1
  Se  Se25  1  0.250000  0.915275  0.917865  1
  Se  Se26  1  0.750000  0.584725  0.417865  1
  Se  Se27  1  0.750000  0.084725  0.082135  1
