# generated using pymatgen
data_ScPaGaNi2
_symmetry_space_group_name_H-M   'P 1'
_cell_length_a   7.21718700
_cell_length_b   6.97327200
_cell_length_c   3.45114400
_cell_angle_alpha   90.00000000
_cell_angle_beta   90.00000000
_cell_angle_gamma   90.00000000
_symmetry_Int_Tables_number   1
_chemical_formula_structural   ScPaGaNi2
_chemical_formula_sum   'Sc2 Pa2 Ga2 Ni4'
_cell_volume   173.68713224
_cell_formula_units_Z   2
loop_
 _symmetry_equiv_pos_site_id
 _symmetry_equiv_pos_as_xyz
  1  'x, y, z'
loop_
 _atom_site_type_symbol
 _atom_site_label
 _atom_site_symmetry_multiplicity
 _atom_site_fract_x
 _atom_site_fract_y
 _atom_site_fract_z
 _atom_site_occupancy
  Sc  Sc0  1  0.822249  0.676675  0.500000  1
  Sc  Sc1  1  0.322249  0.823325  0.500000  1
  Pa  Pa2  1  0.676786  0.168911  0.500000  1
  Pa  Pa3  1  0.176786  0.331089  0.500000  1
  Ga  Ga4  1  0.004149  0.980864  0.000000  1
  Ga  Ga5  1  0.504149  0.519136  0.000000  1
  Ni  Ni6  1  0.872426  0.361659  0.000000  1
  Ni  Ni7  1  0.372426  0.138341  0.000000  1
  Ni  Ni8  1  0.624390  0.885844  0.000000  1
  Ni  Ni9  1  0.124390  0.614156  0.000000  1
