# generated using pymatgen
data_DyY3AlRu7
_symmetry_space_group_name_H-M   'P 1'
_cell_length_a   5.38938204
_cell_length_b   5.38938225
_cell_length_c   8.61578900
_cell_angle_alpha   90.00545498
_cell_angle_beta   89.99454579
_cell_angle_gamma   119.99240602
_symmetry_Int_Tables_number   1
_chemical_formula_structural   DyY3AlRu7
_chemical_formula_sum   'Dy1 Y3 Al1 Ru7'
_cell_volume   216.73890263
_cell_formula_units_Z   1
loop_
 _symmetry_equiv_pos_site_id
 _symmetry_equiv_pos_as_xyz
  1  'x, y, z'
loop_
 _atom_site_type_symbol
 _atom_site_label
 _atom_site_symmetry_multiplicity
 _atom_site_fract_x
 _atom_site_fract_y
 _atom_site_fract_z
 _atom_site_occupancy
  Dy  Dy0  1  0.666711  0.333289  0.935061  1
  Y  Y1  1  0.666678  0.333322  0.569800  1
  Y  Y2  1  0.333322  0.666678  0.430256  1
  Y  Y3  1  0.333287  0.666713  0.064879  1
  Al  Al4  1  0.999996  0.000004  0.499977  1
  Ru  Ru5  1  0.000011  0.999989  0.999979  1
  Ru  Ru6  1  0.171151  0.342133  0.748797  1
  Ru  Ru7  1  0.171002  0.828998  0.748780  1
  Ru  Ru8  1  0.657867  0.828849  0.748797  1
  Ru  Ru9  1  0.828781  0.657750  0.251217  1
  Ru  Ru10  1  0.828943  0.171057  0.251242  1
  Ru  Ru11  1  0.342250  0.171219  0.251217  1
