# generated using pymatgen
data_Nd2NO
_symmetry_space_group_name_H-M   'P 1'
_cell_length_a   6.26271791
_cell_length_b   6.26271807
_cell_length_c   6.26271808
_cell_angle_alpha   131.93663853
_cell_angle_beta   131.93664319
_cell_angle_gamma   70.32911517
_symmetry_Int_Tables_number   1
_chemical_formula_structural   Nd2NO
_chemical_formula_sum   'Nd4 N2 O2'
_cell_volume   133.21143011
_cell_formula_units_Z   2
loop_
 _symmetry_equiv_pos_site_id
 _symmetry_equiv_pos_as_xyz
  1  'x, y, z'
loop_
 _atom_site_type_symbol
 _atom_site_label
 _atom_site_symmetry_multiplicity
 _atom_site_fract_x
 _atom_site_fract_y
 _atom_site_fract_z
 _atom_site_occupancy
  Nd  Nd0  1  0.255174  0.255174  0.000000  1
  Nd  Nd1  1  0.005174  0.505174  0.500000  1
  Nd  Nd2  1  0.744826  0.744826  0.000000  1
  Nd  Nd3  1  0.494826  0.994826  0.500000  1
  N  N4  1  0.500000  0.500000  0.000000  1
  N  N5  1  0.250000  0.750000  0.500000  1
  O  O6  1  0.750000  0.250000  0.500000  1
  O  O7  1  0.000000  0.000000  0.000000  1
