# generated using pymatgen
data_Dy4Er2Al13Mo3Os7
_symmetry_space_group_name_H-M   'P 1'
_cell_length_a   8.98295810
_cell_length_b   8.98295935
_cell_length_c   8.98766961
_cell_angle_alpha   59.50690428
_cell_angle_beta   59.50690165
_cell_angle_gamma   59.57236891
_symmetry_Int_Tables_number   1
_chemical_formula_structural   Dy4Er2Al13Mo3Os7
_chemical_formula_sum   'Dy4 Er2 Al13 Mo3 Os7'
_cell_volume   507.33103282
_cell_formula_units_Z   1
loop_
 _symmetry_equiv_pos_site_id
 _symmetry_equiv_pos_as_xyz
  1  'x, y, z'
loop_
 _atom_site_type_symbol
 _atom_site_label
 _atom_site_symmetry_multiplicity
 _atom_site_fract_x
 _atom_site_fract_y
 _atom_site_fract_z
 _atom_site_occupancy
  Dy  Dy0  1  0.706911  0.706911  0.286768  1
  Dy  Dy1  1  0.293041  0.708546  0.292738  1
  Dy  Dy2  1  0.708546  0.293041  0.292738  1
  Dy  Dy3  1  0.294124  0.294124  0.707451  1
  Er  Er4  1  0.708683  0.285275  0.708340  1
  Er  Er5  1  0.285275  0.708683  0.708340  1
  Al  Al6  1  0.880566  0.880566  0.880658  1
  Al  Al7  1  0.120847  0.120847  0.639795  1
  Al  Al8  1  0.121018  0.639085  0.120813  1
  Al  Al9  1  0.639085  0.121018  0.120813  1
  Al  Al10  1  0.122507  0.122507  0.121948  1
  Al  Al11  1  0.669429  0.669429  0.994134  1
  Al  Al12  1  0.669952  0.994497  0.669483  1
  Al  Al13  1  0.994497  0.669952  0.669483  1
  Al  Al14  1  0.663437  0.663437  0.664499  1
  Al  Al15  1  0.331971  0.331971  0.007537  1
  Al  Al16  1  0.331242  0.008607  0.331619  1
  Al  Al17  1  0.008607  0.331242  0.331619  1
  Al  Al18  1  0.331724  0.331724  0.331900  1
  Mo  Mo19  1  0.876791  0.876791  0.363169  1
  Mo  Mo20  1  0.877516  0.362775  0.876746  1
  Mo  Mo21  1  0.362775  0.877516  0.876746  1
  Os  Os22  1  0.004812  0.004812  0.005473  1
  Os  Os23  1  0.998381  0.998381  0.497788  1
  Os  Os24  1  0.503497  0.994743  0.504490  1
  Os  Os25  1  0.994743  0.503497  0.504490  1
  Os  Os26  1  0.503625  0.503625  0.995122  1
  Os  Os27  1  0.998918  0.497478  0.997652  1
  Os  Os28  1  0.497478  0.998918  0.997652  1
