# generated using pymatgen
data_Dy12Tc3Rh
_symmetry_space_group_name_H-M   'P 1'
_cell_length_a   6.28808504
_cell_length_b   7.41036842
_cell_length_c   9.20321300
_cell_angle_alpha   90.00000000
_cell_angle_beta   90.00000000
_cell_angle_gamma   89.93159572
_symmetry_Int_Tables_number   1
_chemical_formula_structural   Dy12Tc3Rh
_chemical_formula_sum   'Dy12 Tc3 Rh1'
_cell_volume   428.84205711
_cell_formula_units_Z   1
loop_
 _symmetry_equiv_pos_site_id
 _symmetry_equiv_pos_as_xyz
  1  'x, y, z'
loop_
 _atom_site_type_symbol
 _atom_site_label
 _atom_site_symmetry_multiplicity
 _atom_site_fract_x
 _atom_site_fract_y
 _atom_site_fract_z
 _atom_site_occupancy
  Dy  Dy0  1  0.332090  0.676519  0.065782  1
  Dy  Dy1  1  0.163179  0.176091  0.436690  1
  Dy  Dy2  1  0.663901  0.321497  0.561495  1
  Dy  Dy3  1  0.837170  0.826186  0.938492  1
  Dy  Dy4  1  0.663901  0.321497  0.938505  1
  Dy  Dy5  1  0.837170  0.826186  0.561508  1
  Dy  Dy6  1  0.332090  0.676519  0.434218  1
  Dy  Dy7  1  0.163179  0.176091  0.063310  1
  Dy  Dy8  1  0.872437  0.541429  0.250000  1
  Dy  Dy9  1  0.625568  0.039261  0.250000  1
  Dy  Dy10  1  0.132453  0.457202  0.750000  1
  Dy  Dy11  1  0.370480  0.959039  0.750000  1
  Tc  Tc12  1  0.040758  0.884255  0.250000  1
  Tc  Tc13  1  0.460838  0.386761  0.250000  1
  Tc  Tc14  1  0.959405  0.116004  0.750000  1
  Rh  Rh15  1  0.545382  0.615460  0.750000  1
