# generated using pymatgen
data_Tm2PaCoTc
_symmetry_space_group_name_H-M   'P 1'
_cell_length_a   3.82677604
_cell_length_b   5.93254569
_cell_length_c   5.90961493
_cell_angle_alpha   120.12844301
_cell_angle_beta   108.89140425
_cell_angle_gamma   90.00000614
_symmetry_Int_Tables_number   1
_chemical_formula_structural   Tm2PaCoTc
_chemical_formula_sum   'Tm2 Pa1 Co1 Tc1'
_cell_volume   107.60066154
_cell_formula_units_Z   1
loop_
 _symmetry_equiv_pos_site_id
 _symmetry_equiv_pos_as_xyz
  1  'x, y, z'
loop_
 _atom_site_type_symbol
 _atom_site_label
 _atom_site_symmetry_multiplicity
 _atom_site_fract_x
 _atom_site_fract_y
 _atom_site_fract_z
 _atom_site_occupancy
  Tm  Tm0  1  0.803980  0.309308  0.607960  1
  Tm  Tm1  1  0.196020  0.701349  0.392040  1
  Pa  Pa2  1  0.000000  0.995376  0.000000  1
  Co  Co3  1  0.500000  0.709026  0.000000  1
  Tc  Tc4  1  0.500000  0.284941  0.000000  1
