# generated using pymatgen
data_DyScTi3Si7Pt9
_symmetry_space_group_name_H-M   'P 1'
_cell_length_a   9.90669200
_cell_length_b   9.90669069
_cell_length_c   3.91550800
_cell_angle_alpha   90.00000000
_cell_angle_beta   90.00000000
_cell_angle_gamma   119.99999771
_symmetry_Int_Tables_number   1
_chemical_formula_structural   DyScTi3Si7Pt9
_chemical_formula_sum   'Dy1 Sc1 Ti3 Si7 Pt9'
_cell_volume   332.79440916
_cell_formula_units_Z   1
loop_
 _symmetry_equiv_pos_site_id
 _symmetry_equiv_pos_as_xyz
  1  'x, y, z'
loop_
 _atom_site_type_symbol
 _atom_site_label
 _atom_site_symmetry_multiplicity
 _atom_site_fract_x
 _atom_site_fract_y
 _atom_site_fract_z
 _atom_site_occupancy
  Dy  Dy0  1  0.333333  0.666667  0.500000  1
  Sc  Sc1  1  0.000000  0.000000  0.000000  1
  Ti  Ti2  1  0.885764  0.455401  0.500000  1
  Ti  Ti3  1  0.569637  0.114236  0.500000  1
  Ti  Ti4  1  0.544599  0.430363  0.500000  1
  Si  Si5  1  0.249308  0.204682  0.500000  1
  Si  Si6  1  0.795318  0.044627  0.500000  1
  Si  Si7  1  0.955373  0.750692  0.500000  1
  Si  Si8  1  0.554203  0.636441  0.000000  1
  Si  Si9  1  0.363559  0.917762  0.000000  1
  Si  Si10  1  0.082238  0.445797  0.000000  1
  Si  Si11  1  0.666667  0.333333  0.000000  1
  Pt  Pt12  1  0.222180  0.944451  0.500000  1
  Pt  Pt13  1  0.055549  0.277730  0.500000  1
  Pt  Pt14  1  0.722270  0.777820  0.500000  1
  Pt  Pt15  1  0.306359  0.408596  0.000000  1
  Pt  Pt16  1  0.591404  0.897763  0.000000  1
  Pt  Pt17  1  0.102237  0.693641  0.000000  1
  Pt  Pt18  1  0.389533  0.176298  0.000000  1
  Pt  Pt19  1  0.823702  0.213236  0.000000  1
  Pt  Pt20  1  0.786764  0.610467  0.000000  1
