# generated using pymatgen
data_Dy4GeBr6
_symmetry_space_group_name_H-M   'P 1'
_cell_length_a   4.07498100
_cell_length_b   13.27382000
_cell_length_c   14.06382700
_cell_angle_alpha   90.00000000
_cell_angle_beta   90.00000000
_cell_angle_gamma   90.00000000
_symmetry_Int_Tables_number   1
_chemical_formula_structural   Dy4GeBr6
_chemical_formula_sum   'Dy8 Ge2 Br12'
_cell_volume   760.72033861
_cell_formula_units_Z   2
loop_
 _symmetry_equiv_pos_site_id
 _symmetry_equiv_pos_as_xyz
  1  'x, y, z'
loop_
 _atom_site_type_symbol
 _atom_site_label
 _atom_site_symmetry_multiplicity
 _atom_site_fract_x
 _atom_site_fract_y
 _atom_site_fract_z
 _atom_site_occupancy
  Dy  Dy0  1  0.500000  0.118619  0.340475  1
  Dy  Dy1  1  0.500000  0.881381  0.659525  1
  Dy  Dy2  1  0.500000  0.618619  0.159525  1
  Dy  Dy3  1  0.500000  0.381381  0.840475  1
  Dy  Dy4  1  0.000000  0.118432  0.578518  1
  Dy  Dy5  1  0.000000  0.881568  0.421482  1
  Dy  Dy6  1  0.000000  0.618432  0.921482  1
  Dy  Dy7  1  0.000000  0.381568  0.078518  1
  Ge  Ge8  1  0.500000  0.000000  0.500000  1
  Ge  Ge9  1  0.500000  0.500000  0.000000  1
  Br  Br10  1  0.500000  0.243949  0.162370  1
  Br  Br11  1  0.500000  0.756051  0.837630  1
  Br  Br12  1  0.500000  0.743949  0.337630  1
  Br  Br13  1  0.500000  0.256051  0.662370  1
  Br  Br14  1  0.000000  0.254761  0.411411  1
  Br  Br15  1  0.000000  0.745239  0.588589  1
  Br  Br16  1  0.000000  0.754761  0.088589  1
  Br  Br17  1  0.000000  0.245239  0.911411  1
  Br  Br18  1  0.000000  0.001703  0.243744  1
  Br  Br19  1  0.000000  0.998297  0.756256  1
  Br  Br20  1  0.000000  0.501703  0.256256  1
  Br  Br21  1  0.000000  0.498297  0.743744  1
