# generated using pymatgen
data_Ba3YLu3O9
_symmetry_space_group_name_H-M   'P 1'
_cell_length_a   9.07004476
_cell_length_b   9.07004487
_cell_length_c   9.07004559
_cell_angle_alpha   39.07668164
_cell_angle_beta   39.07667996
_cell_angle_gamma   39.07667994
_symmetry_Int_Tables_number   1
_chemical_formula_structural   Ba3YLu3O9
_chemical_formula_sum   'Ba3 Y1 Lu3 O9'
_cell_volume   266.67379240
_cell_formula_units_Z   1
loop_
 _symmetry_equiv_pos_site_id
 _symmetry_equiv_pos_as_xyz
  1  'x, y, z'
loop_
 _atom_site_type_symbol
 _atom_site_label
 _atom_site_symmetry_multiplicity
 _atom_site_fract_x
 _atom_site_fract_y
 _atom_site_fract_z
 _atom_site_occupancy
  Ba  Ba0  1  0.413763  0.413763  0.413763  1
  Ba  Ba1  1  0.835881  0.835881  0.835881  1
  Ba  Ba2  1  0.000674  0.000674  0.000674  1
  Y  Y3  1  0.575103  0.575103  0.575103  1
  Lu  Lu4  1  0.700747  0.700747  0.700747  1
  Lu  Lu5  1  0.261801  0.261801  0.261801  1
  Lu  Lu6  1  0.136479  0.136479  0.136479  1
  O  O7  1  0.437060  0.967301  0.524823  1
  O  O8  1  0.967301  0.524823  0.437060  1
  O  O9  1  0.524823  0.437060  0.967301  1
  O  O10  1  0.296318  0.883546  0.408152  1
  O  O11  1  0.883546  0.408152  0.296318  1
  O  O12  1  0.408152  0.296318  0.883546  1
  O  O13  1  0.417895  0.869019  0.968438  1
  O  O14  1  0.968438  0.417895  0.869019  1
  O  O15  1  0.869019  0.968438  0.417895  1
