# generated using pymatgen
data_K2ScP2S7
_symmetry_space_group_name_H-M   'P 1'
_cell_length_a   9.06337192
_cell_length_b   9.06337201
_cell_length_c   8.84774317
_cell_angle_alpha   73.74090721
_cell_angle_beta   73.74091081
_cell_angle_gamma   72.33250117
_symmetry_Int_Tables_number   1
_chemical_formula_structural   K2ScP2S7
_chemical_formula_sum   'K4 Sc2 P4 S14'
_cell_volume   649.53482898
_cell_formula_units_Z   2
loop_
 _symmetry_equiv_pos_site_id
 _symmetry_equiv_pos_as_xyz
  1  'x, y, z'
loop_
 _atom_site_type_symbol
 _atom_site_label
 _atom_site_symmetry_multiplicity
 _atom_site_fract_x
 _atom_site_fract_y
 _atom_site_fract_z
 _atom_site_occupancy
  K  K0  1  0.612106  0.050051  0.159922  1
  K  K1  1  0.949949  0.387894  0.840078  1
  K  K2  1  0.387894  0.949949  0.840078  1
  K  K3  1  0.050051  0.612106  0.159922  1
  Sc  Sc4  1  0.681276  0.318724  0.500000  1
  Sc  Sc5  1  0.318724  0.681276  0.500000  1
  P  P6  1  0.941128  0.941128  0.440700  1
  P  P7  1  0.058872  0.058872  0.559300  1
  P  P8  1  0.391464  0.391464  0.816004  1
  P  P9  1  0.608536  0.608536  0.183996  1
  S  S10  1  0.689359  0.368664  0.197954  1
  S  S11  1  0.631336  0.310641  0.802046  1
  S  S12  1  0.310641  0.631336  0.802046  1
  S  S13  1  0.368664  0.689359  0.197954  1
  S  S14  1  0.994600  0.994600  0.200894  1
  S  S15  1  0.005400  0.005400  0.799106  1
  S  S16  1  0.702072  0.021044  0.531724  1
  S  S17  1  0.978956  0.297928  0.468276  1
  S  S18  1  0.297928  0.978956  0.468276  1
  S  S19  1  0.021044  0.702072  0.531724  1
  S  S20  1  0.267723  0.267723  0.006928  1
  S  S21  1  0.732277  0.732277  0.993072  1
  S  S22  1  0.366521  0.366521  0.593552  1
  S  S23  1  0.633479  0.633479  0.406448  1
