# generated using pymatgen
data_Cu3BSe4
_symmetry_space_group_name_H-M   'P 1'
_cell_length_a   6.33559200
_cell_length_b   6.45263900
_cell_length_c   7.39230500
_cell_angle_alpha   90.00000000
_cell_angle_beta   90.00000000
_cell_angle_gamma   90.00000000
_symmetry_Int_Tables_number   1
_chemical_formula_structural   Cu3BSe4
_chemical_formula_sum   'Cu6 B2 Se8'
_cell_volume   302.20694989
_cell_formula_units_Z   2
loop_
 _symmetry_equiv_pos_site_id
 _symmetry_equiv_pos_as_xyz
  1  'x, y, z'
loop_
 _atom_site_type_symbol
 _atom_site_label
 _atom_site_symmetry_multiplicity
 _atom_site_fract_x
 _atom_site_fract_y
 _atom_site_fract_z
 _atom_site_occupancy
  Cu  Cu0  1  0.912936  0.825663  0.250220  1
  Cu  Cu1  1  0.412936  0.174337  0.249780  1
  Cu  Cu2  1  0.412936  0.174337  0.750220  1
  Cu  Cu3  1  0.912936  0.825663  0.749780  1
  Cu  Cu4  1  0.407156  0.648873  0.500000  1
  Cu  Cu5  1  0.907156  0.351127  0.000000  1
  B  B6  1  0.401721  0.672221  0.000000  1
  B  B7  1  0.901721  0.327779  0.500000  1
  Se  Se8  1  0.289573  0.821738  0.771440  1
  Se  Se9  1  0.789573  0.178262  0.728560  1
  Se  Se10  1  0.784146  0.629151  0.500000  1
  Se  Se11  1  0.284146  0.370849  0.000000  1
  Se  Se12  1  0.789573  0.178262  0.271440  1
  Se  Se13  1  0.289573  0.821738  0.228560  1
  Se  Se14  1  0.732718  0.677240  0.000000  1
  Se  Se15  1  0.232718  0.322760  0.500000  1
