# generated using pymatgen
data_Li2Dy2ErAgPb3
_symmetry_space_group_name_H-M   'P 1'
_cell_length_a   7.39346725
_cell_length_b   7.40040882
_cell_length_c   4.63870200
_cell_angle_alpha   90.00000000
_cell_angle_beta   90.00000000
_cell_angle_gamma   120.12918793
_symmetry_Int_Tables_number   1
_chemical_formula_structural   Li2Dy2ErAgPb3
_chemical_formula_sum   'Li2 Dy2 Er1 Ag1 Pb3'
_cell_volume   219.51496850
_cell_formula_units_Z   1
loop_
 _symmetry_equiv_pos_site_id
 _symmetry_equiv_pos_as_xyz
  1  'x, y, z'
loop_
 _atom_site_type_symbol
 _atom_site_label
 _atom_site_symmetry_multiplicity
 _atom_site_fract_x
 _atom_site_fract_y
 _atom_site_fract_z
 _atom_site_occupancy
  Li  Li0  1  0.770300  0.766599  0.000000  1
  Li  Li1  1  0.003606  0.233458  0.000000  1
  Dy  Dy2  1  0.553087  0.999928  0.500000  1
  Dy  Dy3  1  0.432067  0.428638  0.500000  1
  Er  Er4  1  0.003434  0.571715  0.500000  1
  Ag  Ag5  1  0.237723  0.999907  0.000000  1
  Pb  Pb6  1  0.987134  0.999297  0.500000  1
  Pb  Pb7  1  0.334767  0.658423  0.000000  1
  Pb  Pb8  1  0.677884  0.342036  0.000000  1
