# generated using pymatgen
data_ZrScCo3Si
_symmetry_space_group_name_H-M   'P 1'
_cell_length_a   5.05192300
_cell_length_b   5.05192218
_cell_length_c   7.59363700
_cell_angle_alpha   90.00000000
_cell_angle_beta   90.00000000
_cell_angle_gamma   119.99999881
_symmetry_Int_Tables_number   1
_chemical_formula_structural   ZrScCo3Si
_chemical_formula_sum   'Zr2 Sc2 Co6 Si2'
_cell_volume   167.83937140
_cell_formula_units_Z   2
loop_
 _symmetry_equiv_pos_site_id
 _symmetry_equiv_pos_as_xyz
  1  'x, y, z'
loop_
 _atom_site_type_symbol
 _atom_site_label
 _atom_site_symmetry_multiplicity
 _atom_site_fract_x
 _atom_site_fract_y
 _atom_site_fract_z
 _atom_site_occupancy
  Zr  Zr0  1  0.333333  0.666667  0.569571  1
  Zr  Zr1  1  0.666667  0.333333  0.430429  1
  Sc  Sc2  1  0.666667  0.333333  0.049978  1
  Sc  Sc3  1  0.333333  0.666667  0.950022  1
  Co  Co4  1  0.830845  0.169155  0.747388  1
  Co  Co5  1  0.661691  0.830845  0.252612  1
  Co  Co6  1  0.169155  0.830845  0.252612  1
  Co  Co7  1  0.830845  0.661691  0.747388  1
  Co  Co8  1  0.169155  0.338309  0.252612  1
  Co  Co9  1  0.338309  0.169155  0.747388  1
  Si  Si10  1  0.000000  0.000000  0.500000  1
  Si  Si11  1  0.000000  0.000000  0.000000  1
