# generated using pymatgen
data_Ce3Al10Si2Os3Ru
_symmetry_space_group_name_H-M   'P 1'
_cell_length_a   8.83040100
_cell_length_b   8.83040024
_cell_length_c   9.51716500
_cell_angle_alpha   90.00000000
_cell_angle_beta   90.00000000
_cell_angle_gamma   119.99999911
_symmetry_Int_Tables_number   1
_chemical_formula_structural   Ce3Al10Si2Os3Ru
_chemical_formula_sum   'Ce6 Al20 Si4 Os6 Ru2'
_cell_volume   642.68630952
_cell_formula_units_Z   2
loop_
 _symmetry_equiv_pos_site_id
 _symmetry_equiv_pos_as_xyz
  1  'x, y, z'
loop_
 _atom_site_type_symbol
 _atom_site_label
 _atom_site_symmetry_multiplicity
 _atom_site_fract_x
 _atom_site_fract_y
 _atom_site_fract_z
 _atom_site_occupancy
  Ce  Ce0  1  0.805489  0.610978  0.749569  1
  Ce  Ce1  1  0.192535  0.807465  0.250381  1
  Ce  Ce2  1  0.614931  0.807465  0.250381  1
  Ce  Ce3  1  0.389022  0.194511  0.749569  1
  Ce  Ce4  1  0.805489  0.194511  0.749569  1
  Ce  Ce5  1  0.192535  0.385069  0.250381  1
  Al  Al6  1  0.333333  0.666667  0.017022  1
  Al  Al7  1  0.163121  0.326241  0.578452  1
  Al  Al8  1  0.673759  0.836879  0.578452  1
  Al  Al9  1  0.163121  0.836879  0.578452  1
  Al  Al10  1  0.835390  0.164610  0.077260  1
  Al  Al11  1  0.835607  0.164393  0.423159  1
  Al  Al12  1  0.835390  0.670781  0.077260  1
  Al  Al13  1  0.329219  0.164610  0.077260  1
  Al  Al14  1  0.675443  0.837721  0.923478  1
  Al  Al15  1  0.162279  0.324557  0.923478  1
  Al  Al16  1  0.835607  0.671214  0.423159  1
  Al  Al17  1  0.000000  0.000000  0.750449  1
  Al  Al18  1  0.563790  0.127579  0.250903  1
  Al  Al19  1  0.436596  0.563404  0.751462  1
  Al  Al20  1  0.126807  0.563404  0.751462  1
  Al  Al21  1  0.872421  0.436210  0.250903  1
  Al  Al22  1  0.563790  0.436210  0.250903  1
  Al  Al23  1  0.436596  0.873193  0.751462  1
  Al  Al24  1  0.162279  0.837721  0.923478  1
  Al  Al25  1  0.328786  0.164393  0.423159  1
  Si  Si26  1  0.333333  0.666667  0.464721  1
  Si  Si27  1  0.666667  0.333333  0.968275  1
  Si  Si28  1  0.666667  0.333333  0.532201  1
  Si  Si29  1  0.000000  0.000000  0.250684  1
  Os  Os30  1  0.499827  0.999654  0.501241  1
  Os  Os31  1  0.503506  0.496494  0.999188  1
  Os  Os32  1  0.992988  0.496494  0.999188  1
  Os  Os33  1  0.000346  0.500173  0.501241  1
  Os  Os34  1  0.499827  0.500173  0.501241  1
  Os  Os35  1  0.503506  0.007012  0.999188  1
  Ru  Ru36  1  0.000000  0.000000  0.492654  1
  Ru  Ru37  1  0.000000  0.000000  0.008719  1
