# generated using pymatgen
data_YEr5Al16Os6Rh
_symmetry_space_group_name_H-M   'P 1'
_cell_length_a   8.92164171
_cell_length_b   8.92164122
_cell_length_c   8.93384400
_cell_angle_alpha   59.95475152
_cell_angle_beta   59.95475335
_cell_angle_gamma   60.09050658
_symmetry_Int_Tables_number   1
_chemical_formula_structural   YEr5Al16Os6Rh
_chemical_formula_sum   'Y1 Er5 Al16 Os6 Rh1'
_cell_volume   502.81857144
_cell_formula_units_Z   1
loop_
 _symmetry_equiv_pos_site_id
 _symmetry_equiv_pos_as_xyz
  1  'x, y, z'
loop_
 _atom_site_type_symbol
 _atom_site_label
 _atom_site_symmetry_multiplicity
 _atom_site_fract_x
 _atom_site_fract_y
 _atom_site_fract_z
 _atom_site_occupancy
  Y  Y0  1  0.289373  0.289373  0.710627  1
  Er  Er1  1  0.711875  0.288607  0.288125  1
  Er  Er2  1  0.711875  0.288607  0.711393  1
  Er  Er3  1  0.711561  0.711561  0.288439  1
  Er  Er4  1  0.288607  0.711875  0.711393  1
  Er  Er5  1  0.288607  0.711875  0.288125  1
  Al  Al6  1  0.632833  0.122345  0.122410  1
  Al  Al7  1  0.122345  0.632833  0.122410  1
  Al  Al8  1  0.122261  0.122261  0.632475  1
  Al  Al9  1  0.122261  0.122261  0.123001  1
  Al  Al10  1  0.367525  0.876999  0.877739  1
  Al  Al11  1  0.876999  0.367525  0.877739  1
  Al  Al12  1  0.877590  0.877590  0.367167  1
  Al  Al13  1  0.877590  0.877590  0.877655  1
  Al  Al14  1  0.999985  0.333649  0.333183  1
  Al  Al15  1  0.333649  0.999985  0.333183  1
  Al  Al16  1  0.333058  0.333058  0.000935  1
  Al  Al17  1  0.333058  0.333058  0.332951  1
  Al  Al18  1  0.999065  0.667049  0.666942  1
  Al  Al19  1  0.667049  0.999065  0.666942  1
  Al  Al20  1  0.666817  0.666817  0.000015  1
  Al  Al21  1  0.666817  0.666817  0.666351  1
  Os  Os22  1  0.500299  0.999442  0.000558  1
  Os  Os23  1  0.500299  0.999442  0.499701  1
  Os  Os24  1  0.500063  0.500063  0.999937  1
  Os  Os25  1  0.999442  0.500299  0.499701  1
  Os  Os26  1  0.999442  0.500299  0.000558  1
  Os  Os27  1  0.000063  0.000063  0.499937  1
  Rh  Rh28  1  0.999596  0.999596  0.000404  1
