# generated using pymatgen
data_Pr2ThTi(Co4P3)2
_symmetry_space_group_name_H-M   'P 1'
_cell_length_a   3.78094000
_cell_length_b   10.77857800
_cell_length_c   12.49600500
_cell_angle_alpha   90.00000000
_cell_angle_beta   90.00000000
_cell_angle_gamma   90.00000000
_symmetry_Int_Tables_number   1
_chemical_formula_structural   Pr2ThTi(Co4P3)2
_chemical_formula_sum   'Pr4 Th2 Ti2 Co16 P12'
_cell_volume   509.25164993
_cell_formula_units_Z   2
loop_
 _symmetry_equiv_pos_site_id
 _symmetry_equiv_pos_as_xyz
  1  'x, y, z'
loop_
 _atom_site_type_symbol
 _atom_site_label
 _atom_site_symmetry_multiplicity
 _atom_site_fract_x
 _atom_site_fract_y
 _atom_site_fract_z
 _atom_site_occupancy
  Pr  Pr0  1  0.500000  0.818183  0.204166  1
  Pr  Pr1  1  0.500000  0.181817  0.204166  1
  Pr  Pr2  1  0.000000  0.681817  0.795834  1
  Pr  Pr3  1  0.000000  0.318183  0.795834  1
  Th  Th4  1  0.000000  0.500000  0.526965  1
  Th  Th5  1  0.500000  0.000000  0.473035  1
  Ti  Ti6  1  0.500000  0.500000  0.150149  1
  Ti  Ti7  1  0.000000  0.000000  0.849851  1
  Co  Co8  1  0.500000  0.500000  0.697299  1
  Co  Co9  1  0.000000  0.000000  0.302701  1
  Co  Co10  1  0.000000  0.500000  0.987675  1
  Co  Co11  1  0.500000  0.000000  0.012325  1
  Co  Co12  1  0.500000  0.333040  0.994810  1
  Co  Co13  1  0.500000  0.666960  0.994810  1
  Co  Co14  1  0.000000  0.166960  0.005190  1
  Co  Co15  1  0.000000  0.833040  0.005190  1
  Co  Co16  1  0.500000  0.297727  0.432332  1
  Co  Co17  1  0.500000  0.702273  0.432332  1
  Co  Co18  1  0.000000  0.202273  0.567668  1
  Co  Co19  1  0.000000  0.797727  0.567668  1
  Co  Co20  1  0.500000  0.881510  0.706829  1
  Co  Co21  1  0.500000  0.118490  0.706829  1
  Co  Co22  1  0.000000  0.618490  0.293171  1
  Co  Co23  1  0.000000  0.381510  0.293171  1
  P  P24  1  0.500000  0.500000  0.886070  1
  P  P25  1  0.000000  0.000000  0.113930  1
  P  P26  1  0.500000  0.500000  0.346826  1
  P  P27  1  0.000000  0.000000  0.653174  1
  P  P28  1  0.500000  0.304003  0.614300  1
  P  P29  1  0.500000  0.695997  0.614300  1
  P  P30  1  0.000000  0.195997  0.385700  1
  P  P31  1  0.000000  0.804003  0.385700  1
  P  P32  1  0.500000  0.845046  0.896793  1
  P  P33  1  0.500000  0.154954  0.896793  1
  P  P34  1  0.000000  0.654954  0.103207  1
  P  P35  1  0.000000  0.345046  0.103207  1
