# generated using pymatgen
data_Ce2Si2Pt3Rh
_symmetry_space_group_name_H-M   'P 1'
_cell_length_a   9.60903430
_cell_length_b   9.60903381
_cell_length_c   4.07781200
_cell_angle_alpha   90.00000000
_cell_angle_beta   90.00000000
_cell_angle_gamma   156.06370952
_symmetry_Int_Tables_number   1
_chemical_formula_structural   Ce2Si2Pt3Rh
_chemical_formula_sum   'Ce2 Si2 Pt3 Rh1'
_cell_volume   152.76142665
_cell_formula_units_Z   1
loop_
 _symmetry_equiv_pos_site_id
 _symmetry_equiv_pos_as_xyz
  1  'x, y, z'
loop_
 _atom_site_type_symbol
 _atom_site_label
 _atom_site_symmetry_multiplicity
 _atom_site_fract_x
 _atom_site_fract_y
 _atom_site_fract_z
 _atom_site_occupancy
  Ce  Ce0  1  0.101846  0.898154  0.750000  1
  Ce  Ce1  1  0.897918  0.102082  0.250000  1
  Si  Si2  1  0.322030  0.677970  0.750000  1
  Si  Si3  1  0.677939  0.322061  0.250000  1
  Pt  Pt4  1  0.550347  0.449653  0.250000  1
  Pt  Pt5  1  0.449677  0.550323  0.750000  1
  Pt  Pt6  1  0.250299  0.749701  0.250000  1
  Rh  Rh7  1  0.749943  0.250057  0.750000  1
