# generated using pymatgen
data_Ca3(ErSn2)2
_symmetry_space_group_name_H-M   'P 1'
_cell_length_a   7.84768200
_cell_length_b   8.43263800
_cell_length_c   16.02598700
_cell_angle_alpha   90.00000000
_cell_angle_beta   90.00000000
_cell_angle_gamma   90.00000000
_symmetry_Int_Tables_number   1
_chemical_formula_structural   Ca3(ErSn2)2
_chemical_formula_sum   'Ca12 Er8 Sn16'
_cell_volume   1060.54631602
_cell_formula_units_Z   4
loop_
 _symmetry_equiv_pos_site_id
 _symmetry_equiv_pos_as_xyz
  1  'x, y, z'
loop_
 _atom_site_type_symbol
 _atom_site_label
 _atom_site_symmetry_multiplicity
 _atom_site_fract_x
 _atom_site_fract_y
 _atom_site_fract_z
 _atom_site_occupancy
  Ca  Ca0  1  0.499489  0.686511  0.593024  1
  Ca  Ca1  1  0.999489  0.813489  0.906976  1
  Ca  Ca2  1  0.500511  0.313489  0.093024  1
  Ca  Ca3  1  0.000511  0.186511  0.406976  1
  Ca  Ca4  1  0.500511  0.313489  0.406976  1
  Ca  Ca5  1  0.000511  0.186511  0.093024  1
  Ca  Ca6  1  0.499489  0.686511  0.906976  1
  Ca  Ca7  1  0.999489  0.813489  0.593024  1
  Ca  Ca8  1  0.828176  0.510584  0.750000  1
  Ca  Ca9  1  0.328176  0.989416  0.750000  1
  Ca  Ca10  1  0.171824  0.489416  0.250000  1
  Ca  Ca11  1  0.671824  0.010584  0.250000  1
  Er  Er12  1  0.667365  0.167473  0.622068  1
  Er  Er13  1  0.167365  0.332527  0.877932  1
  Er  Er14  1  0.332635  0.832527  0.122068  1
  Er  Er15  1  0.832635  0.667473  0.377932  1
  Er  Er16  1  0.332635  0.832527  0.377932  1
  Er  Er17  1  0.832635  0.667473  0.122068  1
  Er  Er18  1  0.667365  0.167473  0.877932  1
  Er  Er19  1  0.167365  0.332527  0.622068  1
  Sn  Sn20  1  0.673175  0.963662  0.460229  1
  Sn  Sn21  1  0.173175  0.536338  0.039771  1
  Sn  Sn22  1  0.326825  0.036338  0.960229  1
  Sn  Sn23  1  0.826825  0.463662  0.539771  1
  Sn  Sn24  1  0.326825  0.036338  0.539771  1
  Sn  Sn25  1  0.826825  0.463662  0.960229  1
  Sn  Sn26  1  0.673175  0.963662  0.039771  1
  Sn  Sn27  1  0.173175  0.536338  0.460229  1
  Sn  Sn28  1  0.463597  0.373159  0.750000  1
  Sn  Sn29  1  0.963597  0.126841  0.750000  1
  Sn  Sn30  1  0.536403  0.626841  0.250000  1
  Sn  Sn31  1  0.036403  0.873159  0.250000  1
  Sn  Sn32  1  0.709252  0.874990  0.750000  1
  Sn  Sn33  1  0.209252  0.625010  0.750000  1
  Sn  Sn34  1  0.290748  0.125010  0.250000  1
  Sn  Sn35  1  0.790748  0.374990  0.250000  1
