# generated using pymatgen
data_HfBe3NiIr
_symmetry_space_group_name_H-M   'P 1'
_cell_length_a   4.43504241
_cell_length_b   4.43504293
_cell_length_c   4.43504300
_cell_angle_alpha   61.83706471
_cell_angle_beta   61.83706111
_cell_angle_gamma   61.83705624
_symmetry_Int_Tables_number   1
_chemical_formula_structural   HfBe3NiIr
_chemical_formula_sum   'Hf1 Be3 Ni1 Ir1'
_cell_volume   64.22248537
_cell_formula_units_Z   1
loop_
 _symmetry_equiv_pos_site_id
 _symmetry_equiv_pos_as_xyz
  1  'x, y, z'
loop_
 _atom_site_type_symbol
 _atom_site_label
 _atom_site_symmetry_multiplicity
 _atom_site_fract_x
 _atom_site_fract_y
 _atom_site_fract_z
 _atom_site_occupancy
  Hf  Hf0  1  0.999860  0.999860  0.999860  1
  Be  Be1  1  0.378769  0.866653  0.378769  1
  Be  Be2  1  0.378769  0.378769  0.866653  1
  Be  Be3  1  0.866653  0.378769  0.378769  1
  Ni  Ni4  1  0.372743  0.372743  0.372743  1
  Ir  Ir5  1  0.753207  0.753207  0.753207  1
