# generated using pymatgen
data_Tm2Al3Cu7
_symmetry_space_group_name_H-M   'P 1'
_cell_length_a   4.17573400
_cell_length_b   5.05718750
_cell_length_c   8.76846309
_cell_angle_alpha   90.65227341
_cell_angle_beta   90.00000000
_cell_angle_gamma   90.00000000
_symmetry_Int_Tables_number   1
_chemical_formula_structural   Tm2Al3Cu7
_chemical_formula_sum   'Tm2 Al3 Cu7'
_cell_volume   185.15575530
_cell_formula_units_Z   1
loop_
 _symmetry_equiv_pos_site_id
 _symmetry_equiv_pos_as_xyz
  1  'x, y, z'
loop_
 _atom_site_type_symbol
 _atom_site_label
 _atom_site_symmetry_multiplicity
 _atom_site_fract_x
 _atom_site_fract_y
 _atom_site_fract_z
 _atom_site_occupancy
  Tm  Tm0  1  0.000000  0.001657  0.998689  1
  Tm  Tm1  1  0.000000  0.498467  0.500948  1
  Al  Al2  1  0.500000  0.515097  0.995166  1
  Al  Al3  1  0.500000  0.984763  0.504756  1
  Al  Al4  1  0.500000  0.249517  0.249822  1
  Cu  Cu5  1  0.000000  0.998112  0.334676  1
  Cu  Cu6  1  0.000000  0.498062  0.833422  1
  Cu  Cu7  1  0.000000  0.501097  0.165041  1
  Cu  Cu8  1  0.000000  0.001786  0.666956  1
  Cu  Cu9  1  0.500000  0.750517  0.750752  1
  Cu  Cu10  1  0.500000  0.750428  0.250195  1
  Cu  Cu11  1  0.500000  0.250297  0.749577  1
