# generated using pymatgen
data_CeDy3Al17SiIr6
_symmetry_space_group_name_H-M   'P 1'
_cell_length_a   7.55296194
_cell_length_b   7.55395095
_cell_length_c   9.38950300
_cell_angle_alpha   90.00000000
_cell_angle_beta   90.00000000
_cell_angle_gamma   119.60971869
_symmetry_Int_Tables_number   1
_chemical_formula_structural   CeDy3Al17SiIr6
_chemical_formula_sum   'Ce1 Dy3 Al17 Si1 Ir6'
_cell_volume   465.75685909
_cell_formula_units_Z   1
loop_
 _symmetry_equiv_pos_site_id
 _symmetry_equiv_pos_as_xyz
  1  'x, y, z'
loop_
 _atom_site_type_symbol
 _atom_site_label
 _atom_site_symmetry_multiplicity
 _atom_site_fract_x
 _atom_site_fract_y
 _atom_site_fract_z
 _atom_site_occupancy
  Ce  Ce0  1  0.994411  0.675662  0.750000  1
  Dy  Dy1  1  0.004841  0.329444  0.250000  1
  Dy  Dy2  1  0.676269  0.994626  0.750000  1
  Dy  Dy3  1  0.329471  0.004099  0.250000  1
  Al  Al4  1  0.873887  0.874988  0.250000  1
  Al  Al5  1  0.001396  0.335468  0.575744  1
  Al  Al6  1  0.998704  0.664833  0.421766  1
  Al  Al7  1  0.998704  0.664833  0.078234  1
  Al  Al8  1  0.339061  0.002563  0.924578  1
  Al  Al9  1  0.001396  0.335468  0.924256  1
  Al  Al10  1  0.665182  0.999594  0.076438  1
  Al  Al11  1  0.665182  0.999594  0.423562  1
  Al  Al12  1  0.339061  0.002563  0.575422  1
  Al  Al13  1  0.332300  0.332332  0.058166  1
  Al  Al14  1  0.662254  0.663947  0.950954  1
  Al  Al15  1  0.662254  0.663947  0.549046  1
  Al  Al16  1  0.332300  0.332332  0.441834  1
  Al  Al17  1  0.338228  0.548504  0.750000  1
  Al  Al18  1  0.659879  0.449981  0.250000  1
  Al  Al19  1  0.546391  0.335682  0.750000  1
  Al  Al20  1  0.451071  0.661054  0.250000  1
  Si  Si21  1  0.132043  0.132428  0.750000  1
  Ir  Ir22  1  0.670736  0.327250  0.500796  1
  Ir  Ir23  1  0.326551  0.670553  0.500630  1
  Ir  Ir24  1  0.326551  0.670553  0.999370  1
  Ir  Ir25  1  0.670736  0.327250  0.999204  1
  Ir  Ir26  1  0.000571  0.000225  0.507054  1
  Ir  Ir27  1  0.000571  0.000225  0.992946  1
