# generated using pymatgen
data_Mn5Cu2Pt9
_symmetry_space_group_name_H-M   'P 1'
_cell_length_a   6.75874992
_cell_length_b   6.75875026
_cell_length_c   6.75874941
_cell_angle_alpha   107.29388163
_cell_angle_beta   107.29387841
_cell_angle_gamma   113.91959229
_symmetry_Int_Tables_number   1
_chemical_formula_structural   Mn5Cu2Pt9
_chemical_formula_sum   'Mn5 Cu2 Pt9'
_cell_volume   236.58842209
_cell_formula_units_Z   1
loop_
 _symmetry_equiv_pos_site_id
 _symmetry_equiv_pos_as_xyz
  1  'x, y, z'
loop_
 _atom_site_type_symbol
 _atom_site_label
 _atom_site_symmetry_multiplicity
 _atom_site_fract_x
 _atom_site_fract_y
 _atom_site_fract_z
 _atom_site_occupancy
  Mn  Mn0  1  0.500000  0.500000  0.000000  1
  Mn  Mn1  1  0.238968  0.238968  0.477935  1
  Mn  Mn2  1  0.761032  0.761032  0.522065  1
  Mn  Mn3  1  0.238968  0.761032  0.000000  1
  Mn  Mn4  1  0.761032  0.238968  0.000000  1
  Cu  Cu5  1  0.500000  0.000000  0.500000  1
  Cu  Cu6  1  0.000000  0.500000  0.500000  1
  Pt  Pt7  1  0.516120  0.262842  0.253278  1
  Pt  Pt8  1  0.483880  0.737158  0.746722  1
  Pt  Pt9  1  0.009564  0.262842  0.746722  1
  Pt  Pt10  1  0.262842  0.009564  0.746722  1
  Pt  Pt11  1  0.990436  0.737158  0.253278  1
  Pt  Pt12  1  0.737158  0.990436  0.253278  1
  Pt  Pt13  1  0.262842  0.516120  0.253278  1
  Pt  Pt14  1  0.737158  0.483880  0.746722  1
  Pt  Pt15  1  0.000000  0.000000  0.000000  1
