# generated using pymatgen
data_LaYb4Eu2Ni4Sn13
_symmetry_space_group_name_H-M   'P 1'
_cell_length_a   11.31226900
_cell_length_b   11.31226900
_cell_length_c   4.62702600
_cell_angle_alpha   90.00000000
_cell_angle_beta   90.00000000
_cell_angle_gamma   90.00000000
_symmetry_Int_Tables_number   1
_chemical_formula_structural   LaYb4Eu2Ni4Sn13
_chemical_formula_sum   'La1 Yb4 Eu2 Ni4 Sn13'
_cell_volume   592.10862543
_cell_formula_units_Z   1
loop_
 _symmetry_equiv_pos_site_id
 _symmetry_equiv_pos_as_xyz
  1  'x, y, z'
loop_
 _atom_site_type_symbol
 _atom_site_label
 _atom_site_symmetry_multiplicity
 _atom_site_fract_x
 _atom_site_fract_y
 _atom_site_fract_z
 _atom_site_occupancy
  La  La0  1  0.000000  0.000000  0.000000  1
  Yb  Yb1  1  0.337841  0.670735  0.500000  1
  Yb  Yb2  1  0.662159  0.329265  0.500000  1
  Yb  Yb3  1  0.329265  0.337841  0.500000  1
  Yb  Yb4  1  0.670735  0.662159  0.500000  1
  Eu  Eu5  1  0.500000  0.000000  0.500000  1
  Eu  Eu6  1  0.000000  0.500000  0.500000  1
  Ni  Ni7  1  0.121218  0.722859  0.000000  1
  Ni  Ni8  1  0.878782  0.277141  0.000000  1
  Ni  Ni9  1  0.277141  0.121218  0.000000  1
  Ni  Ni10  1  0.722859  0.878782  0.000000  1
  Sn  Sn11  1  0.286316  0.888202  0.000000  1
  Sn  Sn12  1  0.713684  0.111798  0.000000  1
  Sn  Sn13  1  0.111798  0.286316  0.000000  1
  Sn  Sn14  1  0.888202  0.713684  0.000000  1
  Sn  Sn15  1  0.076883  0.805462  0.500000  1
  Sn  Sn16  1  0.923117  0.194538  0.500000  1
  Sn  Sn17  1  0.194538  0.076883  0.500000  1
  Sn  Sn18  1  0.805462  0.923117  0.500000  1
  Sn  Sn19  1  0.518825  0.781381  0.000000  1
  Sn  Sn20  1  0.481175  0.218619  0.000000  1
  Sn  Sn21  1  0.218619  0.518825  0.000000  1
  Sn  Sn22  1  0.781381  0.481175  0.000000  1
  Sn  Sn23  1  0.500000  0.500000  0.000000  1
