# generated using pymatgen
data_Tb2Er4GaNiOs
_symmetry_space_group_name_H-M   'P 1'
_cell_length_a   8.31549366
_cell_length_b   8.31549487
_cell_length_c   8.31549490
_cell_angle_alpha   113.25568326
_cell_angle_beta   110.13605146
_cell_angle_gamma   105.12432937
_symmetry_Int_Tables_number   1
_chemical_formula_structural   Tb2Er4GaNiOs
_chemical_formula_sum   'Tb4 Er8 Ga2 Ni2 Os2'
_cell_volume   440.38495475
_cell_formula_units_Z   2
loop_
 _symmetry_equiv_pos_site_id
 _symmetry_equiv_pos_as_xyz
  1  'x, y, z'
loop_
 _atom_site_type_symbol
 _atom_site_label
 _atom_site_symmetry_multiplicity
 _atom_site_fract_x
 _atom_site_fract_y
 _atom_site_fract_z
 _atom_site_occupancy
  Tb  Tb0  1  0.049816  0.742886  0.306930  1
  Tb  Tb1  1  0.950184  0.257114  0.693070  1
  Tb  Tb2  1  0.564045  0.257114  0.306930  1
  Tb  Tb3  1  0.435955  0.742886  0.693070  1
  Er  Er4  1  0.668739  0.855389  0.186649  1
  Er  Er5  1  0.331261  0.517910  0.186649  1
  Er  Er6  1  0.331261  0.144611  0.813351  1
  Er  Er7  1  0.668739  0.482090  0.813351  1
  Er  Er8  1  0.179558  0.221935  0.401493  1
  Er  Er9  1  0.820442  0.221935  0.042377  1
  Er  Er10  1  0.179558  0.778065  0.957623  1
  Er  Er11  1  0.820442  0.778065  0.598507  1
  Ga  Ga12  1  0.000000  0.500000  0.500000  1
  Ga  Ga13  1  0.500000  0.000000  0.500000  1
  Ni  Ni14  1  0.883376  0.883376  0.000000  1
  Ni  Ni15  1  0.116624  0.116624  0.000000  1
  Os  Os16  1  0.669988  0.500000  0.169988  1
  Os  Os17  1  0.330012  0.500000  0.830012  1
