# generated using pymatgen
data_Y3Lu9CdCo5
_symmetry_space_group_name_H-M   'P 1'
_cell_length_a   8.13354512
_cell_length_b   8.13067991
_cell_length_c   8.13067900
_cell_angle_alpha   106.66178770
_cell_angle_beta   111.03222384
_cell_angle_gamma   110.74038118
_symmetry_Int_Tables_number   1
_chemical_formula_structural   Y3Lu9CdCo5
_chemical_formula_sum   'Y3 Lu9 Cd1 Co5'
_cell_volume   413.25158442
_cell_formula_units_Z   1
loop_
 _symmetry_equiv_pos_site_id
 _symmetry_equiv_pos_as_xyz
  1  'x, y, z'
loop_
 _atom_site_type_symbol
 _atom_site_label
 _atom_site_symmetry_multiplicity
 _atom_site_fract_x
 _atom_site_fract_y
 _atom_site_fract_z
 _atom_site_occupancy
  Y  Y0  1  0.475978  0.287857  0.188121  1
  Y  Y1  1  0.099941  0.287933  0.812008  1
  Y  Y2  1  0.899954  0.713375  0.186578  1
  Lu  Lu3  1  0.526694  0.713159  0.813537  1
  Lu  Lu4  1  0.307230  0.620758  0.315842  1
  Lu  Lu5  1  0.307230  0.991389  0.686473  1
  Lu  Lu6  1  0.693092  0.379892  0.686016  1
  Lu  Lu7  1  0.693092  0.007075  0.313199  1
  Lu  Lu8  1  0.193747  0.215335  0.407455  1
  Lu  Lu9  1  0.807341  0.786614  0.596163  1
  Lu  Lu10  1  0.193747  0.786292  0.978410  1
  Lu  Lu11  1  0.807341  0.211178  0.020729  1
  Cd  Cd12  1  0.999593  0.499889  0.499704  1
  Co  Co13  1  0.498678  0.615558  0.111402  1
  Co  Co14  1  0.498678  0.387276  0.883119  1
  Co  Co15  1  0.376043  0.999862  0.376182  1
  Co  Co16  1  0.622985  0.998615  0.624370  1
  Co  Co17  1  0.998634  0.997942  0.000692  1
