# generated using pymatgen
data_Nd3Er13(ScBi3)4
_symmetry_space_group_name_H-M   'P 1'
_cell_length_a   8.24395303
_cell_length_b   9.49837300
_cell_length_c   12.15889000
_cell_angle_alpha   90.00000000
_cell_angle_beta   90.02866195
_cell_angle_gamma   90.00000000
_symmetry_Int_Tables_number   1
_chemical_formula_structural   Nd3Er13(ScBi3)4
_chemical_formula_sum   'Nd3 Er13 Sc4 Bi12'
_cell_volume   952.09131647
_cell_formula_units_Z   1
loop_
 _symmetry_equiv_pos_site_id
 _symmetry_equiv_pos_as_xyz
  1  'x, y, z'
loop_
 _atom_site_type_symbol
 _atom_site_label
 _atom_site_symmetry_multiplicity
 _atom_site_fract_x
 _atom_site_fract_y
 _atom_site_fract_z
 _atom_site_occupancy
  Nd  Nd0  1  0.182352  0.750000  0.721318  1
  Nd  Nd1  1  0.682875  0.750000  0.778355  1
  Nd  Nd2  1  0.817108  0.250000  0.278771  1
  Er  Er3  1  0.315245  0.250000  0.220295  1
  Er  Er4  1  0.303355  0.435106  0.940766  1
  Er  Er5  1  0.804366  0.065577  0.559451  1
  Er  Er6  1  0.697661  0.935535  0.059918  1
  Er  Er7  1  0.195467  0.564751  0.439226  1
  Er  Er8  1  0.697661  0.564465  0.059918  1
  Er  Er9  1  0.195467  0.935249  0.439226  1
  Er  Er10  1  0.303355  0.064894  0.940766  1
  Er  Er11  1  0.804366  0.434423  0.559451  1
  Er  Er12  1  0.354324  0.750000  0.217587  1
  Er  Er13  1  0.855080  0.750000  0.281517  1
  Er  Er14  1  0.645265  0.250000  0.783724  1
  Er  Er15  1  0.146645  0.250000  0.716725  1
  Sc  Sc16  1  0.025395  0.750000  0.989508  1
  Sc  Sc17  1  0.523224  0.750000  0.510644  1
  Sc  Sc18  1  0.976063  0.250000  0.012969  1
  Sc  Sc19  1  0.475507  0.250000  0.487858  1
  Bi  Bi20  1  0.434735  0.009088  0.665780  1
  Bi  Bi21  1  0.934463  0.490641  0.834771  1
  Bi  Bi22  1  0.562291  0.506183  0.332707  1
  Bi  Bi23  1  0.069378  0.994133  0.167195  1
  Bi  Bi24  1  0.562291  0.993817  0.332707  1
  Bi  Bi25  1  0.069378  0.505867  0.167195  1
  Bi  Bi26  1  0.434735  0.490912  0.665780  1
  Bi  Bi27  1  0.934463  0.009359  0.834771  1
  Bi  Bi28  1  0.403514  0.750000  0.963528  1
  Bi  Bi29  1  0.902014  0.750000  0.536068  1
  Bi  Bi30  1  0.592256  0.250000  0.040131  1
  Bi  Bi31  1  0.099697  0.250000  0.461379  1
