# generated using pymatgen
data_YEr19Cd3Ni2Ag3
_symmetry_space_group_name_H-M   'P 1'
_cell_length_a   9.55381930
_cell_length_b   9.54966160
_cell_length_c   9.47808100
_cell_angle_alpha   90.00000000
_cell_angle_beta   90.00000000
_cell_angle_gamma   119.98559529
_symmetry_Int_Tables_number   1
_chemical_formula_structural   YEr19Cd3Ni2Ag3
_chemical_formula_sum   'Y1 Er19 Cd3 Ni2 Ag3'
_cell_volume   748.99526589
_cell_formula_units_Z   1
loop_
 _symmetry_equiv_pos_site_id
 _symmetry_equiv_pos_as_xyz
  1  'x, y, z'
loop_
 _atom_site_type_symbol
 _atom_site_label
 _atom_site_symmetry_multiplicity
 _atom_site_fract_x
 _atom_site_fract_y
 _atom_site_fract_z
 _atom_site_occupancy
  Y  Y0  1  0.087374  0.543687  0.750000  1
  Er  Er1  1  0.999731  0.999865  0.471553  1
  Er  Er2  1  0.999731  0.999865  0.028447  1
  Er  Er3  1  0.542939  0.457400  0.250000  1
  Er  Er4  1  0.542939  0.085538  0.250000  1
  Er  Er5  1  0.914605  0.457302  0.250000  1
  Er  Er6  1  0.457198  0.543639  0.750000  1
  Er  Er7  1  0.457198  0.913559  0.750000  1
  Er  Er8  1  0.211191  0.789615  0.437765  1
  Er  Er9  1  0.211191  0.421576  0.437765  1
  Er  Er10  1  0.578097  0.789048  0.438297  1
  Er  Er11  1  0.789093  0.209605  0.559976  1
  Er  Er12  1  0.789093  0.579487  0.559976  1
  Er  Er13  1  0.420527  0.210263  0.560405  1
  Er  Er14  1  0.789093  0.209605  0.940024  1
  Er  Er15  1  0.789093  0.579487  0.940024  1
  Er  Er16  1  0.420527  0.210263  0.939595  1
  Er  Er17  1  0.211191  0.789615  0.062235  1
  Er  Er18  1  0.211191  0.421576  0.062235  1
  Er  Er19  1  0.578097  0.789048  0.061703  1
  Cd  Cd20  1  0.110975  0.889524  0.750000  1
  Cd  Cd21  1  0.110975  0.221450  0.750000  1
  Cd  Cd22  1  0.778120  0.889059  0.750000  1
  Ni  Ni23  1  0.333359  0.666680  0.250000  1
  Ni  Ni24  1  0.666563  0.333281  0.750000  1
  Ag  Ag25  1  0.875100  0.124836  0.250000  1
  Ag  Ag26  1  0.875100  0.750265  0.250000  1
  Ag  Ag27  1  0.249712  0.124856  0.250000  1
