# generated using pymatgen
data_PrTh2(AlIr)3
_symmetry_space_group_name_H-M   'P 1'
_cell_length_a   7.18221000
_cell_length_b   7.25591545
_cell_length_c   4.16197900
_cell_angle_alpha   90.00000000
_cell_angle_beta   90.00000000
_cell_angle_gamma   119.66453269
_symmetry_Int_Tables_number   1
_chemical_formula_structural   PrTh2(AlIr)3
_chemical_formula_sum   'Pr1 Th2 Al3 Ir3'
_cell_volume   188.46860272
_cell_formula_units_Z   1
loop_
 _symmetry_equiv_pos_site_id
 _symmetry_equiv_pos_as_xyz
  1  'x, y, z'
loop_
 _atom_site_type_symbol
 _atom_site_label
 _atom_site_symmetry_multiplicity
 _atom_site_fract_x
 _atom_site_fract_y
 _atom_site_fract_z
 _atom_site_occupancy
  Pr  Pr0  1  0.417679  0.000000  0.500000  1
  Th  Th1  1  0.001495  0.419014  0.500000  1
  Th  Th2  1  0.582482  0.580986  0.500000  1
  Al  Al3  1  0.764259  0.000000  0.000000  1
  Al  Al4  1  0.003432  0.774991  0.000000  1
  Al  Al5  1  0.228440  0.225009  0.000000  1
  Ir  Ir6  1  0.328550  0.642408  0.000000  1
  Ir  Ir7  1  0.686143  0.357592  0.000000  1
  Ir  Ir8  1  0.987521  0.000000  0.500000  1
