# generated using pymatgen
data_Ac2URu2
_symmetry_space_group_name_H-M   'P 1'
_cell_length_a   6.41879489
_cell_length_b   6.41879674
_cell_length_c   6.41879690
_cell_angle_alpha   142.08985857
_cell_angle_beta   122.24414939
_cell_angle_gamma   71.18560545
_symmetry_Int_Tables_number   1
_chemical_formula_structural   Ac2URu2
_chemical_formula_sum   'Ac2 U1 Ru2'
_cell_volume   134.94397264
_cell_formula_units_Z   1
loop_
 _symmetry_equiv_pos_site_id
 _symmetry_equiv_pos_as_xyz
  1  'x, y, z'
loop_
 _atom_site_type_symbol
 _atom_site_label
 _atom_site_symmetry_multiplicity
 _atom_site_fract_x
 _atom_site_fract_y
 _atom_site_fract_z
 _atom_site_occupancy
  Ac  Ac0  1  0.692012  0.192013  0.500000  1
  Ac  Ac1  1  0.307987  0.807987  0.500000  1
  U  U2  1  0.000000  0.000000  0.000000  1
  Ru  Ru3  1  0.771786  0.500000  0.271786  1
  Ru  Ru4  1  0.228213  0.500000  0.728213  1
