# generated using pymatgen
data_Ac2TiIrF14
_symmetry_space_group_name_H-M   'P 1'
_cell_length_a   5.88447393
_cell_length_b   6.28350787
_cell_length_c   8.54799000
_cell_angle_alpha   78.20374054
_cell_angle_beta   90.12905128
_cell_angle_gamma   89.88046924
_symmetry_Int_Tables_number   1
_chemical_formula_structural   Ac2TiIrF14
_chemical_formula_sum   'Ac2 Ti1 Ir1 F14'
_cell_volume   309.38626006
_cell_formula_units_Z   1
loop_
 _symmetry_equiv_pos_site_id
 _symmetry_equiv_pos_as_xyz
  1  'x, y, z'
loop_
 _atom_site_type_symbol
 _atom_site_label
 _atom_site_symmetry_multiplicity
 _atom_site_fract_x
 _atom_site_fract_y
 _atom_site_fract_z
 _atom_site_occupancy
  Ac  Ac0  1  0.202100  0.664542  0.308885  1
  Ac  Ac1  1  0.704056  0.333529  0.688758  1
  Ti  Ti2  1  0.712448  0.193387  0.219775  1
  Ir  Ir3  1  0.215002  0.805647  0.778011  1
  F  F4  1  0.361171  0.423741  0.533062  1
  F  F5  1  0.862832  0.582367  0.467309  1
  F  F6  1  0.916625  0.960836  0.219885  1
  F  F7  1  0.407572  0.054561  0.784867  1
  F  F8  1  0.467509  0.993134  0.237563  1
  F  F9  1  0.943288  0.997849  0.763736  1
  F  F10  1  0.513242  0.430734  0.213336  1
  F  F11  1  0.022785  0.550726  0.785390  1
  F  F12  1  0.200313  0.754638  0.009511  1
  F  F13  1  0.701959  0.240483  0.995682  1
  F  F14  1  0.233445  0.867148  0.545399  1
  F  F15  1  0.726729  0.146385  0.445299  1
  F  F16  1  0.969188  0.378560  0.209021  1
  F  F17  1  0.492459  0.621732  0.794511  1
