# generated using pymatgen
data_NaTb6IrBr12
_symmetry_space_group_name_H-M   'P 1'
_cell_length_a   9.30744427
_cell_length_b   9.31403412
_cell_length_c   9.29990571
_cell_angle_alpha   107.00215587
_cell_angle_beta   106.91133335
_cell_angle_gamma   107.02951107
_symmetry_Int_Tables_number   1
_chemical_formula_structural   NaTb6IrBr12
_chemical_formula_sum   'Na1 Tb6 Ir1 Br12'
_cell_volume   671.76437606
_cell_formula_units_Z   1
loop_
 _symmetry_equiv_pos_site_id
 _symmetry_equiv_pos_as_xyz
  1  'x, y, z'
loop_
 _atom_site_type_symbol
 _atom_site_label
 _atom_site_symmetry_multiplicity
 _atom_site_fract_x
 _atom_site_fract_y
 _atom_site_fract_z
 _atom_site_occupancy
  Na  Na0  1  0.500000  0.500000  0.500000  1
  Tb  Tb1  1  0.109326  0.318960  0.029663  1
  Tb  Tb2  1  0.317606  0.029247  0.108918  1
  Tb  Tb3  1  0.029890  0.108242  0.317609  1
  Tb  Tb4  1  0.970111  0.891758  0.682392  1
  Tb  Tb5  1  0.682394  0.970754  0.891082  1
  Tb  Tb6  1  0.890674  0.681040  0.970337  1
  Ir  Ir7  1  0.000000  0.000000  0.000000  1
  Br  Br8  1  0.216637  0.680190  0.073179  1
  Br  Br9  1  0.449818  0.369123  0.147834  1
  Br  Br10  1  0.681007  0.073083  0.216985  1
  Br  Br11  1  0.927001  0.782768  0.319627  1
  Br  Br12  1  0.147912  0.449670  0.369636  1
  Br  Br13  1  0.369813  0.148202  0.450284  1
  Br  Br14  1  0.630187  0.851798  0.549717  1
  Br  Br15  1  0.852089  0.550330  0.630364  1
  Br  Br16  1  0.073000  0.217232  0.680374  1
  Br  Br17  1  0.318994  0.926918  0.783015  1
  Br  Br18  1  0.550182  0.630877  0.852167  1
  Br  Br19  1  0.783363  0.319810  0.926821  1
