# generated using pymatgen
data_Dy3YAl18Co5Pt
_symmetry_space_group_name_H-M   'P 1'
_cell_length_a   7.41738820
_cell_length_b   7.41722492
_cell_length_c   9.33973616
_cell_angle_alpha   89.85337988
_cell_angle_beta   89.85262868
_cell_angle_gamma   119.17020629
_symmetry_Int_Tables_number   1
_chemical_formula_structural   Dy3YAl18Co5Pt
_chemical_formula_sum   'Dy3 Y1 Al18 Co5 Pt1'
_cell_volume   448.66594132
_cell_formula_units_Z   1
loop_
 _symmetry_equiv_pos_site_id
 _symmetry_equiv_pos_as_xyz
  1  'x, y, z'
loop_
 _atom_site_type_symbol
 _atom_site_label
 _atom_site_symmetry_multiplicity
 _atom_site_fract_x
 _atom_site_fract_y
 _atom_site_fract_z
 _atom_site_occupancy
  Dy  Dy0  1  0.994391  0.674490  0.251346  1
  Dy  Dy1  1  0.005616  0.325478  0.748647  1
  Dy  Dy2  1  0.674453  0.994369  0.251345  1
  Y  Y3  1  0.325483  0.005621  0.748664  1
  Al  Al4  1  0.131900  0.131886  0.258530  1
  Al  Al5  1  0.868138  0.868220  0.741472  1
  Al  Al6  1  0.332346  0.332402  0.542020  1
  Al  Al7  1  0.660086  0.660118  0.046703  1
  Al  Al8  1  0.339878  0.339967  0.953376  1
  Al  Al9  1  0.667643  0.667646  0.457902  1
  Al  Al10  1  0.339787  0.555566  0.251257  1
  Al  Al11  1  0.660375  0.444517  0.748713  1
  Al  Al12  1  0.555539  0.339775  0.251288  1
  Al  Al13  1  0.444417  0.660212  0.748744  1
  Al  Al14  1  0.999653  0.344097  0.074187  1
  Al  Al15  1  0.002725  0.663987  0.570587  1
  Al  Al16  1  0.335961  0.997203  0.429350  1
  Al  Al17  1  0.655954  0.000330  0.925812  1
  Al  Al18  1  0.000347  0.655869  0.925812  1
  Al  Al19  1  0.997213  0.335963  0.429423  1
  Al  Al20  1  0.664091  0.002781  0.570588  1
  Al  Al21  1  0.344065  0.999572  0.074260  1
  Co  Co22  1  0.999945  0.999982  0.499899  1
  Co  Co23  1  0.670873  0.329147  0.000025  1
  Co  Co24  1  0.328970  0.670993  0.499961  1
  Co  Co25  1  0.329138  0.670824  0.000037  1
  Co  Co26  1  0.671064  0.328999  0.499967  1
  Pt  Pt27  1  0.999950  0.999987  0.000084  1
