# generated using pymatgen
data_Sc8Ti11Si16Ag
_symmetry_space_group_name_H-M   'P 1'
_cell_length_a   6.89928376
_cell_length_b   6.89928349
_cell_length_c   12.56380426
_cell_angle_alpha   90.12059761
_cell_angle_beta   89.87940236
_cell_angle_gamma   89.84906808
_symmetry_Int_Tables_number   1
_chemical_formula_structural   Sc8Ti11Si16Ag
_chemical_formula_sum   'Sc8 Ti11 Si16 Ag1'
_cell_volume   598.03378998
_cell_formula_units_Z   1
loop_
 _symmetry_equiv_pos_site_id
 _symmetry_equiv_pos_as_xyz
  1  'x, y, z'
loop_
 _atom_site_type_symbol
 _atom_site_label
 _atom_site_symmetry_multiplicity
 _atom_site_fract_x
 _atom_site_fract_y
 _atom_site_fract_z
 _atom_site_occupancy
  Sc  Sc0  1  0.001681  0.658527  0.031404  1
  Sc  Sc1  1  0.840082  0.500750  0.283589  1
  Sc  Sc2  1  0.158206  0.499452  0.784122  1
  Sc  Sc3  1  0.500750  0.840082  0.716411  1
  Sc  Sc4  1  0.499452  0.158206  0.215878  1
  Sc  Sc5  1  0.999886  0.340263  0.533121  1
  Sc  Sc6  1  0.658527  0.001681  0.968596  1
  Sc  Sc7  1  0.340263  0.999886  0.466879  1
  Ti  Ti8  1  0.171542  0.828546  0.249903  1
  Ti  Ti9  1  0.828546  0.171542  0.750097  1
  Ti  Ti10  1  0.670944  0.670944  0.500000  1
  Ti  Ti11  1  0.005179  0.147870  0.125587  1
  Ti  Ti12  1  0.351217  0.505778  0.375886  1
  Ti  Ti13  1  0.650935  0.495878  0.877199  1
  Ti  Ti14  1  0.505778  0.351217  0.624114  1
  Ti  Ti15  1  0.495878  0.650935  0.122801  1
  Ti  Ti16  1  0.993725  0.851080  0.626093  1
  Ti  Ti17  1  0.147870  0.005179  0.874413  1
  Ti  Ti18  1  0.851080  0.993725  0.373907  1
  Si  Si19  1  0.290180  0.942805  0.064888  1
  Si  Si20  1  0.544066  0.797421  0.314172  1
  Si  Si21  1  0.456811  0.199982  0.809882  1
  Si  Si22  1  0.797421  0.544066  0.685828  1
  Si  Si23  1  0.199982  0.456811  0.190118  1
  Si  Si24  1  0.702821  0.045490  0.563905  1
  Si  Si25  1  0.942805  0.290180  0.935112  1
  Si  Si26  1  0.045490  0.702821  0.436095  1
  Si  Si27  1  0.720729  0.371837  0.075742  1
  Si  Si28  1  0.137509  0.205058  0.320388  1
  Si  Si29  1  0.862151  0.794967  0.821385  1
  Si  Si30  1  0.205058  0.137509  0.679612  1
  Si  Si31  1  0.794967  0.862151  0.178615  1
  Si  Si32  1  0.292725  0.636159  0.571648  1
  Si  Si33  1  0.371837  0.720729  0.924258  1
  Si  Si34  1  0.636159  0.292725  0.428352  1
  Ag  Ag35  1  0.327749  0.327749  0.000000  1
