# generated using pymatgen
data_Zr8Si16Os10RuW
_symmetry_space_group_name_H-M   'P 1'
_cell_length_a   9.96690560
_cell_length_b   10.00889915
_cell_length_c   13.43846996
_cell_angle_alpha   53.89207714
_cell_angle_beta   53.89169257
_cell_angle_gamma   31.42510152
_symmetry_Int_Tables_number   1
_chemical_formula_structural   Zr8Si16Os10RuW
_chemical_formula_sum   'Zr8 Si16 Os10 Ru1 W1'
_cell_volume   552.67879220
_cell_formula_units_Z   1
loop_
 _symmetry_equiv_pos_site_id
 _symmetry_equiv_pos_as_xyz
  1  'x, y, z'
loop_
 _atom_site_type_symbol
 _atom_site_label
 _atom_site_symmetry_multiplicity
 _atom_site_fract_x
 _atom_site_fract_y
 _atom_site_fract_z
 _atom_site_occupancy
  Zr  Zr0  1  0.039956  0.293939  0.636022  1
  Zr  Zr1  1  0.704731  0.959613  0.867042  1
  Zr  Zr2  1  0.962250  0.702959  0.363718  1
  Zr  Zr3  1  0.291609  0.040757  0.136049  1
  Zr  Zr4  1  0.296330  0.553944  0.650383  1
  Zr  Zr5  1  0.450425  0.696407  0.853496  1
  Zr  Zr6  1  0.707139  0.444423  0.345231  1
  Zr  Zr7  1  0.554280  0.302283  0.146677  1
  Si  Si8  1  0.969743  0.253046  0.894674  1
  Si  Si9  1  0.749912  0.022216  0.607645  1
  Si  Si10  1  0.025961  0.747892  0.106761  1
  Si  Si11  1  0.252457  0.974745  0.393051  1
  Si  Si12  1  0.140621  0.391018  0.898670  1
  Si  Si13  1  0.613303  0.857014  0.604436  1
  Si  Si14  1  0.857308  0.614707  0.101526  1
  Si  Si15  1  0.387852  0.143733  0.395360  1
  Si  Si16  1  0.089239  0.570710  0.563425  1
  Si  Si17  1  0.417375  0.927297  0.931599  1
  Si  Si18  1  0.909708  0.429229  0.435932  1
  Si  Si19  1  0.571922  0.085929  0.066486  1
  Si  Si20  1  0.623005  0.378479  0.749811  1
  Si  Si21  1  0.377671  0.616504  0.252786  1
  Si  Si22  1  0.128915  0.872237  0.749045  1
  Si  Si23  1  0.871084  0.125093  0.252711  1
  Os  Os24  1  0.904335  0.135833  0.584648  1
  Os  Os25  1  0.869200  0.088173  0.915369  1
  Os  Os26  1  0.100677  0.859090  0.416196  1
  Os  Os27  1  0.136696  0.905529  0.084461  1
  Os  Os28  1  0.829785  0.645218  0.780334  1
  Os  Os29  1  0.354508  0.171353  0.718016  1
  Os  Os30  1  0.169910  0.355188  0.218667  1
  Os  Os31  1  0.645023  0.829557  0.282638  1
  Os  Os32  1  0.244854  0.517525  0.927804  1
  Os  Os33  1  0.480169  0.769562  0.569237  1
  Ru  Ru34  1  0.521396  0.226892  0.434558  1
  W  W35  1  0.750650  0.491906  0.065535  1
