# generated using pymatgen
data_Pr2Tm2Zn10SiSn
_symmetry_space_group_name_H-M   'P 1'
_cell_length_a   8.34846156
_cell_length_b   8.34846187
_cell_length_c   8.88899500
_cell_angle_alpha   90.00000000
_cell_angle_beta   90.00000000
_cell_angle_gamma   149.65056484
_symmetry_Int_Tables_number   1
_chemical_formula_structural   Pr2Tm2Zn10SiSn
_chemical_formula_sum   'Pr2 Tm2 Zn10 Si1 Sn1'
_cell_volume   313.03373246
_cell_formula_units_Z   1
loop_
 _symmetry_equiv_pos_site_id
 _symmetry_equiv_pos_as_xyz
  1  'x, y, z'
loop_
 _atom_site_type_symbol
 _atom_site_label
 _atom_site_symmetry_multiplicity
 _atom_site_fract_x
 _atom_site_fract_y
 _atom_site_fract_z
 _atom_site_occupancy
  Pr  Pr0  1  0.001008  0.998992  0.486675  1
  Pr  Pr1  1  0.001008  0.998992  0.013325  1
  Tm  Tm2  1  0.200509  0.799491  0.250000  1
  Tm  Tm3  1  0.795666  0.204334  0.750000  1
  Zn  Zn4  1  0.811261  0.188739  0.390234  1
  Zn  Zn5  1  0.187689  0.812311  0.607108  1
  Zn  Zn6  1  0.811261  0.188739  0.109766  1
  Zn  Zn7  1  0.187689  0.812311  0.892892  1
  Zn  Zn8  1  0.652763  0.347237  0.471916  1
  Zn  Zn9  1  0.342132  0.657868  0.516605  1
  Zn  Zn10  1  0.652763  0.347237  0.028084  1
  Zn  Zn11  1  0.342132  0.657868  0.983395  1
  Zn  Zn12  1  0.402789  0.597211  0.250000  1
  Zn  Zn13  1  0.607748  0.392252  0.750000  1
  Si  Si14  1  0.559132  0.440868  0.250000  1
  Sn  Sn15  1  0.444449  0.555551  0.750000  1
