# generated using pymatgen
data_YbEr3(Si5Pt3)2
_symmetry_space_group_name_H-M   'P 1'
_cell_length_a   8.15105857
_cell_length_b   8.15877842
_cell_length_c   8.15877946
_cell_angle_alpha   136.79216730
_cell_angle_beta   103.85328890
_cell_angle_gamma   91.83063703
_symmetry_Int_Tables_number   1
_chemical_formula_structural   YbEr3(Si5Pt3)2
_chemical_formula_sum   'Yb1 Er3 Si10 Pt6'
_cell_volume   342.83231239
_cell_formula_units_Z   1
loop_
 _symmetry_equiv_pos_site_id
 _symmetry_equiv_pos_as_xyz
  1  'x, y, z'
loop_
 _atom_site_type_symbol
 _atom_site_label
 _atom_site_symmetry_multiplicity
 _atom_site_fract_x
 _atom_site_fract_y
 _atom_site_fract_z
 _atom_site_occupancy
  Yb  Yb0  1  0.862302  0.628783  0.233519  1
  Er  Er1  1  0.140174  0.370588  0.769586  1
  Er  Er2  1  0.398940  0.128775  0.270165  1
  Er  Er3  1  0.601546  0.871796  0.729751  1
  Si  Si4  1  0.500661  0.747096  0.247967  1
  Si  Si5  1  0.500661  0.252694  0.753566  1
  Si  Si6  1  0.228280  0.979721  0.748649  1
  Si  Si7  1  0.771448  0.522154  0.752116  1
  Si  Si8  1  0.771448  0.019331  0.249294  1
  Si  Si9  1  0.228280  0.479631  0.248559  1
  Si  Si10  1  0.040158  0.888888  0.151269  1
  Si  Si11  1  0.959153  0.111582  0.847570  1
  Si  Si12  1  0.736149  0.386661  0.349489  1
  Si  Si13  1  0.262114  0.611826  0.650289  1
  Pt  Pt14  1  0.000222  0.750042  0.750206  1
  Pt  Pt15  1  0.000222  0.250016  0.250179  1
  Pt  Pt16  1  0.248607  0.864051  0.384557  1
  Pt  Pt17  1  0.751330  0.137139  0.614190  1
  Pt  Pt18  1  0.477564  0.361374  0.116191  1
  Pt  Pt19  1  0.520742  0.637853  0.882889  1
