# generated using pymatgen
data_Eu2GaPt3
_symmetry_space_group_name_H-M   'P 1'
_cell_length_a   5.37949653
_cell_length_b   5.68337827
_cell_length_c   5.68337900
_cell_angle_alpha   60.00000155
_cell_angle_beta   58.11308639
_cell_angle_gamma   58.11308853
_symmetry_Int_Tables_number   1
_chemical_formula_structural   Eu2GaPt3
_chemical_formula_sum   'Eu2 Ga1 Pt3'
_cell_volume   119.24655443
_cell_formula_units_Z   1
loop_
 _symmetry_equiv_pos_site_id
 _symmetry_equiv_pos_as_xyz
  1  'x, y, z'
loop_
 _atom_site_type_symbol
 _atom_site_label
 _atom_site_symmetry_multiplicity
 _atom_site_fract_x
 _atom_site_fract_y
 _atom_site_fract_z
 _atom_site_occupancy
  Eu  Eu0  1  0.254316  0.248561  0.248561  1
  Eu  Eu1  1  0.995684  0.001439  0.001439  1
  Ga  Ga2  1  0.125000  0.625000  0.625000  1
  Pt  Pt3  1  0.625000  0.125000  0.625000  1
  Pt  Pt4  1  0.625000  0.625000  0.125000  1
  Pt  Pt5  1  0.625000  0.625000  0.625000  1
