# generated using pymatgen
data_Zr9Ti10Si16W
_symmetry_space_group_name_H-M   'P 1'
_cell_length_a   6.86529732
_cell_length_b   6.86441161
_cell_length_c   12.57279033
_cell_angle_alpha   90.12421456
_cell_angle_beta   89.85576372
_cell_angle_gamma   90.02311711
_symmetry_Int_Tables_number   1
_chemical_formula_structural   Zr9Ti10Si16W
_chemical_formula_sum   'Zr9 Ti10 Si16 W1'
_cell_volume   592.50484977
_cell_formula_units_Z   1
loop_
 _symmetry_equiv_pos_site_id
 _symmetry_equiv_pos_as_xyz
  1  'x, y, z'
loop_
 _atom_site_type_symbol
 _atom_site_label
 _atom_site_symmetry_multiplicity
 _atom_site_fract_x
 _atom_site_fract_y
 _atom_site_fract_z
 _atom_site_occupancy
  Zr  Zr0  1  0.153161  0.001130  0.872841  1
  Zr  Zr1  1  0.002000  0.657054  0.033521  1
  Zr  Zr2  1  0.996652  0.343919  0.530902  1
  Zr  Zr3  1  0.656336  0.002773  0.968462  1
  Zr  Zr4  1  0.157346  0.497962  0.782075  1
  Zr  Zr5  1  0.842647  0.502039  0.281892  1
  Zr  Zr6  1  0.499105  0.158550  0.219103  1
  Zr  Zr7  1  0.500612  0.841656  0.716332  1
  Zr  Zr8  1  0.342739  0.998241  0.467004  1
  Ti  Ti9  1  0.347187  0.504632  0.376435  1
  Ti  Ti10  1  0.846142  0.995589  0.372444  1
  Ti  Ti11  1  0.006456  0.154617  0.126843  1
  Ti  Ti12  1  0.994503  0.846755  0.627144  1
  Ti  Ti13  1  0.652547  0.493599  0.877865  1
  Ti  Ti14  1  0.504814  0.348941  0.621901  1
  Ti  Ti15  1  0.496612  0.651117  0.123995  1
  Ti  Ti16  1  0.671261  0.672203  0.499679  1
  Ti  Ti17  1  0.827593  0.173144  0.749018  1
  Ti  Ti18  1  0.171606  0.828482  0.250898  1
  Si  Si19  1  0.045049  0.707108  0.436540  1
  Si  Si20  1  0.952122  0.299484  0.937193  1
  Si  Si21  1  0.706231  0.046047  0.562849  1
  Si  Si22  1  0.206916  0.454615  0.187512  1
  Si  Si23  1  0.793711  0.544798  0.685159  1
  Si  Si24  1  0.459687  0.208805  0.811208  1
  Si  Si25  1  0.546050  0.793751  0.314208  1
  Si  Si26  1  0.297192  0.953639  0.068830  1
  Si  Si27  1  0.855298  0.790049  0.820469  1
  Si  Si28  1  0.133668  0.205867  0.322986  1
  Si  Si29  1  0.795168  0.866542  0.178019  1
  Si  Si30  1  0.292473  0.634333  0.571569  1
  Si  Si31  1  0.706172  0.365483  0.074260  1
  Si  Si32  1  0.634043  0.294133  0.427416  1
  Si  Si33  1  0.368875  0.697624  0.929736  1
  Si  Si34  1  0.206863  0.136533  0.672346  1
  W  W35  1  0.331163  0.328784  0.001347  1
