# generated using pymatgen
data_Nd2Ag2GePRh4
_symmetry_space_group_name_H-M   'P 1'
_cell_length_a   4.04620200
_cell_length_b   4.04620200
_cell_length_c   11.40582100
_cell_angle_alpha   90.00000000
_cell_angle_beta   90.00000000
_cell_angle_gamma   90.00000000
_symmetry_Int_Tables_number   1
_chemical_formula_structural   Nd2Ag2GePRh4
_chemical_formula_sum   'Nd2 Ag2 Ge1 P1 Rh4'
_cell_volume   186.73325708
_cell_formula_units_Z   1
loop_
 _symmetry_equiv_pos_site_id
 _symmetry_equiv_pos_as_xyz
  1  'x, y, z'
loop_
 _atom_site_type_symbol
 _atom_site_label
 _atom_site_symmetry_multiplicity
 _atom_site_fract_x
 _atom_site_fract_y
 _atom_site_fract_z
 _atom_site_occupancy
  Nd  Nd0  1  0.000000  0.500000  0.243755  1
  Nd  Nd1  1  0.500000  0.000000  0.750221  1
  Ag  Ag2  1  0.000000  0.000000  0.495696  1
  Ag  Ag3  1  0.500000  0.500000  0.495696  1
  Ge  Ge4  1  0.000000  0.500000  0.881900  1
  P  P5  1  0.500000  0.000000  0.119649  1
  Rh  Rh6  1  0.000000  0.000000  0.011785  1
  Rh  Rh7  1  0.500000  0.500000  0.011785  1
  Rh  Rh8  1  0.000000  0.500000  0.670955  1
  Rh  Rh9  1  0.500000  0.000000  0.318556  1
