# generated using pymatgen
data_Er18Tm2Si15Au
_symmetry_space_group_name_H-M   'P 1'
_cell_length_a   7.32242601
_cell_length_b   7.62932535
_cell_length_c   14.51192800
_cell_angle_alpha   90.00000000
_cell_angle_beta   90.00000000
_cell_angle_gamma   90.56387178
_symmetry_Int_Tables_number   1
_chemical_formula_structural   Er18Tm2Si15Au
_chemical_formula_sum   'Er18 Tm2 Si15 Au1'
_cell_volume   810.67207009
_cell_formula_units_Z   1
loop_
 _symmetry_equiv_pos_site_id
 _symmetry_equiv_pos_as_xyz
  1  'x, y, z'
loop_
 _atom_site_type_symbol
 _atom_site_label
 _atom_site_symmetry_multiplicity
 _atom_site_fract_x
 _atom_site_fract_y
 _atom_site_fract_z
 _atom_site_occupancy
  Er  Er0  1  0.024997  0.823973  0.592152  1
  Er  Er1  1  0.529388  0.682018  0.593060  1
  Er  Er2  1  0.317324  0.821765  0.123531  1
  Er  Er3  1  0.816817  0.677859  0.124308  1
  Er  Er4  1  0.857491  0.520763  0.750000  1
  Er  Er5  1  0.471924  0.316162  0.097739  1
  Er  Er6  1  0.024997  0.823973  0.907848  1
  Er  Er7  1  0.471924  0.316162  0.402261  1
  Er  Er8  1  0.529388  0.682018  0.906940  1
  Er  Er9  1  0.683069  0.179194  0.878678  1
  Er  Er10  1  0.184346  0.317811  0.619493  1
  Er  Er11  1  0.184346  0.317811  0.880507  1
  Er  Er12  1  0.816817  0.677859  0.375692  1
  Er  Er13  1  0.317324  0.821765  0.376469  1
  Er  Er14  1  0.347653  0.984938  0.750000  1
  Er  Er15  1  0.683069  0.179194  0.621322  1
  Er  Er16  1  0.970797  0.181953  0.099260  1
  Er  Er17  1  0.970797  0.181953  0.400740  1
  Tm  Tm18  1  0.647464  0.011306  0.250000  1
  Tm  Tm19  1  0.147018  0.486915  0.250000  1
  Si  Si20  1  0.649829  0.971259  0.457950  1
  Si  Si21  1  0.353338  0.026526  0.540002  1
  Si  Si22  1  0.019588  0.895220  0.250000  1
  Si  Si23  1  0.734130  0.877390  0.750000  1
  Si  Si24  1  0.265478  0.127509  0.250000  1
  Si  Si25  1  0.852846  0.470822  0.538673  1
  Si  Si26  1  0.483852  0.391228  0.750000  1
  Si  Si27  1  0.146191  0.526831  0.457642  1
  Si  Si28  1  0.146191  0.526831  0.042358  1
  Si  Si29  1  0.976015  0.108371  0.750000  1
  Si  Si30  1  0.764786  0.370730  0.250000  1
  Si  Si31  1  0.353338  0.026526  0.959998  1
  Si  Si32  1  0.852846  0.470822  0.961327  1
  Si  Si33  1  0.649829  0.971259  0.042050  1
  Si  Si34  1  0.517550  0.604984  0.250000  1
  Au  Au35  1  0.237240  0.628303  0.750000  1
