# generated using pymatgen
data_HoMn4MoP3
_symmetry_space_group_name_H-M   'P 1'
_cell_length_a   3.65841500
_cell_length_b   10.77429500
_cell_length_c   12.25721400
_cell_angle_alpha   90.00000000
_cell_angle_beta   90.00000000
_cell_angle_gamma   90.00000000
_symmetry_Int_Tables_number   1
_chemical_formula_structural   HoMn4MoP3
_chemical_formula_sum   'Ho4 Mn16 Mo4 P12'
_cell_volume   483.14067302
_cell_formula_units_Z   4
loop_
 _symmetry_equiv_pos_site_id
 _symmetry_equiv_pos_as_xyz
  1  'x, y, z'
loop_
 _atom_site_type_symbol
 _atom_site_label
 _atom_site_symmetry_multiplicity
 _atom_site_fract_x
 _atom_site_fract_y
 _atom_site_fract_z
 _atom_site_occupancy
  Ho  Ho0  1  0.250000  0.587346  0.706601  1
  Ho  Ho1  1  0.250000  0.912654  0.206601  1
  Ho  Ho2  1  0.750000  0.412654  0.293399  1
  Ho  Ho3  1  0.750000  0.087346  0.793399  1
  Mn  Mn4  1  0.250000  0.411313  0.493524  1
  Mn  Mn5  1  0.250000  0.088687  0.993524  1
  Mn  Mn6  1  0.750000  0.588687  0.506476  1
  Mn  Mn7  1  0.750000  0.911313  0.006476  1
  Mn  Mn8  1  0.250000  0.211621  0.181703  1
  Mn  Mn9  1  0.250000  0.288379  0.681703  1
  Mn  Mn10  1  0.750000  0.788379  0.818297  1
  Mn  Mn11  1  0.750000  0.711621  0.318297  1
  Mn  Mn12  1  0.250000  0.883944  0.693508  1
  Mn  Mn13  1  0.250000  0.616056  0.193508  1
  Mn  Mn14  1  0.750000  0.116056  0.306492  1
  Mn  Mn15  1  0.750000  0.383944  0.806492  1
  Mn  Mn16  1  0.250000  0.465487  0.934475  1
  Mn  Mn17  1  0.250000  0.034513  0.434475  1
  Mn  Mn18  1  0.750000  0.534513  0.065525  1
  Mn  Mn19  1  0.750000  0.965487  0.565525  1
  Mo  Mo20  1  0.250000  0.711025  0.981766  1
  Mo  Mo21  1  0.250000  0.788975  0.481766  1
  Mo  Mo22  1  0.750000  0.288975  0.018234  1
  Mo  Mo23  1  0.750000  0.211025  0.518234  1
  P  P24  1  0.250000  0.414531  0.117705  1
  P  P25  1  0.250000  0.085469  0.617705  1
  P  P26  1  0.750000  0.585469  0.882295  1
  P  P27  1  0.750000  0.914531  0.382295  1
  P  P28  1  0.250000  0.264255  0.872240  1
  P  P29  1  0.250000  0.235745  0.372240  1
  P  P30  1  0.750000  0.735745  0.127760  1
  P  P31  1  0.750000  0.764255  0.627760  1
  P  P32  1  0.250000  0.589913  0.383178  1
  P  P33  1  0.250000  0.910087  0.883178  1
  P  P34  1  0.750000  0.410087  0.616822  1
  P  P35  1  0.750000  0.089913  0.116822  1
