# generated using pymatgen
data_TbHoInCuNi
_symmetry_space_group_name_H-M   'P 1'
_cell_length_a   7.38677988
_cell_length_b   7.38678197
_cell_length_c   3.58889900
_cell_angle_alpha   90.00000000
_cell_angle_beta   90.00000000
_cell_angle_gamma   147.60076275
_symmetry_Int_Tables_number   1
_chemical_formula_structural   TbHoInCuNi
_chemical_formula_sum   'Tb1 Ho1 In1 Cu1 Ni1'
_cell_volume   104.92693612
_cell_formula_units_Z   1
loop_
 _symmetry_equiv_pos_site_id
 _symmetry_equiv_pos_as_xyz
  1  'x, y, z'
loop_
 _atom_site_type_symbol
 _atom_site_label
 _atom_site_symmetry_multiplicity
 _atom_site_fract_x
 _atom_site_fract_y
 _atom_site_fract_z
 _atom_site_occupancy
  Tb  Tb0  1  0.365472  0.634528  0.500000  1
  Ho  Ho1  1  0.637707  0.362293  0.500000  1
  In  In2  1  0.998484  0.001516  0.000000  1
  Cu  Cu3  1  0.200605  0.799395  0.000000  1
  Ni  Ni4  1  0.797732  0.202268  0.000000  1
