# generated using pymatgen
data_LiPr4(Ga2Pt)5
_symmetry_space_group_name_H-M   'P 1'
_cell_length_a   8.73049500
_cell_length_b   8.73049455
_cell_length_c   8.73049300
_cell_angle_alpha   140.24283246
_cell_angle_beta   106.51745757
_cell_angle_gamma   86.95791688
_symmetry_Int_Tables_number   1
_chemical_formula_structural   LiPr4(Ga2Pt)5
_chemical_formula_sum   'Li1 Pr4 Ga10 Pt5'
_cell_volume   392.87372051
_cell_formula_units_Z   1
loop_
 _symmetry_equiv_pos_site_id
 _symmetry_equiv_pos_as_xyz
  1  'x, y, z'
loop_
 _atom_site_type_symbol
 _atom_site_label
 _atom_site_symmetry_multiplicity
 _atom_site_fract_x
 _atom_site_fract_y
 _atom_site_fract_z
 _atom_site_occupancy
  Li  Li0  1  0.000000  0.750000  0.750000  1
  Pr  Pr1  1  0.861491  0.633994  0.227433  1
  Pr  Pr2  1  0.138509  0.365943  0.772503  1
  Pr  Pr3  1  0.406561  0.134057  0.272567  1
  Pr  Pr4  1  0.593439  0.866006  0.727497  1
  Ga  Ga5  1  0.500000  0.750000  0.250000  1
  Ga  Ga6  1  0.500000  0.250000  0.750000  1
  Ga  Ga7  1  0.219971  0.969971  0.750000  1
  Ga  Ga8  1  0.780029  0.530029  0.750000  1
  Ga  Ga9  1  0.782672  0.032672  0.250000  1
  Ga  Ga10  1  0.217328  0.467328  0.250000  1
  Ga  Ga11  1  0.053145  0.894778  0.154114  1
  Ga  Ga12  1  0.946855  0.100969  0.841634  1
  Ga  Ga13  1  0.740663  0.399031  0.345886  1
  Ga  Ga14  1  0.259337  0.605222  0.658366  1
  Pt  Pt15  1  0.000000  0.250000  0.250000  1
  Pt  Pt16  1  0.252783  0.857766  0.390767  1
  Pt  Pt17  1  0.747217  0.137981  0.604981  1
  Pt  Pt18  1  0.467000  0.362019  0.109233  1
  Pt  Pt19  1  0.533000  0.642234  0.895019  1
