# generated using pymatgen
data_CaPuAg2(NO3)8
_symmetry_space_group_name_H-M   'P 1'
_cell_length_a   7.98180476
_cell_length_b   7.82195653
_cell_length_c   7.93614818
_cell_angle_alpha   92.65389194
_cell_angle_beta   86.41706403
_cell_angle_gamma   91.33507455
_symmetry_Int_Tables_number   1
_chemical_formula_structural   CaPuAg2(NO3)8
_chemical_formula_sum   'Ca1 Pu1 Ag2 N8 O24'
_cell_volume   493.87781948
_cell_formula_units_Z   1
loop_
 _symmetry_equiv_pos_site_id
 _symmetry_equiv_pos_as_xyz
  1  'x, y, z'
loop_
 _atom_site_type_symbol
 _atom_site_label
 _atom_site_symmetry_multiplicity
 _atom_site_fract_x
 _atom_site_fract_y
 _atom_site_fract_z
 _atom_site_occupancy
  Ca  Ca0  1  0.000000  0.000000  0.000000  1
  Pu  Pu1  1  0.000000  0.500000  0.500000  1
  Ag  Ag2  1  0.500000  0.500000  0.000000  1
  Ag  Ag3  1  0.500000  0.000000  0.500000  1
  N  N4  1  0.311431  0.355577  0.338536  1
  N  N5  1  0.343578  0.166312  0.834034  1
  N  N6  1  0.138649  0.814129  0.334937  1
  N  N7  1  0.861402  0.314813  0.183924  1
  N  N8  1  0.688569  0.644423  0.661464  1
  N  N9  1  0.138598  0.685187  0.816076  1
  N  N10  1  0.861351  0.185871  0.665063  1
  N  N11  1  0.656422  0.833688  0.165966  1
  O  O12  1  0.798366  0.260273  0.051438  1
  O  O13  1  0.186767  0.943712  0.259591  1
  O  O14  1  0.212179  0.759134  0.458846  1
  O  O15  1  0.240817  0.187063  0.961400  1
  O  O16  1  0.241281  0.311196  0.481169  1
  O  O17  1  0.443477  0.292991  0.279073  1
  O  O18  1  0.232944  0.468886  0.264280  1
  O  O19  1  0.186981  0.547658  0.737578  1
  O  O20  1  0.991249  0.272404  0.710074  1
  O  O21  1  0.679386  0.960625  0.269256  1
  O  O22  1  0.021367  0.766861  0.754933  1
  O  O23  1  0.533898  0.731358  0.190696  1
  O  O24  1  0.813233  0.056288  0.740409  1
  O  O25  1  0.787821  0.240866  0.541154  1
  O  O26  1  0.759183  0.812937  0.038600  1
  O  O27  1  0.201634  0.739727  0.948562  1
  O  O28  1  0.758719  0.688804  0.518831  1
  O  O29  1  0.556523  0.707009  0.720927  1
  O  O30  1  0.767056  0.531114  0.735720  1
  O  O31  1  0.813019  0.452342  0.262422  1
  O  O32  1  0.008751  0.727596  0.289926  1
  O  O33  1  0.320614  0.039375  0.730744  1
  O  O34  1  0.978633  0.233139  0.245067  1
  O  O35  1  0.466102  0.268642  0.809304  1
