# generated using pymatgen
data_TmLu3(WN2)4
_symmetry_space_group_name_H-M   'P 1'
_cell_length_a   3.15603800
_cell_length_b   5.64600231
_cell_length_c   10.45451258
_cell_angle_alpha   90.03807060
_cell_angle_beta   90.00000000
_cell_angle_gamma   90.00000000
_symmetry_Int_Tables_number   1
_chemical_formula_structural   TmLu3(WN2)4
_chemical_formula_sum   'Tm1 Lu3 W4 N8'
_cell_volume   186.28889594
_cell_formula_units_Z   1
loop_
 _symmetry_equiv_pos_site_id
 _symmetry_equiv_pos_as_xyz
  1  'x, y, z'
loop_
 _atom_site_type_symbol
 _atom_site_label
 _atom_site_symmetry_multiplicity
 _atom_site_fract_x
 _atom_site_fract_y
 _atom_site_fract_z
 _atom_site_occupancy
  Tm  Tm0  1  0.750000  0.919524  0.854374  1
  Lu  Lu1  1  0.250000  0.579827  0.354420  1
  Lu  Lu2  1  0.250000  0.079902  0.145775  1
  Lu  Lu3  1  0.750000  0.420093  0.645395  1
  W  W4  1  0.250000  0.931667  0.595048  1
  W  W5  1  0.250000  0.431089  0.904575  1
  W  W6  1  0.750000  0.068590  0.404632  1
  W  W7  1  0.750000  0.568588  0.095486  1
  N  N8  1  0.250000  0.662241  0.747104  1
  N  N9  1  0.250000  0.164648  0.751676  1
  N  N10  1  0.750000  0.336746  0.252572  1
  N  N11  1  0.750000  0.836878  0.247610  1
  N  N12  1  0.250000  0.269031  0.494894  1
  N  N13  1  0.250000  0.768040  0.005916  1
  N  N14  1  0.750000  0.731104  0.504905  1
  N  N15  1  0.750000  0.232034  0.995617  1
