# generated using pymatgen
data_CaPr3(In2Pd3)4
_symmetry_space_group_name_H-M   'P 1'
_cell_length_a   4.68634700
_cell_length_b   10.04756510
_cell_length_c   10.35358000
_cell_angle_alpha   90.00823434
_cell_angle_beta   90.00000000
_cell_angle_gamma   90.00000000
_symmetry_Int_Tables_number   1
_chemical_formula_structural   CaPr3(In2Pd3)4
_chemical_formula_sum   'Ca1 Pr3 In8 Pd12'
_cell_volume   487.51256181
_cell_formula_units_Z   1
loop_
 _symmetry_equiv_pos_site_id
 _symmetry_equiv_pos_as_xyz
  1  'x, y, z'
loop_
 _atom_site_type_symbol
 _atom_site_label
 _atom_site_symmetry_multiplicity
 _atom_site_fract_x
 _atom_site_fract_y
 _atom_site_fract_z
 _atom_site_occupancy
  Ca  Ca0  1  0.750000  0.942580  0.770881  1
  Pr  Pr1  1  0.250000  0.443386  0.730432  1
  Pr  Pr2  1  0.250000  0.057041  0.229946  1
  Pr  Pr3  1  0.750000  0.556571  0.269942  1
  In  In4  1  0.250000  0.883812  0.516553  1
  In  In5  1  0.250000  0.616478  0.015229  1
  In  In6  1  0.750000  0.115436  0.486378  1
  In  In7  1  0.750000  0.384109  0.983532  1
  In  In8  1  0.250000  0.156610  0.892775  1
  In  In9  1  0.250000  0.341549  0.394648  1
  In  In10  1  0.750000  0.841979  0.103467  1
  In  In11  1  0.750000  0.660525  0.607477  1
  Pd  Pd12  1  0.250000  0.143733  0.618797  1
  Pd  Pd13  1  0.250000  0.356199  0.118863  1
  Pd  Pd14  1  0.750000  0.855972  0.380106  1
  Pd  Pd15  1  0.750000  0.644501  0.881265  1
  Pd  Pd16  1  0.250000  0.738684  0.741181  1
  Pd  Pd17  1  0.250000  0.761346  0.242244  1
  Pd  Pd18  1  0.750000  0.260789  0.257940  1
  Pd  Pd19  1  0.750000  0.237465  0.758184  1
  Pd  Pd20  1  0.250000  0.894807  0.974826  1
  Pd  Pd21  1  0.250000  0.605907  0.474460  1
  Pd  Pd22  1  0.750000  0.105414  0.025415  1
  Pd  Pd23  1  0.750000  0.395106  0.525459  1
