# generated using pymatgen
data_Dy5Pb3O
_symmetry_space_group_name_H-M   'P 1'
_cell_length_a   9.11275857
_cell_length_b   9.11275941
_cell_length_c   9.11275913
_cell_angle_alpha   125.79165948
_cell_angle_beta   125.79165423
_cell_angle_gamma   80.23083237
_symmetry_Int_Tables_number   1
_chemical_formula_structural   Dy5Pb3O
_chemical_formula_sum   'Dy10 Pb6 O2'
_cell_volume   480.52280012
_cell_formula_units_Z   2
loop_
 _symmetry_equiv_pos_site_id
 _symmetry_equiv_pos_as_xyz
  1  'x, y, z'
loop_
 _atom_site_type_symbol
 _atom_site_label
 _atom_site_symmetry_multiplicity
 _atom_site_fract_x
 _atom_site_fract_y
 _atom_site_fract_z
 _atom_site_occupancy
  Dy  Dy0  1  0.998541  0.198904  0.500000  1
  Dy  Dy1  1  0.801096  0.301096  0.799637  1
  Dy  Dy2  1  0.498541  0.998541  0.799637  1
  Dy  Dy3  1  0.501459  0.001459  0.200363  1
  Dy  Dy4  1  0.001459  0.801096  0.500000  1
  Dy  Dy5  1  0.500000  0.500000  0.000000  1
  Dy  Dy6  1  0.198904  0.698904  0.200363  1
  Dy  Dy7  1  0.698904  0.498541  0.500000  1
  Dy  Dy8  1  0.301096  0.501459  0.500000  1
  Dy  Dy9  1  0.000000  0.000000  0.000000  1
  Pb  Pb10  1  0.852191  0.352191  0.204383  1
  Pb  Pb11  1  0.147809  0.647809  0.795617  1
  Pb  Pb12  1  0.352191  0.147809  0.500000  1
  Pb  Pb13  1  0.750000  0.750000  0.000000  1
  Pb  Pb14  1  0.647809  0.852191  0.500000  1
  Pb  Pb15  1  0.250000  0.250000  0.000000  1
  O  O16  1  0.750000  0.250000  0.500000  1
  O  O17  1  0.250000  0.750000  0.500000  1
