# generated using pymatgen
data_Tm3GaSn2Pt3
_symmetry_space_group_name_H-M   'P 1'
_cell_length_a   7.56744389
_cell_length_b   7.49965906
_cell_length_c   3.78642500
_cell_angle_alpha   90.00000000
_cell_angle_beta   90.00000000
_cell_angle_gamma   119.70413710
_symmetry_Int_Tables_number   1
_chemical_formula_structural   Tm3GaSn2Pt3
_chemical_formula_sum   'Tm3 Ga1 Sn2 Pt3'
_cell_volume   186.65420704
_cell_formula_units_Z   1
loop_
 _symmetry_equiv_pos_site_id
 _symmetry_equiv_pos_as_xyz
  1  'x, y, z'
loop_
 _atom_site_type_symbol
 _atom_site_label
 _atom_site_symmetry_multiplicity
 _atom_site_fract_x
 _atom_site_fract_y
 _atom_site_fract_z
 _atom_site_occupancy
  Tm  Tm0  1  0.000000  0.415368  0.000000  1
  Tm  Tm1  1  0.607239  0.598489  0.000000  1
  Tm  Tm2  1  0.392761  0.991251  0.000000  1
  Ga  Ga3  1  0.000000  0.735863  0.500000  1
  Sn  Sn4  1  0.261899  0.261591  0.500000  1
  Sn  Sn5  1  0.738101  0.999692  0.500000  1
  Pt  Pt6  1  0.327776  0.669312  0.500000  1
  Pt  Pt7  1  0.672224  0.341534  0.500000  1
  Pt  Pt8  1  0.000000  0.986899  0.000000  1
