# generated using pymatgen
data_Tm7Co4Sn23Ru2
_symmetry_space_group_name_H-M   'P 1'
_cell_length_a   9.71115164
_cell_length_b   9.71115096
_cell_length_c   9.98793420
_cell_angle_alpha   90.28119778
_cell_angle_beta   89.71880136
_cell_angle_gamma   119.89065138
_symmetry_Int_Tables_number   1
_chemical_formula_structural   Tm7Co4Sn23Ru2
_chemical_formula_sum   'Tm7 Co4 Sn23 Ru2'
_cell_volume   816.61667753
_cell_formula_units_Z   1
loop_
 _symmetry_equiv_pos_site_id
 _symmetry_equiv_pos_as_xyz
  1  'x, y, z'
loop_
 _atom_site_type_symbol
 _atom_site_label
 _atom_site_symmetry_multiplicity
 _atom_site_fract_x
 _atom_site_fract_y
 _atom_site_fract_z
 _atom_site_occupancy
  Tm  Tm0  1  0.480939  0.519061  0.306743  1
  Tm  Tm1  1  0.519061  0.480939  0.693257  1
  Tm  Tm2  1  0.482549  0.961837  0.305786  1
  Tm  Tm3  1  0.517451  0.038163  0.694214  1
  Tm  Tm4  1  0.038163  0.517451  0.305786  1
  Tm  Tm5  1  0.961837  0.482549  0.694214  1
  Tm  Tm6  1  0.000000  0.000000  0.000000  1
  Co  Co7  1  0.829968  0.661980  0.198209  1
  Co  Co8  1  0.170032  0.338020  0.801791  1
  Co  Co9  1  0.338020  0.170032  0.198209  1
  Co  Co10  1  0.661980  0.829968  0.801791  1
  Sn  Sn11  1  0.117717  0.882283  0.271537  1
  Sn  Sn12  1  0.882283  0.117717  0.728463  1
  Sn  Sn13  1  0.124305  0.238090  0.275460  1
  Sn  Sn14  1  0.875695  0.761910  0.724540  1
  Sn  Sn15  1  0.761910  0.875695  0.275460  1
  Sn  Sn16  1  0.238090  0.124305  0.724540  1
  Sn  Sn17  1  0.779639  0.220361  0.458491  1
  Sn  Sn18  1  0.220361  0.779639  0.541509  1
  Sn  Sn19  1  0.781061  0.562594  0.452410  1
  Sn  Sn20  1  0.218939  0.437406  0.547590  1
  Sn  Sn21  1  0.437406  0.218939  0.452410  1
  Sn  Sn22  1  0.562594  0.781061  0.547590  1
  Sn  Sn23  1  0.349561  0.003490  0.003836  1
  Sn  Sn24  1  0.650439  0.996510  0.996164  1
  Sn  Sn25  1  0.003490  0.349561  0.996164  1
  Sn  Sn26  1  0.996510  0.650439  0.003836  1
  Sn  Sn27  1  0.653080  0.653080  0.000000  1
  Sn  Sn28  1  0.346920  0.346920  0.000000  1
  Sn  Sn29  1  0.333544  0.666456  0.123241  1
  Sn  Sn30  1  0.666456  0.333544  0.876759  1
  Sn  Sn31  1  0.334820  0.665180  0.818081  1
  Sn  Sn32  1  0.665180  0.334820  0.181919  1
  Sn  Sn33  1  0.000000  0.000000  0.500000  1
  Ru  Ru34  1  0.832415  0.167585  0.198858  1
  Ru  Ru35  1  0.167585  0.832415  0.801142  1
