# generated using pymatgen
data_Ho5Tm3In3PbAu8
_symmetry_space_group_name_H-M   'P 1'
_cell_length_a   8.01909304
_cell_length_b   8.01845304
_cell_length_c   7.29371000
_cell_angle_alpha   89.99642364
_cell_angle_beta   90.00100877
_cell_angle_gamma   89.91830173
_symmetry_Int_Tables_number   1
_chemical_formula_structural   Ho5Tm3In3PbAu8
_chemical_formula_sum   'Ho5 Tm3 In3 Pb1 Au8'
_cell_volume   468.99033400
_cell_formula_units_Z   1
loop_
 _symmetry_equiv_pos_site_id
 _symmetry_equiv_pos_as_xyz
  1  'x, y, z'
loop_
 _atom_site_type_symbol
 _atom_site_label
 _atom_site_symmetry_multiplicity
 _atom_site_fract_x
 _atom_site_fract_y
 _atom_site_fract_z
 _atom_site_occupancy
  Ho  Ho0  1  0.843815  0.158465  0.501543  1
  Ho  Ho1  1  0.156330  0.841669  0.501551  1
  Ho  Ho2  1  0.341582  0.343706  0.998457  1
  Ho  Ho3  1  0.658385  0.656236  0.998472  1
  Ho  Ho4  1  0.682442  0.680395  0.501336  1
  Tm  Tm5  1  0.317604  0.319746  0.501357  1
  Tm  Tm6  1  0.180225  0.817655  0.998642  1
  Tm  Tm7  1  0.819809  0.182364  0.998638  1
  In  In8  1  0.000093  0.499943  0.750070  1
  In  In9  1  0.499943  0.000105  0.750092  1
  In  In10  1  0.000084  0.499940  0.249934  1
  Pb  Pb11  1  0.499937  0.000099  0.249891  1
  Au  Au12  1  0.631886  0.375681  0.274517  1
  Au  Au13  1  0.367622  0.623762  0.274560  1
  Au  Au14  1  0.129211  0.128558  0.774294  1
  Au  Au15  1  0.871177  0.871835  0.774825  1
  Au  Au16  1  0.371087  0.629042  0.725994  1
  Au  Au17  1  0.628388  0.370439  0.726015  1
  Au  Au18  1  0.876459  0.868311  0.224623  1
  Au  Au19  1  0.123924  0.132049  0.225189  1
