# generated using pymatgen
data_La11Tb4Nd5Sn16
_symmetry_space_group_name_H-M   'P 1'
_cell_length_a   8.36632675
_cell_length_b   8.49311654
_cell_length_c   16.11818165
_cell_angle_alpha   90.03108916
_cell_angle_beta   89.95864383
_cell_angle_gamma   90.06157764
_symmetry_Int_Tables_number   1
_chemical_formula_structural   La11Tb4Nd5Sn16
_chemical_formula_sum   'La11 Tb4 Nd5 Sn16'
_cell_volume   1145.29541878
_cell_formula_units_Z   1
loop_
 _symmetry_equiv_pos_site_id
 _symmetry_equiv_pos_as_xyz
  1  'x, y, z'
loop_
 _atom_site_type_symbol
 _atom_site_label
 _atom_site_symmetry_multiplicity
 _atom_site_fract_x
 _atom_site_fract_y
 _atom_site_fract_z
 _atom_site_occupancy
  La  La0  1  0.131007  0.339594  0.380193  1
  La  La1  1  0.369276  0.839421  0.619647  1
  La  La2  1  0.868890  0.660670  0.880644  1
  La  La3  1  0.520169  0.317756  0.901647  1
  La  La4  1  0.020074  0.182172  0.598620  1
  La  La5  1  0.479892  0.682121  0.401155  1
  La  La6  1  0.979624  0.817988  0.098626  1
  La  La7  1  0.479515  0.681666  0.098556  1
  La  La8  1  0.979384  0.818749  0.401316  1
  La  La9  1  0.520638  0.318614  0.598506  1
  La  La10  1  0.020446  0.181491  0.901603  1
  Tb  Tb11  1  0.201729  0.502689  0.750231  1
  Tb  Tb12  1  0.701868  0.997338  0.749891  1
  Tb  Tb13  1  0.798120  0.496952  0.250028  1
  Tb  Tb14  1  0.298533  0.002797  0.249687  1
  Nd  Nd15  1  0.367862  0.840064  0.880208  1
  Nd  Nd16  1  0.868056  0.659632  0.619684  1
  Nd  Nd17  1  0.631777  0.159682  0.380060  1
  Nd  Nd18  1  0.131847  0.340205  0.119798  1
  Nd  Nd19  1  0.631511  0.160096  0.120206  1
  Sn  Sn20  1  0.290567  0.035040  0.045486  1
  Sn  Sn21  1  0.787953  0.465917  0.454906  1
  Sn  Sn22  1  0.712090  0.965995  0.545133  1
  Sn  Sn23  1  0.211850  0.534105  0.954821  1
  Sn  Sn24  1  0.707794  0.967227  0.954795  1
  Sn  Sn25  1  0.208028  0.533828  0.546549  1
  Sn  Sn26  1  0.291901  0.033766  0.453351  1
  Sn  Sn27  1  0.790348  0.464078  0.046761  1
  Sn  Sn28  1  0.566512  0.616860  0.749536  1
  Sn  Sn29  1  0.066409  0.883395  0.750346  1
  Sn  Sn30  1  0.434739  0.381819  0.249131  1
  Sn  Sn31  1  0.932263  0.116890  0.249626  1
  Sn  Sn32  1  0.323989  0.145793  0.750513  1
  Sn  Sn33  1  0.824050  0.354296  0.749530  1
  Sn  Sn34  1  0.675599  0.855370  0.249848  1
  Sn  Sn35  1  0.175689  0.645925  0.249362  1
