# generated using pymatgen
data_Li4Pr3DySi8
_symmetry_space_group_name_H-M   'P 1'
_cell_length_a   3.87564300
_cell_length_b   7.74439570
_cell_length_c   10.48485212
_cell_angle_alpha   89.84667033
_cell_angle_beta   90.00000000
_cell_angle_gamma   90.00000000
_symmetry_Int_Tables_number   1
_chemical_formula_structural   Li4Pr3DySi8
_chemical_formula_sum   'Li4 Pr3 Dy1 Si8'
_cell_volume   314.69660324
_cell_formula_units_Z   1
loop_
 _symmetry_equiv_pos_site_id
 _symmetry_equiv_pos_as_xyz
  1  'x, y, z'
loop_
 _atom_site_type_symbol
 _atom_site_label
 _atom_site_symmetry_multiplicity
 _atom_site_fract_x
 _atom_site_fract_y
 _atom_site_fract_z
 _atom_site_occupancy
  Li  Li0  1  0.250000  0.994716  0.389378  1
  Li  Li1  1  0.750000  0.004011  0.610516  1
  Li  Li2  1  0.250000  0.495219  0.107873  1
  Li  Li3  1  0.750000  0.509513  0.890083  1
  Pr  Pr4  1  0.750000  0.863429  0.135785  1
  Pr  Pr5  1  0.250000  0.636840  0.637572  1
  Pr  Pr6  1  0.750000  0.360064  0.364238  1
  Dy  Dy7  1  0.250000  0.133418  0.864040  1
  Si  Si8  1  0.750000  0.271304  0.063302  1
  Si  Si9  1  0.250000  0.733509  0.929660  1
  Si  Si10  1  0.750000  0.772481  0.430247  1
  Si  Si11  1  0.250000  0.222171  0.575640  1
  Si  Si12  1  0.750000  0.843012  0.822985  1
  Si  Si13  1  0.250000  0.165368  0.172608  1
  Si  Si14  1  0.750000  0.330672  0.683199  1
  Si  Si15  1  0.250000  0.664273  0.322873  1
