# generated using pymatgen
data_BaGd2Ge3O10
_symmetry_space_group_name_H-M   'P 1'
_cell_length_a   12.64422500
_cell_length_b   5.69632961
_cell_length_c   7.14470208
_cell_angle_alpha   74.02317762
_cell_angle_beta   90.00000000
_cell_angle_gamma   90.00000000
_symmetry_Int_Tables_number   1
_chemical_formula_structural   BaGd2Ge3O10
_chemical_formula_sum   'Ba2 Gd4 Ge6 O20'
_cell_volume   494.72450785
_cell_formula_units_Z   2
loop_
 _symmetry_equiv_pos_site_id
 _symmetry_equiv_pos_as_xyz
  1  'x, y, z'
loop_
 _atom_site_type_symbol
 _atom_site_label
 _atom_site_symmetry_multiplicity
 _atom_site_fract_x
 _atom_site_fract_y
 _atom_site_fract_z
 _atom_site_occupancy
  Ba  Ba0  1  0.250000  0.236146  0.007074  1
  Ba  Ba1  1  0.750000  0.763854  0.992926  1
  Gd  Gd2  1  0.099662  0.844151  0.678914  1
  Gd  Gd3  1  0.599662  0.155849  0.321086  1
  Gd  Gd4  1  0.900338  0.155849  0.321086  1
  Gd  Gd5  1  0.400338  0.844151  0.678914  1
  Ge  Ge6  1  0.250000  0.416459  0.476956  1
  Ge  Ge7  1  0.750000  0.583541  0.523044  1
  Ge  Ge8  1  0.054961  0.694669  0.203220  1
  Ge  Ge9  1  0.554961  0.305331  0.796780  1
  Ge  Ge10  1  0.945039  0.305331  0.796780  1
  Ge  Ge11  1  0.445039  0.694669  0.203220  1
  O  O12  1  0.250000  0.647632  0.596507  1
  O  O13  1  0.750000  0.352368  0.403493  1
  O  O14  1  0.250000  0.119224  0.638948  1
  O  O15  1  0.750000  0.880776  0.361052  1
  O  O16  1  0.139040  0.430807  0.317494  1
  O  O17  1  0.639040  0.569193  0.682506  1
  O  O18  1  0.860960  0.569193  0.682506  1
  O  O19  1  0.360960  0.430807  0.317494  1
  O  O20  1  0.933900  0.555546  0.180938  1
  O  O21  1  0.433900  0.444454  0.819062  1
  O  O22  1  0.066100  0.444454  0.819062  1
  O  O23  1  0.566100  0.555546  0.180938  1
  O  O24  1  0.120296  0.859400  0.991247  1
  O  O25  1  0.620296  0.140600  0.008753  1
  O  O26  1  0.879704  0.140600  0.008753  1
  O  O27  1  0.379704  0.859400  0.991247  1
  O  O28  1  0.042410  0.885737  0.361806  1
  O  O29  1  0.542410  0.114263  0.638194  1
  O  O30  1  0.957590  0.114263  0.638194  1
  O  O31  1  0.457590  0.885737  0.361806  1
