# generated using pymatgen
data_Sr7As12Pd17
_symmetry_space_group_name_H-M   'P 1'
_cell_length_a   13.00281471
_cell_length_b   13.00281494
_cell_length_c   14.15651276
_cell_angle_alpha   68.78549113
_cell_angle_beta   68.78549102
_cell_angle_gamma   18.71807557
_symmetry_Int_Tables_number   1
_chemical_formula_structural   Sr7As12Pd17
_chemical_formula_sum   'Sr7 As12 Pd17'
_cell_volume   714.57900179
_cell_formula_units_Z   1
loop_
 _symmetry_equiv_pos_site_id
 _symmetry_equiv_pos_as_xyz
  1  'x, y, z'
loop_
 _atom_site_type_symbol
 _atom_site_label
 _atom_site_symmetry_multiplicity
 _atom_site_fract_x
 _atom_site_fract_y
 _atom_site_fract_z
 _atom_site_occupancy
  Sr  Sr0  1  0.500000  0.500000  0.500000  1
  Sr  Sr1  1  0.367519  0.367519  0.998239  1
  Sr  Sr2  1  0.632481  0.632481  0.001761  1
  Sr  Sr3  1  0.233413  0.233413  0.312924  1
  Sr  Sr4  1  0.766587  0.766587  0.687076  1
  Sr  Sr5  1  0.419243  0.419243  0.259901  1
  Sr  Sr6  1  0.580757  0.580757  0.740099  1
  As  As7  1  0.059871  0.059871  0.927413  1
  As  As8  1  0.940129  0.940129  0.072587  1
  As  As9  1  0.886527  0.886527  0.824100  1
  As  As10  1  0.113473  0.113473  0.175900  1
  As  As11  1  0.189178  0.189178  0.615629  1
  As  As12  1  0.810822  0.810822  0.384371  1
  As  As13  1  0.367309  0.367309  0.578013  1
  As  As14  1  0.632691  0.632691  0.421987  1
  As  As15  1  0.008803  0.008803  0.672765  1
  As  As16  1  0.991197  0.991197  0.327235  1
  As  As17  1  0.234861  0.234861  0.883291  1
  As  As18  1  0.765139  0.765139  0.116709  1
  Pd  Pd19  1  0.838632  0.838632  0.193003  1
  Pd  Pd20  1  0.161368  0.161368  0.806997  1
  Pd  Pd21  1  0.026287  0.026287  0.126541  1
  Pd  Pd22  1  0.973713  0.973713  0.873459  1
  Pd  Pd23  1  0.888090  0.888090  0.458613  1
  Pd  Pd24  1  0.111910  0.111910  0.541387  1
  Pd  Pd25  1  0.500000  0.500000  0.000000  1
  Pd  Pd26  1  0.549914  0.549914  0.258601  1
  Pd  Pd27  1  0.450086  0.450086  0.741399  1
  Pd  Pd28  1  0.294402  0.294402  0.490792  1
  Pd  Pd29  1  0.705598  0.705598  0.509208  1
  Pd  Pd30  1  0.664602  0.664602  0.222982  1
  Pd  Pd31  1  0.335398  0.335398  0.777018  1
  Pd  Pd32  1  0.906734  0.906734  0.639961  1
  Pd  Pd33  1  0.093266  0.093266  0.360039  1
  Pd  Pd34  1  0.222391  0.222391  0.073050  1
  Pd  Pd35  1  0.777609  0.777609  0.926950  1
