# generated using pymatgen
data_Sc6Al13V2ReOs7
_symmetry_space_group_name_H-M   'P 1'
_cell_length_a   8.78132331
_cell_length_b   8.78132365
_cell_length_c   8.76267649
_cell_angle_alpha   59.71392993
_cell_angle_beta   59.71392768
_cell_angle_gamma   59.61428294
_symmetry_Int_Tables_number   1
_chemical_formula_structural   Sc6Al13V2ReOs7
_chemical_formula_sum   'Sc6 Al13 V2 Re1 Os7'
_cell_volume   474.32853051
_cell_formula_units_Z   1
loop_
 _symmetry_equiv_pos_site_id
 _symmetry_equiv_pos_as_xyz
  1  'x, y, z'
loop_
 _atom_site_type_symbol
 _atom_site_label
 _atom_site_symmetry_multiplicity
 _atom_site_fract_x
 _atom_site_fract_y
 _atom_site_fract_z
 _atom_site_occupancy
  Sc  Sc0  1  0.712885  0.712885  0.280014  1
  Sc  Sc1  1  0.289906  0.714364  0.285189  1
  Sc  Sc2  1  0.714364  0.289906  0.285189  1
  Sc  Sc3  1  0.286303  0.286303  0.714598  1
  Sc  Sc4  1  0.715308  0.281562  0.711127  1
  Sc  Sc5  1  0.281562  0.715308  0.711127  1
  Al  Al6  1  0.881193  0.881193  0.879494  1
  Al  Al7  1  0.120939  0.120939  0.640193  1
  Al  Al8  1  0.122452  0.639096  0.119789  1
  Al  Al9  1  0.639096  0.122452  0.119789  1
  Al  Al10  1  0.123304  0.123304  0.120189  1
  Al  Al11  1  0.665766  0.665766  0.001946  1
  Al  Al12  1  0.663190  0.008250  0.666230  1
  Al  Al13  1  0.008250  0.663190  0.666230  1
  Al  Al14  1  0.658713  0.658713  0.663667  1
  Al  Al15  1  0.336214  0.336214  0.994486  1
  Al  Al16  1  0.334792  0.995269  0.336994  1
  Al  Al17  1  0.995269  0.334792  0.336994  1
  Al  Al18  1  0.335777  0.335777  0.338455  1
  V  V19  1  0.879125  0.361454  0.874920  1
  V  V20  1  0.361454  0.879125  0.874920  1
  Re  Re21  1  0.876287  0.876287  0.365489  1
  Os  Os22  1  0.003785  0.003785  0.006582  1
  Os  Os23  1  0.997922  0.997922  0.497629  1
  Os  Os24  1  0.502782  0.995369  0.505262  1
  Os  Os25  1  0.995369  0.502782  0.505262  1
  Os  Os26  1  0.502482  0.502482  0.999021  1
  Os  Os27  1  0.997502  0.498011  0.999610  1
  Os  Os28  1  0.498011  0.997502  0.999610  1
