# generated using pymatgen
data_Y2Ho2Co4HgI
_symmetry_space_group_name_H-M   'P 1'
_cell_length_a   3.91650300
_cell_length_b   3.91650230
_cell_length_c   16.57845400
_cell_angle_alpha   90.00000000
_cell_angle_beta   90.00000000
_cell_angle_gamma   120.00001432
_symmetry_Int_Tables_number   1
_chemical_formula_structural   Y2Ho2Co4HgI
_chemical_formula_sum   'Y2 Ho2 Co4 Hg1 I1'
_cell_volume   220.22744868
_cell_formula_units_Z   1
loop_
 _symmetry_equiv_pos_site_id
 _symmetry_equiv_pos_as_xyz
  1  'x, y, z'
loop_
 _atom_site_type_symbol
 _atom_site_label
 _atom_site_symmetry_multiplicity
 _atom_site_fract_x
 _atom_site_fract_y
 _atom_site_fract_z
 _atom_site_occupancy
  Y  Y0  1  0.000000  0.000000  0.602061  1
  Y  Y1  1  0.000000  0.000000  0.384250  1
  Ho  Ho2  1  0.000000  0.000000  0.114176  1
  Ho  Ho3  1  0.000000  0.000000  0.899933  1
  Co  Co4  1  0.333333  0.666667  0.496806  1
  Co  Co5  1  0.666667  0.333333  0.495797  1
  Co  Co6  1  0.666667  0.333333  0.004305  1
  Co  Co7  1  0.333333  0.666667  0.003292  1
  Hg  Hg8  1  0.333333  0.666667  0.248602  1
  I  I9  1  0.666667  0.333333  0.750779  1
