# generated using pymatgen
data_TbYb3(Si3Ni5)4
_symmetry_space_group_name_H-M   'P 1'
_cell_length_a   18.70704013
_cell_length_b   3.77957700
_cell_length_c   6.62289396
_cell_angle_alpha   90.00000000
_cell_angle_beta   90.16501306
_cell_angle_gamma   90.00000000
_symmetry_Int_Tables_number   1
_chemical_formula_structural   TbYb3(Si3Ni5)4
_chemical_formula_sum   'Tb1 Yb3 Si12 Ni20'
_cell_volume   468.26777946
_cell_formula_units_Z   1
loop_
 _symmetry_equiv_pos_site_id
 _symmetry_equiv_pos_as_xyz
  1  'x, y, z'
loop_
 _atom_site_type_symbol
 _atom_site_label
 _atom_site_symmetry_multiplicity
 _atom_site_fract_x
 _atom_site_fract_y
 _atom_site_fract_z
 _atom_site_occupancy
  Tb  Tb0  1  0.643395  0.250000  0.624944  1
  Yb  Yb1  1  0.143429  0.250000  0.877242  1
  Yb  Yb2  1  0.356593  0.750000  0.376886  1
  Yb  Yb3  1  0.856443  0.750000  0.122638  1
  Si  Si4  1  0.914130  0.250000  0.418217  1
  Si  Si5  1  0.413644  0.250000  0.081428  1
  Si  Si6  1  0.085990  0.750000  0.581328  1
  Si  Si7  1  0.585828  0.750000  0.920404  1
  Si  Si8  1  0.737676  0.250000  0.120235  1
  Si  Si9  1  0.237862  0.250000  0.377904  1
  Si  Si10  1  0.262249  0.750000  0.877891  1
  Si  Si11  1  0.762640  0.750000  0.621092  1
  Si  Si12  1  0.925590  0.250000  0.844722  1
  Si  Si13  1  0.425091  0.250000  0.655302  1
  Si  Si14  1  0.074849  0.750000  0.155323  1
  Si  Si15  1  0.574269  0.750000  0.344907  1
  Ni  Ni16  1  0.801151  0.250000  0.814590  1
  Ni  Ni17  1  0.300234  0.250000  0.684594  1
  Ni  Ni18  1  0.199602  0.750000  0.184261  1
  Ni  Ni19  1  0.699543  0.750000  0.313381  1
  Ni  Ni20  1  0.995950  0.250000  0.133063  1
  Ni  Ni21  1  0.494747  0.250000  0.367068  1
  Ni  Ni22  1  0.004656  0.750000  0.867062  1
  Ni  Ni23  1  0.504435  0.750000  0.633273  1
  Ni  Ni24  1  0.514526  0.250000  0.885729  1
  Ni  Ni25  1  0.015553  0.250000  0.616586  1
  Ni  Ni26  1  0.484200  0.750000  0.117299  1
  Ni  Ni27  1  0.984828  0.750000  0.383592  1
  Ni  Ni28  1  0.615040  0.250000  0.143496  1
  Ni  Ni29  1  0.115745  0.250000  0.358878  1
  Ni  Ni30  1  0.384419  0.750000  0.857448  1
  Ni  Ni31  1  0.884735  0.750000  0.642100  1
  Ni  Ni32  1  0.793678  0.250000  0.429294  1
  Ni  Ni33  1  0.292906  0.250000  0.068719  1
  Ni  Ni34  1  0.206686  0.750000  0.568231  1
  Ni  Ni35  1  0.707691  0.750000  0.930872  1
