# generated using pymatgen
data_La8Dy5Er7Pt16
_symmetry_space_group_name_H-M   'P 1'
_cell_length_a   7.69724460
_cell_length_b   7.81763628
_cell_length_c   14.82351600
_cell_angle_alpha   90.01834459
_cell_angle_beta   89.97738612
_cell_angle_gamma   90.04919244
_symmetry_Int_Tables_number   1
_chemical_formula_structural   La8Dy5Er7Pt16
_chemical_formula_sum   'La8 Dy5 Er7 Pt16'
_cell_volume   891.99364197
_cell_formula_units_Z   1
loop_
 _symmetry_equiv_pos_site_id
 _symmetry_equiv_pos_as_xyz
  1  'x, y, z'
loop_
 _atom_site_type_symbol
 _atom_site_label
 _atom_site_symmetry_multiplicity
 _atom_site_fract_x
 _atom_site_fract_y
 _atom_site_fract_z
 _atom_site_occupancy
  La  La0  1  0.496469  0.322802  0.903009  1
  La  La1  1  0.996259  0.176741  0.597337  1
  La  La2  1  0.503452  0.676952  0.402766  1
  La  La3  1  0.004057  0.822537  0.097082  1
  La  La4  1  0.503116  0.677114  0.096966  1
  La  La5  1  0.003752  0.822797  0.402692  1
  La  La6  1  0.496638  0.323198  0.597500  1
  La  La7  1  0.996494  0.178071  0.903234  1
  Dy  Dy8  1  0.838054  0.667408  0.877494  1
  Dy  Dy9  1  0.174558  0.496456  0.749670  1
  Dy  Dy10  1  0.674141  0.004308  0.749609  1
  Dy  Dy11  1  0.825547  0.503456  0.250020  1
  Dy  Dy12  1  0.325154  0.995937  0.250054  1
  Er  Er13  1  0.338148  0.833832  0.876655  1
  Er  Er14  1  0.838362  0.666587  0.622775  1
  Er  Er15  1  0.661198  0.166593  0.376974  1
  Er  Er16  1  0.162238  0.332803  0.123424  1
  Er  Er17  1  0.661318  0.166304  0.123346  1
  Er  Er18  1  0.161538  0.333031  0.377045  1
  Er  Er19  1  0.338412  0.833337  0.622692  1
  Pt  Pt20  1  0.324671  0.036191  0.044757  1
  Pt  Pt21  1  0.825473  0.463187  0.455234  1
  Pt  Pt22  1  0.674790  0.962869  0.544164  1
  Pt  Pt23  1  0.176907  0.536509  0.956302  1
  Pt  Pt24  1  0.673308  0.965830  0.955450  1
  Pt  Pt25  1  0.174430  0.536619  0.544365  1
  Pt  Pt26  1  0.325572  0.036220  0.454994  1
  Pt  Pt27  1  0.826427  0.462716  0.045709  1
  Pt  Pt28  1  0.542034  0.631648  0.749572  1
  Pt  Pt29  1  0.043497  0.868696  0.749473  1
  Pt  Pt30  1  0.457066  0.368324  0.250095  1
  Pt  Pt31  1  0.956770  0.131471  0.250212  1
  Pt  Pt32  1  0.306957  0.134979  0.749962  1
  Pt  Pt33  1  0.806115  0.364908  0.749502  1
  Pt  Pt34  1  0.693263  0.865122  0.249876  1
  Pt  Pt35  1  0.193815  0.634448  0.249987  1
