# generated using pymatgen
data_Dy8Tm2IrRu3
_symmetry_space_group_name_H-M   'P 1'
_cell_length_a   6.34407204
_cell_length_b   7.28333109
_cell_length_c   8.45335509
_cell_angle_alpha   96.75324019
_cell_angle_beta   111.90627810
_cell_angle_gamma   90.14785995
_symmetry_Int_Tables_number   1
_chemical_formula_structural   Dy8Tm2IrRu3
_chemical_formula_sum   'Dy8 Tm2 Ir1 Ru3'
_cell_volume   359.42067754
_cell_formula_units_Z   1
loop_
 _symmetry_equiv_pos_site_id
 _symmetry_equiv_pos_as_xyz
  1  'x, y, z'
loop_
 _atom_site_type_symbol
 _atom_site_label
 _atom_site_symmetry_multiplicity
 _atom_site_fract_x
 _atom_site_fract_y
 _atom_site_fract_z
 _atom_site_occupancy
  Dy  Dy0  1  0.793457  0.082056  0.815398  1
  Dy  Dy1  1  0.978352  0.415153  0.186140  1
  Dy  Dy2  1  0.207566  0.915659  0.185098  1
  Dy  Dy3  1  0.024366  0.585354  0.815481  1
  Dy  Dy4  1  0.205922  0.184461  0.566086  1
  Dy  Dy5  1  0.641374  0.315071  0.432458  1
  Dy  Dy6  1  0.792678  0.814539  0.433124  1
  Dy  Dy7  1  0.357324  0.686437  0.565134  1
  Tm  Tm8  1  0.422597  0.249854  0.000238  1
  Tm  Tm9  1  0.577437  0.751130  0.000770  1
  Ir  Ir10  1  0.601478  0.424444  0.781356  1
  Ru  Ru11  1  0.822041  0.075865  0.218296  1
  Ru  Ru12  1  0.396019  0.574890  0.218937  1
  Ru  Ru13  1  0.179389  0.925087  0.781484  1
