# generated using pymatgen
data_Ca12HgIr3
_symmetry_space_group_name_H-M   'P 1'
_cell_length_a   7.86254560
_cell_length_b   9.54737300
_cell_length_c   6.51701798
_cell_angle_alpha   90.00000000
_cell_angle_beta   88.87627869
_cell_angle_gamma   90.00000000
_symmetry_Int_Tables_number   1
_chemical_formula_structural   Ca12HgIr3
_chemical_formula_sum   'Ca12 Hg1 Ir3'
_cell_volume   489.11665823
_cell_formula_units_Z   1
loop_
 _symmetry_equiv_pos_site_id
 _symmetry_equiv_pos_as_xyz
  1  'x, y, z'
loop_
 _atom_site_type_symbol
 _atom_site_label
 _atom_site_symmetry_multiplicity
 _atom_site_fract_x
 _atom_site_fract_y
 _atom_site_fract_z
 _atom_site_occupancy
  Ca  Ca0  1  0.665868  0.075508  0.337170  1
  Ca  Ca1  1  0.170465  0.427509  0.162835  1
  Ca  Ca2  1  0.312993  0.552212  0.659543  1
  Ca  Ca3  1  0.845977  0.943074  0.860103  1
  Ca  Ca4  1  0.312993  0.947788  0.659543  1
  Ca  Ca5  1  0.845977  0.556926  0.860103  1
  Ca  Ca6  1  0.665868  0.424492  0.337170  1
  Ca  Ca7  1  0.170465  0.072491  0.162835  1
  Ca  Ca8  1  0.547080  0.250000  0.856705  1
  Ca  Ca9  1  0.037936  0.250000  0.637764  1
  Ca  Ca10  1  0.447717  0.750000  0.110864  1
  Ca  Ca11  1  0.981511  0.750000  0.355259  1
  Hg  Hg12  1  0.620590  0.750000  0.557551  1
  Ir  Ir13  1  0.877068  0.250000  0.042834  1
  Ir  Ir14  1  0.373111  0.250000  0.459560  1
  Ir  Ir15  1  0.124380  0.750000  0.940161  1
