# generated using pymatgen
data_Y12TcIr3
_symmetry_space_group_name_H-M   'P 1'
_cell_length_a   6.45076984
_cell_length_b   7.34335237
_cell_length_c   9.18790800
_cell_angle_alpha   90.00000000
_cell_angle_beta   90.00000000
_cell_angle_gamma   89.87497450
_symmetry_Int_Tables_number   1
_chemical_formula_structural   Y12TcIr3
_chemical_formula_sum   'Y12 Tc1 Ir3'
_cell_volume   435.23270157
_cell_formula_units_Z   1
loop_
 _symmetry_equiv_pos_site_id
 _symmetry_equiv_pos_as_xyz
  1  'x, y, z'
loop_
 _atom_site_type_symbol
 _atom_site_label
 _atom_site_symmetry_multiplicity
 _atom_site_fract_x
 _atom_site_fract_y
 _atom_site_fract_z
 _atom_site_occupancy
  Y  Y0  1  0.630145  0.037922  0.250000  1
  Y  Y1  1  0.368634  0.962393  0.750000  1
  Y  Y2  1  0.129627  0.461023  0.750000  1
  Y  Y3  1  0.873028  0.538879  0.250000  1
  Y  Y4  1  0.173852  0.176506  0.064155  1
  Y  Y5  1  0.826884  0.823256  0.936710  1
  Y  Y6  1  0.668680  0.324331  0.938529  1
  Y  Y7  1  0.826884  0.823256  0.563290  1
  Y  Y8  1  0.328538  0.674847  0.064143  1
  Y  Y9  1  0.173852  0.176506  0.435845  1
  Y  Y10  1  0.328538  0.674847  0.435857  1
  Y  Y11  1  0.668680  0.324331  0.561471  1
  Tc  Tc12  1  0.466626  0.385601  0.250000  1
  Ir  Ir13  1  0.539148  0.616486  0.750000  1
  Ir  Ir14  1  0.959117  0.114427  0.750000  1
  Ir  Ir15  1  0.037767  0.885387  0.250000  1
