# generated using pymatgen
data_Dy3Ho2Mn3(P3Ir4)4
_symmetry_space_group_name_H-M   'P 1'
_cell_length_a   12.67241600
_cell_length_b   12.67241584
_cell_length_c   3.96087000
_cell_angle_alpha   90.00000000
_cell_angle_beta   90.00000000
_cell_angle_gamma   120.00000041
_symmetry_Int_Tables_number   1
_chemical_formula_structural   Dy3Ho2Mn3(P3Ir4)4
_chemical_formula_sum   'Dy3 Ho2 Mn3 P12 Ir16'
_cell_volume   550.85850024
_cell_formula_units_Z   1
loop_
 _symmetry_equiv_pos_site_id
 _symmetry_equiv_pos_as_xyz
  1  'x, y, z'
loop_
 _atom_site_type_symbol
 _atom_site_label
 _atom_site_symmetry_multiplicity
 _atom_site_fract_x
 _atom_site_fract_y
 _atom_site_fract_z
 _atom_site_occupancy
  Dy  Dy0  1  0.000000  0.810114  0.000000  1
  Dy  Dy1  1  0.189886  0.189886  0.000000  1
  Dy  Dy2  1  0.810114  0.000000  0.000000  1
  Ho  Ho3  1  0.333333  0.666667  0.500000  1
  Ho  Ho4  1  0.666667  0.333333  0.500000  1
  Mn  Mn5  1  0.000000  0.458124  0.500000  1
  Mn  Mn6  1  0.541876  0.541876  0.500000  1
  Mn  Mn7  1  0.458124  0.000000  0.500000  1
  P  P8  1  0.000000  0.635411  0.500000  1
  P  P9  1  0.364589  0.364589  0.500000  1
  P  P10  1  0.635411  0.000000  0.500000  1
  P  P11  1  0.517011  0.685927  0.000000  1
  P  P12  1  0.314073  0.831084  0.000000  1
  P  P13  1  0.168916  0.482989  0.000000  1
  P  P14  1  0.482989  0.168916  0.000000  1
  P  P15  1  0.685927  0.517011  0.000000  1
  P  P16  1  0.831084  0.314073  0.000000  1
  P  P17  1  0.000000  0.178578  0.500000  1
  P  P18  1  0.821422  0.821422  0.500000  1
  P  P19  1  0.178578  0.000000  0.500000  1
  Ir  Ir20  1  0.508070  0.867985  0.000000  1
  Ir  Ir21  1  0.132015  0.640086  0.000000  1
  Ir  Ir22  1  0.359914  0.491930  0.000000  1
  Ir  Ir23  1  0.491930  0.359914  0.000000  1
  Ir  Ir24  1  0.867985  0.508070  0.000000  1
  Ir  Ir25  1  0.640086  0.132015  0.000000  1
  Ir  Ir26  1  0.000000  0.282568  0.000000  1
  Ir  Ir27  1  0.717432  0.717432  0.000000  1
  Ir  Ir28  1  0.282568  0.000000  0.000000  1
  Ir  Ir29  1  0.623827  0.802715  0.500000  1
  Ir  Ir30  1  0.197285  0.821112  0.500000  1
  Ir  Ir31  1  0.178888  0.376173  0.500000  1
  Ir  Ir32  1  0.376173  0.178888  0.500000  1
  Ir  Ir33  1  0.802715  0.623827  0.500000  1
  Ir  Ir34  1  0.821112  0.197285  0.500000  1
  Ir  Ir35  1  0.000000  0.000000  0.500000  1
