# generated using pymatgen
data_CsYGeSe4
_symmetry_space_group_name_H-M   'P 1'
_cell_length_a   7.14543500
_cell_length_b   6.82659309
_cell_length_c   9.80760359
_cell_angle_alpha   72.51613515
_cell_angle_beta   90.00000000
_cell_angle_gamma   90.00000000
_symmetry_Int_Tables_number   1
_chemical_formula_structural   CsYGeSe4
_chemical_formula_sum   'Cs2 Y2 Ge2 Se8'
_cell_volume   456.30332984
_cell_formula_units_Z   2
loop_
 _symmetry_equiv_pos_site_id
 _symmetry_equiv_pos_as_xyz
  1  'x, y, z'
loop_
 _atom_site_type_symbol
 _atom_site_label
 _atom_site_symmetry_multiplicity
 _atom_site_fract_x
 _atom_site_fract_y
 _atom_site_fract_z
 _atom_site_occupancy
  Cs  Cs0  1  0.991313  0.740836  0.063448  1
  Cs  Cs1  1  0.491313  0.259164  0.936552  1
  Y  Y2  1  0.509696  0.228622  0.454156  1
  Y  Y3  1  0.009696  0.771378  0.545844  1
  Ge  Ge4  1  0.473900  0.777850  0.337704  1
  Ge  Ge5  1  0.973900  0.222150  0.662296  1
  Se  Se6  1  0.480726  0.567738  0.186048  1
  Se  Se7  1  0.234271  0.033449  0.294951  1
  Se  Se8  1  0.747174  0.988029  0.313431  1
  Se  Se9  1  0.895921  0.438574  0.431055  1
  Se  Se10  1  0.395921  0.561426  0.568945  1
  Se  Se11  1  0.247174  0.011971  0.686569  1
  Se  Se12  1  0.734271  0.966551  0.705049  1
  Se  Se13  1  0.980726  0.432262  0.813952  1
