# generated using pymatgen
data_LaLuCu2SiGe
_symmetry_space_group_name_H-M   'P 1'
_cell_length_a   4.23444000
_cell_length_b   4.23443984
_cell_length_c   7.63140900
_cell_angle_alpha   90.00000000
_cell_angle_beta   90.00000000
_cell_angle_gamma   119.99998565
_symmetry_Int_Tables_number   1
_chemical_formula_structural   LaLuCu2SiGe
_chemical_formula_sum   'La1 Lu1 Cu2 Si1 Ge1'
_cell_volume   118.50246237
_cell_formula_units_Z   1
loop_
 _symmetry_equiv_pos_site_id
 _symmetry_equiv_pos_as_xyz
  1  'x, y, z'
loop_
 _atom_site_type_symbol
 _atom_site_label
 _atom_site_symmetry_multiplicity
 _atom_site_fract_x
 _atom_site_fract_y
 _atom_site_fract_z
 _atom_site_occupancy
  La  La0  1  0.000000  0.000000  0.001867  1
  Lu  Lu1  1  0.000000  0.000000  0.498538  1
  Cu  Cu2  1  0.333333  0.666667  0.712217  1
  Cu  Cu3  1  0.666667  0.333333  0.286606  1
  Si  Si4  1  0.333333  0.666667  0.270369  1
  Ge  Ge5  1  0.666667  0.333333  0.730403  1
