# generated using pymatgen
data_CsGa3Te5
_symmetry_space_group_name_H-M   'P 1'
_cell_length_a   14.72606400
_cell_length_b   8.29517086
_cell_length_c   12.07991822
_cell_angle_alpha   76.65272767
_cell_angle_beta   90.00000000
_cell_angle_gamma   90.00000000
_symmetry_Int_Tables_number   1
_chemical_formula_structural   CsGa3Te5
_chemical_formula_sum   'Cs4 Ga12 Te20'
_cell_volume   1435.76653485
_cell_formula_units_Z   4
loop_
 _symmetry_equiv_pos_site_id
 _symmetry_equiv_pos_as_xyz
  1  'x, y, z'
loop_
 _atom_site_type_symbol
 _atom_site_label
 _atom_site_symmetry_multiplicity
 _atom_site_fract_x
 _atom_site_fract_y
 _atom_site_fract_z
 _atom_site_occupancy
  Cs  Cs0  1  0.615754  0.833942  0.395822  1
  Cs  Cs1  1  0.115754  0.166058  0.104178  1
  Cs  Cs2  1  0.384246  0.166058  0.604178  1
  Cs  Cs3  1  0.884246  0.833942  0.895822  1
  Ga  Ga4  1  0.922179  0.796851  0.401479  1
  Ga  Ga5  1  0.577821  0.796851  0.901479  1
  Ga  Ga6  1  0.422179  0.203149  0.098521  1
  Ga  Ga7  1  0.397946  0.560982  0.806209  1
  Ga  Ga8  1  0.102054  0.560982  0.306209  1
  Ga  Ga9  1  0.337209  0.709322  0.123828  1
  Ga  Ga10  1  0.602054  0.439018  0.193791  1
  Ga  Ga11  1  0.077821  0.203149  0.598521  1
  Ga  Ga12  1  0.662791  0.290678  0.876172  1
  Ga  Ga13  1  0.897946  0.439018  0.693791  1
  Ga  Ga14  1  0.162791  0.709322  0.623828  1
  Ga  Ga15  1  0.837209  0.290678  0.376172  1
  Te  Te16  1  0.829402  0.722277  0.590192  1
  Te  Te17  1  0.105151  0.816420  0.408793  1
  Te  Te18  1  0.670598  0.722277  0.090192  1
  Te  Te19  1  0.394849  0.816420  0.908793  1
  Te  Te20  1  0.329402  0.277723  0.909808  1
  Te  Te21  1  0.662564  0.343975  0.404319  1
  Te  Te22  1  0.580351  0.573873  0.765733  1
  Te  Te23  1  0.605151  0.183580  0.091207  1
  Te  Te24  1  0.894849  0.183580  0.591207  1
  Te  Te25  1  0.635022  0.066065  0.755963  1
  Te  Te26  1  0.364978  0.933935  0.244037  1
  Te  Te27  1  0.170598  0.277723  0.409808  1
  Te  Te28  1  0.080351  0.426127  0.734267  1
  Te  Te29  1  0.919649  0.573873  0.265733  1
  Te  Te30  1  0.864978  0.066065  0.255963  1
  Te  Te31  1  0.135022  0.933935  0.744037  1
  Te  Te32  1  0.837436  0.343975  0.904319  1
  Te  Te33  1  0.337436  0.656025  0.595681  1
  Te  Te34  1  0.419649  0.426127  0.234267  1
  Te  Te35  1  0.162564  0.656025  0.095681  1
