# generated using pymatgen
data_Ho16In4Co3Ru
_symmetry_space_group_name_H-M   'P 1'
_cell_length_a   9.51376077
_cell_length_b   9.49403709
_cell_length_c   9.49403700
_cell_angle_alpha   59.99999684
_cell_angle_beta   60.06855320
_cell_angle_gamma   60.06855308
_symmetry_Int_Tables_number   1
_chemical_formula_structural   Ho16In4Co3Ru
_chemical_formula_sum   'Ho16 In4 Co3 Ru1'
_cell_volume   606.99944426
_cell_formula_units_Z   1
loop_
 _symmetry_equiv_pos_site_id
 _symmetry_equiv_pos_as_xyz
  1  'x, y, z'
loop_
 _atom_site_type_symbol
 _atom_site_label
 _atom_site_symmetry_multiplicity
 _atom_site_fract_x
 _atom_site_fract_y
 _atom_site_fract_z
 _atom_site_occupancy
  Ho  Ho0  1  0.938022  0.938310  0.561834  1
  Ho  Ho1  1  0.813827  0.188693  0.188693  1
  Ho  Ho2  1  0.938022  0.561834  0.561834  1
  Ho  Ho3  1  0.938022  0.561834  0.938310  1
  Ho  Ho4  1  0.813827  0.808787  0.188693  1
  Ho  Ho5  1  0.343563  0.349754  0.349754  1
  Ho  Ho6  1  0.562045  0.939931  0.939931  1
  Ho  Ho7  1  0.562045  0.939931  0.558093  1
  Ho  Ho8  1  0.189226  0.811344  0.811344  1
  Ho  Ho9  1  0.189226  0.188086  0.811344  1
  Ho  Ho10  1  0.343563  0.349754  0.956929  1
  Ho  Ho11  1  0.343563  0.956929  0.349754  1
  Ho  Ho12  1  0.813827  0.188693  0.808787  1
  Ho  Ho13  1  0.562045  0.558093  0.939931  1
  Ho  Ho14  1  0.189226  0.811344  0.188086  1
  Ho  Ho15  1  0.959750  0.346750  0.346750  1
  In  In16  1  0.583932  0.582555  0.250959  1
  In  In17  1  0.251184  0.582939  0.582939  1
  In  In18  1  0.583932  0.582555  0.582555  1
  In  In19  1  0.583932  0.250959  0.582555  1
  Co  Co20  1  0.140150  0.140767  0.140767  1
  Co  Co21  1  0.140150  0.578318  0.140767  1
  Co  Co22  1  0.140150  0.140767  0.578318  1
  Ru  Ru23  1  0.576773  0.141076  0.141076  1
