# generated using pymatgen
data_Er3In3CoHg2
_symmetry_space_group_name_H-M   'P 1'
_cell_length_a   3.92165500
_cell_length_b   7.78361904
_cell_length_c   7.76635514
_cell_angle_alpha   120.07356939
_cell_angle_beta   90.00000000
_cell_angle_gamma   90.00000000
_symmetry_Int_Tables_number   1
_chemical_formula_structural   Er3In3CoHg2
_chemical_formula_sum   'Er3 In3 Co1 Hg2'
_cell_volume   205.15230430
_cell_formula_units_Z   1
loop_
 _symmetry_equiv_pos_site_id
 _symmetry_equiv_pos_as_xyz
  1  'x, y, z'
loop_
 _atom_site_type_symbol
 _atom_site_label
 _atom_site_symmetry_multiplicity
 _atom_site_fract_x
 _atom_site_fract_y
 _atom_site_fract_z
 _atom_site_occupancy
  Er  Er0  1  0.500000  0.385530  0.000000  1
  Er  Er1  1  0.500000  0.614069  0.613797  1
  Er  Er2  1  0.500000  0.000271  0.386203  1
  In  In3  1  0.000000  0.758860  0.000000  1
  In  In4  1  0.000000  0.241831  0.241947  1
  In  In5  1  0.000000  0.999884  0.758053  1
  Co  Co6  1  0.500000  0.999664  0.000000  1
  Hg  Hg7  1  0.000000  0.666560  0.333128  1
  Hg  Hg8  1  0.000000  0.333432  0.666872  1
