# generated using pymatgen
data_Ce2Al8CoNi
_symmetry_space_group_name_H-M   'P 1'
_cell_length_a   8.06854022
_cell_length_b   8.06854001
_cell_length_c   6.64142000
_cell_angle_alpha   90.00000000
_cell_angle_beta   90.00000000
_cell_angle_gamma   150.37691774
_symmetry_Int_Tables_number   1
_chemical_formula_structural   Ce2Al8CoNi
_chemical_formula_sum   'Ce2 Al8 Co1 Ni1'
_cell_volume   213.71477675
_cell_formula_units_Z   1
loop_
 _symmetry_equiv_pos_site_id
 _symmetry_equiv_pos_as_xyz
  1  'x, y, z'
loop_
 _atom_site_type_symbol
 _atom_site_label
 _atom_site_symmetry_multiplicity
 _atom_site_fract_x
 _atom_site_fract_y
 _atom_site_fract_z
 _atom_site_occupancy
  Ce  Ce0  1  0.883916  0.116084  0.250000  1
  Ce  Ce1  1  0.115635  0.884365  0.750000  1
  Al  Al2  1  0.499237  0.500763  0.998970  1
  Al  Al3  1  0.499237  0.500763  0.501030  1
  Al  Al4  1  0.922337  0.077663  0.750000  1
  Al  Al5  1  0.078223  0.921777  0.250000  1
  Al  Al6  1  0.310221  0.689779  0.947975  1
  Al  Al7  1  0.690503  0.309497  0.056063  1
  Al  Al8  1  0.690503  0.309497  0.443937  1
  Al  Al9  1  0.310221  0.689779  0.552025  1
  Co  Co10  1  0.226580  0.773420  0.250000  1
  Ni  Ni11  1  0.773387  0.226613  0.750000  1
