# generated using pymatgen
data_SrLi4Ca2(GeN3)2
_symmetry_space_group_name_H-M   'P 1'
_cell_length_a   5.87113856
_cell_length_b   5.87113759
_cell_length_c   6.19013575
_cell_angle_alpha   88.65892342
_cell_angle_beta   88.65891874
_cell_angle_gamma   118.62342149
_symmetry_Int_Tables_number   1
_chemical_formula_structural   SrLi4Ca2(GeN3)2
_chemical_formula_sum   'Sr1 Li4 Ca2 Ge2 N6'
_cell_volume   187.10133899
_cell_formula_units_Z   1
loop_
 _symmetry_equiv_pos_site_id
 _symmetry_equiv_pos_as_xyz
  1  'x, y, z'
loop_
 _atom_site_type_symbol
 _atom_site_label
 _atom_site_symmetry_multiplicity
 _atom_site_fract_x
 _atom_site_fract_y
 _atom_site_fract_z
 _atom_site_occupancy
  Sr  Sr0  1  0.000000  0.000000  0.000000  1
  Li  Li1  1  0.456449  0.816647  0.125872  1
  Li  Li2  1  0.543551  0.183353  0.874128  1
  Li  Li3  1  0.183353  0.543551  0.874128  1
  Li  Li4  1  0.816647  0.456449  0.125872  1
  Ca  Ca5  1  0.817338  0.182662  0.500000  1
  Ca  Ca6  1  0.182662  0.817338  0.500000  1
  Ge  Ge7  1  0.384503  0.384503  0.326039  1
  Ge  Ge8  1  0.615497  0.615497  0.673961  1
  N  N9  1  0.866195  0.549960  0.790466  1
  N  N10  1  0.133805  0.450040  0.209534  1
  N  N11  1  0.710670  0.710670  0.359008  1
  N  N12  1  0.289330  0.289330  0.640992  1
  N  N13  1  0.549960  0.866195  0.790466  1
  N  N14  1  0.450040  0.133805  0.209534  1
