# generated using pymatgen
data_Pr4Ga9Cu6Si
_symmetry_space_group_name_H-M   'P 1'
_cell_length_a   8.40712409
_cell_length_b   8.40104240
_cell_length_c   8.40104229
_cell_angle_alpha   138.29571513
_cell_angle_beta   105.02731151
_cell_angle_gamma   89.65328226
_symmetry_Int_Tables_number   1
_chemical_formula_structural   Pr4Ga9Cu6Si
_chemical_formula_sum   'Pr4 Ga9 Cu6 Si1'
_cell_volume   364.65256202
_cell_formula_units_Z   1
loop_
 _symmetry_equiv_pos_site_id
 _symmetry_equiv_pos_as_xyz
  1  'x, y, z'
loop_
 _atom_site_type_symbol
 _atom_site_label
 _atom_site_symmetry_multiplicity
 _atom_site_fract_x
 _atom_site_fract_y
 _atom_site_fract_z
 _atom_site_occupancy
  Pr  Pr0  1  0.870338  0.628312  0.242025  1
  Pr  Pr1  1  0.131526  0.372974  0.758553  1
  Pr  Pr2  1  0.383183  0.128113  0.255071  1
  Pr  Pr3  1  0.610402  0.870056  0.740346  1
  Ga  Ga4  1  0.502624  0.752982  0.249986  1
  Ga  Ga5  1  0.502624  0.252638  0.749642  1
  Ga  Ga6  1  0.237958  0.983882  0.746215  1
  Ga  Ga7  1  0.758037  0.508058  0.749341  1
  Ga  Ga8  1  0.758037  0.008696  0.249979  1
  Ga  Ga9  1  0.237958  0.491743  0.254076  1
  Ga  Ga10  1  0.031839  0.887963  0.143876  1
  Ga  Ga11  1  0.967002  0.108976  0.858027  1
  Ga  Ga12  1  0.739323  0.386368  0.352955  1
  Cu  Cu13  1  0.007928  0.739076  0.741411  1
  Cu  Cu14  1  0.007928  0.266517  0.268852  1
  Cu  Cu15  1  0.252174  0.870566  0.381607  1
  Cu  Cu16  1  0.752950  0.130168  0.622781  1
  Cu  Cu17  1  0.486074  0.369840  0.116234  1
  Cu  Cu18  1  0.502742  0.629760  0.872983  1
  Si  Si19  1  0.259353  0.613312  0.646040  1
