# generated using pymatgen
data_PrSmCo8(P3Ru)2
_symmetry_space_group_name_H-M   'P 1'
_cell_length_a   3.72262000
_cell_length_b   10.50631800
_cell_length_c   11.86548300
_cell_angle_alpha   90.00000000
_cell_angle_beta   90.00000000
_cell_angle_gamma   90.00000000
_symmetry_Int_Tables_number   1
_chemical_formula_structural   PrSmCo8(P3Ru)2
_chemical_formula_sum   'Pr2 Sm2 Co16 P12 Ru4'
_cell_volume   464.07125580
_cell_formula_units_Z   2
loop_
 _symmetry_equiv_pos_site_id
 _symmetry_equiv_pos_as_xyz
  1  'x, y, z'
loop_
 _atom_site_type_symbol
 _atom_site_label
 _atom_site_symmetry_multiplicity
 _atom_site_fract_x
 _atom_site_fract_y
 _atom_site_fract_z
 _atom_site_occupancy
  Pr  Pr0  1  0.750000  0.413684  0.296621  1
  Pr  Pr1  1  0.750000  0.086316  0.796621  1
  Sm  Sm2  1  0.250000  0.586554  0.703037  1
  Sm  Sm3  1  0.250000  0.913446  0.203037  1
  Co  Co4  1  0.250000  0.408742  0.492978  1
  Co  Co5  1  0.250000  0.091258  0.992978  1
  Co  Co6  1  0.750000  0.593113  0.510109  1
  Co  Co7  1  0.750000  0.906887  0.010109  1
  Co  Co8  1  0.250000  0.219562  0.175680  1
  Co  Co9  1  0.250000  0.280438  0.675680  1
  Co  Co10  1  0.750000  0.778422  0.824241  1
  Co  Co11  1  0.750000  0.721578  0.324241  1
  Co  Co12  1  0.250000  0.885223  0.701646  1
  Co  Co13  1  0.250000  0.614777  0.201646  1
  Co  Co14  1  0.750000  0.111479  0.297742  1
  Co  Co15  1  0.750000  0.388521  0.797742  1
  Co  Co16  1  0.250000  0.467509  0.930303  1
  Co  Co17  1  0.250000  0.032491  0.430303  1
  Co  Co18  1  0.750000  0.535409  0.067568  1
  Co  Co19  1  0.750000  0.964591  0.567568  1
  P  P20  1  0.250000  0.419561  0.108489  1
  P  P21  1  0.250000  0.080439  0.608489  1
  P  P22  1  0.750000  0.580807  0.888628  1
  P  P23  1  0.750000  0.919193  0.388628  1
  P  P24  1  0.250000  0.277641  0.867207  1
  P  P25  1  0.250000  0.222359  0.367207  1
  P  P26  1  0.750000  0.725253  0.133394  1
  P  P27  1  0.750000  0.774747  0.633394  1
  P  P28  1  0.250000  0.599739  0.392222  1
  P  P29  1  0.250000  0.900261  0.892222  1
  P  P30  1  0.750000  0.402501  0.608659  1
  P  P31  1  0.750000  0.097499  0.108659  1
  Ru  Ru32  1  0.250000  0.715256  0.992775  1
  Ru  Ru33  1  0.250000  0.784744  0.492775  1
  Ru  Ru34  1  0.750000  0.284765  0.008699  1
  Ru  Ru35  1  0.750000  0.215235  0.508699  1
