# generated using pymatgen
data_Dy8CdGaPd23
_symmetry_space_group_name_H-M   'P 1'
_cell_length_a   8.26808200
_cell_length_b   8.39723600
_cell_length_c   8.39723600
_cell_angle_alpha   90.00000000
_cell_angle_beta   90.00000000
_cell_angle_gamma   90.00000000
_symmetry_Int_Tables_number   1
_chemical_formula_structural   Dy8CdGaPd23
_chemical_formula_sum   'Dy8 Cd1 Ga1 Pd23'
_cell_volume   583.01199904
_cell_formula_units_Z   1
loop_
 _symmetry_equiv_pos_site_id
 _symmetry_equiv_pos_as_xyz
  1  'x, y, z'
loop_
 _atom_site_type_symbol
 _atom_site_label
 _atom_site_symmetry_multiplicity
 _atom_site_fract_x
 _atom_site_fract_y
 _atom_site_fract_z
 _atom_site_occupancy
  Dy  Dy0  1  0.251726  0.241668  0.241668  1
  Dy  Dy1  1  0.747589  0.746887  0.746887  1
  Dy  Dy2  1  0.747589  0.746887  0.253113  1
  Dy  Dy3  1  0.747589  0.253113  0.746887  1
  Dy  Dy4  1  0.251726  0.241668  0.758332  1
  Dy  Dy5  1  0.251726  0.758332  0.241668  1
  Dy  Dy6  1  0.251726  0.758332  0.758332  1
  Dy  Dy7  1  0.747589  0.253113  0.253113  1
  Cd  Cd8  1  0.255310  0.500000  0.500000  1
  Ga  Ga9  1  0.999009  0.000000  0.000000  1
  Pd  Pd10  1  0.258098  0.500000  0.000000  1
  Pd  Pd11  1  0.740744  0.500000  0.000000  1
  Pd  Pd12  1  0.004176  0.258277  0.500000  1
  Pd  Pd13  1  0.501988  0.262419  0.000000  1
  Pd  Pd14  1  0.004176  0.741723  0.500000  1
  Pd  Pd15  1  0.501988  0.737581  0.000000  1
  Pd  Pd16  1  0.501988  0.000000  0.262419  1
  Pd  Pd17  1  0.258098  0.000000  0.500000  1
  Pd  Pd18  1  0.501988  0.000000  0.737581  1
  Pd  Pd19  1  0.740744  0.000000  0.500000  1
  Pd  Pd20  1  0.004176  0.500000  0.258277  1
  Pd  Pd21  1  0.004176  0.500000  0.741723  1
  Pd  Pd22  1  0.747582  0.500000  0.500000  1
  Pd  Pd23  1  0.496382  0.251585  0.500000  1
  Pd  Pd24  1  0.496382  0.748415  0.500000  1
  Pd  Pd25  1  0.496382  0.500000  0.251585  1
  Pd  Pd26  1  0.496382  0.500000  0.748415  1
  Pd  Pd27  1  0.295633  0.000000  0.000000  1
  Pd  Pd28  1  0.706515  0.000000  0.000000  1
  Pd  Pd29  1  0.997705  0.289748  0.000000  1
  Pd  Pd30  1  0.997705  0.710252  0.000000  1
  Pd  Pd31  1  0.997705  0.000000  0.289748  1
  Pd  Pd32  1  0.997705  0.000000  0.710252  1
