# generated using pymatgen
data_La4In(MoO4)3
_symmetry_space_group_name_H-M   'P 1'
_cell_length_a   5.73682829
_cell_length_b   5.97936987
_cell_length_c   8.24044864
_cell_angle_alpha   90.06231696
_cell_angle_beta   89.96373117
_cell_angle_gamma   89.99781769
_symmetry_Int_Tables_number   1
_chemical_formula_structural   La4In(MoO4)3
_chemical_formula_sum   'La4 In1 Mo3 O12'
_cell_volume   282.66874003
_cell_formula_units_Z   1
loop_
 _symmetry_equiv_pos_site_id
 _symmetry_equiv_pos_as_xyz
  1  'x, y, z'
loop_
 _atom_site_type_symbol
 _atom_site_label
 _atom_site_symmetry_multiplicity
 _atom_site_fract_x
 _atom_site_fract_y
 _atom_site_fract_z
 _atom_site_occupancy
  La  La0  1  0.016989  0.943543  0.248706  1
  La  La1  1  0.516952  0.555521  0.751014  1
  La  La2  1  0.483048  0.444479  0.248986  1
  La  La3  1  0.983011  0.056457  0.751294  1
  In  In4  1  0.500000  0.000000  0.500000  1
  Mo  Mo5  1  0.500000  0.000000  0.000000  1
  Mo  Mo6  1  0.000000  0.500000  0.000000  1
  Mo  Mo7  1  0.000000  0.500000  0.500000  1
  O  O8  1  0.616802  0.047971  0.247506  1
  O  O9  1  0.115836  0.451967  0.750341  1
  O  O10  1  0.884164  0.548033  0.249659  1
  O  O11  1  0.383198  0.952029  0.752494  1
  O  O12  1  0.195589  0.199705  0.061073  1
  O  O13  1  0.695827  0.300640  0.938781  1
  O  O14  1  0.303089  0.697185  0.438298  1
  O  O15  1  0.806537  0.799710  0.561707  1
  O  O16  1  0.804411  0.800295  0.938927  1
  O  O17  1  0.304173  0.699360  0.061219  1
  O  O18  1  0.696911  0.302815  0.561702  1
  O  O19  1  0.193463  0.200290  0.438293  1
