# generated using pymatgen
data_SmDyTh3Si3C
_symmetry_space_group_name_H-M   'P 1'
_cell_length_a   8.79239400
_cell_length_b   8.79239351
_cell_length_c   6.40756800
_cell_angle_alpha   90.00000000
_cell_angle_beta   90.00000000
_cell_angle_gamma   120.00000184
_symmetry_Int_Tables_number   1
_chemical_formula_structural   SmDyTh3Si3C
_chemical_formula_sum   'Sm2 Dy2 Th6 Si6 C2'
_cell_volume   428.98104791
_cell_formula_units_Z   2
loop_
 _symmetry_equiv_pos_site_id
 _symmetry_equiv_pos_as_xyz
  1  'x, y, z'
loop_
 _atom_site_type_symbol
 _atom_site_label
 _atom_site_symmetry_multiplicity
 _atom_site_fract_x
 _atom_site_fract_y
 _atom_site_fract_z
 _atom_site_occupancy
  Sm  Sm0  1  0.666667  0.333333  0.000000  1
  Sm  Sm1  1  0.333333  0.666667  0.000000  1
  Dy  Dy2  1  0.333333  0.666667  0.500000  1
  Dy  Dy3  1  0.666667  0.333333  0.500000  1
  Th  Th4  1  0.768207  0.768207  0.749190  1
  Th  Th5  1  0.231793  0.000000  0.749190  1
  Th  Th6  1  0.000000  0.231793  0.749190  1
  Th  Th7  1  0.231793  0.231793  0.250810  1
  Th  Th8  1  0.768207  0.000000  0.250810  1
  Th  Th9  1  0.000000  0.768207  0.250810  1
  Si  Si10  1  0.400620  0.400620  0.743208  1
  Si  Si11  1  0.599380  0.000000  0.743208  1
  Si  Si12  1  0.000000  0.599380  0.743208  1
  Si  Si13  1  0.599380  0.599380  0.256792  1
  Si  Si14  1  0.400620  0.000000  0.256792  1
  Si  Si15  1  0.000000  0.400620  0.256792  1
  C  C16  1  0.000000  0.000000  0.000000  1
  C  C17  1  0.000000  0.000000  0.500000  1
