# generated using pymatgen
data_Th12(MnC3)5
_symmetry_space_group_name_H-M   'P 1'
_cell_length_a   5.31223200
_cell_length_b   10.77072349
_cell_length_c   10.77144600
_cell_angle_alpha   120.00222519
_cell_angle_beta   90.00000000
_cell_angle_gamma   90.00000000
_symmetry_Int_Tables_number   1
_chemical_formula_structural   Th12(MnC3)5
_chemical_formula_sum   'Th12 Mn5 C15'
_cell_volume   533.72409816
_cell_formula_units_Z   1
loop_
 _symmetry_equiv_pos_site_id
 _symmetry_equiv_pos_as_xyz
  1  'x, y, z'
loop_
 _atom_site_type_symbol
 _atom_site_label
 _atom_site_symmetry_multiplicity
 _atom_site_fract_x
 _atom_site_fract_y
 _atom_site_fract_z
 _atom_site_occupancy
  Th  Th0  1  0.500000  0.208106  0.208139  1
  Th  Th1  1  0.500000  0.000000  0.791846  1
  Th  Th2  1  0.500000  0.791894  0.000034  1
  Th  Th3  1  0.000000  0.728880  0.189368  1
  Th  Th4  1  0.000000  0.460530  0.271155  1
  Th  Th5  1  0.000000  0.539470  0.810625  1
  Th  Th6  1  0.000000  0.810601  0.539456  1
  Th  Th7  1  0.000000  0.189399  0.728856  1
  Th  Th8  1  0.000000  0.271120  0.460488  1
  Th  Th9  1  0.500000  0.567654  0.567658  1
  Th  Th10  1  0.500000  0.000000  0.432344  1
  Th  Th11  1  0.500000  0.432346  0.000003  1
  Mn  Mn12  1  0.000000  0.845363  0.845388  1
  Mn  Mn13  1  0.000000  0.000000  0.154669  1
  Mn  Mn14  1  0.000000  0.154637  0.000026  1
  Mn  Mn15  1  0.500000  0.666673  0.333337  1
  Mn  Mn16  1  0.500000  0.333327  0.666665  1
  C  C17  1  0.000000  0.679513  0.679512  1
  C  C18  1  0.000000  0.000000  0.320483  1
  C  C19  1  0.000000  0.320487  0.999999  1
  C  C20  1  0.000000  0.198610  0.198638  1
  C  C21  1  0.000000  0.000000  0.801335  1
  C  C22  1  0.000000  0.801390  0.000027  1
  C  C23  1  0.000000  0.551311  0.551312  1
  C  C24  1  0.000000  0.000000  0.448646  1
  C  C25  1  0.000000  0.448689  0.000001  1
  C  C26  1  0.500000  0.718665  0.189998  1
  C  C27  1  0.500000  0.471331  0.281334  1
  C  C28  1  0.500000  0.528669  0.810003  1
  C  C29  1  0.500000  0.809998  0.528660  1
  C  C30  1  0.500000  0.190002  0.718661  1
  C  C31  1  0.500000  0.281335  0.471334  1
