# generated using pymatgen
data_Tm12Co5Sn
_symmetry_space_group_name_H-M   'P 1'
_cell_length_a   8.14730152
_cell_length_b   8.14730112
_cell_length_c   8.14730068
_cell_angle_alpha   106.69327036
_cell_angle_beta   110.91724730
_cell_angle_gamma   110.83836454
_symmetry_Int_Tables_number   1
_chemical_formula_structural   Tm12Co5Sn
_chemical_formula_sum   'Tm12 Co5 Sn1'
_cell_volume   415.58275632
_cell_formula_units_Z   1
loop_
 _symmetry_equiv_pos_site_id
 _symmetry_equiv_pos_as_xyz
  1  'x, y, z'
loop_
 _atom_site_type_symbol
 _atom_site_label
 _atom_site_symmetry_multiplicity
 _atom_site_fract_x
 _atom_site_fract_y
 _atom_site_fract_z
 _atom_site_occupancy
  Tm  Tm0  1  0.474169  0.288616  0.185553  1
  Tm  Tm1  1  0.103063  0.288616  0.814447  1
  Tm  Tm2  1  0.896937  0.711384  0.185553  1
  Tm  Tm3  1  0.525831  0.711384  0.814447  1
  Tm  Tm4  1  0.305794  0.619605  0.313811  1
  Tm  Tm5  1  0.305794  0.991984  0.686189  1
  Tm  Tm6  1  0.694206  0.380395  0.686189  1
  Tm  Tm7  1  0.694206  0.008016  0.313811  1
  Tm  Tm8  1  0.193272  0.211983  0.405255  1
  Tm  Tm9  1  0.806728  0.788017  0.594745  1
  Tm  Tm10  1  0.193272  0.788017  0.981288  1
  Tm  Tm11  1  0.806728  0.211983  0.018712  1
  Co  Co12  1  0.500000  0.612887  0.112887  1
  Co  Co13  1  0.500000  0.387113  0.887113  1
  Co  Co14  1  0.374047  0.000000  0.374047  1
  Co  Co15  1  0.625953  0.000000  0.625953  1
  Co  Co16  1  0.000000  0.000000  0.000000  1
  Sn  Sn17  1  0.000000  0.500000  0.500000  1
