# generated using pymatgen
data_Tm3Lu3Pa2(ReB6)4
_symmetry_space_group_name_H-M   'P 1'
_cell_length_a   3.66529800
_cell_length_b   9.09444876
_cell_length_c   11.46102510
_cell_angle_alpha   90.29785303
_cell_angle_beta   90.00000000
_cell_angle_gamma   90.00000000
_symmetry_Int_Tables_number   1
_chemical_formula_structural   Tm3Lu3Pa2(ReB6)4
_chemical_formula_sum   'Tm3 Lu3 Pa2 Re4 B24'
_cell_volume   382.03509950
_cell_formula_units_Z   1
loop_
 _symmetry_equiv_pos_site_id
 _symmetry_equiv_pos_as_xyz
  1  'x, y, z'
loop_
 _atom_site_type_symbol
 _atom_site_label
 _atom_site_symmetry_multiplicity
 _atom_site_fract_x
 _atom_site_fract_y
 _atom_site_fract_z
 _atom_site_occupancy
  Tm  Tm0  1  0.000000  0.823220  0.085360  1
  Tm  Tm1  1  0.000000  0.176776  0.914484  1
  Tm  Tm2  1  0.000000  0.945102  0.372233  1
  Lu  Lu3  1  0.000000  0.055001  0.628206  1
  Lu  Lu4  1  0.000000  0.444041  0.126023  1
  Lu  Lu5  1  0.000000  0.555976  0.873868  1
  Pa  Pa6  1  0.000000  0.320874  0.413340  1
  Pa  Pa7  1  0.000000  0.679186  0.586825  1
  Re  Re8  1  0.000000  0.636092  0.323196  1
  Re  Re9  1  0.000000  0.363444  0.676858  1
  Re  Re10  1  0.000000  0.140930  0.180998  1
  Re  Re11  1  0.000000  0.859357  0.818746  1
  B  B12  1  0.500000  0.554003  0.432714  1
  B  B13  1  0.500000  0.445743  0.567400  1
  B  B14  1  0.500000  0.053619  0.066526  1
  B  B15  1  0.500000  0.946503  0.933252  1
  B  B16  1  0.500000  0.749920  0.419118  1
  B  B17  1  0.500000  0.249604  0.581069  1
  B  B18  1  0.500000  0.249497  0.079529  1
  B  B19  1  0.500000  0.750627  0.920376  1
  B  B20  1  0.500000  0.792383  0.264168  1
  B  B21  1  0.500000  0.207173  0.735670  1
  B  B22  1  0.500000  0.293009  0.233485  1
  B  B23  1  0.500000  0.707208  0.766461  1
  B  B24  1  0.500000  0.630962  0.183960  1
  B  B25  1  0.500000  0.368852  0.815949  1
  B  B26  1  0.500000  0.131477  0.314258  1
  B  B27  1  0.500000  0.868973  0.685624  1
  B  B28  1  0.500000  0.981592  0.211513  1
  B  B29  1  0.500000  0.018622  0.788125  1
  B  B30  1  0.500000  0.482644  0.285578  1
  B  B31  1  0.500000  0.517226  0.714384  1
  B  B32  1  0.500000  0.602525  0.028492  1
  B  B33  1  0.500000  0.397467  0.971425  1
  B  B34  1  0.500000  0.106153  0.471100  1
  B  B35  1  0.500000  0.894220  0.529686  1
