# generated using pymatgen
data_Nd4Ga4CuIr3
_symmetry_space_group_name_H-M   'P 1'
_cell_length_a   4.45942000
_cell_length_b   7.08797711
_cell_length_c   7.76645537
_cell_angle_alpha   90.41402753
_cell_angle_beta   90.00000000
_cell_angle_gamma   90.00000000
_symmetry_Int_Tables_number   1
_chemical_formula_structural   Nd4Ga4CuIr3
_chemical_formula_sum   'Nd4 Ga4 Cu1 Ir3'
_cell_volume   245.47778488
_cell_formula_units_Z   1
loop_
 _symmetry_equiv_pos_site_id
 _symmetry_equiv_pos_as_xyz
  1  'x, y, z'
loop_
 _atom_site_type_symbol
 _atom_site_label
 _atom_site_symmetry_multiplicity
 _atom_site_fract_x
 _atom_site_fract_y
 _atom_site_fract_z
 _atom_site_occupancy
  Nd  Nd0  1  0.250000  0.028472  0.809420  1
  Nd  Nd1  1  0.250000  0.519530  0.689462  1
  Nd  Nd2  1  0.750000  0.983622  0.197088  1
  Nd  Nd3  1  0.750000  0.480062  0.305311  1
  Ga  Ga4  1  0.250000  0.162571  0.425084  1
  Ga  Ga5  1  0.250000  0.665939  0.071140  1
  Ga  Ga6  1  0.750000  0.837563  0.573211  1
  Ga  Ga7  1  0.750000  0.329271  0.925907  1
  Cu  Cu8  1  0.750000  0.709080  0.898217  1
  Ir  Ir9  1  0.250000  0.780976  0.398113  1
  Ir  Ir10  1  0.250000  0.285103  0.103405  1
  Ir  Ir11  1  0.750000  0.217810  0.603641  1
