# generated using pymatgen
data_ErPa5I24
_symmetry_space_group_name_H-M   'P 1'
_cell_length_a   9.19858500
_cell_length_b   9.25883650
_cell_length_c   19.43016863
_cell_angle_alpha   77.07919717
_cell_angle_beta   90.00000000
_cell_angle_gamma   90.00000000
_symmetry_Int_Tables_number   1
_chemical_formula_structural   ErPa5I24
_chemical_formula_sum   'Er1 Pa5 I24'
_cell_volume   1612.93214625
_cell_formula_units_Z   1
loop_
 _symmetry_equiv_pos_site_id
 _symmetry_equiv_pos_as_xyz
  1  'x, y, z'
loop_
 _atom_site_type_symbol
 _atom_site_label
 _atom_site_symmetry_multiplicity
 _atom_site_fract_x
 _atom_site_fract_y
 _atom_site_fract_z
 _atom_site_occupancy
  Er  Er0  1  0.390015  0.000000  0.250000  1
  Pa  Pa1  1  0.880222  0.826137  0.581814  1
  Pa  Pa2  1  0.121015  0.174549  0.414548  1
  Pa  Pa3  1  0.626989  0.000000  0.750000  1
  Pa  Pa4  1  0.880222  0.173863  0.918186  1
  Pa  Pa5  1  0.121015  0.825451  0.085452  1
  I  I6  1  0.107886  0.395364  0.907819  1
  I  I7  1  0.585494  0.761033  0.258691  1
  I  I8  1  0.118465  0.069780  0.577840  1
  I  I9  1  0.354016  0.375651  0.427797  1
  I  I10  1  0.121763  0.775592  0.243224  1
  I  I11  1  0.121763  0.224408  0.256776  1
  I  I12  1  0.118465  0.930220  0.922160  1
  I  I13  1  0.412645  0.234485  0.740981  1
  I  I14  1  0.894337  0.605632  0.092113  1
  I  I15  1  0.876947  0.228706  0.755088  1
  I  I16  1  0.412645  0.765515  0.759019  1
  I  I17  1  0.894337  0.394368  0.407887  1
  I  I18  1  0.585494  0.238967  0.241309  1
  I  I19  1  0.652822  0.076120  0.587515  1
  I  I20  1  0.340587  0.926699  0.411997  1
  I  I21  1  0.876947  0.771294  0.744912  1
  I  I22  1  0.107886  0.604636  0.592181  1
  I  I23  1  0.645197  0.377093  0.928866  1
  I  I24  1  0.340587  0.073301  0.088003  1
  I  I25  1  0.880101  0.068500  0.079791  1
  I  I26  1  0.645197  0.622907  0.571134  1
  I  I27  1  0.652822  0.923880  0.912485  1
  I  I28  1  0.354016  0.624349  0.072203  1
  I  I29  1  0.880101  0.931500  0.420209  1
