# generated using pymatgen
data_La13YOsPd5
_symmetry_space_group_name_H-M   'P 1'
_cell_length_a   10.37796660
_cell_length_b   10.37796601
_cell_length_c   6.56551027
_cell_angle_alpha   89.77880340
_cell_angle_beta   90.22120243
_cell_angle_gamma   120.55355851
_symmetry_Int_Tables_number   1
_chemical_formula_structural   La13YOsPd5
_chemical_formula_sum   'La13 Y1 Os1 Pd5'
_cell_volume   608.93327538
_cell_formula_units_Z   1
loop_
 _symmetry_equiv_pos_site_id
 _symmetry_equiv_pos_as_xyz
  1  'x, y, z'
loop_
 _atom_site_type_symbol
 _atom_site_label
 _atom_site_symmetry_multiplicity
 _atom_site_fract_x
 _atom_site_fract_y
 _atom_site_fract_z
 _atom_site_occupancy
  La  La0  1  0.669938  0.330062  0.964763  1
  La  La1  1  0.128842  0.871158  0.241845  1
  La  La2  1  0.749808  0.884811  0.241933  1
  La  La3  1  0.115189  0.250192  0.241933  1
  La  La4  1  0.872382  0.127618  0.752002  1
  La  La5  1  0.252635  0.125543  0.742089  1
  La  La6  1  0.874457  0.747365  0.742089  1
  La  La7  1  0.536437  0.463563  0.446737  1
  La  La8  1  0.919690  0.453643  0.437778  1
  La  La9  1  0.546357  0.080310  0.437778  1
  La  La10  1  0.461611  0.538389  0.948298  1
  La  La11  1  0.078350  0.535847  0.944108  1
  La  La12  1  0.464153  0.921650  0.944108  1
  Y  Y13  1  0.333408  0.666592  0.454437  1
  Os  Os14  1  0.811299  0.188701  0.188114  1
  Pd  Pd15  1  0.373244  0.188951  0.192831  1
  Pd  Pd16  1  0.811049  0.626756  0.192831  1
  Pd  Pd17  1  0.189712  0.810288  0.691894  1
  Pd  Pd18  1  0.619383  0.807943  0.690111  1
  Pd  Pd19  1  0.192057  0.380617  0.690111  1
