# generated using pymatgen
data_Tb5Bi2Os
_symmetry_space_group_name_H-M   'P 1'
_cell_length_a   7.99842300
_cell_length_b   9.06360400
_cell_length_c   12.53719300
_cell_angle_alpha   90.00000000
_cell_angle_beta   90.00000000
_cell_angle_gamma   90.00000000
_symmetry_Int_Tables_number   1
_chemical_formula_structural   Tb5Bi2Os
_chemical_formula_sum   'Tb20 Bi8 Os4'
_cell_volume   908.87802308
_cell_formula_units_Z   4
loop_
 _symmetry_equiv_pos_site_id
 _symmetry_equiv_pos_as_xyz
  1  'x, y, z'
loop_
 _atom_site_type_symbol
 _atom_site_label
 _atom_site_symmetry_multiplicity
 _atom_site_fract_x
 _atom_site_fract_y
 _atom_site_fract_z
 _atom_site_occupancy
  Tb  Tb0  1  0.842727  0.750000  0.792486  1
  Tb  Tb1  1  0.157273  0.250000  0.207514  1
  Tb  Tb2  1  0.342727  0.250000  0.707514  1
  Tb  Tb3  1  0.657273  0.750000  0.292486  1
  Tb  Tb4  1  0.374958  0.750000  0.693206  1
  Tb  Tb5  1  0.625042  0.250000  0.306794  1
  Tb  Tb6  1  0.874958  0.250000  0.806794  1
  Tb  Tb7  1  0.125042  0.750000  0.193206  1
  Tb  Tb8  1  0.942925  0.750000  0.504574  1
  Tb  Tb9  1  0.057075  0.250000  0.495426  1
  Tb  Tb10  1  0.442925  0.250000  0.995426  1
  Tb  Tb11  1  0.557075  0.750000  0.004574  1
  Tb  Tb12  1  0.675390  0.041456  0.563691  1
  Tb  Tb13  1  0.324610  0.958544  0.436309  1
  Tb  Tb14  1  0.175390  0.958544  0.936309  1
  Tb  Tb15  1  0.324610  0.541456  0.436309  1
  Tb  Tb16  1  0.824610  0.041456  0.063691  1
  Tb  Tb17  1  0.675390  0.458544  0.563691  1
  Tb  Tb18  1  0.824610  0.458544  0.063691  1
  Tb  Tb19  1  0.175390  0.541456  0.936309  1
  Bi  Bi20  1  0.569529  0.493672  0.827761  1
  Bi  Bi21  1  0.430471  0.506328  0.172239  1
  Bi  Bi22  1  0.069529  0.506328  0.672239  1
  Bi  Bi23  1  0.430471  0.993672  0.172239  1
  Bi  Bi24  1  0.930471  0.493672  0.327761  1
  Bi  Bi25  1  0.569529  0.006328  0.827761  1
  Bi  Bi26  1  0.930471  0.006328  0.327761  1
  Bi  Bi27  1  0.069529  0.993672  0.672239  1
  Os  Os28  1  0.575539  0.750000  0.511356  1
  Os  Os29  1  0.424461  0.250000  0.488644  1
  Os  Os30  1  0.075539  0.250000  0.988644  1
  Os  Os31  1  0.924461  0.750000  0.011356  1
