# generated using pymatgen
data_GdTm(Si7Ir3)2
_symmetry_space_group_name_H-M   'P 1'
_cell_length_a   7.88919240
_cell_length_b   7.88919201
_cell_length_c   7.88919200
_cell_angle_alpha   56.54365620
_cell_angle_beta   56.54367545
_cell_angle_gamma   56.54366553
_symmetry_Int_Tables_number   1
_chemical_formula_structural   GdTm(Si7Ir3)2
_chemical_formula_sum   'Gd1 Tm1 Si14 Ir6'
_cell_volume   319.47067565
_cell_formula_units_Z   1
loop_
 _symmetry_equiv_pos_site_id
 _symmetry_equiv_pos_as_xyz
  1  'x, y, z'
loop_
 _atom_site_type_symbol
 _atom_site_label
 _atom_site_symmetry_multiplicity
 _atom_site_fract_x
 _atom_site_fract_y
 _atom_site_fract_z
 _atom_site_occupancy
  Gd  Gd0  1  0.000000  0.000000  0.000000  1
  Tm  Tm1  1  0.500000  0.500000  0.500000  1
  Si  Si2  1  0.850691  0.065771  0.671518  1
  Si  Si3  1  0.671518  0.850691  0.065771  1
  Si  Si4  1  0.065771  0.671518  0.850691  1
  Si  Si5  1  0.648624  0.828065  0.434817  1
  Si  Si6  1  0.250189  0.250189  0.250189  1
  Si  Si7  1  0.749811  0.749811  0.749811  1
  Si  Si8  1  0.171935  0.565183  0.351376  1
  Si  Si9  1  0.565183  0.351376  0.171935  1
  Si  Si10  1  0.351376  0.171935  0.565183  1
  Si  Si11  1  0.934229  0.328482  0.149309  1
  Si  Si12  1  0.328482  0.149309  0.934229  1
  Si  Si13  1  0.149309  0.934229  0.328482  1
  Si  Si14  1  0.828065  0.434817  0.648624  1
  Si  Si15  1  0.434817  0.648624  0.828065  1
  Ir  Ir16  1  0.748715  0.071599  0.430438  1
  Ir  Ir17  1  0.430438  0.748715  0.071599  1
  Ir  Ir18  1  0.071599  0.430438  0.748715  1
  Ir  Ir19  1  0.251285  0.928401  0.569562  1
  Ir  Ir20  1  0.569562  0.251285  0.928401  1
  Ir  Ir21  1  0.928401  0.569562  0.251285  1
