# generated using pymatgen
data_Sc5(GeSb)2
_symmetry_space_group_name_H-M   'P 1'
_cell_length_a   8.05611572
_cell_length_b   8.05611471
_cell_length_c   7.45325100
_cell_angle_alpha   90.00000000
_cell_angle_beta   90.00000000
_cell_angle_gamma   125.00899097
_symmetry_Int_Tables_number   1
_chemical_formula_structural   Sc5(GeSb)2
_chemical_formula_sum   'Sc10 Ge4 Sb4'
_cell_volume   396.19945754
_cell_formula_units_Z   2
loop_
 _symmetry_equiv_pos_site_id
 _symmetry_equiv_pos_as_xyz
  1  'x, y, z'
loop_
 _atom_site_type_symbol
 _atom_site_label
 _atom_site_symmetry_multiplicity
 _atom_site_fract_x
 _atom_site_fract_y
 _atom_site_fract_z
 _atom_site_occupancy
  Sc  Sc0  1  0.037628  0.290235  0.336116  1
  Sc  Sc1  1  0.962372  0.709765  0.663884  1
  Sc  Sc2  1  0.462372  0.209765  0.836116  1
  Sc  Sc3  1  0.790235  0.537628  0.163884  1
  Sc  Sc4  1  0.537628  0.790235  0.163884  1
  Sc  Sc5  1  0.209765  0.462372  0.836116  1
  Sc  Sc6  1  0.709765  0.962372  0.663884  1
  Sc  Sc7  1  0.290235  0.037628  0.336116  1
  Sc  Sc8  1  0.000000  0.000000  0.000000  1
  Sc  Sc9  1  0.500000  0.500000  0.500000  1
  Ge  Ge10  1  0.361902  0.361902  0.137063  1
  Ge  Ge11  1  0.638098  0.638098  0.862937  1
  Ge  Ge12  1  0.138098  0.138098  0.637063  1
  Ge  Ge13  1  0.861902  0.861902  0.362937  1
  Sb  Sb14  1  0.794435  0.205565  0.000000  1
  Sb  Sb15  1  0.205565  0.794435  0.000000  1
  Sb  Sb16  1  0.705565  0.294435  0.500000  1
  Sb  Sb17  1  0.294435  0.705565  0.500000  1
