# generated using pymatgen
data_CeNd15(CdCo)4
_symmetry_space_group_name_H-M   'P 1'
_cell_length_a   9.83862739
_cell_length_b   9.83862839
_cell_length_c   9.65170800
_cell_angle_alpha   60.62650431
_cell_angle_beta   60.62650103
_cell_angle_gamma   59.73751731
_symmetry_Int_Tables_number   1
_chemical_formula_structural   CeNd15(CdCo)4
_chemical_formula_sum   'Ce1 Nd15 Cd4 Co4'
_cell_volume   665.45978713
_cell_formula_units_Z   1
loop_
 _symmetry_equiv_pos_site_id
 _symmetry_equiv_pos_as_xyz
  1  'x, y, z'
loop_
 _atom_site_type_symbol
 _atom_site_label
 _atom_site_symmetry_multiplicity
 _atom_site_fract_x
 _atom_site_fract_y
 _atom_site_fract_z
 _atom_site_occupancy
  Ce  Ce0  1  0.430132  0.430132  0.069868  1
  Nd  Nd1  1  0.600388  0.600388  0.592630  1
  Nd  Nd2  1  0.192593  0.805392  0.814308  1
  Nd  Nd3  1  0.058626  0.058626  0.441374  1
  Nd  Nd4  1  0.437039  0.054850  0.065137  1
  Nd  Nd5  1  0.805392  0.192593  0.814308  1
  Nd  Nd6  1  0.437039  0.054850  0.442974  1
  Nd  Nd7  1  0.594419  0.215577  0.595001  1
  Nd  Nd8  1  0.815040  0.815040  0.184960  1
  Nd  Nd9  1  0.215577  0.594419  0.595001  1
  Nd  Nd10  1  0.805392  0.192593  0.187708  1
  Nd  Nd11  1  0.054850  0.437039  0.442974  1
  Nd  Nd12  1  0.192593  0.805392  0.187708  1
  Nd  Nd13  1  0.600388  0.600388  0.206595  1
  Nd  Nd14  1  0.182599  0.182599  0.817401  1
  Nd  Nd15  1  0.054850  0.437039  0.065137  1
  Cd  Cd16  1  0.830946  0.830946  0.510006  1
  Cd  Cd17  1  0.830946  0.830946  0.828101  1
  Cd  Cd18  1  0.511708  0.831731  0.828279  1
  Cd  Cd19  1  0.831731  0.511708  0.828279  1
  Co  Co20  1  0.402877  0.402877  0.340938  1
  Co  Co21  1  0.824044  0.387954  0.394001  1
  Co  Co22  1  0.387954  0.824044  0.394001  1
  Co  Co23  1  0.402877  0.402877  0.853308  1
