# generated using pymatgen
data_Pr5Dy3(P7Ir8)2
_symmetry_space_group_name_H-M   'P 1'
_cell_length_a   3.97875000
_cell_length_b   12.82004149
_cell_length_c   13.23053379
_cell_angle_alpha   80.98428051
_cell_angle_beta   90.00000000
_cell_angle_gamma   90.00000000
_symmetry_Int_Tables_number   1
_chemical_formula_structural   Pr5Dy3(P7Ir8)2
_chemical_formula_sum   'Pr5 Dy3 P14 Ir16'
_cell_volume   666.52199783
_cell_formula_units_Z   1
loop_
 _symmetry_equiv_pos_site_id
 _symmetry_equiv_pos_as_xyz
  1  'x, y, z'
loop_
 _atom_site_type_symbol
 _atom_site_label
 _atom_site_symmetry_multiplicity
 _atom_site_fract_x
 _atom_site_fract_y
 _atom_site_fract_z
 _atom_site_occupancy
  Pr  Pr0  1  0.250000  0.104813  0.788559  1
  Pr  Pr1  1  0.750000  0.895793  0.211072  1
  Pr  Pr2  1  0.250000  0.279631  0.102432  1
  Pr  Pr3  1  0.750000  0.720278  0.896924  1
  Pr  Pr4  1  0.250000  0.519042  0.293660  1
  Dy  Dy5  1  0.750000  0.480003  0.705772  1
  Dy  Dy6  1  0.250000  0.208296  0.439424  1
  Dy  Dy7  1  0.750000  0.791484  0.561168  1
  P  P8  1  0.250000  0.051717  0.099803  1
  P  P9  1  0.750000  0.948546  0.899750  1
  P  P10  1  0.250000  0.315755  0.687407  1
  P  P11  1  0.750000  0.686309  0.314111  1
  P  P12  1  0.250000  0.607742  0.566062  1
  P  P13  1  0.750000  0.389896  0.436795  1
  P  P14  1  0.250000  0.842504  0.715603  1
  P  P15  1  0.750000  0.156124  0.284262  1
  P  P16  1  0.750000  0.258766  0.917821  1
  P  P17  1  0.250000  0.741764  0.081675  1
  P  P18  1  0.750000  0.092624  0.587943  1
  P  P19  1  0.250000  0.907678  0.413062  1
  P  P20  1  0.750000  0.472629  0.127349  1
  P  P21  1  0.250000  0.527476  0.869533  1
  Ir  Ir22  1  0.250000  0.990398  0.575602  1
  Ir  Ir23  1  0.750000  0.010168  0.424735  1
  Ir  Ir24  1  0.250000  0.661268  0.727781  1
  Ir  Ir25  1  0.750000  0.335921  0.271369  1
  Ir  Ir26  1  0.250000  0.552709  0.045581  1
  Ir  Ir27  1  0.750000  0.447774  0.951291  1
  Ir  Ir28  1  0.250000  0.062316  0.273990  1
  Ir  Ir29  1  0.750000  0.937046  0.725923  1
  Ir  Ir30  1  0.250000  0.422305  0.525844  1
  Ir  Ir31  1  0.750000  0.578160  0.478304  1
  Ir  Ir32  1  0.250000  0.914974  0.997351  1
  Ir  Ir33  1  0.750000  0.085480  0.002144  1
  Ir  Ir34  1  0.250000  0.729320  0.398518  1
  Ir  Ir35  1  0.750000  0.271442  0.603324  1
  Ir  Ir36  1  0.250000  0.343673  0.855797  1
  Ir  Ir37  1  0.750000  0.658179  0.142254  1
