# generated using pymatgen
data_Cs4SnCl6
_symmetry_space_group_name_H-M   'P 1'
_cell_length_a   9.56626593
_cell_length_b   9.56626568
_cell_length_c   9.56626601
_cell_angle_alpha   90.87483369
_cell_angle_beta   89.12516669
_cell_angle_gamma   90.87483337
_symmetry_Int_Tables_number   1
_chemical_formula_structural   Cs4SnCl6
_chemical_formula_sum   'Cs8 Sn2 Cl12'
_cell_volume   875.13886848
_cell_formula_units_Z   2
loop_
 _symmetry_equiv_pos_site_id
 _symmetry_equiv_pos_as_xyz
  1  'x, y, z'
loop_
 _atom_site_type_symbol
 _atom_site_label
 _atom_site_symmetry_multiplicity
 _atom_site_fract_x
 _atom_site_fract_y
 _atom_site_fract_z
 _atom_site_occupancy
  Cs  Cs0  1  0.377098  0.250000  0.122902  1
  Cs  Cs1  1  0.877098  0.377098  0.250000  1
  Cs  Cs2  1  0.249999  0.750000  0.250000  1
  Cs  Cs3  1  0.750000  0.877098  0.377099  1
  Cs  Cs4  1  0.250000  0.122902  0.622902  1
  Cs  Cs5  1  0.122902  0.622902  0.750000  1
  Cs  Cs6  1  0.750000  0.250000  0.750001  1
  Cs  Cs7  1  0.622902  0.750000  0.877098  1
  Sn  Sn8  1  0.000000  0.000000  0.000000  1
  Sn  Sn9  1  0.500000  0.500000  0.500001  1
  Cl  Cl10  1  0.713068  0.071286  0.060471  1
  Cl  Cl11  1  0.939529  0.713068  0.071286  1
  Cl  Cl12  1  0.560471  0.571286  0.213068  1
  Cl  Cl13  1  0.071285  0.060471  0.286932  1
  Cl  Cl14  1  0.213067  0.439529  0.428714  1
  Cl  Cl15  1  0.571285  0.213067  0.439529  1
  Cl  Cl16  1  0.428714  0.786932  0.560471  1
  Cl  Cl17  1  0.786932  0.560470  0.571286  1
  Cl  Cl18  1  0.928715  0.939529  0.713068  1
  Cl  Cl19  1  0.439529  0.428715  0.786933  1
  Cl  Cl20  1  0.060471  0.286933  0.928715  1
  Cl  Cl21  1  0.286932  0.928715  0.939529  1
