# generated using pymatgen
data_Ho4Er12Tl4Pd3Rh
_symmetry_space_group_name_H-M   'P 1'
_cell_length_a   9.67217054
_cell_length_b   9.66881578
_cell_length_c   9.68000258
_cell_angle_alpha   59.85136674
_cell_angle_beta   59.89484810
_cell_angle_gamma   59.78457929
_symmetry_Int_Tables_number   1
_chemical_formula_structural   Ho4Er12Tl4Pd3Rh
_chemical_formula_sum   'Ho4 Er12 Tl4 Pd3 Rh1'
_cell_volume   637.84127201
_cell_formula_units_Z   1
loop_
 _symmetry_equiv_pos_site_id
 _symmetry_equiv_pos_as_xyz
  1  'x, y, z'
loop_
 _atom_site_type_symbol
 _atom_site_label
 _atom_site_symmetry_multiplicity
 _atom_site_fract_x
 _atom_site_fract_y
 _atom_site_fract_z
 _atom_site_occupancy
  Ho  Ho0  1  0.189135  0.189203  0.810347  1
  Ho  Ho1  1  0.440360  0.062037  0.062191  1
  Ho  Ho2  1  0.436615  0.064708  0.436395  1
  Ho  Ho3  1  0.062175  0.440157  0.062576  1
  Er  Er4  1  0.651096  0.054395  0.650513  1
  Er  Er5  1  0.183160  0.812082  0.811763  1
  Er  Er6  1  0.061666  0.061679  0.440871  1
  Er  Er7  1  0.810594  0.188880  0.189264  1
  Er  Er8  1  0.812073  0.812151  0.183214  1
  Er  Er9  1  0.650008  0.650447  0.055206  1
  Er  Er10  1  0.647385  0.647744  0.647280  1
  Er  Er11  1  0.064344  0.436984  0.436627  1
  Er  Er12  1  0.054780  0.651127  0.650073  1
  Er  Er13  1  0.812124  0.182895  0.811873  1
  Er  Er14  1  0.436889  0.437166  0.064270  1
  Er  Er15  1  0.189045  0.810354  0.189291  1
  Tl  Tl16  1  0.413912  0.756949  0.414304  1
  Tl  Tl17  1  0.414282  0.414215  0.757029  1
  Tl  Tl18  1  0.757372  0.413816  0.414235  1
  Tl  Tl19  1  0.413397  0.413568  0.413200  1
  Pd  Pd20  1  0.854989  0.432103  0.855824  1
  Pd  Pd21  1  0.855956  0.855623  0.431335  1
  Pd  Pd22  1  0.431934  0.854877  0.856008  1
  Rh  Rh23  1  0.856709  0.856842  0.856311  1
