# generated using pymatgen
data_Tb6Co17Si10MoP2
_symmetry_space_group_name_H-M   'P 1'
_cell_length_a   3.78510900
_cell_length_b   10.77953100
_cell_length_c   12.45662000
_cell_angle_alpha   90.00000000
_cell_angle_beta   90.00000000
_cell_angle_gamma   90.00000000
_symmetry_Int_Tables_number   1
_chemical_formula_structural   Tb6Co17Si10MoP2
_chemical_formula_sum   'Tb6 Co17 Si10 Mo1 P2'
_cell_volume   508.25126981
_cell_formula_units_Z   1
loop_
 _symmetry_equiv_pos_site_id
 _symmetry_equiv_pos_as_xyz
  1  'x, y, z'
loop_
 _atom_site_type_symbol
 _atom_site_label
 _atom_site_symmetry_multiplicity
 _atom_site_fract_x
 _atom_site_fract_y
 _atom_site_fract_z
 _atom_site_occupancy
  Tb  Tb0  1  0.000000  0.500000  0.525035  1
  Tb  Tb1  1  0.500000  0.000000  0.473907  1
  Tb  Tb2  1  0.500000  0.819766  0.206209  1
  Tb  Tb3  1  0.500000  0.180234  0.206209  1
  Tb  Tb4  1  0.000000  0.679421  0.797328  1
  Tb  Tb5  1  0.000000  0.320579  0.797328  1
  Co  Co6  1  0.000000  0.000000  0.847013  1
  Co  Co7  1  0.500000  0.500000  0.702775  1
  Co  Co8  1  0.000000  0.000000  0.302399  1
  Co  Co9  1  0.000000  0.500000  0.980622  1
  Co  Co10  1  0.500000  0.000000  0.015597  1
  Co  Co11  1  0.500000  0.331460  0.990333  1
  Co  Co12  1  0.500000  0.668540  0.990333  1
  Co  Co13  1  0.000000  0.166587  0.002892  1
  Co  Co14  1  0.000000  0.833413  0.002892  1
  Co  Co15  1  0.500000  0.304628  0.430564  1
  Co  Co16  1  0.500000  0.695372  0.430564  1
  Co  Co17  1  0.000000  0.199178  0.571531  1
  Co  Co18  1  0.000000  0.800822  0.571531  1
  Co  Co19  1  0.500000  0.883023  0.707275  1
  Co  Co20  1  0.500000  0.116977  0.707275  1
  Co  Co21  1  0.000000  0.617662  0.294044  1
  Co  Co22  1  0.000000  0.382338  0.294044  1
  Si  Si23  1  0.000000  0.000000  0.114630  1
  Si  Si24  1  0.000000  0.000000  0.661481  1
  Si  Si25  1  0.500000  0.305121  0.615270  1
  Si  Si26  1  0.500000  0.694879  0.615270  1
  Si  Si27  1  0.000000  0.196757  0.387628  1
  Si  Si28  1  0.000000  0.803243  0.387628  1
  Si  Si29  1  0.500000  0.854166  0.891553  1
  Si  Si30  1  0.500000  0.145834  0.891553  1
  Si  Si31  1  0.000000  0.655063  0.102717  1
  Si  Si32  1  0.000000  0.344937  0.102717  1
  Mo  Mo33  1  0.500000  0.500000  0.151941  1
  P  P34  1  0.500000  0.500000  0.885347  1
  P  P35  1  0.500000  0.500000  0.344567  1
