# generated using pymatgen
data_LaEr20Fe8Sn7C12
_symmetry_space_group_name_H-M   'P 1'
_cell_length_a   10.97361271
_cell_length_b   10.97361360
_cell_length_c   10.97361300
_cell_angle_alpha   59.99999880
_cell_angle_beta   59.99999610
_cell_angle_gamma   60.00000010
_symmetry_Int_Tables_number   1
_chemical_formula_structural   LaEr20Fe8Sn7C12
_chemical_formula_sum   'La1 Er20 Fe8 Sn7 C12'
_cell_volume   934.40234191
_cell_formula_units_Z   1
loop_
 _symmetry_equiv_pos_site_id
 _symmetry_equiv_pos_as_xyz
  1  'x, y, z'
loop_
 _atom_site_type_symbol
 _atom_site_label
 _atom_site_symmetry_multiplicity
 _atom_site_fract_x
 _atom_site_fract_y
 _atom_site_fract_z
 _atom_site_occupancy
  La  La0  1  0.500000  0.500000  0.500000  1
  Er  Er1  1  0.637207  0.637207  0.088378  1
  Er  Er2  1  0.362793  0.911622  0.362793  1
  Er  Er3  1  0.637207  0.088378  0.637207  1
  Er  Er4  1  0.661073  0.000000  0.000000  1
  Er  Er5  1  0.000000  0.661073  0.000000  1
  Er  Er6  1  0.000000  0.661073  0.338927  1
  Er  Er7  1  0.338927  0.000000  0.661073  1
  Er  Er8  1  0.362793  0.362793  0.362793  1
  Er  Er9  1  0.088378  0.637207  0.637207  1
  Er  Er10  1  0.000000  0.000000  0.661073  1
  Er  Er11  1  0.661073  0.000000  0.338927  1
  Er  Er12  1  0.000000  0.000000  0.338927  1
  Er  Er13  1  0.661073  0.338927  0.000000  1
  Er  Er14  1  0.637207  0.637207  0.637207  1
  Er  Er15  1  0.338927  0.661073  0.000000  1
  Er  Er16  1  0.000000  0.338927  0.661073  1
  Er  Er17  1  0.338927  0.000000  0.000000  1
  Er  Er18  1  0.362793  0.362793  0.911622  1
  Er  Er19  1  0.000000  0.338927  0.000000  1
  Er  Er20  1  0.911622  0.362793  0.362793  1
  Fe  Fe21  1  0.191021  0.191021  0.426937  1
  Fe  Fe22  1  0.808979  0.808979  0.573064  1
  Fe  Fe23  1  0.808979  0.573064  0.808979  1
  Fe  Fe24  1  0.808979  0.808979  0.808979  1
  Fe  Fe25  1  0.426937  0.191021  0.191021  1
  Fe  Fe26  1  0.191021  0.191021  0.191021  1
  Fe  Fe27  1  0.191021  0.426937  0.191021  1
  Fe  Fe28  1  0.573064  0.808979  0.808979  1
  Sn  Sn29  1  0.286512  0.713488  0.286512  1
  Sn  Sn30  1  0.713488  0.286512  0.286512  1
  Sn  Sn31  1  0.713488  0.286512  0.713488  1
  Sn  Sn32  1  0.286512  0.713488  0.713488  1
  Sn  Sn33  1  0.000000  0.000000  0.000000  1
  Sn  Sn34  1  0.713488  0.713488  0.286512  1
  Sn  Sn35  1  0.286512  0.286512  0.713488  1
  C  C36  1  0.604470  0.895530  0.895530  1
  C  C37  1  0.104470  0.395530  0.395530  1
  C  C38  1  0.604470  0.895530  0.604470  1
  C  C39  1  0.395530  0.395530  0.104470  1
  C  C40  1  0.604470  0.604470  0.895530  1
  C  C41  1  0.395530  0.104470  0.395530  1
  C  C42  1  0.104470  0.395530  0.104470  1
  C  C43  1  0.895530  0.895530  0.604470  1
  C  C44  1  0.895530  0.604470  0.895530  1
  C  C45  1  0.895530  0.604470  0.604470  1
  C  C46  1  0.104470  0.104470  0.395530  1
  C  C47  1  0.395530  0.104470  0.104470  1
