# generated using pymatgen
data_DyHo3(Si2Os)2
_symmetry_space_group_name_H-M   'P 1'
_cell_length_a   5.72171872
_cell_length_b   5.72171793
_cell_length_c   9.99761714
_cell_angle_alpha   116.74577335
_cell_angle_beta   116.74577025
_cell_angle_gamma   43.26988540
_symmetry_Int_Tables_number   1
_chemical_formula_structural   DyHo3(Si2Os)2
_chemical_formula_sum   'Dy1 Ho3 Si4 Os2'
_cell_volume   196.29975449
_cell_formula_units_Z   1
loop_
 _symmetry_equiv_pos_site_id
 _symmetry_equiv_pos_as_xyz
  1  'x, y, z'
loop_
 _atom_site_type_symbol
 _atom_site_label
 _atom_site_symmetry_multiplicity
 _atom_site_fract_x
 _atom_site_fract_y
 _atom_site_fract_z
 _atom_site_occupancy
  Dy  Dy0  1  0.814456  0.814456  0.889285  1
  Ho  Ho1  1  0.185294  0.185294  0.111232  1
  Ho  Ho2  1  0.991851  0.991851  0.321221  1
  Ho  Ho3  1  0.008089  0.008089  0.678634  1
  Si  Si4  1  0.496968  0.496968  0.124769  1
  Si  Si5  1  0.356143  0.356143  0.439164  1
  Si  Si6  1  0.643715  0.643715  0.560475  1
  Si  Si7  1  0.503417  0.503417  0.875493  1
  Os  Os8  1  0.729221  0.729221  0.372763  1
  Os  Os9  1  0.270848  0.270848  0.626964  1
