# generated using pymatgen
data_Sc8Tc3B24Os
_symmetry_space_group_name_H-M   'P 1'
_cell_length_a   3.50482300
_cell_length_b   8.89794540
_cell_length_c   11.20701801
_cell_angle_alpha   89.95250762
_cell_angle_beta   90.00000000
_cell_angle_gamma   90.00000000
_symmetry_Int_Tables_number   1
_chemical_formula_structural   Sc8Tc3B24Os
_chemical_formula_sum   'Sc8 Tc3 B24 Os1'
_cell_volume   349.49884716
_cell_formula_units_Z   1
loop_
 _symmetry_equiv_pos_site_id
 _symmetry_equiv_pos_as_xyz
  1  'x, y, z'
loop_
 _atom_site_type_symbol
 _atom_site_label
 _atom_site_symmetry_multiplicity
 _atom_site_fract_x
 _atom_site_fract_y
 _atom_site_fract_z
 _atom_site_occupancy
  Sc  Sc0  1  0.000000  0.322543  0.413268  1
  Sc  Sc1  1  0.000000  0.676311  0.583852  1
  Sc  Sc2  1  0.000000  0.821275  0.087917  1
  Sc  Sc3  1  0.000000  0.179549  0.914520  1
  Sc  Sc4  1  0.000000  0.943404  0.371241  1
  Sc  Sc5  1  0.000000  0.057100  0.628536  1
  Sc  Sc6  1  0.000000  0.444069  0.128976  1
  Sc  Sc7  1  0.000000  0.556136  0.870970  1
  Tc  Tc8  1  0.000000  0.638616  0.320394  1
  Tc  Tc9  1  0.000000  0.361023  0.680497  1
  Tc  Tc10  1  0.000000  0.138336  0.178933  1
  B  B11  1  0.500000  0.552574  0.434690  1
  B  B12  1  0.500000  0.447331  0.565328  1
  B  B13  1  0.500000  0.052553  0.064950  1
  B  B14  1  0.500000  0.946694  0.934702  1
  B  B15  1  0.500000  0.752640  0.421531  1
  B  B16  1  0.500000  0.247430  0.578437  1
  B  B17  1  0.500000  0.253157  0.078470  1
  B  B18  1  0.500000  0.747761  0.921149  1
  B  B19  1  0.500000  0.794595  0.264435  1
  B  B20  1  0.500000  0.205209  0.736235  1
  B  B21  1  0.500000  0.294651  0.235764  1
  B  B22  1  0.500000  0.705973  0.764182  1
  B  B23  1  0.500000  0.630161  0.182394  1
  B  B24  1  0.500000  0.369984  0.818000  1
  B  B25  1  0.500000  0.129768  0.317471  1
  B  B26  1  0.500000  0.869859  0.682548  1
  B  B27  1  0.500000  0.978664  0.212514  1
  B  B28  1  0.500000  0.020440  0.787527  1
  B  B29  1  0.500000  0.478822  0.287294  1
  B  B30  1  0.500000  0.521253  0.712519  1
  B  B31  1  0.500000  0.599410  0.027272  1
  B  B32  1  0.500000  0.401638  0.972652  1
  B  B33  1  0.500000  0.098934  0.472683  1
  B  B34  1  0.500000  0.900856  0.527683  1
  Os  Os35  1  0.000000  0.861282  0.820467  1
