# generated using pymatgen
data_Sc4ZnNi3Pt8
_symmetry_space_group_name_H-M   'P 1'
_cell_length_a   5.66043607
_cell_length_b   5.65987503
_cell_length_c   7.67266909
_cell_angle_alpha   89.99174084
_cell_angle_beta   89.98414394
_cell_angle_gamma   90.00694353
_symmetry_Int_Tables_number   1
_chemical_formula_structural   Sc4ZnNi3Pt8
_chemical_formula_sum   'Sc4 Zn1 Ni3 Pt8'
_cell_volume   245.81205361
_cell_formula_units_Z   1
loop_
 _symmetry_equiv_pos_site_id
 _symmetry_equiv_pos_as_xyz
  1  'x, y, z'
loop_
 _atom_site_type_symbol
 _atom_site_label
 _atom_site_symmetry_multiplicity
 _atom_site_fract_x
 _atom_site_fract_y
 _atom_site_fract_z
 _atom_site_occupancy
  Sc  Sc0  1  0.750359  0.250001  0.000046  1
  Sc  Sc1  1  0.249670  0.749998  0.000037  1
  Sc  Sc2  1  0.250376  0.750000  0.499947  1
  Sc  Sc3  1  0.749719  0.250000  0.499952  1
  Zn  Zn4  1  0.249880  0.250002  0.500008  1
  Ni  Ni5  1  0.249868  0.249992  0.000012  1
  Ni  Ni6  1  0.749955  0.749999  0.000019  1
  Ni  Ni7  1  0.749874  0.750001  0.499971  1
  Pt  Pt8  1  0.501331  0.998720  0.249864  1
  Pt  Pt9  1  0.501335  0.501275  0.249941  1
  Pt  Pt10  1  0.998703  0.998633  0.250318  1
  Pt  Pt11  1  0.998720  0.501378  0.250255  1
  Pt  Pt12  1  0.998732  0.998623  0.749670  1
  Pt  Pt13  1  0.998721  0.501368  0.749754  1
  Pt  Pt14  1  0.501380  0.998718  0.750143  1
  Pt  Pt15  1  0.501380  0.501292  0.750065  1
