# generated using pymatgen
data_LaTbEr2(NiP)4
_symmetry_space_group_name_H-M   'P 1'
_cell_length_a   3.92037400
_cell_length_b   3.92037445
_cell_length_c   15.66848100
_cell_angle_alpha   90.00000000
_cell_angle_beta   90.00000000
_cell_angle_gamma   119.99999617
_symmetry_Int_Tables_number   1
_chemical_formula_structural   LaTbEr2(NiP)4
_chemical_formula_sum   'La1 Tb1 Er2 Ni4 P4'
_cell_volume   208.55115267
_cell_formula_units_Z   1
loop_
 _symmetry_equiv_pos_site_id
 _symmetry_equiv_pos_as_xyz
  1  'x, y, z'
loop_
 _atom_site_type_symbol
 _atom_site_label
 _atom_site_symmetry_multiplicity
 _atom_site_fract_x
 _atom_site_fract_y
 _atom_site_fract_z
 _atom_site_occupancy
  La  La0  1  0.000000  0.000000  0.000000  1
  Tb  Tb1  1  0.000000  0.000000  0.500000  1
  Er  Er2  1  0.000000  0.000000  0.255772  1
  Er  Er3  1  0.000000  0.000000  0.744228  1
  Ni  Ni4  1  0.333333  0.666667  0.138823  1
  Ni  Ni5  1  0.666667  0.333333  0.861177  1
  Ni  Ni6  1  0.666667  0.333333  0.628415  1
  Ni  Ni7  1  0.333333  0.666667  0.371585  1
  P  P8  1  0.333333  0.666667  0.620622  1
  P  P9  1  0.666667  0.333333  0.379378  1
  P  P10  1  0.666667  0.333333  0.133742  1
  P  P11  1  0.333333  0.666667  0.866258  1
