# generated using pymatgen
data_Ho4GaSi3Ni8
_symmetry_space_group_name_H-M   'P 1'
_cell_length_a   5.41090325
_cell_length_b   6.41484400
_cell_length_c   7.05104104
_cell_angle_alpha   90.00000000
_cell_angle_beta   90.68398425
_cell_angle_gamma   90.00000000
_symmetry_Int_Tables_number   1
_chemical_formula_structural   Ho4GaSi3Ni8
_chemical_formula_sum   'Ho4 Ga1 Si3 Ni8'
_cell_volume   244.72490245
_cell_formula_units_Z   1
loop_
 _symmetry_equiv_pos_site_id
 _symmetry_equiv_pos_as_xyz
  1  'x, y, z'
loop_
 _atom_site_type_symbol
 _atom_site_label
 _atom_site_symmetry_multiplicity
 _atom_site_fract_x
 _atom_site_fract_y
 _atom_site_fract_z
 _atom_site_occupancy
  Ho  Ho0  1  0.354542  0.750000  0.028681  1
  Ho  Ho1  1  0.154586  0.750000  0.531740  1
  Ho  Ho2  1  0.649369  0.250000  0.971126  1
  Ho  Ho3  1  0.844696  0.250000  0.466361  1
  Ga  Ga4  1  0.655125  0.750000  0.376754  1
  Si  Si5  1  0.853820  0.750000  0.874671  1
  Si  Si6  1  0.347676  0.250000  0.623738  1
  Si  Si7  1  0.149241  0.250000  0.119970  1
  Ni  Ni8  1  0.923650  0.556600  0.165283  1
  Ni  Ni9  1  0.584921  0.945585  0.681151  1
  Ni  Ni10  1  0.092505  0.057866  0.826696  1
  Ni  Ni11  1  0.394398  0.440044  0.330349  1
  Ni  Ni12  1  0.092505  0.442134  0.826696  1
  Ni  Ni13  1  0.394398  0.059956  0.330349  1
  Ni  Ni14  1  0.923650  0.943400  0.165283  1
  Ni  Ni15  1  0.584921  0.554415  0.681151  1
