# generated using pymatgen
data_Zr3Sc5Nb12Si15Ge
_symmetry_space_group_name_H-M   'P 1'
_cell_length_a   6.71268683
_cell_length_b   6.90097743
_cell_length_c   13.19923761
_cell_angle_alpha   89.91412191
_cell_angle_beta   89.99702250
_cell_angle_gamma   90.00235278
_symmetry_Int_Tables_number   1
_chemical_formula_structural   Zr3Sc5Nb12Si15Ge
_chemical_formula_sum   'Zr3 Sc5 Nb12 Si15 Ge1'
_cell_volume   611.44211918
_cell_formula_units_Z   1
loop_
 _symmetry_equiv_pos_site_id
 _symmetry_equiv_pos_as_xyz
  1  'x, y, z'
loop_
 _atom_site_type_symbol
 _atom_site_label
 _atom_site_symmetry_multiplicity
 _atom_site_fract_x
 _atom_site_fract_y
 _atom_site_fract_z
 _atom_site_occupancy
  Zr  Zr0  1  0.499572  0.673816  0.596377  1
  Zr  Zr1  1  0.000378  0.825919  0.904268  1
  Zr  Zr2  1  0.499251  0.326142  0.096001  1
  Sc  Sc3  1  0.003173  0.175570  0.404421  1
  Sc  Sc4  1  0.499462  0.328398  0.405138  1
  Sc  Sc5  1  0.001336  0.173370  0.094507  1
  Sc  Sc6  1  0.497609  0.673562  0.905675  1
  Sc  Sc7  1  0.999786  0.824281  0.595279  1
  Nb  Nb8  1  0.661383  0.175284  0.625724  1
  Nb  Nb9  1  0.162301  0.327374  0.876017  1
  Nb  Nb10  1  0.336961  0.827168  0.123773  1
  Nb  Nb11  1  0.838115  0.669043  0.374343  1
  Nb  Nb12  1  0.334578  0.826153  0.375075  1
  Nb  Nb13  1  0.836010  0.671483  0.124030  1
  Nb  Nb14  1  0.664323  0.172193  0.875575  1
  Nb  Nb15  1  0.164979  0.329198  0.625015  1
  Nb  Nb16  1  0.837381  0.495751  0.751207  1
  Nb  Nb17  1  0.337877  0.004615  0.749261  1
  Nb  Nb18  1  0.163088  0.505265  0.249608  1
  Nb  Nb19  1  0.661837  0.994915  0.247291  1
  Si  Si20  1  0.168086  0.534231  0.038979  1
  Si  Si21  1  0.331747  0.034769  0.960965  1
  Si  Si22  1  0.831970  0.465316  0.538906  1
  Si  Si23  1  0.326856  0.034877  0.539396  1
  Si  Si24  1  0.828993  0.465142  0.961247  1
  Si  Si25  1  0.670407  0.964951  0.038756  1
  Si  Si26  1  0.169298  0.533103  0.460908  1
  Si  Si27  1  0.459705  0.386786  0.751154  1
  Si  Si28  1  0.960325  0.114192  0.749273  1
  Si  Si29  1  0.540237  0.614087  0.250135  1
  Si  Si30  1  0.039046  0.886428  0.249588  1
  Si  Si31  1  0.704549  0.862798  0.750033  1
  Si  Si32  1  0.204449  0.637502  0.750218  1
  Si  Si33  1  0.294348  0.137345  0.250971  1
  Si  Si34  1  0.796518  0.360658  0.250836  1
  Ge  Ge35  1  0.674067  0.968316  0.460051  1
