# generated using pymatgen
data_LaTbY2(WO6)2
_symmetry_space_group_name_H-M   'P 1'
_cell_length_a   5.48718700
_cell_length_b   7.82270145
_cell_length_c   11.62456467
_cell_angle_alpha   75.76776373
_cell_angle_beta   90.00000000
_cell_angle_gamma   90.00000000
_symmetry_Int_Tables_number   1
_chemical_formula_structural   LaTbY2(WO6)2
_chemical_formula_sum   'La2 Tb2 Y4 W4 O24'
_cell_volume   483.66498115
_cell_formula_units_Z   2
loop_
 _symmetry_equiv_pos_site_id
 _symmetry_equiv_pos_as_xyz
  1  'x, y, z'
loop_
 _atom_site_type_symbol
 _atom_site_label
 _atom_site_symmetry_multiplicity
 _atom_site_fract_x
 _atom_site_fract_y
 _atom_site_fract_z
 _atom_site_occupancy
  La  La0  1  0.313881  0.500000  0.750000  1
  La  La1  1  0.686119  0.500000  0.250000  1
  Tb  Tb2  1  0.258251  0.000000  0.750000  1
  Tb  Tb3  1  0.741749  0.000000  0.250000  1
  Y  Y4  1  0.187405  0.797488  0.076494  1
  Y  Y5  1  0.187405  0.202512  0.423506  1
  Y  Y6  1  0.812595  0.202512  0.923506  1
  Y  Y7  1  0.812595  0.797488  0.576494  1
  W  W8  1  0.747196  0.728802  0.884003  1
  W  W9  1  0.252804  0.728802  0.384003  1
  W  W10  1  0.747196  0.271198  0.615997  1
  W  W11  1  0.252804  0.271198  0.115997  1
  O  O12  1  0.856131  0.356650  0.456263  1
  O  O13  1  0.468554  0.845314  0.930593  1
  O  O14  1  0.856131  0.643350  0.043737  1
  O  O15  1  0.012827  0.279429  0.730097  1
  O  O16  1  0.987173  0.279429  0.230097  1
  O  O17  1  0.143869  0.356650  0.956263  1
  O  O18  1  0.653205  0.495609  0.887371  1
  O  O19  1  0.531446  0.154686  0.069407  1
  O  O20  1  0.143869  0.643350  0.543737  1
  O  O21  1  0.012827  0.720571  0.769903  1
  O  O22  1  0.453193  0.204729  0.272152  1
  O  O23  1  0.043055  0.941422  0.395844  1
  O  O24  1  0.468554  0.154686  0.569407  1
  O  O25  1  0.987173  0.720571  0.269903  1
  O  O26  1  0.956945  0.058578  0.604156  1
  O  O27  1  0.546807  0.204729  0.772152  1
  O  O28  1  0.546807  0.795271  0.727848  1
  O  O29  1  0.043055  0.058578  0.104156  1
  O  O30  1  0.653205  0.504391  0.612629  1
  O  O31  1  0.346795  0.504391  0.112629  1
  O  O32  1  0.453193  0.795271  0.227848  1
  O  O33  1  0.346795  0.495609  0.387371  1
  O  O34  1  0.531446  0.845314  0.430593  1
  O  O35  1  0.956945  0.941422  0.895844  1
