# generated using pymatgen
data_Dy8Sc12Si7Sb9
_symmetry_space_group_name_H-M   'P 1'
_cell_length_a   7.55369517
_cell_length_b   7.55815287
_cell_length_c   14.52520500
_cell_angle_alpha   90.00000000
_cell_angle_beta   90.00000000
_cell_angle_gamma   89.25516283
_symmetry_Int_Tables_number   1
_chemical_formula_structural   Dy8Sc12Si7Sb9
_chemical_formula_sum   'Dy8 Sc12 Si7 Sb9'
_cell_volume   829.20268246
_cell_formula_units_Z   1
loop_
 _symmetry_equiv_pos_site_id
 _symmetry_equiv_pos_as_xyz
  1  'x, y, z'
loop_
 _atom_site_type_symbol
 _atom_site_label
 _atom_site_symmetry_multiplicity
 _atom_site_fract_x
 _atom_site_fract_y
 _atom_site_fract_z
 _atom_site_occupancy
  Dy  Dy0  1  0.034994  0.690151  0.608212  1
  Dy  Dy1  1  0.966113  0.319047  0.389127  1
  Dy  Dy2  1  0.465148  0.176852  0.388916  1
  Dy  Dy3  1  0.966113  0.319047  0.110873  1
  Dy  Dy4  1  0.532537  0.822703  0.607116  1
  Dy  Dy5  1  0.034994  0.690151  0.891788  1
  Dy  Dy6  1  0.532537  0.822703  0.892884  1
  Dy  Dy7  1  0.465148  0.176852  0.111084  1
  Sc  Sc8  1  0.206518  0.992637  0.750000  1
  Sc  Sc9  1  0.794796  0.998796  0.250000  1
  Sc  Sc10  1  0.293186  0.496713  0.250000  1
  Sc  Sc11  1  0.697930  0.507683  0.750000  1
  Sc  Sc12  1  0.389545  0.338586  0.630913  1
  Sc  Sc13  1  0.621435  0.660225  0.365547  1
  Sc  Sc14  1  0.124634  0.836377  0.366378  1
  Sc  Sc15  1  0.621435  0.660225  0.134453  1
  Sc  Sc16  1  0.862098  0.151629  0.628294  1
  Sc  Sc17  1  0.389545  0.338586  0.869087  1
  Sc  Sc18  1  0.862098  0.151629  0.871706  1
  Sc  Sc19  1  0.124634  0.836377  0.133622  1
  Si  Si20  1  0.922474  0.623220  0.250000  1
  Si  Si21  1  0.420939  0.875052  0.250000  1
  Si  Si22  1  0.577040  0.122558  0.750000  1
  Si  Si23  1  0.350523  0.644772  0.750000  1
  Si  Si24  1  0.662471  0.364234  0.250000  1
  Si  Si25  1  0.163175  0.130586  0.250000  1
  Si  Si26  1  0.835111  0.868216  0.750000  1
  Sb  Sb27  1  0.073839  0.373353  0.750000  1
  Sb  Sb28  1  0.210398  0.045604  0.541323  1
  Sb  Sb29  1  0.787173  0.957225  0.455662  1
  Sb  Sb30  1  0.287427  0.537832  0.458311  1
  Sb  Sb31  1  0.787173  0.957225  0.044338  1
  Sb  Sb32  1  0.719495  0.464858  0.541408  1
  Sb  Sb33  1  0.210398  0.045604  0.958677  1
  Sb  Sb34  1  0.719495  0.464858  0.958592  1
  Sb  Sb35  1  0.287427  0.537832  0.041689  1
