# generated using pymatgen
data_Hf4Mn3V5
_symmetry_space_group_name_H-M   'P 1'
_cell_length_a   5.12530900
_cell_length_b   5.05711062
_cell_length_c   8.27702800
_cell_angle_alpha   90.00000000
_cell_angle_beta   90.00000000
_cell_angle_gamma   120.44711973
_symmetry_Int_Tables_number   1
_chemical_formula_structural   Hf4Mn3V5
_chemical_formula_sum   'Hf4 Mn3 V5'
_cell_volume   184.94950597
_cell_formula_units_Z   1
loop_
 _symmetry_equiv_pos_site_id
 _symmetry_equiv_pos_as_xyz
  1  'x, y, z'
loop_
 _atom_site_type_symbol
 _atom_site_label
 _atom_site_symmetry_multiplicity
 _atom_site_fract_x
 _atom_site_fract_y
 _atom_site_fract_z
 _atom_site_occupancy
  Hf  Hf0  1  0.333368  0.666738  0.441047  1
  Hf  Hf1  1  0.667230  0.334459  0.933854  1
  Hf  Hf2  1  0.667230  0.334459  0.566146  1
  Hf  Hf3  1  0.333368  0.666738  0.058953  1
  Mn  Mn4  1  0.659796  0.832322  0.750000  1
  Mn  Mn5  1  0.832516  0.665031  0.250000  1
  Mn  Mn6  1  0.172526  0.832322  0.750000  1
  V  V7  1  0.172148  0.344295  0.750000  1
  V  V8  1  0.832227  0.172756  0.250000  1
  V  V9  1  0.340530  0.172756  0.250000  1
  V  V10  1  0.994530  0.989061  0.994859  1
  V  V11  1  0.994530  0.989061  0.505141  1
