# generated using pymatgen
data_Ac2PI2
_symmetry_space_group_name_H-M   'P 1'
_cell_length_a   4.51143200
_cell_length_b   4.51143311
_cell_length_c   11.38746100
_cell_angle_alpha   90.00000000
_cell_angle_beta   90.00000000
_cell_angle_gamma   119.99999187
_symmetry_Int_Tables_number   1
_chemical_formula_structural   Ac2PI2
_chemical_formula_sum   'Ac2 P1 I2'
_cell_volume   200.71808649
_cell_formula_units_Z   1
loop_
 _symmetry_equiv_pos_site_id
 _symmetry_equiv_pos_as_xyz
  1  'x, y, z'
loop_
 _atom_site_type_symbol
 _atom_site_label
 _atom_site_symmetry_multiplicity
 _atom_site_fract_x
 _atom_site_fract_y
 _atom_site_fract_z
 _atom_site_occupancy
  Ac  Ac0  1  0.333333  0.666667  0.853796  1
  Ac  Ac1  1  0.666667  0.333333  0.146204  1
  P  P2  1  0.000000  0.000000  0.000000  1
  I  I3  1  0.666667  0.333333  0.661466  1
  I  I4  1  0.333333  0.666667  0.338534  1
