# generated using pymatgen
data_Np8NiS17
_symmetry_space_group_name_H-M   'P 1'
_cell_length_a   7.76137359
_cell_length_b   7.76137391
_cell_length_c   10.25427509
_cell_angle_alpha   80.24625940
_cell_angle_beta   80.24626184
_cell_angle_gamma   64.88867604
_symmetry_Int_Tables_number   1
_chemical_formula_structural   Np8NiS17
_chemical_formula_sum   'Np8 Ni1 S17'
_cell_volume   547.93771718
_cell_formula_units_Z   1
loop_
 _symmetry_equiv_pos_site_id
 _symmetry_equiv_pos_as_xyz
  1  'x, y, z'
loop_
 _atom_site_type_symbol
 _atom_site_label
 _atom_site_symmetry_multiplicity
 _atom_site_fract_x
 _atom_site_fract_y
 _atom_site_fract_z
 _atom_site_occupancy
  Np  Np0  1  0.182430  0.697503  0.702979  1
  Np  Np1  1  0.697503  0.182430  0.702979  1
  Np  Np2  1  0.817570  0.302497  0.297021  1
  Np  Np3  1  0.302497  0.817570  0.297021  1
  Np  Np4  1  0.794608  0.794608  0.452370  1
  Np  Np5  1  0.205392  0.205392  0.547630  1
  Np  Np6  1  0.317112  0.317112  0.020642  1
  Np  Np7  1  0.682888  0.682888  0.979358  1
  Ni  Ni8  1  0.000000  0.000000  0.000000  1
  S  S9  1  0.176852  0.568659  0.464735  1
  S  S10  1  0.568659  0.176852  0.464735  1
  S  S11  1  0.823148  0.431341  0.535265  1
  S  S12  1  0.431341  0.823148  0.535265  1
  S  S13  1  0.053592  0.678704  0.973189  1
  S  S14  1  0.678704  0.053592  0.973189  1
  S  S15  1  0.946408  0.321296  0.026811  1
  S  S16  1  0.321296  0.946408  0.026811  1
  S  S17  1  0.788508  0.788508  0.718820  1
  S  S18  1  0.211492  0.211492  0.281180  1
  S  S19  1  0.947244  0.947244  0.223185  1
  S  S20  1  0.052756  0.052756  0.776815  1
  S  S21  1  0.698355  0.698355  0.242520  1
  S  S22  1  0.301645  0.301645  0.757480  1
  S  S23  1  0.479011  0.479011  0.171062  1
  S  S24  1  0.520989  0.520989  0.828938  1
  S  S25  1  0.000000  0.000000  0.500000  1
