# generated using pymatgen
data_U8Ta8Nb3Si16Os
_symmetry_space_group_name_H-M   'P 1'
_cell_length_a   6.99823899
_cell_length_b   7.00757448
_cell_length_c   12.94211906
_cell_angle_alpha   89.90007305
_cell_angle_beta   89.99249430
_cell_angle_gamma   90.09928827
_symmetry_Int_Tables_number   1
_chemical_formula_structural   U8Ta8Nb3Si16Os
_chemical_formula_sum   'U8 Ta8 Nb3 Si16 Os1'
_cell_volume   634.68840769
_cell_formula_units_Z   1
loop_
 _symmetry_equiv_pos_site_id
 _symmetry_equiv_pos_as_xyz
  1  'x, y, z'
loop_
 _atom_site_type_symbol
 _atom_site_label
 _atom_site_symmetry_multiplicity
 _atom_site_fract_x
 _atom_site_fract_y
 _atom_site_fract_z
 _atom_site_occupancy
  U  U0  1  0.996835  0.334351  0.221715  1
  U  U1  1  0.007908  0.671092  0.717226  1
  U  U2  1  0.166071  0.497585  0.469209  1
  U  U3  1  0.503118  0.831301  0.033547  1
  U  U4  1  0.830297  0.506363  0.969347  1
  U  U5  1  0.495708  0.165542  0.528570  1
  U  U6  1  0.328903  0.993390  0.779800  1
  U  U7  1  0.670077  0.003127  0.279309  1
  Ta  Ta8  1  0.167803  0.167050  0.001151  1
  Ta  Ta9  1  0.831004  0.832892  0.499766  1
  Ta  Ta10  1  0.329272  0.665825  0.249827  1
  Ta  Ta11  1  0.668054  0.331652  0.749702  1
  Ta  Ta12  1  0.843331  0.001650  0.873911  1
  Ta  Ta13  1  0.496239  0.658805  0.623547  1
  Ta  Ta14  1  0.344144  0.499365  0.876039  1
  Ta  Ta15  1  0.495439  0.338600  0.125392  1
  Nb  Nb16  1  0.658627  0.498333  0.375522  1
  Nb  Nb17  1  0.999089  0.158242  0.627171  1
  Nb  Nb18  1  0.996047  0.839776  0.122718  1
  Si  Si19  1  0.292328  0.035483  0.188462  1
  Si  Si20  1  0.702169  0.960021  0.683957  1
  Si  Si21  1  0.459693  0.796029  0.432743  1
  Si  Si22  1  0.202471  0.537455  0.065182  1
  Si  Si23  1  0.538736  0.201191  0.934818  1
  Si  Si24  1  0.794837  0.461374  0.565462  1
  Si  Si25  1  0.040132  0.299082  0.816255  1
  Si  Si26  1  0.965667  0.715813  0.316091  1
  Si  Si27  1  0.370995  0.291145  0.317024  1
  Si  Si28  1  0.629380  0.707123  0.815427  1
  Si  Si29  1  0.203466  0.872254  0.562429  1
  Si  Si30  1  0.129311  0.793541  0.933500  1
  Si  Si31  1  0.793364  0.130874  0.066995  1
  Si  Si32  1  0.879227  0.199808  0.433473  1
  Si  Si33  1  0.294750  0.370065  0.683355  1
  Si  Si34  1  0.705332  0.624546  0.184521  1
  Os  Os35  1  0.170171  0.009257  0.376834  1
