# generated using pymatgen
data_Yb9Y(TmRu2)2
_symmetry_space_group_name_H-M   'P 1'
_cell_length_a   6.23000339
_cell_length_b   7.55009877
_cell_length_c   9.19689010
_cell_angle_alpha   89.54464799
_cell_angle_beta   90.92241051
_cell_angle_gamma   89.34793435
_symmetry_Int_Tables_number   1
_chemical_formula_structural   Yb9Y(TmRu2)2
_chemical_formula_sum   'Yb9 Y1 Tm2 Ru4'
_cell_volume   432.49704421
_cell_formula_units_Z   1
loop_
 _symmetry_equiv_pos_site_id
 _symmetry_equiv_pos_as_xyz
  1  'x, y, z'
loop_
 _atom_site_type_symbol
 _atom_site_label
 _atom_site_symmetry_multiplicity
 _atom_site_fract_x
 _atom_site_fract_y
 _atom_site_fract_z
 _atom_site_occupancy
  Yb  Yb0  1  0.632074  0.036233  0.255728  1
  Yb  Yb1  1  0.368009  0.960914  0.745689  1
  Yb  Yb2  1  0.128342  0.461159  0.743804  1
  Yb  Yb3  1  0.869424  0.540367  0.255775  1
  Yb  Yb4  1  0.162270  0.168485  0.067662  1
  Yb  Yb5  1  0.843063  0.835264  0.928235  1
  Yb  Yb6  1  0.661167  0.333032  0.927508  1
  Yb  Yb7  1  0.843771  0.827923  0.562761  1
  Yb  Yb8  1  0.343945  0.665445  0.069828  1
  Y  Y9  1  0.149907  0.168290  0.437490  1
  Tm  Tm10  1  0.344853  0.668381  0.438330  1
  Tm  Tm11  1  0.649475  0.330983  0.564877  1
  Ru  Ru12  1  0.449194  0.379588  0.275715  1
  Ru  Ru13  1  0.540311  0.616865  0.733408  1
  Ru  Ru14  1  0.948294  0.129430  0.734178  1
  Ru  Ru15  1  0.065901  0.877641  0.259012  1
