# generated using pymatgen
data_Dy9Er6Tm(Ga3Co)2
_symmetry_space_group_name_H-M   'P 1'
_cell_length_a   9.94390700
_cell_length_b   9.94390842
_cell_length_c   6.93358000
_cell_angle_alpha   90.00000000
_cell_angle_beta   90.00000000
_cell_angle_gamma   119.99999196
_symmetry_Int_Tables_number   1
_chemical_formula_structural   Dy9Er6Tm(Ga3Co)2
_chemical_formula_sum   'Dy9 Er6 Tm1 Ga6 Co2'
_cell_volume   593.74828400
_cell_formula_units_Z   1
loop_
 _symmetry_equiv_pos_site_id
 _symmetry_equiv_pos_as_xyz
  1  'x, y, z'
loop_
 _atom_site_type_symbol
 _atom_site_label
 _atom_site_symmetry_multiplicity
 _atom_site_fract_x
 _atom_site_fract_y
 _atom_site_fract_z
 _atom_site_occupancy
  Dy  Dy0  1  0.666667  0.333333  0.327836  1
  Dy  Dy1  1  0.463257  0.536743  0.207501  1
  Dy  Dy2  1  0.073485  0.536743  0.207501  1
  Dy  Dy3  1  0.463257  0.926515  0.207501  1
  Dy  Dy4  1  0.536278  0.463722  0.708245  1
  Dy  Dy5  1  0.927444  0.463722  0.708245  1
  Dy  Dy6  1  0.536278  0.072556  0.708245  1
  Dy  Dy7  1  0.000000  0.000000  0.232117  1
  Dy  Dy8  1  0.000000  0.000000  0.731154  1
  Er  Er9  1  0.173465  0.826535  0.512427  1
  Er  Er10  1  0.653068  0.826535  0.512427  1
  Er  Er11  1  0.173465  0.346932  0.512427  1
  Er  Er12  1  0.827148  0.172852  0.011146  1
  Er  Er13  1  0.345703  0.172852  0.011146  1
  Er  Er14  1  0.827148  0.654297  0.011146  1
  Tm  Tm15  1  0.333333  0.666667  0.825684  1
  Ga  Ga16  1  0.163754  0.836246  0.957510  1
  Ga  Ga17  1  0.672494  0.836246  0.957510  1
  Ga  Ga18  1  0.163754  0.327506  0.957510  1
  Ga  Ga19  1  0.837092  0.162908  0.458543  1
  Ga  Ga20  1  0.325815  0.162908  0.458543  1
  Ga  Ga21  1  0.837092  0.674185  0.458543  1
  Co  Co22  1  0.333333  0.666667  0.445464  1
  Co  Co23  1  0.666667  0.333333  0.946466  1
