# generated using pymatgen
data_DyTh7(WC2)4
_symmetry_space_group_name_H-M   'P 1'
_cell_length_a   5.35555600
_cell_length_b   6.78736631
_cell_length_c   10.20062288
_cell_angle_alpha   89.78312355
_cell_angle_beta   90.00000000
_cell_angle_gamma   90.00000000
_symmetry_Int_Tables_number   1
_chemical_formula_structural   DyTh7(WC2)4
_chemical_formula_sum   'Dy1 Th7 W4 C8'
_cell_volume   370.79121330
_cell_formula_units_Z   1
loop_
 _symmetry_equiv_pos_site_id
 _symmetry_equiv_pos_as_xyz
  1  'x, y, z'
loop_
 _atom_site_type_symbol
 _atom_site_label
 _atom_site_symmetry_multiplicity
 _atom_site_fract_x
 _atom_site_fract_y
 _atom_site_fract_z
 _atom_site_occupancy
  Dy  Dy0  1  0.750000  0.179445  0.945621  1
  Th  Th1  1  0.250000  0.464759  0.783541  1
  Th  Th2  1  0.750000  0.032905  0.275530  1
  Th  Th3  1  0.250000  0.968414  0.722987  1
  Th  Th4  1  0.750000  0.531375  0.219181  1
  Th  Th5  1  0.250000  0.817745  0.049608  1
  Th  Th6  1  0.750000  0.686403  0.550837  1
  Th  Th7  1  0.250000  0.312389  0.449291  1
  W  W8  1  0.250000  0.276677  0.131891  1
  W  W9  1  0.750000  0.225166  0.637037  1
  W  W10  1  0.250000  0.775861  0.365055  1
  W  W11  1  0.750000  0.725265  0.866577  1
  C  C12  1  0.250000  0.668095  0.554162  1
  C  C13  1  0.750000  0.831933  0.053825  1
  C  C14  1  0.250000  0.170659  0.945366  1
  C  C15  1  0.750000  0.332952  0.446710  1
  C  C16  1  0.250000  0.039911  0.257139  1
  C  C17  1  0.750000  0.458497  0.762008  1
  C  C18  1  0.250000  0.539005  0.240457  1
  C  C19  1  0.750000  0.962543  0.743176  1
