# generated using pymatgen
data_Dy8Re3TcB24
_symmetry_space_group_name_H-M   'P 1'
_cell_length_a   3.68766700
_cell_length_b   9.17668026
_cell_length_c   11.56071733
_cell_angle_alpha   90.02740207
_cell_angle_beta   90.00000000
_cell_angle_gamma   90.00000000
_symmetry_Int_Tables_number   1
_chemical_formula_structural   Dy8Re3TcB24
_chemical_formula_sum   'Dy8 Re3 Tc1 B24'
_cell_volume   391.22088376
_cell_formula_units_Z   1
loop_
 _symmetry_equiv_pos_site_id
 _symmetry_equiv_pos_as_xyz
  1  'x, y, z'
loop_
 _atom_site_type_symbol
 _atom_site_label
 _atom_site_symmetry_multiplicity
 _atom_site_fract_x
 _atom_site_fract_y
 _atom_site_fract_z
 _atom_site_occupancy
  Dy  Dy0  1  0.000000  0.323995  0.413830  1
  Dy  Dy1  1  0.000000  0.676284  0.585974  1
  Dy  Dy2  1  0.000000  0.823828  0.086039  1
  Dy  Dy3  1  0.000000  0.176460  0.913929  1
  Dy  Dy4  1  0.000000  0.941961  0.369704  1
  Dy  Dy5  1  0.000000  0.056944  0.629759  1
  Dy  Dy6  1  0.000000  0.443568  0.130713  1
  Dy  Dy7  1  0.000000  0.556966  0.870243  1
  Re  Re8  1  0.000000  0.361562  0.679050  1
  Re  Re9  1  0.000000  0.138523  0.179150  1
  Re  Re10  1  0.000000  0.861571  0.820883  1
  Tc  Tc11  1  0.000000  0.638619  0.320843  1
  B  B12  1  0.500000  0.553332  0.432695  1
  B  B13  1  0.500000  0.446866  0.567023  1
  B  B14  1  0.500000  0.053324  0.067086  1
  B  B15  1  0.500000  0.946912  0.932838  1
  B  B16  1  0.500000  0.748340  0.418374  1
  B  B17  1  0.500000  0.251226  0.581416  1
  B  B18  1  0.500000  0.248981  0.081569  1
  B  B19  1  0.500000  0.751329  0.918520  1
  B  B20  1  0.500000  0.791463  0.265310  1
  B  B21  1  0.500000  0.208202  0.734457  1
  B  B22  1  0.500000  0.291747  0.234753  1
  B  B23  1  0.500000  0.708195  0.765464  1
  B  B24  1  0.500000  0.631126  0.185846  1
  B  B25  1  0.500000  0.369119  0.814283  1
  B  B26  1  0.500000  0.130657  0.314336  1
  B  B27  1  0.500000  0.869039  0.685648  1
  B  B28  1  0.500000  0.982298  0.211740  1
  B  B29  1  0.500000  0.017620  0.788062  1
  B  B30  1  0.500000  0.482693  0.288347  1
  B  B31  1  0.500000  0.517643  0.711900  1
  B  B32  1  0.500000  0.600476  0.028236  1
  B  B33  1  0.500000  0.399798  0.972233  1
  B  B34  1  0.500000  0.099900  0.471745  1
  B  B35  1  0.500000  0.899435  0.528000  1
