# generated using pymatgen
data_YbPa3(GePt)4
_symmetry_space_group_name_H-M   'P 1'
_cell_length_a   4.41534400
_cell_length_b   7.05385270
_cell_length_c   7.63043845
_cell_angle_alpha   90.20796643
_cell_angle_beta   90.00000000
_cell_angle_gamma   90.00000000
_symmetry_Int_Tables_number   1
_chemical_formula_structural   YbPa3(GePt)4
_chemical_formula_sum   'Yb1 Pa3 Ge4 Pt4'
_cell_volume   237.64986068
_cell_formula_units_Z   1
loop_
 _symmetry_equiv_pos_site_id
 _symmetry_equiv_pos_as_xyz
  1  'x, y, z'
loop_
 _atom_site_type_symbol
 _atom_site_label
 _atom_site_symmetry_multiplicity
 _atom_site_fract_x
 _atom_site_fract_y
 _atom_site_fract_z
 _atom_site_occupancy
  Yb  Yb0  1  0.250000  0.505647  0.207277  1
  Pa  Pa1  1  0.750000  0.493816  0.795707  1
  Pa  Pa2  1  0.250000  0.005246  0.290225  1
  Pa  Pa3  1  0.750000  0.995019  0.706407  1
  Ge  Ge4  1  0.250000  0.682279  0.584628  1
  Ge  Ge5  1  0.250000  0.193437  0.915125  1
  Ge  Ge6  1  0.750000  0.301399  0.409562  1
  Ge  Ge7  1  0.750000  0.807469  0.090804  1
  Pt  Pt8  1  0.250000  0.792197  0.911612  1
  Pt  Pt9  1  0.250000  0.282846  0.585187  1
  Pt  Pt10  1  0.750000  0.723474  0.421613  1
  Pt  Pt11  1  0.750000  0.217171  0.081852  1
