# generated using pymatgen
data_HfZr13Pt20
_symmetry_space_group_name_H-M   'P 1'
_cell_length_a   8.21980439
_cell_length_b   8.21980398
_cell_length_c   9.72985103
_cell_angle_alpha   89.99452264
_cell_angle_beta   89.99452549
_cell_angle_gamma   107.49454176
_symmetry_Int_Tables_number   1
_chemical_formula_structural   HfZr13Pt20
_chemical_formula_sum   'Hf1 Zr13 Pt20'
_cell_volume   626.99152844
_cell_formula_units_Z   1
loop_
 _symmetry_equiv_pos_site_id
 _symmetry_equiv_pos_as_xyz
  1  'x, y, z'
loop_
 _atom_site_type_symbol
 _atom_site_label
 _atom_site_symmetry_multiplicity
 _atom_site_fract_x
 _atom_site_fract_y
 _atom_site_fract_z
 _atom_site_occupancy
  Hf  Hf0  1  0.000000  0.000000  0.000000  1
  Zr  Zr1  1  0.690373  0.309627  0.000000  1
  Zr  Zr2  1  0.309627  0.690373  0.000000  1
  Zr  Zr3  1  0.809561  0.190439  0.500000  1
  Zr  Zr4  1  0.190439  0.809561  0.500000  1
  Zr  Zr5  1  0.500000  0.500000  0.500000  1
  Zr  Zr6  1  0.002150  0.502149  0.249808  1
  Zr  Zr7  1  0.997850  0.497851  0.750192  1
  Zr  Zr8  1  0.497851  0.997850  0.750192  1
  Zr  Zr9  1  0.502149  0.002150  0.249808  1
  Zr  Zr10  1  0.317249  0.317249  0.182884  1
  Zr  Zr11  1  0.682751  0.682751  0.817116  1
  Zr  Zr12  1  0.182327  0.182327  0.683658  1
  Zr  Zr13  1  0.817673  0.817673  0.316342  1
  Pt  Pt14  1  0.854613  0.145074  0.207995  1
  Pt  Pt15  1  0.145387  0.854926  0.792005  1
  Pt  Pt16  1  0.646337  0.353954  0.708838  1
  Pt  Pt17  1  0.646046  0.353663  0.291162  1
  Pt  Pt18  1  0.353663  0.646046  0.291162  1
  Pt  Pt19  1  0.353954  0.646337  0.708838  1
  Pt  Pt20  1  0.854926  0.145387  0.792005  1
  Pt  Pt21  1  0.145074  0.854613  0.207995  1
  Pt  Pt22  1  0.937273  0.646446  0.999628  1
  Pt  Pt23  1  0.062727  0.353554  0.000372  1
  Pt  Pt24  1  0.563055  0.855064  0.499580  1
  Pt  Pt25  1  0.144936  0.436945  0.500420  1
  Pt  Pt26  1  0.436945  0.144936  0.500420  1
  Pt  Pt27  1  0.855064  0.563055  0.499580  1
  Pt  Pt28  1  0.353554  0.062727  0.000372  1
  Pt  Pt29  1  0.646446  0.937273  0.999628  1
  Pt  Pt30  1  0.108126  0.108126  0.393344  1
  Pt  Pt31  1  0.891874  0.891874  0.606656  1
  Pt  Pt32  1  0.392368  0.392368  0.893029  1
  Pt  Pt33  1  0.607632  0.607632  0.106971  1
