# generated using pymatgen
data_CsKTiSe3
_symmetry_space_group_name_H-M   'P 1'
_cell_length_a   7.39772898
_cell_length_b   8.05094545
_cell_length_c   9.05629697
_cell_angle_alpha   75.14185283
_cell_angle_beta   68.57464479
_cell_angle_gamma   63.68995713
_symmetry_Int_Tables_number   1
_chemical_formula_structural   CsKTiSe3
_chemical_formula_sum   'Cs2 K2 Ti2 Se6'
_cell_volume   447.19639071
_cell_formula_units_Z   2
loop_
 _symmetry_equiv_pos_site_id
 _symmetry_equiv_pos_as_xyz
  1  'x, y, z'
loop_
 _atom_site_type_symbol
 _atom_site_label
 _atom_site_symmetry_multiplicity
 _atom_site_fract_x
 _atom_site_fract_y
 _atom_site_fract_z
 _atom_site_occupancy
  Cs  Cs0  1  0.670187  0.442009  0.687045  1
  Cs  Cs1  1  0.329813  0.557991  0.312955  1
  K  K2  1  0.908669  0.801940  0.868094  1
  K  K3  1  0.091331  0.198060  0.131906  1
  Ti  Ti4  1  0.632794  0.938073  0.317862  1
  Ti  Ti5  1  0.367206  0.061927  0.682138  1
  Se  Se6  1  0.267348  0.983255  0.484523  1
  Se  Se7  1  0.732652  0.016745  0.515477  1
  Se  Se8  1  0.361810  0.845248  0.910661  1
  Se  Se9  1  0.638190  0.154752  0.089339  1
  Se  Se10  1  0.172977  0.372440  0.742908  1
  Se  Se11  1  0.827023  0.627560  0.257092  1
