# generated using pymatgen
data_Ho7Lu(WC2)4
_symmetry_space_group_name_H-M   'P 1'
_cell_length_a   5.71718104
_cell_length_b   5.71718053
_cell_length_c   9.81246675
_cell_angle_alpha   90.17826470
_cell_angle_beta   90.17826580
_cell_angle_gamma   90.05437905
_symmetry_Int_Tables_number   1
_chemical_formula_structural   Ho7Lu(WC2)4
_chemical_formula_sum   'Ho7 Lu1 W4 C8'
_cell_volume   320.72856841
_cell_formula_units_Z   1
loop_
 _symmetry_equiv_pos_site_id
 _symmetry_equiv_pos_as_xyz
  1  'x, y, z'
loop_
 _atom_site_type_symbol
 _atom_site_label
 _atom_site_symmetry_multiplicity
 _atom_site_fract_x
 _atom_site_fract_y
 _atom_site_fract_z
 _atom_site_occupancy
  Ho  Ho0  1  0.199763  0.199763  0.342147  1
  Ho  Ho1  1  0.299707  0.700392  0.841362  1
  Ho  Ho2  1  0.700392  0.299707  0.841362  1
  Ho  Ho3  1  0.700005  0.299902  0.157969  1
  Ho  Ho4  1  0.299902  0.700005  0.157969  1
  Ho  Ho5  1  0.200108  0.200108  0.658284  1
  Ho  Ho6  1  0.799959  0.799959  0.342097  1
  Lu  Lu7  1  0.799175  0.799175  0.657659  1
  W  W8  1  0.321898  0.678620  0.500740  1
  W  W9  1  0.821495  0.821495  0.998916  1
  W  W10  1  0.177679  0.177679  0.999480  1
  W  W11  1  0.678620  0.321898  0.500740  1
  C  C12  1  0.999710  0.999710  0.154168  1
  C  C13  1  0.502773  0.502773  0.655466  1
  C  C14  1  0.502502  0.999419  0.501866  1
  C  C15  1  0.499762  0.499762  0.345743  1
  C  C16  1  0.997686  0.997686  0.842843  1
  C  C17  1  0.499514  0.999934  0.999659  1
  C  C18  1  0.999934  0.499514  0.999659  1
  C  C19  1  0.999419  0.502502  0.501866  1
