# generated using pymatgen
data_Ho4B16Ir3Pt
_symmetry_space_group_name_H-M   'P 1'
_cell_length_a   7.01583881
_cell_length_b   7.01585442
_cell_length_c   7.01584653
_cell_angle_alpha   111.48261613
_cell_angle_beta   111.58778492
_cell_angle_gamma   105.41778216
_symmetry_Int_Tables_number   1
_chemical_formula_structural   Ho4B16Ir3Pt
_chemical_formula_sum   'Ho4 B16 Ir3 Pt1'
_cell_volume   264.84974960
_cell_formula_units_Z   1
loop_
 _symmetry_equiv_pos_site_id
 _symmetry_equiv_pos_as_xyz
  1  'x, y, z'
loop_
 _atom_site_type_symbol
 _atom_site_label
 _atom_site_symmetry_multiplicity
 _atom_site_fract_x
 _atom_site_fract_y
 _atom_site_fract_z
 _atom_site_occupancy
  Ho  Ho0  1  0.785021  0.789525  0.004503  1
  Ho  Ho1  1  0.214981  0.219485  0.004505  1
  Ho  Ho2  1  0.753863  0.251077  0.497214  1
  Ho  Ho3  1  0.246141  0.743354  0.497215  1
  B  B4  1  0.261511  0.106350  0.367862  1
  B  B5  1  0.736542  0.893049  0.629592  1
  B  B6  1  0.263456  0.893049  0.156507  1
  B  B7  1  0.738488  0.106350  0.844839  1
  B  B8  1  0.107280  0.734422  0.841701  1
  B  B9  1  0.893022  0.264701  0.157723  1
  B  B10  1  0.106977  0.264701  0.371679  1
  B  B11  1  0.892721  0.734422  0.627143  1
  B  B12  1  0.109048  0.111591  0.524694  1
  B  B13  1  0.584466  0.584935  0.472817  1
  B  B14  1  0.112119  0.584935  0.000469  1
  B  B15  1  0.586896  0.111591  0.002542  1
  B  B16  1  0.887879  0.888348  0.472814  1
  B  B17  1  0.413104  0.415644  0.524694  1
  B  B18  1  0.890950  0.415645  0.002541  1
  B  B19  1  0.415534  0.888348  0.000469  1
  Ir  Ir20  1  0.260173  0.499912  0.760082  1
  Ir  Ir21  1  0.739829  0.499912  0.239740  1
  Ir  Ir22  1  0.499999  0.742832  0.242833  1
  Pt  Pt23  1  0.499999  0.255823  0.755824  1
