# generated using pymatgen
data_Tl3Ir3PdPbO14
_symmetry_space_group_name_H-M   'P 1'
_cell_length_a   7.34722354
_cell_length_b   7.34722236
_cell_length_c   7.34722302
_cell_angle_alpha   59.75982563
_cell_angle_beta   59.75983039
_cell_angle_gamma   59.75981993
_symmetry_Int_Tables_number   1
_chemical_formula_structural   Tl3Ir3PdPbO14
_chemical_formula_sum   'Tl3 Ir3 Pd1 Pb1 O14'
_cell_volume   278.92005519
_cell_formula_units_Z   1
loop_
 _symmetry_equiv_pos_site_id
 _symmetry_equiv_pos_as_xyz
  1  'x, y, z'
loop_
 _atom_site_type_symbol
 _atom_site_label
 _atom_site_symmetry_multiplicity
 _atom_site_fract_x
 _atom_site_fract_y
 _atom_site_fract_z
 _atom_site_occupancy
  Tl  Tl0  1  0.625000  0.125000  0.125000  1
  Tl  Tl1  1  0.125000  0.625000  0.125000  1
  Tl  Tl2  1  0.125000  0.125000  0.625000  1
  Ir  Ir3  1  0.125000  0.625000  0.625000  1
  Ir  Ir4  1  0.625000  0.125000  0.625000  1
  Ir  Ir5  1  0.625000  0.625000  0.125000  1
  Pd  Pd6  1  0.625000  0.625000  0.625000  1
  Pb  Pb7  1  0.125000  0.125000  0.125000  1
  O  O8  1  0.705877  0.705877  0.287787  1
  O  O9  1  0.298684  0.298684  0.708960  1
  O  O10  1  0.705877  0.287787  0.705877  1
  O  O11  1  0.298684  0.708960  0.298684  1
  O  O12  1  0.287787  0.705877  0.705877  1
  O  O13  1  0.708960  0.298684  0.298684  1
  O  O14  1  0.544123  0.544123  0.962213  1
  O  O15  1  0.951316  0.951316  0.541040  1
  O  O16  1  0.544123  0.962213  0.544123  1
  O  O17  1  0.951316  0.541040  0.951316  1
  O  O18  1  0.962213  0.544123  0.544123  1
  O  O19  1  0.541040  0.951316  0.951316  1
  O  O20  1  0.253442  0.253442  0.253442  1
  O  O21  1  0.996558  0.996558  0.996558  1
