# generated using pymatgen
data_TbYb3IrRu7
_symmetry_space_group_name_H-M   'P 1'
_cell_length_a   5.23376800
_cell_length_b   5.23376709
_cell_length_c   8.95399800
_cell_angle_alpha   90.00000000
_cell_angle_beta   90.00000000
_cell_angle_gamma   120.00000572
_symmetry_Int_Tables_number   1
_chemical_formula_structural   TbYb3IrRu7
_chemical_formula_sum   'Tb1 Yb3 Ir1 Ru7'
_cell_volume   212.41073397
_cell_formula_units_Z   1
loop_
 _symmetry_equiv_pos_site_id
 _symmetry_equiv_pos_as_xyz
  1  'x, y, z'
loop_
 _atom_site_type_symbol
 _atom_site_label
 _atom_site_symmetry_multiplicity
 _atom_site_fract_x
 _atom_site_fract_y
 _atom_site_fract_z
 _atom_site_occupancy
  Tb  Tb0  1  0.333333  0.666667  0.067999  1
  Yb  Yb1  1  0.333333  0.666667  0.439234  1
  Yb  Yb2  1  0.666667  0.333333  0.564971  1
  Yb  Yb3  1  0.666667  0.333333  0.929127  1
  Ir  Ir4  1  0.000000  0.000000  0.499025  1
  Ru  Ru5  1  0.000000  0.000000  0.999395  1
  Ru  Ru6  1  0.828294  0.171706  0.249995  1
  Ru  Ru7  1  0.828294  0.656589  0.249995  1
  Ru  Ru8  1  0.343411  0.171706  0.249995  1
  Ru  Ru9  1  0.171134  0.828866  0.750088  1
  Ru  Ru10  1  0.171134  0.342268  0.750088  1
  Ru  Ru11  1  0.657732  0.828866  0.750088  1
