# generated using pymatgen
data_K3LuBi2
_symmetry_space_group_name_H-M   'P 1'
_cell_length_a   10.07871541
_cell_length_b   10.07871684
_cell_length_c   10.07871641
_cell_angle_alpha   129.29814065
_cell_angle_beta   69.37033979
_cell_angle_gamma   135.96954343
_symmetry_Int_Tables_number   1
_chemical_formula_structural   K3LuBi2
_chemical_formula_sum   'K6 Lu2 Bi4'
_cell_volume   540.46778220
_cell_formula_units_Z   2
loop_
 _symmetry_equiv_pos_site_id
 _symmetry_equiv_pos_as_xyz
  1  'x, y, z'
loop_
 _atom_site_type_symbol
 _atom_site_label
 _atom_site_symmetry_multiplicity
 _atom_site_fract_x
 _atom_site_fract_y
 _atom_site_fract_z
 _atom_site_occupancy
  K  K0  1  0.250000  0.250000  0.000000  1
  K  K1  1  0.750000  0.750000  0.000000  1
  K  K2  1  0.313273  0.807190  0.120463  1
  K  K3  1  0.186727  0.307189  0.493917  1
  K  K4  1  0.813273  0.692811  0.506084  1
  K  K5  1  0.686727  0.192810  0.879536  1
  Lu  Lu6  1  0.750000  0.250000  0.500000  1
  Lu  Lu7  1  0.250000  0.749999  0.499999  1
  Bi  Bi8  1  0.897606  0.298872  0.196475  1
  Bi  Bi9  1  0.602394  0.798872  0.401266  1
  Bi  Bi10  1  0.397606  0.201128  0.598734  1
  Bi  Bi11  1  0.102394  0.701128  0.803524  1
