# generated using pymatgen
data_Dy2Ho4Al24Os7Au
_symmetry_space_group_name_H-M   'P 1'
_cell_length_a   8.85668037
_cell_length_b   8.85447172
_cell_length_c   9.56066165
_cell_angle_alpha   89.79586537
_cell_angle_beta   90.19478443
_cell_angle_gamma   119.93320454
_symmetry_Int_Tables_number   1
_chemical_formula_structural   Dy2Ho4Al24Os7Au
_chemical_formula_sum   'Dy2 Ho4 Al24 Os7 Au1'
_cell_volume   649.74150526
_cell_formula_units_Z   1
loop_
 _symmetry_equiv_pos_site_id
 _symmetry_equiv_pos_as_xyz
  1  'x, y, z'
loop_
 _atom_site_type_symbol
 _atom_site_label
 _atom_site_symmetry_multiplicity
 _atom_site_fract_x
 _atom_site_fract_y
 _atom_site_fract_z
 _atom_site_occupancy
  Dy  Dy0  1  0.190589  0.386959  0.251274  1
  Dy  Dy1  1  0.809411  0.613041  0.748726  1
  Ho  Ho2  1  0.612732  0.809355  0.251324  1
  Ho  Ho3  1  0.387268  0.190645  0.748676  1
  Ho  Ho4  1  0.194946  0.805077  0.253306  1
  Ho  Ho5  1  0.805054  0.194923  0.746694  1
  Al  Al6  1  0.328639  0.671468  0.021611  1
  Al  Al7  1  0.671361  0.328532  0.978389  1
  Al  Al8  1  0.666239  0.333649  0.518170  1
  Al  Al9  1  0.333761  0.666351  0.481830  1
  Al  Al10  1  0.162730  0.325729  0.575604  1
  Al  Al11  1  0.837270  0.674271  0.424396  1
  Al  Al12  1  0.674269  0.837342  0.575502  1
  Al  Al13  1  0.848299  0.677660  0.079460  1
  Al  Al14  1  0.325731  0.162658  0.424498  1
  Al  Al15  1  0.151701  0.322340  0.920540  1
  Al  Al16  1  0.163280  0.836855  0.575235  1
  Al  Al17  1  0.322335  0.151648  0.079383  1
  Al  Al18  1  0.836720  0.163145  0.424765  1
  Al  Al19  1  0.677665  0.848352  0.920617  1
  Al  Al20  1  0.836704  0.163152  0.075949  1
  Al  Al21  1  0.163296  0.836848  0.924051  1
  Al  Al22  1  0.560831  0.121323  0.249277  1
  Al  Al23  1  0.439169  0.878677  0.750723  1
  Al  Al24  1  0.878532  0.439199  0.249287  1
  Al  Al25  1  0.121468  0.560801  0.750713  1
  Al  Al26  1  0.563684  0.436478  0.255748  1
  Al  Al27  1  0.436316  0.563522  0.744252  1
  Al  Al28  1  0.999346  0.000381  0.250384  1
  Al  Al29  1  0.000654  0.999619  0.749616  1
  Os  Os30  1  0.500000  0.000000  0.000000  1
  Os  Os31  1  0.000000  0.500000  0.000000  1
  Os  Os32  1  0.500000  0.000000  0.500000  1
  Os  Os33  1  0.000000  0.500000  0.500000  1
  Os  Os34  1  0.500000  0.500000  0.500000  1
  Os  Os35  1  0.000000  0.000000  0.000000  1
  Os  Os36  1  0.000000  0.000000  0.500000  1
  Au  Au37  1  0.500000  0.500000  0.000000  1
