# generated using pymatgen
data_TmScFe9Co3P7
_symmetry_space_group_name_H-M   'P 1'
_cell_length_a   8.89299371
_cell_length_b   8.90525162
_cell_length_c   3.58660700
_cell_angle_alpha   90.00000000
_cell_angle_beta   90.00000000
_cell_angle_gamma   119.80869733
_symmetry_Int_Tables_number   1
_chemical_formula_structural   TmScFe9Co3P7
_chemical_formula_sum   'Tm1 Sc1 Fe9 Co3 P7'
_cell_volume   246.45779920
_cell_formula_units_Z   1
loop_
 _symmetry_equiv_pos_site_id
 _symmetry_equiv_pos_as_xyz
  1  'x, y, z'
loop_
 _atom_site_type_symbol
 _atom_site_label
 _atom_site_symmetry_multiplicity
 _atom_site_fract_x
 _atom_site_fract_y
 _atom_site_fract_z
 _atom_site_occupancy
  Tm  Tm0  1  0.999294  0.998612  0.500000  1
  Sc  Sc1  1  0.334824  0.669469  0.000000  1
  Fe  Fe2  1  0.038709  0.763135  0.000000  1
  Fe  Fe3  1  0.942695  0.453017  0.000000  1
  Fe  Fe4  1  0.513177  0.060682  0.000000  1
  Fe  Fe5  1  0.545723  0.487834  0.000000  1
  Fe  Fe6  1  0.282573  0.897254  0.500000  1
  Fe  Fe7  1  0.614334  0.719453  0.500000  1
  Fe  Fe8  1  0.768344  0.205769  0.500000  1
  Fe  Fe9  1  0.440010  0.233772  0.500000  1
  Fe  Fe10  1  0.789506  0.553580  0.500000  1
  Co  Co11  1  0.725614  0.961139  0.000000  1
  Co  Co12  1  0.233784  0.274131  0.000000  1
  Co  Co13  1  0.105891  0.387073  0.500000  1
  P  P14  1  0.960886  0.219439  0.000000  1
  P  P15  1  0.257111  0.035300  0.000000  1
  P  P16  1  0.779299  0.740832  0.000000  1
  P  P17  1  0.072854  0.624650  0.500000  1
  P  P18  1  0.547167  0.926695  0.500000  1
  P  P19  1  0.380556  0.453953  0.500000  1
  P  P20  1  0.667651  0.334208  0.000000  1
