# generated using pymatgen
data_NdY4(In2Pt)2
_symmetry_space_group_name_H-M   'P 1'
_cell_length_a   3.66011700
_cell_length_b   8.22041000
_cell_length_c   18.45246900
_cell_angle_alpha   90.00000000
_cell_angle_beta   90.00000000
_cell_angle_gamma   90.00000000
_symmetry_Int_Tables_number   1
_chemical_formula_structural   NdY4(In2Pt)2
_chemical_formula_sum   'Nd2 Y8 In8 Pt4'
_cell_volume   555.19165750
_cell_formula_units_Z   2
loop_
 _symmetry_equiv_pos_site_id
 _symmetry_equiv_pos_as_xyz
  1  'x, y, z'
loop_
 _atom_site_type_symbol
 _atom_site_label
 _atom_site_symmetry_multiplicity
 _atom_site_fract_x
 _atom_site_fract_y
 _atom_site_fract_z
 _atom_site_occupancy
  Nd  Nd0  1  0.000000  0.000000  0.000000  1
  Nd  Nd1  1  0.000000  0.500000  0.500000  1
  Y  Y2  1  0.000000  0.118778  0.414364  1
  Y  Y3  1  0.000000  0.881222  0.585636  1
  Y  Y4  1  0.000000  0.381222  0.914364  1
  Y  Y5  1  0.000000  0.618778  0.085636  1
  Y  Y6  1  0.000000  0.242381  0.219792  1
  Y  Y7  1  0.000000  0.757619  0.780208  1
  Y  Y8  1  0.000000  0.257619  0.719792  1
  Y  Y9  1  0.000000  0.742381  0.280208  1
  In  In10  1  0.500000  0.422625  0.348522  1
  In  In11  1  0.500000  0.577375  0.651478  1
  In  In12  1  0.500000  0.077375  0.848522  1
  In  In13  1  0.500000  0.922625  0.151478  1
  In  In14  1  0.500000  0.297776  0.068136  1
  In  In15  1  0.500000  0.702224  0.931864  1
  In  In16  1  0.500000  0.202224  0.568136  1
  In  In17  1  0.500000  0.797776  0.431864  1
  Pt  Pt18  1  0.500000  0.024387  0.303403  1
  Pt  Pt19  1  0.500000  0.975613  0.696597  1
  Pt  Pt20  1  0.500000  0.475613  0.803403  1
  Pt  Pt21  1  0.500000  0.524387  0.196597  1
