# generated using pymatgen
data_Ho3Tm9Ni4
_symmetry_space_group_name_H-M   'P 1'
_cell_length_a   6.26751586
_cell_length_b   6.74687886
_cell_length_c   9.41455500
_cell_angle_alpha   90.00000000
_cell_angle_beta   90.00000000
_cell_angle_gamma   90.22333387
_symmetry_Int_Tables_number   1
_chemical_formula_structural   Ho3Tm9Ni4
_chemical_formula_sum   'Ho3 Tm9 Ni4'
_cell_volume   398.10245134
_cell_formula_units_Z   1
loop_
 _symmetry_equiv_pos_site_id
 _symmetry_equiv_pos_as_xyz
  1  'x, y, z'
loop_
 _atom_site_type_symbol
 _atom_site_label
 _atom_site_symmetry_multiplicity
 _atom_site_fract_x
 _atom_site_fract_y
 _atom_site_fract_z
 _atom_site_occupancy
  Ho  Ho0  1  0.636299  0.031381  0.250000  1
  Ho  Ho1  1  0.364127  0.968918  0.750000  1
  Ho  Ho2  1  0.136304  0.468308  0.750000  1
  Tm  Tm3  1  0.863956  0.531982  0.250000  1
  Tm  Tm4  1  0.179888  0.178780  0.066445  1
  Tm  Tm5  1  0.820262  0.821061  0.934527  1
  Tm  Tm6  1  0.680547  0.321831  0.934656  1
  Tm  Tm7  1  0.820262  0.821061  0.565473  1
  Tm  Tm8  1  0.319238  0.678280  0.066049  1
  Tm  Tm9  1  0.179888  0.178780  0.433555  1
  Tm  Tm10  1  0.319238  0.678280  0.433951  1
  Tm  Tm11  1  0.680547  0.321831  0.565344  1
  Ni  Ni12  1  0.450224  0.394498  0.250000  1
  Ni  Ni13  1  0.551516  0.607195  0.750000  1
  Ni  Ni14  1  0.946779  0.106975  0.750000  1
  Ni  Ni15  1  0.050925  0.890837  0.250000  1
