# generated using pymatgen
data_Ho5Tm2Pa(ReB6)4
_symmetry_space_group_name_H-M   'P 1'
_cell_length_a   3.67708100
_cell_length_b   9.14350534
_cell_length_c   11.51210544
_cell_angle_alpha   90.17739173
_cell_angle_beta   90.00000000
_cell_angle_gamma   90.00000000
_symmetry_Int_Tables_number   1
_chemical_formula_structural   Ho5Tm2Pa(ReB6)4
_chemical_formula_sum   'Ho5 Tm2 Pa1 Re4 B24'
_cell_volume   387.05135926
_cell_formula_units_Z   1
loop_
 _symmetry_equiv_pos_site_id
 _symmetry_equiv_pos_as_xyz
  1  'x, y, z'
loop_
 _atom_site_type_symbol
 _atom_site_label
 _atom_site_symmetry_multiplicity
 _atom_site_fract_x
 _atom_site_fract_y
 _atom_site_fract_z
 _atom_site_occupancy
  Ho  Ho0  1  0.000000  0.678991  0.587004  1
  Ho  Ho1  1  0.000000  0.822856  0.085408  1
  Ho  Ho2  1  0.000000  0.176384  0.913677  1
  Ho  Ho3  1  0.000000  0.942394  0.371549  1
  Ho  Ho4  1  0.000000  0.055474  0.629588  1
  Tm  Tm5  1  0.000000  0.443405  0.127208  1
  Tm  Tm6  1  0.000000  0.557213  0.870574  1
  Pa  Pa7  1  0.000000  0.323385  0.413878  1
  Re  Re8  1  0.000000  0.634944  0.321228  1
  Re  Re9  1  0.000000  0.362957  0.676820  1
  Re  Re10  1  0.000000  0.141486  0.181379  1
  Re  Re11  1  0.000000  0.861050  0.821589  1
  B  B12  1  0.500000  0.552380  0.431929  1
  B  B13  1  0.500000  0.446249  0.567069  1
  B  B14  1  0.500000  0.054034  0.067350  1
  B  B15  1  0.500000  0.946855  0.933832  1
  B  B16  1  0.500000  0.748247  0.418520  1
  B  B17  1  0.500000  0.251327  0.581139  1
  B  B18  1  0.500000  0.249564  0.080497  1
  B  B19  1  0.500000  0.750259  0.919274  1
  B  B20  1  0.500000  0.791022  0.265547  1
  B  B21  1  0.500000  0.208657  0.734969  1
  B  B22  1  0.500000  0.292367  0.234091  1
  B  B23  1  0.500000  0.707600  0.766057  1
  B  B24  1  0.500000  0.630267  0.184257  1
  B  B25  1  0.500000  0.370429  0.814510  1
  B  B26  1  0.500000  0.132132  0.314674  1
  B  B27  1  0.500000  0.868542  0.686276  1
  B  B28  1  0.500000  0.982560  0.212108  1
  B  B29  1  0.500000  0.017675  0.788504  1
  B  B30  1  0.500000  0.482164  0.286771  1
  B  B31  1  0.500000  0.518524  0.713203  1
  B  B32  1  0.500000  0.600433  0.027538  1
  B  B33  1  0.500000  0.399581  0.971162  1
  B  B34  1  0.500000  0.105093  0.471072  1
  B  B35  1  0.500000  0.893503  0.529751  1
