# generated using pymatgen
data_Pr8Mg2IrOs
_symmetry_space_group_name_H-M   'P 1'
_cell_length_a   10.09645962
_cell_length_b   10.09645935
_cell_length_c   10.14406700
_cell_angle_alpha   59.84390006
_cell_angle_beta   59.84390095
_cell_angle_gamma   59.72565222
_symmetry_Int_Tables_number   1
_chemical_formula_structural   Pr8Mg2IrOs
_chemical_formula_sum   'Pr16 Mg4 Ir2 Os2'
_cell_volume   727.95123795
_cell_formula_units_Z   2
loop_
 _symmetry_equiv_pos_site_id
 _symmetry_equiv_pos_as_xyz
  1  'x, y, z'
loop_
 _atom_site_type_symbol
 _atom_site_label
 _atom_site_symmetry_multiplicity
 _atom_site_fract_x
 _atom_site_fract_y
 _atom_site_fract_z
 _atom_site_occupancy
  Pr  Pr0  1  0.344623  0.344623  0.346551  1
  Pr  Pr1  1  0.344623  0.344623  0.964203  1
  Pr  Pr2  1  0.343677  0.965163  0.345581  1
  Pr  Pr3  1  0.965163  0.343677  0.345581  1
  Pr  Pr4  1  0.812159  0.189233  0.189043  1
  Pr  Pr5  1  0.189233  0.812159  0.809564  1
  Pr  Pr6  1  0.189233  0.812159  0.189043  1
  Pr  Pr7  1  0.812159  0.189233  0.809564  1
  Pr  Pr8  1  0.189212  0.189212  0.810788  1
  Pr  Pr9  1  0.810632  0.810632  0.189368  1
  Pr  Pr10  1  0.938461  0.559407  0.562539  1
  Pr  Pr11  1  0.559407  0.938461  0.939593  1
  Pr  Pr12  1  0.559407  0.938461  0.562539  1
  Pr  Pr13  1  0.938461  0.559407  0.939593  1
  Pr  Pr14  1  0.562196  0.562196  0.937804  1
  Pr  Pr15  1  0.940175  0.940175  0.559825  1
  Mg  Mg16  1  0.578564  0.578564  0.579109  1
  Mg  Mg17  1  0.578564  0.578564  0.263763  1
  Mg  Mg18  1  0.578187  0.263386  0.579214  1
  Mg  Mg19  1  0.263386  0.578187  0.579214  1
  Ir  Ir20  1  0.142109  0.579719  0.139086  1
  Ir  Ir21  1  0.579719  0.142109  0.139086  1
  Os  Os22  1  0.140325  0.140325  0.137586  1
  Os  Os23  1  0.140325  0.140325  0.581763  1
