# generated using pymatgen
data_Y4Ho3Tm(ReC2)4
_symmetry_space_group_name_H-M   'P 1'
_cell_length_a   5.09913100
_cell_length_b   6.58410047
_cell_length_c   9.84365171
_cell_angle_alpha   89.95647855
_cell_angle_beta   90.00000000
_cell_angle_gamma   90.00000000
_symmetry_Int_Tables_number   1
_chemical_formula_structural   Y4Ho3Tm(ReC2)4
_chemical_formula_sum   'Y4 Ho3 Tm1 Re4 C8'
_cell_volume   330.48270206
_cell_formula_units_Z   1
loop_
 _symmetry_equiv_pos_site_id
 _symmetry_equiv_pos_as_xyz
  1  'x, y, z'
loop_
 _atom_site_type_symbol
 _atom_site_label
 _atom_site_symmetry_multiplicity
 _atom_site_fract_x
 _atom_site_fract_y
 _atom_site_fract_z
 _atom_site_occupancy
  Y  Y0  1  0.250000  0.465851  0.785028  1
  Y  Y1  1  0.750000  0.033993  0.284137  1
  Y  Y2  1  0.250000  0.965618  0.716224  1
  Y  Y3  1  0.750000  0.534515  0.215064  1
  Ho  Ho4  1  0.750000  0.677875  0.557084  1
  Ho  Ho5  1  0.250000  0.322446  0.442726  1
  Ho  Ho6  1  0.750000  0.177322  0.943386  1
  Tm  Tm7  1  0.250000  0.823924  0.057463  1
  Re  Re8  1  0.250000  0.279517  0.133451  1
  Re  Re9  1  0.750000  0.220302  0.634291  1
  Re  Re10  1  0.250000  0.779589  0.365273  1
  Re  Re11  1  0.750000  0.720197  0.866815  1
  C  C12  1  0.250000  0.173291  0.951076  1
  C  C13  1  0.750000  0.825274  0.049597  1
  C  C14  1  0.250000  0.675597  0.548416  1
  C  C15  1  0.750000  0.324499  0.451308  1
  C  C16  1  0.250000  0.046899  0.258508  1
  C  C17  1  0.750000  0.452778  0.759585  1
  C  C18  1  0.250000  0.547911  0.239452  1
  C  C19  1  0.750000  0.952602  0.741117  1
