# generated using pymatgen
data_K2PuTlO6
_symmetry_space_group_name_H-M   'P 1'
_cell_length_a   6.06452722
_cell_length_b   6.07277816
_cell_length_c   8.58568300
_cell_angle_alpha   90.02797435
_cell_angle_beta   90.01527692
_cell_angle_gamma   90.02164553
_symmetry_Int_Tables_number   1
_chemical_formula_structural   K2PuTlO6
_chemical_formula_sum   'K4 Pu2 Tl2 O12'
_cell_volume   316.19799878
_cell_formula_units_Z   2
loop_
 _symmetry_equiv_pos_site_id
 _symmetry_equiv_pos_as_xyz
  1  'x, y, z'
loop_
 _atom_site_type_symbol
 _atom_site_label
 _atom_site_symmetry_multiplicity
 _atom_site_fract_x
 _atom_site_fract_y
 _atom_site_fract_z
 _atom_site_occupancy
  K  K0  1  0.449782  0.050084  0.249857  1
  K  K1  1  0.950059  0.550171  0.250061  1
  K  K2  1  0.449943  0.049893  0.750057  1
  K  K3  1  0.950095  0.550049  0.750065  1
  Pu  Pu4  1  0.950091  0.050398  0.000016  1
  Pu  Pu5  1  0.449913  0.549584  0.499984  1
  Tl  Tl6  1  0.450148  0.550306  0.999994  1
  Tl  Tl7  1  0.949868  0.049667  0.500003  1
  O  O8  1  0.182320  0.813496  0.000477  1
  O  O9  1  0.187835  0.282199  0.000829  1
  O  O10  1  0.948806  0.050235  0.234326  1
  O  O11  1  0.450953  0.550126  0.265684  1
  O  O12  1  0.209542  0.320503  0.499058  1
  O  O13  1  0.220494  0.789236  0.499768  1
  O  O14  1  0.679082  0.309705  0.500168  1
  O  O15  1  0.690414  0.778513  0.500973  1
  O  O16  1  0.448889  0.549104  0.734267  1
  O  O17  1  0.951179  0.050467  0.765719  1
  O  O18  1  0.712326  0.818640  0.999172  1
  O  O19  1  0.718257  0.287628  0.999503  1
