# generated using pymatgen
data_Ho2Er9ThCo4
_symmetry_space_group_name_H-M   'P 1'
_cell_length_a   6.19759446
_cell_length_b   6.89434775
_cell_length_c   9.40620500
_cell_angle_alpha   90.00000000
_cell_angle_beta   90.00000000
_cell_angle_gamma   91.08281844
_symmetry_Int_Tables_number   1
_chemical_formula_structural   Ho2Er9ThCo4
_chemical_formula_sum   'Ho2 Er9 Th1 Co4'
_cell_volume   401.84004956
_cell_formula_units_Z   1
loop_
 _symmetry_equiv_pos_site_id
 _symmetry_equiv_pos_as_xyz
  1  'x, y, z'
loop_
 _atom_site_type_symbol
 _atom_site_label
 _atom_site_symmetry_multiplicity
 _atom_site_fract_x
 _atom_site_fract_y
 _atom_site_fract_z
 _atom_site_occupancy
  Ho  Ho0  1  0.858631  0.957574  0.750000  1
  Ho  Ho1  1  0.643066  0.456777  0.750000  1
  Er  Er2  1  0.674067  0.175162  0.068593  1
  Er  Er3  1  0.139515  0.041682  0.250000  1
  Er  Er4  1  0.827417  0.675096  0.433235  1
  Er  Er5  1  0.323619  0.827709  0.930500  1
  Er  Er6  1  0.176145  0.323983  0.568812  1
  Er  Er7  1  0.674067  0.175162  0.431407  1
  Er  Er8  1  0.176145  0.323983  0.931188  1
  Er  Er9  1  0.323619  0.827709  0.569500  1
  Er  Er10  1  0.827417  0.675096  0.066765  1
  Th  Th11  1  0.347849  0.552985  0.250000  1
  Co  Co12  1  0.965422  0.388006  0.250000  1
  Co  Co13  1  0.452168  0.114542  0.750000  1
  Co  Co14  1  0.543299  0.871330  0.250000  1
  Co  Co15  1  0.047550  0.613205  0.750000  1
