# generated using pymatgen
data_Sc8Ti8Ge16Mo3Ru
_symmetry_space_group_name_H-M   'P 1'
_cell_length_a   6.74932528
_cell_length_b   6.92354360
_cell_length_c   13.13094000
_cell_angle_alpha   90.00000000
_cell_angle_beta   90.00000000
_cell_angle_gamma   90.08924987
_symmetry_Int_Tables_number   1
_chemical_formula_structural   Sc8Ti8Ge16Mo3Ru
_chemical_formula_sum   'Sc8 Ti8 Ge16 Mo3 Ru1'
_cell_volume   613.59820538
_cell_formula_units_Z   1
loop_
 _symmetry_equiv_pos_site_id
 _symmetry_equiv_pos_as_xyz
  1  'x, y, z'
loop_
 _atom_site_type_symbol
 _atom_site_label
 _atom_site_symmetry_multiplicity
 _atom_site_fract_x
 _atom_site_fract_y
 _atom_site_fract_z
 _atom_site_occupancy
  Sc  Sc0  1  0.491855  0.677258  0.593172  1
  Sc  Sc1  1  0.994464  0.825662  0.907254  1
  Sc  Sc2  1  0.506809  0.322849  0.094258  1
  Sc  Sc3  1  0.005190  0.176570  0.405340  1
  Sc  Sc4  1  0.506809  0.322849  0.405742  1
  Sc  Sc5  1  0.005190  0.176570  0.094660  1
  Sc  Sc6  1  0.491855  0.677258  0.906828  1
  Sc  Sc7  1  0.994464  0.825662  0.592746  1
  Ti  Ti8  1  0.661275  0.164432  0.626884  1
  Ti  Ti9  1  0.164949  0.332523  0.873037  1
  Ti  Ti10  1  0.338109  0.832191  0.127344  1
  Ti  Ti11  1  0.838419  0.666998  0.374023  1
  Ti  Ti12  1  0.338109  0.832191  0.372656  1
  Ti  Ti13  1  0.838419  0.666998  0.125977  1
  Ti  Ti14  1  0.661275  0.164432  0.873116  1
  Ti  Ti15  1  0.164949  0.332523  0.626963  1
  Ge  Ge16  1  0.680076  0.961696  0.458004  1
  Ge  Ge17  1  0.178780  0.537220  0.041647  1
  Ge  Ge18  1  0.321076  0.038378  0.958795  1
  Ge  Ge19  1  0.820391  0.459870  0.542719  1
  Ge  Ge20  1  0.321076  0.038378  0.541205  1
  Ge  Ge21  1  0.820391  0.459870  0.957281  1
  Ge  Ge22  1  0.680076  0.961696  0.041996  1
  Ge  Ge23  1  0.178780  0.537220  0.458353  1
  Ge  Ge24  1  0.469178  0.384281  0.750000  1
  Ge  Ge25  1  0.961852  0.118704  0.750000  1
  Ge  Ge26  1  0.537807  0.616809  0.250000  1
  Ge  Ge27  1  0.035116  0.883311  0.250000  1
  Ge  Ge28  1  0.693156  0.849812  0.750000  1
  Ge  Ge29  1  0.190953  0.646507  0.750000  1
  Ge  Ge30  1  0.305971  0.148111  0.250000  1
  Ge  Ge31  1  0.805800  0.353667  0.250000  1
  Mo  Mo32  1  0.334348  0.011594  0.750000  1
  Mo  Mo33  1  0.165069  0.511632  0.250000  1
  Mo  Mo34  1  0.663558  0.990256  0.250000  1
  Ru  Ru35  1  0.834404  0.494027  0.750000  1
