# generated using pymatgen
data_Dy10(IrRu)3
_symmetry_space_group_name_H-M   'P 1'
_cell_length_a   10.85082539
_cell_length_b   10.84743400
_cell_length_c   6.40395123
_cell_angle_alpha   90.00000000
_cell_angle_beta   89.96935452
_cell_angle_gamma   90.00000000
_symmetry_Int_Tables_number   1
_chemical_formula_structural   Dy10(IrRu)3
_chemical_formula_sum   'Dy20 Ir6 Ru6'
_cell_volume   753.76808446
_cell_formula_units_Z   2
loop_
 _symmetry_equiv_pos_site_id
 _symmetry_equiv_pos_as_xyz
  1  'x, y, z'
loop_
 _atom_site_type_symbol
 _atom_site_label
 _atom_site_symmetry_multiplicity
 _atom_site_fract_x
 _atom_site_fract_y
 _atom_site_fract_z
 _atom_site_occupancy
  Dy  Dy0  1  0.293097  0.086757  0.378751  1
  Dy  Dy1  1  0.293097  0.913243  0.878751  1
  Dy  Dy2  1  0.707593  0.086821  0.878403  1
  Dy  Dy3  1  0.707593  0.913179  0.378403  1
  Dy  Dy4  1  0.587684  0.793491  0.878878  1
  Dy  Dy5  1  0.587684  0.206509  0.378878  1
  Dy  Dy6  1  0.412977  0.793720  0.378356  1
  Dy  Dy7  1  0.412977  0.206280  0.878356  1
  Dy  Dy8  1  0.206334  0.413030  0.621164  1
  Dy  Dy9  1  0.206334  0.586970  0.121164  1
  Dy  Dy10  1  0.793554  0.412330  0.121569  1
  Dy  Dy11  1  0.793554  0.587670  0.621569  1
  Dy  Dy12  1  0.913027  0.707214  0.121060  1
  Dy  Dy13  1  0.913027  0.292786  0.621060  1
  Dy  Dy14  1  0.086545  0.707353  0.621874  1
  Dy  Dy15  1  0.086545  0.292647  0.121874  1
  Dy  Dy16  1  0.998614  0.000463  0.499884  1
  Dy  Dy17  1  0.998614  0.999537  0.999884  1
  Dy  Dy18  1  0.500040  0.500282  0.000084  1
  Dy  Dy19  1  0.500040  0.499718  0.500084  1
  Ir  Ir20  1  0.153768  0.153514  0.750140  1
  Ir  Ir21  1  0.153768  0.846486  0.250140  1
  Ir  Ir22  1  0.652379  0.347841  0.749750  1
  Ir  Ir23  1  0.652379  0.652159  0.249750  1
  Ir  Ir24  1  0.347348  0.347055  0.250267  1
  Ir  Ir25  1  0.347348  0.652945  0.750267  1
  Ru  Ru26  1  0.847253  0.152849  0.249833  1
  Ru  Ru27  1  0.847253  0.847151  0.749833  1
  Ru  Ru28  1  0.500003  0.000120  0.123807  1
  Ru  Ru29  1  0.500003  0.999880  0.623807  1
  Ru  Ru30  1  0.999782  0.500320  0.876179  1
  Ru  Ru31  1  0.999782  0.499680  0.376179  1
