# generated using pymatgen
data_Ta2Ti2Co4Si7
_symmetry_space_group_name_H-M   'P 1'
_cell_length_a   9.20104860
_cell_length_b   9.20074134
_cell_length_c   9.20022947
_cell_angle_alpha   94.17444126
_cell_angle_beta   94.22717181
_cell_angle_gamma   148.59636428
_symmetry_Int_Tables_number   1
_chemical_formula_structural   Ta2Ti2Co4Si7
_chemical_formula_sum   'Ta4 Ti4 Co8 Si14'
_cell_volume   390.68597784
_cell_formula_units_Z   2
loop_
 _symmetry_equiv_pos_site_id
 _symmetry_equiv_pos_as_xyz
  1  'x, y, z'
loop_
 _atom_site_type_symbol
 _atom_site_label
 _atom_site_symmetry_multiplicity
 _atom_site_fract_x
 _atom_site_fract_y
 _atom_site_fract_z
 _atom_site_occupancy
  Ta  Ta0  1  0.133355  0.133452  0.266789  1
  Ta  Ta1  1  0.866645  0.866548  0.733211  1
  Ta  Ta2  1  0.866642  0.133453  0.000099  1
  Ta  Ta3  1  0.133358  0.866547  0.999901  1
  Ti  Ti4  1  0.499988  0.691626  0.191613  1
  Ti  Ti5  1  0.500012  0.308374  0.808387  1
  Ti  Ti6  1  0.308358  0.500002  0.808382  1
  Ti  Ti7  1  0.691642  0.499998  0.191618  1
  Co  Co8  1  0.399391  0.899382  0.798891  1
  Co  Co9  1  0.100492  0.600496  0.201104  1
  Co  Co10  1  0.100498  0.899384  0.499996  1
  Co  Co11  1  0.399388  0.600495  0.500008  1
  Co  Co12  1  0.600612  0.399505  0.499992  1
  Co  Co13  1  0.899502  0.100616  0.500004  1
  Co  Co14  1  0.899508  0.399504  0.798896  1
  Co  Co15  1  0.600609  0.100618  0.201109  1
  Si  Si16  1  0.294101  0.293973  0.588062  1
  Si  Si17  1  0.705899  0.706027  0.411938  1
  Si  Si18  1  0.705948  0.294002  0.999873  1
  Si  Si19  1  0.294052  0.705998  0.000127  1
  Si  Si20  1  0.999988  0.296942  0.296892  1
  Si  Si21  1  0.000012  0.703058  0.703108  1
  Si  Si22  1  0.702984  0.000030  0.703015  1
  Si  Si23  1  0.297016  0.999970  0.296985  1
  Si  Si24  1  0.499976  0.905737  0.405731  1
  Si  Si25  1  0.500024  0.094263  0.594269  1
  Si  Si26  1  0.094225  0.500021  0.594236  1
  Si  Si27  1  0.905775  0.499979  0.405764  1
  Si  Si28  1  0.747829  0.747832  0.999999  1
  Si  Si29  1  0.252171  0.252168  0.000001  1
