# generated using pymatgen
data_YEr2Sn3Pd2Ru
_symmetry_space_group_name_H-M   'P 1'
_cell_length_a   7.77960518
_cell_length_b   7.77960331
_cell_length_c   3.67521500
_cell_angle_alpha   90.00000000
_cell_angle_beta   90.00000000
_cell_angle_gamma   119.91413605
_symmetry_Int_Tables_number   1
_chemical_formula_structural   YEr2Sn3Pd2Ru
_chemical_formula_sum   'Y1 Er2 Sn3 Pd2 Ru1'
_cell_volume   192.79843446
_cell_formula_units_Z   1
loop_
 _symmetry_equiv_pos_site_id
 _symmetry_equiv_pos_as_xyz
  1  'x, y, z'
loop_
 _atom_site_type_symbol
 _atom_site_label
 _atom_site_symmetry_multiplicity
 _atom_site_fract_x
 _atom_site_fract_y
 _atom_site_fract_z
 _atom_site_occupancy
  Y  Y0  1  0.395088  0.395088  0.500000  1
  Er  Er1  1  0.606110  0.000641  0.500000  1
  Er  Er2  1  0.000641  0.606110  0.500000  1
  Sn  Sn3  1  0.733118  0.733118  0.000000  1
  Sn  Sn4  1  0.266095  0.000076  0.000000  1
  Sn  Sn5  1  0.000076  0.266095  0.000000  1
  Pd  Pd6  1  0.669422  0.332493  0.000000  1
  Pd  Pd7  1  0.332493  0.669422  0.000000  1
  Ru  Ru8  1  0.996956  0.996956  0.500000  1
