# generated using pymatgen
data_Tb3Dy7Y6CdHg3Pt4
_symmetry_space_group_name_H-M   'P 1'
_cell_length_a   9.70715479
_cell_length_b   9.70510735
_cell_length_c   9.70510800
_cell_angle_alpha   60.00000461
_cell_angle_beta   60.00698156
_cell_angle_gamma   60.00698292
_symmetry_Int_Tables_number   1
_chemical_formula_structural   Tb3Dy7Y6CdHg3Pt4
_chemical_formula_sum   'Tb3 Dy7 Y6 Cd1 Hg3 Pt4'
_cell_volume   646.58185734
_cell_formula_units_Z   1
loop_
 _symmetry_equiv_pos_site_id
 _symmetry_equiv_pos_as_xyz
  1  'x, y, z'
loop_
 _atom_site_type_symbol
 _atom_site_label
 _atom_site_symmetry_multiplicity
 _atom_site_fract_x
 _atom_site_fract_y
 _atom_site_fract_z
 _atom_site_occupancy
  Tb  Tb0  1  0.354129  0.353162  0.353162  1
  Tb  Tb1  1  0.354129  0.353162  0.939548  1
  Tb  Tb2  1  0.354129  0.939548  0.353162  1
  Dy  Dy3  1  0.937484  0.354172  0.354172  1
  Dy  Dy4  1  0.810241  0.189621  0.189621  1
  Dy  Dy5  1  0.188324  0.811267  0.811267  1
  Dy  Dy6  1  0.188324  0.811267  0.189143  1
  Dy  Dy7  1  0.810241  0.189621  0.810516  1
  Dy  Dy8  1  0.188324  0.189143  0.811267  1
  Dy  Dy9  1  0.810241  0.810516  0.189621  1
  Y  Y10  1  0.934177  0.564780  0.564780  1
  Y  Y11  1  0.564082  0.935669  0.935669  1
  Y  Y12  1  0.564082  0.935669  0.564579  1
  Y  Y13  1  0.934177  0.564780  0.936265  1
  Y  Y14  1  0.564082  0.564579  0.935669  1
  Y  Y15  1  0.934177  0.936265  0.564780  1
  Cd  Cd16  1  0.253918  0.582028  0.582028  1
  Hg  Hg17  1  0.585881  0.587166  0.587166  1
  Hg  Hg18  1  0.585881  0.587166  0.239789  1
  Hg  Hg19  1  0.585881  0.239789  0.587166  1
  Pt  Pt20  1  0.142577  0.143911  0.143911  1
  Pt  Pt21  1  0.142577  0.143911  0.569600  1
  Pt  Pt22  1  0.142577  0.569600  0.143911  1
  Pt  Pt23  1  0.570370  0.143210  0.143210  1
