# generated using pymatgen
data_NaTb2B2(PPd5)4
_symmetry_space_group_name_H-M   'P 1'
_cell_length_a   8.61530419
_cell_length_b   8.51887309
_cell_length_c   8.51887362
_cell_angle_alpha   60.75034104
_cell_angle_beta   59.62483945
_cell_angle_gamma   59.62484227
_symmetry_Int_Tables_number   1
_chemical_formula_structural   NaTb2B2(PPd5)4
_chemical_formula_sum   'Na1 Tb2 B2 P4 Pd20'
_cell_volume   441.98489330
_cell_formula_units_Z   1
loop_
 _symmetry_equiv_pos_site_id
 _symmetry_equiv_pos_as_xyz
  1  'x, y, z'
loop_
 _atom_site_type_symbol
 _atom_site_label
 _atom_site_symmetry_multiplicity
 _atom_site_fract_x
 _atom_site_fract_y
 _atom_site_fract_z
 _atom_site_occupancy
  Na  Na0  1  0.000000  0.000000  0.000000  1
  Tb  Tb1  1  0.250000  0.250000  0.250000  1
  Tb  Tb2  1  0.750000  0.750000  0.750000  1
  B  B3  1  0.737739  0.262261  0.262261  1
  B  B4  1  0.262261  0.737739  0.737739  1
  P  P5  1  0.262270  0.737730  0.262270  1
  P  P6  1  0.737730  0.262270  0.737730  1
  P  P7  1  0.262270  0.262270  0.737730  1
  P  P8  1  0.737730  0.737730  0.262270  1
  Pd  Pd9  1  0.391468  0.382390  0.382390  1
  Pd  Pd10  1  0.608532  0.617610  0.617610  1
  Pd  Pd11  1  0.382390  0.391468  0.843753  1
  Pd  Pd12  1  0.382390  0.843753  0.391468  1
  Pd  Pd13  1  0.617610  0.608532  0.156247  1
  Pd  Pd14  1  0.617610  0.156247  0.608532  1
  Pd  Pd15  1  0.843753  0.382390  0.382390  1
  Pd  Pd16  1  0.156247  0.617610  0.617610  1
  Pd  Pd17  1  0.345091  0.000000  0.000000  1
  Pd  Pd18  1  0.654909  0.000000  0.000000  1
  Pd  Pd19  1  0.000000  0.345091  0.654909  1
  Pd  Pd20  1  0.000000  0.654909  0.345091  1
  Pd  Pd21  1  0.989277  0.342707  0.010723  1
  Pd  Pd22  1  0.657293  0.010723  0.342707  1
  Pd  Pd23  1  0.010723  0.657293  0.989277  1
  Pd  Pd24  1  0.342707  0.989277  0.657293  1
  Pd  Pd25  1  0.989277  0.010723  0.342707  1
  Pd  Pd26  1  0.010723  0.989277  0.657293  1
  Pd  Pd27  1  0.657293  0.342707  0.010723  1
  Pd  Pd28  1  0.342707  0.657293  0.989277  1
