# generated using pymatgen
data_DyY12Ho7(CoSb2)4
_symmetry_space_group_name_H-M   'P 1'
_cell_length_a   7.91308807
_cell_length_b   8.74230005
_cell_length_c   12.25200110
_cell_angle_alpha   89.99148391
_cell_angle_beta   90.01230442
_cell_angle_gamma   90.00961877
_symmetry_Int_Tables_number   1
_chemical_formula_structural   DyY12Ho7(CoSb2)4
_chemical_formula_sum   'Dy1 Y12 Ho7 Co4 Sb8'
_cell_volume   847.57612391
_cell_formula_units_Z   1
loop_
 _symmetry_equiv_pos_site_id
 _symmetry_equiv_pos_as_xyz
  1  'x, y, z'
loop_
 _atom_site_type_symbol
 _atom_site_label
 _atom_site_symmetry_multiplicity
 _atom_site_fract_x
 _atom_site_fract_y
 _atom_site_fract_z
 _atom_site_occupancy
  Dy  Dy0  1  0.822478  0.965779  0.065354  1
  Y  Y1  1  0.155418  0.749916  0.203722  1
  Y  Y2  1  0.655223  0.250038  0.296384  1
  Y  Y3  1  0.844712  0.250044  0.796244  1
  Y  Y4  1  0.344751  0.749982  0.703637  1
  Y  Y5  1  0.456256  0.749923  0.998290  1
  Y  Y6  1  0.956401  0.250005  0.501720  1
  Y  Y7  1  0.543396  0.250110  0.001707  1
  Y  Y8  1  0.043625  0.749982  0.498287  1
  Y  Y9  1  0.625007  0.750005  0.306416  1
  Y  Y10  1  0.125216  0.250087  0.193743  1
  Y  Y11  1  0.374951  0.250010  0.693607  1
  Y  Y12  1  0.875029  0.749875  0.806258  1
  Ho  Ho13  1  0.323180  0.034318  0.434678  1
  Ho  Ho14  1  0.176866  0.465671  0.934640  1
  Ho  Ho15  1  0.676844  0.534219  0.565339  1
  Ho  Ho16  1  0.177045  0.034320  0.934587  1
  Ho  Ho17  1  0.676841  0.965778  0.565322  1
  Ho  Ho18  1  0.823130  0.534265  0.065316  1
  Ho  Ho19  1  0.323183  0.465674  0.434671  1
  Co  Co20  1  0.437358  0.749997  0.490984  1
  Co  Co21  1  0.937502  0.250146  0.009026  1
  Co  Co22  1  0.562635  0.250001  0.509017  1
  Co  Co23  1  0.063015  0.749772  0.990875  1
  Sb  Sb24  1  0.930382  0.992255  0.326812  1
  Sb  Sb25  1  0.430042  0.007822  0.173383  1
  Sb  Sb26  1  0.069724  0.492232  0.673267  1
  Sb  Sb27  1  0.569690  0.507760  0.826703  1
  Sb  Sb28  1  0.069702  0.007776  0.673288  1
  Sb  Sb29  1  0.569772  0.992236  0.826706  1
  Sb  Sb30  1  0.930299  0.507759  0.326705  1
  Sb  Sb31  1  0.430325  0.492243  0.173310  1
