# generated using pymatgen
data_TaBi2Sb5O16
_symmetry_space_group_name_H-M   'P 1'
_cell_length_a   4.95682388
_cell_length_b   5.64569300
_cell_length_c   11.90530805
_cell_angle_alpha   90.00000000
_cell_angle_beta   90.06773053
_cell_angle_gamma   90.00000000
_symmetry_Int_Tables_number   1
_chemical_formula_structural   TaBi2Sb5O16
_chemical_formula_sum   'Ta1 Bi2 Sb5 O16'
_cell_volume   333.16631130
_cell_formula_units_Z   1
loop_
 _symmetry_equiv_pos_site_id
 _symmetry_equiv_pos_as_xyz
  1  'x, y, z'
loop_
 _atom_site_type_symbol
 _atom_site_label
 _atom_site_symmetry_multiplicity
 _atom_site_fract_x
 _atom_site_fract_y
 _atom_site_fract_z
 _atom_site_occupancy
  Ta  Ta0  1  0.750000  0.121481  0.250000  1
  Bi  Bi1  1  0.741921  0.751792  0.499031  1
  Bi  Bi2  1  0.758079  0.751792  0.000969  1
  Sb  Sb3  1  0.250000  0.886779  0.750000  1
  Sb  Sb4  1  0.299312  0.249072  0.500607  1
  Sb  Sb5  1  0.750000  0.380997  0.750000  1
  Sb  Sb6  1  0.200688  0.249072  0.999393  1
  Sb  Sb7  1  0.250000  0.616178  0.250000  1
  O  O8  1  0.412952  0.577197  0.405326  1
  O  O9  1  0.504583  0.640463  0.812012  1
  O  O10  1  0.001803  0.139632  0.687363  1
  O  O11  1  0.915513  0.087874  0.096750  1
  O  O12  1  0.003377  0.356701  0.303564  1
  O  O13  1  0.584487  0.087874  0.403250  1
  O  O14  1  0.087048  0.577197  0.094674  1
  O  O15  1  0.505819  0.855345  0.190187  1
  O  O16  1  0.412783  0.924967  0.595884  1
  O  O17  1  0.994181  0.855345  0.309813  1
  O  O18  1  0.496623  0.356701  0.196436  1
  O  O19  1  0.087217  0.924967  0.904116  1
  O  O20  1  0.912747  0.414239  0.904552  1
  O  O21  1  0.498197  0.139632  0.812637  1
  O  O22  1  0.995417  0.640463  0.687988  1
  O  O23  1  0.587253  0.414239  0.595448  1
