# generated using pymatgen
data_Er4Co4OsRu3
_symmetry_space_group_name_H-M   'P 1'
_cell_length_a   5.08145570
_cell_length_b   5.15586337
_cell_length_c   8.71996200
_cell_angle_alpha   90.00000000
_cell_angle_beta   90.00000000
_cell_angle_gamma   120.51303035
_symmetry_Int_Tables_number   1
_chemical_formula_structural   Er4Co4OsRu3
_chemical_formula_sum   'Er4 Co4 Os1 Ru3'
_cell_volume   196.81868718
_cell_formula_units_Z   1
loop_
 _symmetry_equiv_pos_site_id
 _symmetry_equiv_pos_as_xyz
  1  'x, y, z'
loop_
 _atom_site_type_symbol
 _atom_site_label
 _atom_site_symmetry_multiplicity
 _atom_site_fract_x
 _atom_site_fract_y
 _atom_site_fract_z
 _atom_site_occupancy
  Er  Er0  1  0.329600  0.666048  0.433918  1
  Er  Er1  1  0.662114  0.331981  0.567507  1
  Er  Er2  1  0.662114  0.331981  0.932493  1
  Er  Er3  1  0.329600  0.666048  0.066082  1
  Co  Co4  1  0.178940  0.343406  0.750000  1
  Co  Co5  1  0.181001  0.833931  0.750000  1
  Co  Co6  1  0.341430  0.169333  0.250000  1
  Co  Co7  1  0.831703  0.660664  0.250000  1
  Os  Os8  1  0.668012  0.833095  0.750000  1
  Ru  Ru9  1  0.992625  0.997311  0.998853  1
  Ru  Ru10  1  0.830236  0.168893  0.250000  1
  Ru  Ru11  1  0.992625  0.997311  0.501147  1
