# generated using pymatgen
data_Tb7Dy3IrPt5
_symmetry_space_group_name_H-M   'P 1'
_cell_length_a   11.06737211
_cell_length_b   11.06405900
_cell_length_c   6.43161106
_cell_angle_alpha   90.00000000
_cell_angle_beta   89.98419809
_cell_angle_gamma   90.00000000
_symmetry_Int_Tables_number   1
_chemical_formula_structural   Tb7Dy3IrPt5
_chemical_formula_sum   'Tb14 Dy6 Ir2 Pt10'
_cell_volume   787.55111718
_cell_formula_units_Z   2
loop_
 _symmetry_equiv_pos_site_id
 _symmetry_equiv_pos_as_xyz
  1  'x, y, z'
loop_
 _atom_site_type_symbol
 _atom_site_label
 _atom_site_symmetry_multiplicity
 _atom_site_fract_x
 _atom_site_fract_y
 _atom_site_fract_z
 _atom_site_occupancy
  Tb  Tb0  1  0.292360  0.088728  0.376895  1
  Tb  Tb1  1  0.292360  0.911272  0.876895  1
  Tb  Tb2  1  0.707599  0.088655  0.877036  1
  Tb  Tb3  1  0.707599  0.911345  0.377036  1
  Tb  Tb4  1  0.588638  0.792454  0.877027  1
  Tb  Tb5  1  0.588638  0.207546  0.377027  1
  Tb  Tb6  1  0.411317  0.792429  0.377003  1
  Tb  Tb7  1  0.411317  0.207571  0.877003  1
  Tb  Tb8  1  0.205115  0.412075  0.623482  1
  Tb  Tb9  1  0.205115  0.587925  0.123482  1
  Tb  Tb10  1  0.794942  0.411948  0.123460  1
  Tb  Tb11  1  0.794942  0.588052  0.623460  1
  Tb  Tb12  1  0.912140  0.705182  0.123446  1
  Tb  Tb13  1  0.912140  0.294818  0.623446  1
  Dy  Dy14  1  0.087898  0.704938  0.623287  1
  Dy  Dy15  1  0.087898  0.295062  0.123287  1
  Dy  Dy16  1  0.000078  0.999911  0.500562  1
  Dy  Dy17  1  0.000078  0.000089  0.000562  1
  Dy  Dy18  1  0.499986  0.499998  0.000569  1
  Dy  Dy19  1  0.499986  0.500002  0.500569  1
  Ir  Ir20  1  0.000177  0.499962  0.878067  1
  Ir  Ir21  1  0.000177  0.500038  0.378067  1
  Pt  Pt22  1  0.846452  0.152622  0.249875  1
  Pt  Pt23  1  0.846452  0.847378  0.749875  1
  Pt  Pt24  1  0.153584  0.152748  0.750422  1
  Pt  Pt25  1  0.153584  0.847252  0.250422  1
  Pt  Pt26  1  0.652542  0.346300  0.749985  1
  Pt  Pt27  1  0.652542  0.653700  0.249985  1
  Pt  Pt28  1  0.347202  0.346234  0.249873  1
  Pt  Pt29  1  0.347202  0.653766  0.749873  1
  Pt  Pt30  1  0.499971  0.000001  0.119011  1
  Pt  Pt31  1  0.499971  0.999999  0.619011  1
