# generated using pymatgen
data_Rb2LiTaS4
_symmetry_space_group_name_H-M   'P 1'
_cell_length_a   6.01159641
_cell_length_b   7.53732660
_cell_length_c   12.50443443
_cell_angle_alpha   84.49916209
_cell_angle_beta   76.09110549
_cell_angle_gamma   66.49753536
_symmetry_Int_Tables_number   1
_chemical_formula_structural   Rb2LiTaS4
_chemical_formula_sum   'Rb4 Li2 Ta2 S8'
_cell_volume   504.35528939
_cell_formula_units_Z   2
loop_
 _symmetry_equiv_pos_site_id
 _symmetry_equiv_pos_as_xyz
  1  'x, y, z'
loop_
 _atom_site_type_symbol
 _atom_site_label
 _atom_site_symmetry_multiplicity
 _atom_site_fract_x
 _atom_site_fract_y
 _atom_site_fract_z
 _atom_site_occupancy
  Rb  Rb0  1  0.446972  0.750000  0.106056  1
  Rb  Rb1  1  0.196972  0.250000  0.606056  1
  Rb  Rb2  1  0.553028  0.250000  0.893944  1
  Rb  Rb3  1  0.803028  0.750000  0.393944  1
  Li  Li4  1  0.125000  0.750000  0.750000  1
  Li  Li5  1  0.875000  0.250000  0.250000  1
  Ta  Ta6  1  0.625000  0.750000  0.750000  1
  Ta  Ta7  1  0.375000  0.250000  0.250000  1
  S  S8  1  0.191879  0.059751  0.356305  1
  S  S9  1  0.808121  0.940249  0.643695  1
  S  S10  1  0.451816  0.440249  0.356305  1
  S  S11  1  0.251629  0.940249  0.856305  1
  S  S12  1  0.548184  0.559751  0.643695  1
  S  S13  1  0.892065  0.559751  0.856305  1
  S  S14  1  0.748371  0.059751  0.143695  1
  S  S15  1  0.107935  0.440249  0.143695  1
