# generated using pymatgen
data_ZrSc5Al7Cu16
_symmetry_space_group_name_H-M   'P 1'
_cell_length_a   8.48258266
_cell_length_b   8.47741774
_cell_length_c   8.47764657
_cell_angle_alpha   60.03859787
_cell_angle_beta   59.97815991
_cell_angle_gamma   59.98080087
_symmetry_Int_Tables_number   1
_chemical_formula_structural   ZrSc5Al7Cu16
_chemical_formula_sum   'Zr1 Sc5 Al7 Cu16'
_cell_volume   431.06590334
_cell_formula_units_Z   1
loop_
 _symmetry_equiv_pos_site_id
 _symmetry_equiv_pos_as_xyz
  1  'x, y, z'
loop_
 _atom_site_type_symbol
 _atom_site_label
 _atom_site_symmetry_multiplicity
 _atom_site_fract_x
 _atom_site_fract_y
 _atom_site_fract_z
 _atom_site_occupancy
  Zr  Zr0  1  0.293703  0.706297  0.706296  1
  Sc  Sc1  1  0.703919  0.705752  0.296081  1
  Sc  Sc2  1  0.294184  0.705816  0.296012  1
  Sc  Sc3  1  0.706167  0.293833  0.293835  1
  Sc  Sc4  1  0.294247  0.296082  0.705754  1
  Sc  Sc5  1  0.703991  0.296010  0.705817  1
  Al  Al6  1  0.000054  0.999945  0.999946  1
  Al  Al7  1  0.001038  0.998961  0.500350  1
  Al  Al8  1  0.499639  0.998971  0.500359  1
  Al  Al9  1  0.000404  0.499593  0.499594  1
  Al  Al10  1  0.499649  0.500350  0.998961  1
  Al  Al11  1  0.001028  0.500360  0.998970  1
  Al  Al12  1  0.500406  0.999595  0.999593  1
  Cu  Cu13  1  0.880253  0.880241  0.359329  1
  Cu  Cu14  1  0.880166  0.359329  0.880243  1
  Cu  Cu15  1  0.359928  0.880357  0.880424  1
  Cu  Cu16  1  0.879291  0.880423  0.880364  1
  Cu  Cu17  1  0.119579  0.120710  0.640074  1
  Cu  Cu18  1  0.119643  0.640073  0.120712  1
  Cu  Cu19  1  0.640670  0.119832  0.119743  1
  Cu  Cu20  1  0.119756  0.119745  0.119822  1
  Cu  Cu21  1  0.671431  0.670602  0.986586  1
  Cu  Cu22  1  0.671384  0.986583  0.670600  1
  Cu  Cu23  1  0.985867  0.670800  0.670874  1
  Cu  Cu24  1  0.672455  0.670877  0.670801  1
  Cu  Cu25  1  0.329123  0.327544  0.014133  1
  Cu  Cu26  1  0.329198  0.014135  0.327542  1
  Cu  Cu27  1  0.013425  0.328612  0.328564  1
  Cu  Cu28  1  0.329401  0.328571  0.328622  1
