# generated using pymatgen
data_Th4Zn3Si4Au
_symmetry_space_group_name_H-M   'P 1'
_cell_length_a   4.19930700
_cell_length_b   4.19930715
_cell_length_c   16.89167800
_cell_angle_alpha   90.00000000
_cell_angle_beta   90.00000000
_cell_angle_gamma   119.99999096
_symmetry_Int_Tables_number   1
_chemical_formula_structural   Th4Zn3Si4Au
_chemical_formula_sum   'Th4 Zn3 Si4 Au1'
_cell_volume   257.96378017
_cell_formula_units_Z   1
loop_
 _symmetry_equiv_pos_site_id
 _symmetry_equiv_pos_as_xyz
  1  'x, y, z'
loop_
 _atom_site_type_symbol
 _atom_site_label
 _atom_site_symmetry_multiplicity
 _atom_site_fract_x
 _atom_site_fract_y
 _atom_site_fract_z
 _atom_site_occupancy
  Th  Th0  1  0.333333  0.666667  0.127310  1
  Th  Th1  1  0.333333  0.666667  0.623589  1
  Th  Th2  1  0.333333  0.666667  0.376411  1
  Th  Th3  1  0.333333  0.666667  0.872690  1
  Zn  Zn4  1  0.666667  0.333333  0.500000  1
  Zn  Zn5  1  0.000000  0.000000  0.248503  1
  Zn  Zn6  1  0.000000  0.000000  0.751497  1
  Si  Si7  1  0.666667  0.333333  0.252374  1
  Si  Si8  1  0.666667  0.333333  0.747626  1
  Si  Si9  1  0.000000  0.000000  0.500000  1
  Si  Si10  1  0.666667  0.333333  0.000000  1
  Au  Au11  1  0.000000  0.000000  0.000000  1
