# generated using pymatgen
data_Er2HfPd9
_symmetry_space_group_name_H-M   'P 1'
_cell_length_a   4.07593600
_cell_length_b   4.07593600
_cell_length_c   12.24608500
_cell_angle_alpha   90.00000000
_cell_angle_beta   90.00000000
_cell_angle_gamma   90.00000000
_symmetry_Int_Tables_number   1
_chemical_formula_structural   Er2HfPd9
_chemical_formula_sum   'Er2 Hf1 Pd9'
_cell_volume   203.44732399
_cell_formula_units_Z   1
loop_
 _symmetry_equiv_pos_site_id
 _symmetry_equiv_pos_as_xyz
  1  'x, y, z'
loop_
 _atom_site_type_symbol
 _atom_site_label
 _atom_site_symmetry_multiplicity
 _atom_site_fract_x
 _atom_site_fract_y
 _atom_site_fract_z
 _atom_site_occupancy
  Er  Er0  1  0.000000  0.000000  0.332521  1
  Er  Er1  1  0.000000  0.000000  0.667479  1
  Hf  Hf2  1  0.000000  0.000000  0.000000  1
  Pd  Pd3  1  0.500000  0.500000  0.000000  1
  Pd  Pd4  1  0.500000  0.500000  0.328602  1
  Pd  Pd5  1  0.500000  0.500000  0.671398  1
  Pd  Pd6  1  0.500000  0.000000  0.157594  1
  Pd  Pd7  1  0.500000  0.000000  0.500000  1
  Pd  Pd8  1  0.500000  0.000000  0.842406  1
  Pd  Pd9  1  0.000000  0.500000  0.157594  1
  Pd  Pd10  1  0.000000  0.500000  0.500000  1
  Pd  Pd11  1  0.000000  0.500000  0.842406  1
