# generated using pymatgen
data_Dy17Sc3Si15Pt
_symmetry_space_group_name_H-M   'P 1'
_cell_length_a   7.34456272
_cell_length_b   7.63125989
_cell_length_c   14.53184897
_cell_angle_alpha   89.78767629
_cell_angle_beta   89.69705583
_cell_angle_gamma   90.14992143
_symmetry_Int_Tables_number   1
_chemical_formula_structural   Dy17Sc3Si15Pt
_chemical_formula_sum   'Dy17 Sc3 Si15 Pt1'
_cell_volume   814.46514236
_cell_formula_units_Z   1
loop_
 _symmetry_equiv_pos_site_id
 _symmetry_equiv_pos_as_xyz
  1  'x, y, z'
loop_
 _atom_site_type_symbol
 _atom_site_label
 _atom_site_symmetry_multiplicity
 _atom_site_fract_x
 _atom_site_fract_y
 _atom_site_fract_z
 _atom_site_occupancy
  Dy  Dy0  1  0.353747  0.010020  0.751695  1
  Dy  Dy1  1  0.974111  0.814694  0.100259  1
  Dy  Dy2  1  0.473164  0.683266  0.400048  1
  Dy  Dy3  1  0.529704  0.324238  0.900590  1
  Dy  Dy4  1  0.026927  0.184764  0.598667  1
  Dy  Dy5  1  0.026169  0.186308  0.900761  1
  Dy  Dy6  1  0.529644  0.318517  0.598218  1
  Dy  Dy7  1  0.475105  0.682695  0.101893  1
  Dy  Dy8  1  0.971077  0.816859  0.399479  1
  Dy  Dy9  1  0.682921  0.813682  0.880462  1
  Dy  Dy10  1  0.178489  0.679225  0.622340  1
  Dy  Dy11  1  0.818308  0.332961  0.121916  1
  Dy  Dy12  1  0.315954  0.176155  0.374136  1
  Dy  Dy13  1  0.319832  0.177850  0.125772  1
  Dy  Dy14  1  0.818660  0.321904  0.375205  1
  Dy  Dy15  1  0.175673  0.671929  0.877616  1
  Dy  Dy16  1  0.683538  0.820435  0.622778  1
  Sc  Sc17  1  0.649738  0.990081  0.249126  1
  Sc  Sc18  1  0.150489  0.512741  0.248799  1
  Sc  Sc19  1  0.846801  0.485669  0.754602  1
  Si  Si20  1  0.769957  0.635843  0.251968  1
  Si  Si21  1  0.269894  0.865660  0.250631  1
  Si  Si22  1  0.736226  0.131258  0.748998  1
  Si  Si23  1  0.228401  0.374107  0.746786  1
  Si  Si24  1  0.012697  0.099301  0.248870  1
  Si  Si25  1  0.516651  0.401734  0.251417  1
  Si  Si26  1  0.478027  0.601654  0.746775  1
  Si  Si27  1  0.978225  0.897957  0.748772  1
  Si  Si28  1  0.353256  0.972370  0.538842  1
  Si  Si29  1  0.647663  0.027036  0.044133  1
  Si  Si30  1  0.148182  0.471219  0.458399  1
  Si  Si31  1  0.156115  0.474642  0.044909  1
  Si  Si32  1  0.645497  0.027886  0.457785  1
  Si  Si33  1  0.352839  0.969031  0.962899  1
  Si  Si34  1  0.853270  0.527376  0.540089  1
  Pt  Pt35  1  0.853046  0.518932  0.954370  1
