# generated using pymatgen
data_Ac2Ga5RuPt2
_symmetry_space_group_name_H-M   'P 1'
_cell_length_a   8.88184975
_cell_length_b   8.88184924
_cell_length_c   8.88184900
_cell_angle_alpha   139.44950601
_cell_angle_beta   107.61985785
_cell_angle_gamma   86.41474987
_symmetry_Int_Tables_number   1
_chemical_formula_structural   Ac2Ga5RuPt2
_chemical_formula_sum   'Ac4 Ga10 Ru2 Pt4'
_cell_volume   417.98690265
_cell_formula_units_Z   2
loop_
 _symmetry_equiv_pos_site_id
 _symmetry_equiv_pos_as_xyz
  1  'x, y, z'
loop_
 _atom_site_type_symbol
 _atom_site_label
 _atom_site_symmetry_multiplicity
 _atom_site_fract_x
 _atom_site_fract_y
 _atom_site_fract_z
 _atom_site_occupancy
  Ac  Ac0  1  0.862643  0.633356  0.229287  1
  Ac  Ac1  1  0.137357  0.366644  0.770713  1
  Ac  Ac2  1  0.404069  0.133356  0.270713  1
  Ac  Ac3  1  0.595931  0.866644  0.729287  1
  Ga  Ga4  1  0.500000  0.750000  0.250000  1
  Ga  Ga5  1  0.500000  0.250000  0.750000  1
  Ga  Ga6  1  0.214035  0.964035  0.750000  1
  Ga  Ga7  1  0.785965  0.535965  0.750000  1
  Ga  Ga8  1  0.785965  0.035965  0.250000  1
  Ga  Ga9  1  0.214035  0.464035  0.250000  1
  Ga  Ga10  1  0.052501  0.902091  0.150410  1
  Ga  Ga11  1  0.947499  0.097909  0.849590  1
  Ga  Ga12  1  0.751681  0.402091  0.349590  1
  Ga  Ga13  1  0.248319  0.597909  0.650410  1
  Ru  Ru14  1  0.000000  0.750000  0.750000  1
  Ru  Ru15  1  0.000000  0.250000  0.250000  1
  Pt  Pt16  1  0.253497  0.858501  0.394997  1
  Pt  Pt17  1  0.746503  0.141499  0.605003  1
  Pt  Pt18  1  0.463504  0.358501  0.105003  1
  Pt  Pt19  1  0.536496  0.641499  0.894997  1
