# generated using pymatgen
data_Tb20Bi8AsP3
_symmetry_space_group_name_H-M   'P 1'
_cell_length_a   8.04673461
_cell_length_b   9.04881300
_cell_length_c   12.24017860
_cell_angle_alpha   90.00000000
_cell_angle_beta   90.15771551
_cell_angle_gamma   90.00000000
_symmetry_Int_Tables_number   1
_chemical_formula_structural   Tb20Bi8AsP3
_chemical_formula_sum   'Tb20 Bi8 As1 P3'
_cell_volume   891.24560487
_cell_formula_units_Z   1
loop_
 _symmetry_equiv_pos_site_id
 _symmetry_equiv_pos_as_xyz
  1  'x, y, z'
loop_
 _atom_site_type_symbol
 _atom_site_label
 _atom_site_symmetry_multiplicity
 _atom_site_fract_x
 _atom_site_fract_y
 _atom_site_fract_z
 _atom_site_occupancy
  Tb  Tb0  1  0.851209  0.750000  0.793903  1
  Tb  Tb1  1  0.146904  0.250000  0.204675  1
  Tb  Tb2  1  0.352201  0.250000  0.706011  1
  Tb  Tb3  1  0.648788  0.750000  0.291273  1
  Tb  Tb4  1  0.371132  0.750000  0.705264  1
  Tb  Tb5  1  0.622989  0.250000  0.299249  1
  Tb  Tb6  1  0.878113  0.250000  0.799466  1
  Tb  Tb7  1  0.122198  0.750000  0.199677  1
  Tb  Tb8  1  0.961294  0.750000  0.502026  1
  Tb  Tb9  1  0.042026  0.250000  0.497468  1
  Tb  Tb10  1  0.457626  0.250000  0.997546  1
  Tb  Tb11  1  0.540142  0.750000  0.001291  1
  Tb  Tb12  1  0.685498  0.055715  0.564177  1
  Tb  Tb13  1  0.314994  0.955303  0.434688  1
  Tb  Tb14  1  0.182057  0.950504  0.937430  1
  Tb  Tb15  1  0.314994  0.544697  0.434688  1
  Tb  Tb16  1  0.817015  0.047898  0.063432  1
  Tb  Tb17  1  0.685498  0.444285  0.564177  1
  Tb  Tb18  1  0.817015  0.452102  0.063432  1
  Tb  Tb19  1  0.182057  0.549496  0.937430  1
  Bi  Bi20  1  0.579071  0.489757  0.826976  1
  Bi  Bi21  1  0.420998  0.509239  0.172704  1
  Bi  Bi22  1  0.078033  0.508445  0.673427  1
  Bi  Bi23  1  0.420998  0.990761  0.172704  1
  Bi  Bi24  1  0.921090  0.490594  0.326082  1
  Bi  Bi25  1  0.579071  0.010243  0.826976  1
  Bi  Bi26  1  0.921090  0.009406  0.326082  1
  Bi  Bi27  1  0.078033  0.991555  0.673427  1
  As  As28  1  0.579022  0.750000  0.516937  1
  P  P29  1  0.429677  0.250000  0.488173  1
  P  P30  1  0.072229  0.250000  0.987128  1
  P  P31  1  0.926936  0.750000  0.012081  1
