# generated using pymatgen
data_Ce10AsPdPb6
_symmetry_space_group_name_H-M   'P 1'
_cell_length_a   6.76109956
_cell_length_b   9.55856928
_cell_length_c   9.55857000
_cell_angle_alpha   120.13909731
_cell_angle_beta   89.96111978
_cell_angle_gamma   89.96112052
_symmetry_Int_Tables_number   1
_chemical_formula_structural   Ce10AsPdPb6
_chemical_formula_sum   'Ce10 As1 Pd1 Pb6'
_cell_volume   534.22344941
_cell_formula_units_Z   1
loop_
 _symmetry_equiv_pos_site_id
 _symmetry_equiv_pos_as_xyz
  1  'x, y, z'
loop_
 _atom_site_type_symbol
 _atom_site_label
 _atom_site_symmetry_multiplicity
 _atom_site_fract_x
 _atom_site_fract_y
 _atom_site_fract_z
 _atom_site_occupancy
  Ce  Ce0  1  0.751434  0.746519  0.746519  1
  Ce  Ce1  1  0.751142  0.253802  0.000272  1
  Ce  Ce2  1  0.751142  0.000272  0.253802  1
  Ce  Ce3  1  0.248566  0.253481  0.253481  1
  Ce  Ce4  1  0.248858  0.746198  0.999728  1
  Ce  Ce5  1  0.248858  0.999728  0.746198  1
  Ce  Ce6  1  0.000000  0.666648  0.333352  1
  Ce  Ce7  1  0.000000  0.333352  0.666648  1
  Ce  Ce8  1  0.500000  0.333399  0.666601  1
  Ce  Ce9  1  0.500000  0.666601  0.333399  1
  As  As10  1  0.000000  0.000000  0.000000  1
  Pd  Pd11  1  0.500000  0.000000  0.000000  1
  Pb  Pb12  1  0.750774  0.390081  0.390081  1
  Pb  Pb13  1  0.750798  0.610183  0.000112  1
  Pb  Pb14  1  0.750798  0.000112  0.610183  1
  Pb  Pb15  1  0.249226  0.609919  0.609919  1
  Pb  Pb16  1  0.249202  0.389817  0.999888  1
  Pb  Pb17  1  0.249202  0.999888  0.389817  1
