# generated using pymatgen
data_Tb2Y3Tm3(WO6)4
_symmetry_space_group_name_H-M   'P 1'
_cell_length_a   5.39748071
_cell_length_b   7.69613445
_cell_length_c   11.42475684
_cell_angle_alpha   75.53893339
_cell_angle_beta   90.01209587
_cell_angle_gamma   90.09067625
_symmetry_Int_Tables_number   1
_chemical_formula_structural   Tb2Y3Tm3(WO6)4
_chemical_formula_sum   'Tb2 Y3 Tm3 W4 O24'
_cell_volume   459.54491450
_cell_formula_units_Z   1
loop_
 _symmetry_equiv_pos_site_id
 _symmetry_equiv_pos_as_xyz
  1  'x, y, z'
loop_
 _atom_site_type_symbol
 _atom_site_label
 _atom_site_symmetry_multiplicity
 _atom_site_fract_x
 _atom_site_fract_y
 _atom_site_fract_z
 _atom_site_occupancy
  Tb  Tb0  1  0.684015  0.499266  0.751113  1
  Tb  Tb1  1  0.316711  0.499605  0.249581  1
  Y  Y2  1  0.741335  0.000632  0.751442  1
  Y  Y3  1  0.258869  0.000321  0.248876  1
  Y  Y4  1  0.184655  0.795310  0.577854  1
  Tm  Tm5  1  0.816995  0.793807  0.078579  1
  Tm  Tm6  1  0.183559  0.206128  0.921414  1
  Tm  Tm7  1  0.815431  0.206427  0.421129  1
  W  W8  1  0.256017  0.723380  0.886911  1
  W  W9  1  0.744789  0.723663  0.384583  1
  W  W10  1  0.255176  0.275990  0.614123  1
  W  W11  1  0.744694  0.276128  0.114163  1
  O  O12  1  0.047262  0.940923  0.897449  1
  O  O13  1  0.536114  0.844417  0.933938  1
  O  O14  1  0.952780  0.941912  0.395348  1
  O  O15  1  0.458817  0.790072  0.728716  1
  O  O16  1  0.466481  0.846363  0.429579  1
  O  O17  1  0.981358  0.711668  0.772833  1
  O  O18  1  0.544418  0.790162  0.225372  1
  O  O19  1  0.848853  0.634657  0.548090  1
  O  O20  1  0.357098  0.488642  0.887183  1
  O  O21  1  0.018762  0.712289  0.270316  1
  O  O22  1  0.360898  0.509281  0.613334  1
  O  O23  1  0.853183  0.363835  0.951150  1
  O  O24  1  0.147024  0.635315  0.049584  1
  O  O25  1  0.642294  0.488592  0.385606  1
  O  O26  1  0.983197  0.288685  0.730094  1
  O  O27  1  0.643236  0.510853  0.113009  1
  O  O28  1  0.146885  0.364457  0.451070  1
  O  O29  1  0.455486  0.208418  0.773946  1
  O  O30  1  0.017726  0.287565  0.229361  1
  O  O31  1  0.534154  0.154325  0.567585  1
  O  O32  1  0.544034  0.209257  0.273361  1
  O  O33  1  0.041359  0.062060  0.603107  1
  O  O34  1  0.463195  0.156466  0.067369  1
  O  O35  1  0.953139  0.059129  0.102833  1
