# generated using pymatgen
data_Ho2P7IrRu11
_symmetry_space_group_name_H-M   'P 1'
_cell_length_a   9.38028522
_cell_length_b   9.42951815
_cell_length_c   3.96005200
_cell_angle_alpha   90.00000000
_cell_angle_beta   90.00000000
_cell_angle_gamma   119.67226939
_symmetry_Int_Tables_number   1
_chemical_formula_structural   Ho2P7IrRu11
_chemical_formula_sum   'Ho2 P7 Ir1 Ru11'
_cell_volume   304.34196541
_cell_formula_units_Z   1
loop_
 _symmetry_equiv_pos_site_id
 _symmetry_equiv_pos_as_xyz
  1  'x, y, z'
loop_
 _atom_site_type_symbol
 _atom_site_label
 _atom_site_symmetry_multiplicity
 _atom_site_fract_x
 _atom_site_fract_y
 _atom_site_fract_z
 _atom_site_occupancy
  Ho  Ho0  1  0.667488  0.334570  0.500000  1
  Ho  Ho1  1  0.331559  0.663769  0.000000  1
  P  P2  1  0.599117  0.713331  0.500000  1
  P  P3  1  0.999441  0.000282  0.000000  1
  P  P4  1  0.277604  0.879075  0.500000  1
  P  P5  1  0.118017  0.400029  0.500000  1
  P  P6  1  0.885767  0.576274  0.000000  1
  P  P7  1  0.426774  0.310665  0.000000  1
  P  P8  1  0.695380  0.120684  0.000000  1
  Ir  Ir9  1  0.550504  0.942269  0.500000  1
  Ru  Ru10  1  0.391590  0.442477  0.500000  1
  Ru  Ru11  1  0.913139  0.124177  0.500000  1
  Ru  Ru12  1  0.210149  0.085714  0.500000  1
  Ru  Ru13  1  0.876486  0.792890  0.500000  1
  Ru  Ru14  1  0.726857  0.893910  0.000000  1
  Ru  Ru15  1  0.108991  0.836793  0.000000  1
  Ru  Ru16  1  0.164153  0.270777  0.000000  1
  Ru  Ru17  1  0.429327  0.068301  0.000000  1
  Ru  Ru18  1  0.935295  0.360970  0.000000  1
  Ru  Ru19  1  0.641174  0.575676  0.000000  1
  Ru  Ru20  1  0.051187  0.607367  0.500000  1
