# generated using pymatgen
data_Ho2ErZnCd3Ga2
_symmetry_space_group_name_H-M   'P 1'
_cell_length_a   7.23542794
_cell_length_b   7.24182402
_cell_length_c   4.35290000
_cell_angle_alpha   90.00000000
_cell_angle_beta   90.00000000
_cell_angle_gamma   120.02925311
_symmetry_Int_Tables_number   1
_chemical_formula_structural   Ho2ErZnCd3Ga2
_chemical_formula_sum   'Ho2 Er1 Zn1 Cd3 Ga2'
_cell_volume   197.46649499
_cell_formula_units_Z   1
loop_
 _symmetry_equiv_pos_site_id
 _symmetry_equiv_pos_as_xyz
  1  'x, y, z'
loop_
 _atom_site_type_symbol
 _atom_site_label
 _atom_site_symmetry_multiplicity
 _atom_site_fract_x
 _atom_site_fract_y
 _atom_site_fract_z
 _atom_site_occupancy
  Ho  Ho0  1  0.422829  0.422858  0.500000  1
  Ho  Ho1  1  0.577171  0.000029  0.500000  1
  Er  Er2  1  0.000000  0.577531  0.500000  1
  Zn  Zn3  1  0.000000  0.999706  0.500000  1
  Cd  Cd4  1  0.754925  0.754719  0.000000  1
  Cd  Cd5  1  0.245075  0.999794  0.000000  1
  Cd  Cd6  1  0.000000  0.245326  0.000000  1
  Ga  Ga7  1  0.667031  0.333533  0.000000  1
  Ga  Ga8  1  0.332969  0.666503  0.000000  1
