# generated using pymatgen
data_Yb2TaFeO6
_symmetry_space_group_name_H-M   'P 1'
_cell_length_a   7.72480200
_cell_length_b   5.40884335
_cell_length_c   5.61120868
_cell_angle_alpha   89.71401132
_cell_angle_beta   90.00000000
_cell_angle_gamma   90.00000000
_symmetry_Int_Tables_number   1
_chemical_formula_structural   Yb2TaFeO6
_chemical_formula_sum   'Yb4 Ta2 Fe2 O12'
_cell_volume   234.44596931
_cell_formula_units_Z   2
loop_
 _symmetry_equiv_pos_site_id
 _symmetry_equiv_pos_as_xyz
  1  'x, y, z'
loop_
 _atom_site_type_symbol
 _atom_site_label
 _atom_site_symmetry_multiplicity
 _atom_site_fract_x
 _atom_site_fract_y
 _atom_site_fract_z
 _atom_site_occupancy
  Yb  Yb0  1  0.750000  0.989077  0.046808  1
  Yb  Yb1  1  0.750000  0.514380  0.570287  1
  Yb  Yb2  1  0.250000  0.485620  0.429713  1
  Yb  Yb3  1  0.250000  0.010923  0.953192  1
  Ta  Ta4  1  0.000000  0.000000  0.500000  1
  Ta  Ta5  1  0.500000  0.000000  0.500000  1
  Fe  Fe6  1  0.000000  0.500000  0.000000  1
  Fe  Fe7  1  0.500000  0.500000  0.000000  1
  O  O8  1  0.447658  0.193953  0.207871  1
  O  O9  1  0.549377  0.704826  0.305029  1
  O  O10  1  0.552342  0.806047  0.792129  1
  O  O11  1  0.049377  0.295174  0.694971  1
  O  O12  1  0.250000  0.899865  0.533114  1
  O  O13  1  0.450623  0.295174  0.694971  1
  O  O14  1  0.950623  0.704826  0.305029  1
  O  O15  1  0.052342  0.193953  0.207871  1
  O  O16  1  0.750000  0.402131  0.968070  1
  O  O17  1  0.947658  0.806047  0.792129  1
  O  O18  1  0.250000  0.597869  0.031930  1
  O  O19  1  0.750000  0.100135  0.466886  1
