# generated using pymatgen
data_Pr5SmTa2(Co4P3)4
_symmetry_space_group_name_H-M   'P 1'
_cell_length_a   3.78036500
_cell_length_b   10.79529949
_cell_length_c   12.52765374
_cell_angle_alpha   89.93969982
_cell_angle_beta   90.00000000
_cell_angle_gamma   90.00000000
_symmetry_Int_Tables_number   1
_chemical_formula_structural   Pr5SmTa2(Co4P3)4
_chemical_formula_sum   'Pr5 Sm1 Ta2 Co16 P12'
_cell_volume   511.25542521
_cell_formula_units_Z   1
loop_
 _symmetry_equiv_pos_site_id
 _symmetry_equiv_pos_as_xyz
  1  'x, y, z'
loop_
 _atom_site_type_symbol
 _atom_site_label
 _atom_site_symmetry_multiplicity
 _atom_site_fract_x
 _atom_site_fract_y
 _atom_site_fract_z
 _atom_site_occupancy
  Pr  Pr0  1  0.000000  0.500137  0.525605  1
  Pr  Pr1  1  0.500000  0.999749  0.473891  1
  Pr  Pr2  1  0.500000  0.179516  0.205583  1
  Pr  Pr3  1  0.000000  0.680169  0.794175  1
  Pr  Pr4  1  0.000000  0.320074  0.795191  1
  Sm  Sm5  1  0.500000  0.819414  0.204510  1
  Ta  Ta6  1  0.500000  0.500613  0.153665  1
  Ta  Ta7  1  0.000000  0.999794  0.846717  1
  Co  Co8  1  0.500000  0.500348  0.703898  1
  Co  Co9  1  0.000000  0.997569  0.295397  1
  Co  Co10  1  0.000000  0.501157  0.988930  1
  Co  Co11  1  0.500000  0.998650  0.012844  1
  Co  Co12  1  0.500000  0.332815  0.994131  1
  Co  Co13  1  0.500000  0.668196  0.994371  1
  Co  Co14  1  0.000000  0.166386  0.007303  1
  Co  Co15  1  0.000000  0.832293  0.007655  1
  Co  Co16  1  0.500000  0.295594  0.431807  1
  Co  Co17  1  0.500000  0.704618  0.429866  1
  Co  Co18  1  0.000000  0.204173  0.568322  1
  Co  Co19  1  0.000000  0.795846  0.566776  1
  Co  Co20  1  0.500000  0.880797  0.706420  1
  Co  Co21  1  0.500000  0.119438  0.707424  1
  Co  Co22  1  0.000000  0.620835  0.291358  1
  Co  Co23  1  0.000000  0.381041  0.293047  1
  P  P24  1  0.500000  0.500566  0.887555  1
  P  P25  1  0.000000  0.998044  0.114494  1
  P  P26  1  0.500000  0.499952  0.350159  1
  P  P27  1  0.000000  0.000156  0.649716  1
  P  P28  1  0.500000  0.305352  0.613907  1
  P  P29  1  0.500000  0.695255  0.612516  1
  P  P30  1  0.000000  0.194512  0.386418  1
  P  P31  1  0.000000  0.805974  0.383504  1
  P  P32  1  0.500000  0.843518  0.896240  1
  P  P33  1  0.500000  0.155986  0.897399  1
  P  P34  1  0.000000  0.657770  0.105363  1
  P  P35  1  0.000000  0.343692  0.103841  1
