# generated using pymatgen
data_Er12GaSi4Pb
_symmetry_space_group_name_H-M   'P 1'
_cell_length_a   8.41007018
_cell_length_b   8.40901444
_cell_length_c   8.41006980
_cell_angle_alpha   104.78183918
_cell_angle_beta   111.53471260
_cell_angle_gamma   112.20212014
_symmetry_Int_Tables_number   1
_chemical_formula_structural   Er12GaSi4Pb
_chemical_formula_sum   'Er12 Ga1 Si4 Pb1'
_cell_volume   455.52819480
_cell_formula_units_Z   1
loop_
 _symmetry_equiv_pos_site_id
 _symmetry_equiv_pos_as_xyz
  1  'x, y, z'
loop_
 _atom_site_type_symbol
 _atom_site_label
 _atom_site_symmetry_multiplicity
 _atom_site_fract_x
 _atom_site_fract_y
 _atom_site_fract_z
 _atom_site_occupancy
  Er  Er0  1  0.699606  0.268322  0.967907  1
  Er  Er1  1  0.300394  0.731678  0.032093  1
  Er  Er2  1  0.699584  0.731678  0.431284  1
  Er  Er3  1  0.300416  0.268322  0.568716  1
  Er  Er4  1  0.798322  0.117338  0.319016  1
  Er  Er5  1  0.798352  0.479268  0.680915  1
  Er  Er6  1  0.201678  0.882662  0.680984  1
  Er  Er7  1  0.201648  0.520732  0.319085  1
  Er  Er8  1  0.592541  0.774469  0.817974  1
  Er  Er9  1  0.956494  0.774469  0.181930  1
  Er  Er10  1  0.043506  0.225531  0.818070  1
  Er  Er11  1  0.407459  0.225531  0.182026  1
  Ga  Ga12  1  0.500000  0.500000  0.000000  1
  Si  Si13  1  0.868907  0.500000  0.368907  1
  Si  Si14  1  0.131093  0.500000  0.631093  1
  Si  Si15  1  0.999972  0.116134  0.116162  1
  Si  Si16  1  0.000028  0.883866  0.883838  1
  Pb  Pb17  1  0.500000  0.000000  0.500000  1
