# generated using pymatgen
data_Tm2Lu3ZnIn3
_symmetry_space_group_name_H-M   'P 1'
_cell_length_a   8.99613372
_cell_length_b   8.99613293
_cell_length_c   6.60216600
_cell_angle_alpha   90.00000000
_cell_angle_beta   90.00000000
_cell_angle_gamma   119.95409310
_symmetry_Int_Tables_number   1
_chemical_formula_structural   Tm2Lu3ZnIn3
_chemical_formula_sum   'Tm4 Lu6 Zn2 In6'
_cell_volume   462.94516394
_cell_formula_units_Z   2
loop_
 _symmetry_equiv_pos_site_id
 _symmetry_equiv_pos_as_xyz
  1  'x, y, z'
loop_
 _atom_site_type_symbol
 _atom_site_label
 _atom_site_symmetry_multiplicity
 _atom_site_fract_x
 _atom_site_fract_y
 _atom_site_fract_z
 _atom_site_occupancy
  Tm  Tm0  1  0.273606  0.000425  0.750000  1
  Tm  Tm1  1  0.726394  0.999575  0.250000  1
  Tm  Tm2  1  0.000425  0.273606  0.750000  1
  Tm  Tm3  1  0.999575  0.726394  0.250000  1
  Lu  Lu4  1  0.333988  0.666012  0.500000  1
  Lu  Lu5  1  0.666012  0.333988  0.500000  1
  Lu  Lu6  1  0.666012  0.333988  0.000000  1
  Lu  Lu7  1  0.333988  0.666012  0.000000  1
  Lu  Lu8  1  0.727842  0.727842  0.750000  1
  Lu  Lu9  1  0.272158  0.272158  0.250000  1
  Zn  Zn10  1  0.000000  0.000000  0.500000  1
  Zn  Zn11  1  0.000000  0.000000  0.000000  1
  In  In12  1  0.620484  0.999327  0.750000  1
  In  In13  1  0.379516  0.000673  0.250000  1
  In  In14  1  0.999327  0.620484  0.750000  1
  In  In15  1  0.000673  0.379516  0.250000  1
  In  In16  1  0.380356  0.380356  0.750000  1
  In  In17  1  0.619644  0.619644  0.250000  1
