# generated using pymatgen
data_SrEu4Sb3O14
_symmetry_space_group_name_H-M   'P 1'
_cell_length_a   7.60913642
_cell_length_b   7.60913581
_cell_length_c   7.60913654
_cell_angle_alpha   60.64725358
_cell_angle_beta   60.64726324
_cell_angle_gamma   60.64726609
_symmetry_Int_Tables_number   1
_chemical_formula_structural   SrEu4Sb3O14
_chemical_formula_sum   'Sr1 Eu4 Sb3 O14'
_cell_volume   316.07626766
_cell_formula_units_Z   1
loop_
 _symmetry_equiv_pos_site_id
 _symmetry_equiv_pos_as_xyz
  1  'x, y, z'
loop_
 _atom_site_type_symbol
 _atom_site_label
 _atom_site_symmetry_multiplicity
 _atom_site_fract_x
 _atom_site_fract_y
 _atom_site_fract_z
 _atom_site_occupancy
  Sr  Sr0  1  0.000000  0.000000  0.000000  1
  Eu  Eu1  1  0.500000  0.000000  0.500000  1
  Eu  Eu2  1  0.000000  0.500000  0.500000  1
  Eu  Eu3  1  0.500000  0.500000  0.000000  1
  Eu  Eu4  1  0.500000  0.500000  0.500000  1
  Sb  Sb5  1  0.000000  0.000000  0.500000  1
  Sb  Sb6  1  0.500000  0.000000  0.000000  1
  Sb  Sb7  1  0.000000  0.500000  0.000000  1
  O  O8  1  0.106760  0.106760  0.606820  1
  O  O9  1  0.893240  0.893240  0.393180  1
  O  O10  1  0.393180  0.893240  0.893240  1
  O  O11  1  0.606820  0.106760  0.106760  1
  O  O12  1  0.901492  0.307293  0.307293  1
  O  O13  1  0.098508  0.692707  0.692707  1
  O  O14  1  0.692707  0.692707  0.098508  1
  O  O15  1  0.307293  0.307293  0.901492  1
  O  O16  1  0.379369  0.379369  0.379369  1
  O  O17  1  0.620631  0.620631  0.620631  1
  O  O18  1  0.893240  0.393180  0.893240  1
  O  O19  1  0.106760  0.606820  0.106760  1
  O  O20  1  0.692707  0.098508  0.692707  1
  O  O21  1  0.307293  0.901492  0.307293  1
