# generated using pymatgen
data_Ta6CrFe6
_symmetry_space_group_name_H-M   'P 1'
_cell_length_a   4.87697252
_cell_length_b   4.87697220
_cell_length_c   9.36405644
_cell_angle_alpha   74.90565518
_cell_angle_beta   74.90565618
_cell_angle_gamma   60.00001046
_symmetry_Int_Tables_number   1
_chemical_formula_structural   Ta6CrFe6
_chemical_formula_sum   'Ta6 Cr1 Fe6'
_cell_volume   183.95702960
_cell_formula_units_Z   1
loop_
 _symmetry_equiv_pos_site_id
 _symmetry_equiv_pos_as_xyz
  1  'x, y, z'
loop_
 _atom_site_type_symbol
 _atom_site_label
 _atom_site_symmetry_multiplicity
 _atom_site_fract_x
 _atom_site_fract_y
 _atom_site_fract_z
 _atom_site_occupancy
  Ta  Ta0  1  0.833575  0.833575  0.499277  1
  Ta  Ta1  1  0.166425  0.166425  0.500723  1
  Ta  Ta2  1  0.652373  0.652373  0.042879  1
  Ta  Ta3  1  0.347627  0.347627  0.957121  1
  Ta  Ta4  1  0.549403  0.549403  0.351791  1
  Ta  Ta5  1  0.450597  0.450597  0.648209  1
  Cr  Cr6  1  0.000000  0.000000  0.000000  1
  Fe  Fe7  1  0.906772  0.906772  0.775993  1
  Fe  Fe8  1  0.410463  0.906772  0.775993  1
  Fe  Fe9  1  0.906772  0.410463  0.775993  1
  Fe  Fe10  1  0.093228  0.093228  0.224007  1
  Fe  Fe11  1  0.589537  0.093228  0.224007  1
  Fe  Fe12  1  0.093228  0.589537  0.224007  1
