# generated using pymatgen
data_ErLu5Ir2
_symmetry_space_group_name_H-M   'P 1'
_cell_length_a   7.13266900
_cell_length_b   8.92179100
_cell_length_c   6.30845800
_cell_angle_alpha   90.00000000
_cell_angle_beta   90.00000000
_cell_angle_gamma   90.00000000
_symmetry_Int_Tables_number   1
_chemical_formula_structural   ErLu5Ir2
_chemical_formula_sum   'Er2 Lu10 Ir4'
_cell_volume   401.44618200
_cell_formula_units_Z   2
loop_
 _symmetry_equiv_pos_site_id
 _symmetry_equiv_pos_as_xyz
  1  'x, y, z'
loop_
 _atom_site_type_symbol
 _atom_site_label
 _atom_site_symmetry_multiplicity
 _atom_site_fract_x
 _atom_site_fract_y
 _atom_site_fract_z
 _atom_site_occupancy
  Er  Er0  1  0.532020  0.750000  0.120008  1
  Er  Er1  1  0.032019  0.750000  0.379991  1
  Lu  Lu2  1  0.821147  0.061310  0.175043  1
  Lu  Lu3  1  0.821147  0.438690  0.175043  1
  Lu  Lu4  1  0.321146  0.061310  0.324956  1
  Lu  Lu5  1  0.321146  0.438690  0.324956  1
  Lu  Lu6  1  0.967624  0.250001  0.620288  1
  Lu  Lu7  1  0.678302  0.559482  0.674387  1
  Lu  Lu8  1  0.678302  0.940519  0.674387  1
  Lu  Lu9  1  0.178301  0.559482  0.825614  1
  Lu  Lu10  1  0.178301  0.940519  0.825614  1
  Lu  Lu11  1  0.467624  0.250001  0.879713  1
  Ir  Ir12  1  0.112729  0.250001  0.035846  1
  Ir  Ir13  1  0.612729  0.250001  0.464153  1
  Ir  Ir14  1  0.388733  0.750000  0.540593  1
  Ir  Ir15  1  0.888733  0.750000  0.959408  1
