# generated using pymatgen
data_Hf5Nb(InC2)2
_symmetry_space_group_name_H-M   'P 1'
_cell_length_a   3.30820600
_cell_length_b   3.30820735
_cell_length_c   20.04589200
_cell_angle_alpha   90.00000000
_cell_angle_beta   90.00000000
_cell_angle_gamma   119.99998646
_symmetry_Int_Tables_number   1
_chemical_formula_structural   Hf5Nb(InC2)2
_chemical_formula_sum   'Hf5 Nb1 In2 C4'
_cell_volume   189.99463812
_cell_formula_units_Z   1
loop_
 _symmetry_equiv_pos_site_id
 _symmetry_equiv_pos_as_xyz
  1  'x, y, z'
loop_
 _atom_site_type_symbol
 _atom_site_label
 _atom_site_symmetry_multiplicity
 _atom_site_fract_x
 _atom_site_fract_y
 _atom_site_fract_z
 _atom_site_occupancy
  Hf  Hf0  1  0.000000  0.000000  0.002509  1
  Hf  Hf1  1  0.333333  0.666666  0.372518  1
  Hf  Hf2  1  0.000000  0.000000  0.499309  1
  Hf  Hf3  1  0.666665  0.333333  0.626074  1
  Hf  Hf4  1  0.666665  0.333333  0.875540  1
  Nb  Nb5  1  0.333333  0.666666  0.125088  1
  In  In6  1  0.000000  0.000000  0.246743  1
  In  In7  1  0.000000  0.000000  0.750697  1
  C  C8  1  0.666665  0.333333  0.069960  1
  C  C9  1  0.666665  0.333333  0.430257  1
  C  C10  1  0.333333  0.666666  0.568970  1
  C  C11  1  0.333333  0.666666  0.932334  1
