# generated using pymatgen
data_Cs6Sm3NpBr18
_symmetry_space_group_name_H-M   'P 1'
_cell_length_a   10.54535712
_cell_length_b   10.54535498
_cell_length_c   10.54535582
_cell_angle_alpha   83.79620440
_cell_angle_beta   83.79620560
_cell_angle_gamma   83.79620579
_symmetry_Int_Tables_number   1
_chemical_formula_structural   Cs6Sm3NpBr18
_chemical_formula_sum   'Cs6 Sm3 Np1 Br18'
_cell_volume   1153.47162393
_cell_formula_units_Z   1
loop_
 _symmetry_equiv_pos_site_id
 _symmetry_equiv_pos_as_xyz
  1  'x, y, z'
loop_
 _atom_site_type_symbol
 _atom_site_label
 _atom_site_symmetry_multiplicity
 _atom_site_fract_x
 _atom_site_fract_y
 _atom_site_fract_z
 _atom_site_occupancy
  Cs  Cs0  1  0.089196  0.749502  0.411095  1
  Cs  Cs1  1  0.749502  0.411095  0.089196  1
  Cs  Cs2  1  0.250129  0.589122  0.911040  1
  Cs  Cs3  1  0.411095  0.089196  0.749502  1
  Cs  Cs4  1  0.911040  0.250129  0.589122  1
  Cs  Cs5  1  0.589122  0.911040  0.250129  1
  Sm  Sm6  1  0.349474  0.349474  0.349474  1
  Sm  Sm7  1  0.650347  0.650347  0.650347  1
  Sm  Sm8  1  0.849696  0.849696  0.849696  1
  Np  Np9  1  0.151188  0.151188  0.151188  1
  Br  Br10  1  0.267527  0.913034  0.079183  1
  Br  Br11  1  0.732710  0.084129  0.919285  1
  Br  Br12  1  0.905737  0.594294  0.750037  1
  Br  Br13  1  0.084129  0.919285  0.732710  1
  Br  Br14  1  0.594294  0.750037  0.905737  1
  Br  Br15  1  0.419038  0.584074  0.232740  1
  Br  Br16  1  0.251077  0.094076  0.408102  1
  Br  Br17  1  0.913034  0.079183  0.267527  1
  Br  Br18  1  0.580832  0.415900  0.767435  1
  Br  Br19  1  0.079183  0.267527  0.913034  1
  Br  Br20  1  0.919285  0.732710  0.084129  1
  Br  Br21  1  0.415900  0.767435  0.580832  1
  Br  Br22  1  0.232740  0.419038  0.584074  1
  Br  Br23  1  0.750037  0.905737  0.594294  1
  Br  Br24  1  0.094076  0.408102  0.251077  1
  Br  Br25  1  0.767435  0.580832  0.415900  1
  Br  Br26  1  0.408102  0.251077  0.094076  1
  Br  Br27  1  0.584074  0.232740  0.419038  1
