# generated using pymatgen
data_Tb16ZnCo4Hg3
_symmetry_space_group_name_H-M   'P 1'
_cell_length_a   9.47331933
_cell_length_b   9.45835732
_cell_length_c   9.47331800
_cell_angle_alpha   59.94765559
_cell_angle_beta   59.99999765
_cell_angle_gamma   59.94766042
_symmetry_Int_Tables_number   1
_chemical_formula_structural   Tb16ZnCo4Hg3
_chemical_formula_sum   'Tb16 Zn1 Co4 Hg3'
_cell_volume   599.73716025
_cell_formula_units_Z   1
loop_
 _symmetry_equiv_pos_site_id
 _symmetry_equiv_pos_as_xyz
  1  'x, y, z'
loop_
 _atom_site_type_symbol
 _atom_site_label
 _atom_site_symmetry_multiplicity
 _atom_site_fract_x
 _atom_site_fract_y
 _atom_site_fract_z
 _atom_site_occupancy
  Tb  Tb0  1  0.439640  0.437818  0.061271  1
  Tb  Tb1  1  0.598620  0.597484  0.598620  1
  Tb  Tb2  1  0.187682  0.812246  0.812390  1
  Tb  Tb3  1  0.061463  0.061332  0.438603  1
  Tb  Tb4  1  0.438603  0.061332  0.061463  1
  Tb  Tb5  1  0.812764  0.190813  0.812764  1
  Tb  Tb6  1  0.438603  0.061332  0.438603  1
  Tb  Tb7  1  0.598254  0.205237  0.598254  1
  Tb  Tb8  1  0.812390  0.812246  0.187682  1
  Tb  Tb9  1  0.205276  0.597484  0.598620  1
  Tb  Tb10  1  0.812764  0.190813  0.183660  1
  Tb  Tb11  1  0.061271  0.437818  0.439640  1
  Tb  Tb12  1  0.187682  0.812246  0.187682  1
  Tb  Tb13  1  0.598620  0.597484  0.205276  1
  Tb  Tb14  1  0.183660  0.190813  0.812764  1
  Tb  Tb15  1  0.061271  0.437818  0.061271  1
  Zn  Zn16  1  0.829544  0.511367  0.829544  1
  Co  Co17  1  0.390982  0.390825  0.390982  1
  Co  Co18  1  0.827211  0.390825  0.390982  1
  Co  Co19  1  0.391372  0.825885  0.391372  1
  Co  Co20  1  0.390982  0.390825  0.827211  1
  Hg  Hg21  1  0.834042  0.828653  0.503262  1
  Hg  Hg22  1  0.834042  0.828653  0.834042  1
  Hg  Hg23  1  0.503262  0.828653  0.834042  1
