# generated using pymatgen
data_Cs6LuCr(AsBr9)2
_symmetry_space_group_name_H-M   'P 1'
_cell_length_a   7.86670500
_cell_length_b   7.86670443
_cell_length_c   20.05432100
_cell_angle_alpha   90.00000000
_cell_angle_beta   90.00000000
_cell_angle_gamma   119.99999821
_symmetry_Int_Tables_number   1
_chemical_formula_structural   Cs6LuCr(AsBr9)2
_chemical_formula_sum   'Cs6 Lu1 Cr1 As2 Br18'
_cell_volume   1074.79168790
_cell_formula_units_Z   1
loop_
 _symmetry_equiv_pos_site_id
 _symmetry_equiv_pos_as_xyz
  1  'x, y, z'
loop_
 _atom_site_type_symbol
 _atom_site_label
 _atom_site_symmetry_multiplicity
 _atom_site_fract_x
 _atom_site_fract_y
 _atom_site_fract_z
 _atom_site_occupancy
  Cs  Cs0  1  0.666667  0.333333  0.919267  1
  Cs  Cs1  1  0.333333  0.666667  0.421216  1
  Cs  Cs2  1  0.666667  0.333333  0.565542  1
  Cs  Cs3  1  0.333333  0.666667  0.064301  1
  Cs  Cs4  1  0.000000  0.000000  0.759258  1
  Cs  Cs5  1  0.000000  0.000000  0.258355  1
  Lu  Lu6  1  0.666667  0.333333  0.339488  1
  Cr  Cr7  1  0.333333  0.666667  0.836794  1
  As  As8  1  0.333333  0.666667  0.657188  1
  As  As9  1  0.666667  0.333333  0.154967  1
  Br  Br10  1  0.831900  0.663800  0.412262  1
  Br  Br11  1  0.181558  0.363117  0.906048  1
  Br  Br12  1  0.181558  0.818442  0.906048  1
  Br  Br13  1  0.175913  0.351826  0.590755  1
  Br  Br14  1  0.636883  0.818442  0.906048  1
  Br  Br15  1  0.336200  0.168100  0.412262  1
  Br  Br16  1  0.030746  0.515373  0.758202  1
  Br  Br17  1  0.831900  0.168100  0.412262  1
  Br  Br18  1  0.504857  0.009714  0.251130  1
  Br  Br19  1  0.484627  0.515373  0.758202  1
  Br  Br20  1  0.504857  0.495143  0.251130  1
  Br  Br21  1  0.990286  0.495143  0.251130  1
  Br  Br22  1  0.351929  0.175964  0.089478  1
  Br  Br23  1  0.484627  0.969254  0.758202  1
  Br  Br24  1  0.824036  0.648071  0.089478  1
  Br  Br25  1  0.175913  0.824087  0.590755  1
  Br  Br26  1  0.648174  0.824087  0.590755  1
  Br  Br27  1  0.824036  0.175964  0.089478  1
