# generated using pymatgen
data_Dy6Er2Sc12Si15Sn
_symmetry_space_group_name_H-M   'P 1'
_cell_length_a   7.11545898
_cell_length_b   7.40672568
_cell_length_c   14.04499416
_cell_angle_alpha   89.97507514
_cell_angle_beta   89.58451504
_cell_angle_gamma   90.04642277
_symmetry_Int_Tables_number   1
_chemical_formula_structural   Dy6Er2Sc12Si15Sn
_chemical_formula_sum   'Dy6 Er2 Sc12 Si15 Sn1'
_cell_volume   740.18305550
_cell_formula_units_Z   1
loop_
 _symmetry_equiv_pos_site_id
 _symmetry_equiv_pos_as_xyz
  1  'x, y, z'
loop_
 _atom_site_type_symbol
 _atom_site_label
 _atom_site_symmetry_multiplicity
 _atom_site_fract_x
 _atom_site_fract_y
 _atom_site_fract_z
 _atom_site_occupancy
  Dy  Dy0  1  0.010697  0.176164  0.096439  1
  Dy  Dy1  1  0.988961  0.824656  0.904590  1
  Dy  Dy2  1  0.489657  0.676209  0.904721  1
  Dy  Dy3  1  0.989978  0.830086  0.598235  1
  Dy  Dy4  1  0.510111  0.323913  0.096518  1
  Dy  Dy5  1  0.005020  0.169753  0.399208  1
  Er  Er6  1  0.512517  0.319842  0.399410  1
  Er  Er7  1  0.502127  0.685067  0.600020  1
  Sc  Sc8  1  0.163444  0.502235  0.755060  1
  Sc  Sc9  1  0.836090  0.497546  0.249152  1
  Sc  Sc10  1  0.336290  0.002717  0.249358  1
  Sc  Sc11  1  0.665208  0.997300  0.751760  1
  Sc  Sc12  1  0.344231  0.162609  0.630941  1
  Sc  Sc13  1  0.662936  0.824695  0.372454  1
  Sc  Sc14  1  0.162475  0.683454  0.368926  1
  Sc  Sc15  1  0.666501  0.822979  0.124302  1
  Sc  Sc16  1  0.824092  0.323847  0.626724  1
  Sc  Sc17  1  0.331650  0.175934  0.875582  1
  Sc  Sc18  1  0.832204  0.323301  0.875594  1
  Sc  Sc19  1  0.167646  0.676738  0.125142  1
  Si  Si20  1  0.036107  0.118151  0.751348  1
  Si  Si21  1  0.961997  0.885582  0.246680  1
  Si  Si22  1  0.464401  0.614335  0.248626  1
  Si  Si23  1  0.534020  0.386375  0.752221  1
  Si  Si24  1  0.287942  0.869575  0.752330  1
  Si  Si25  1  0.710919  0.127209  0.247550  1
  Si  Si26  1  0.211448  0.372300  0.249240  1
  Si  Si27  1  0.789959  0.628376  0.751456  1
  Si  Si28  1  0.829037  0.538637  0.458644  1
  Si  Si29  1  0.337849  0.963995  0.460296  1
  Si  Si30  1  0.841346  0.534854  0.039380  1
  Si  Si31  1  0.662777  0.037256  0.537681  1
  Si  Si32  1  0.157595  0.464750  0.961773  1
  Si  Si33  1  0.657901  0.035446  0.961019  1
  Si  Si34  1  0.340718  0.965244  0.039715  1
  Sn  Sn35  1  0.174149  0.458872  0.537905  1
