# generated using pymatgen
data_Dy3Y17(IrRh2)4
_symmetry_space_group_name_H-M   'P 1'
_cell_length_a   10.95203700
_cell_length_b   10.95203700
_cell_length_c   6.39773100
_cell_angle_alpha   90.00000000
_cell_angle_beta   90.00000000
_cell_angle_gamma   90.00000000
_symmetry_Int_Tables_number   1
_chemical_formula_structural   Dy3Y17(IrRh2)4
_chemical_formula_sum   'Dy3 Y17 Ir4 Rh8'
_cell_volume   767.38937247
_cell_formula_units_Z   1
loop_
 _symmetry_equiv_pos_site_id
 _symmetry_equiv_pos_as_xyz
  1  'x, y, z'
loop_
 _atom_site_type_symbol
 _atom_site_label
 _atom_site_symmetry_multiplicity
 _atom_site_fract_x
 _atom_site_fract_y
 _atom_site_fract_z
 _atom_site_occupancy
  Dy  Dy0  1  0.000000  0.000000  0.500000  1
  Dy  Dy1  1  0.000000  0.000000  0.000000  1
  Dy  Dy2  1  0.500000  0.500000  0.000000  1
  Y  Y3  1  0.291440  0.090187  0.379132  1
  Y  Y4  1  0.291458  0.909963  0.879214  1
  Y  Y5  1  0.708542  0.090037  0.879214  1
  Y  Y6  1  0.708560  0.909813  0.379132  1
  Y  Y7  1  0.587710  0.789926  0.879909  1
  Y  Y8  1  0.587864  0.210049  0.379954  1
  Y  Y9  1  0.412136  0.789951  0.379954  1
  Y  Y10  1  0.412290  0.210074  0.879909  1
  Y  Y11  1  0.210049  0.412136  0.620046  1
  Y  Y12  1  0.210074  0.587710  0.120091  1
  Y  Y13  1  0.789926  0.412290  0.120091  1
  Y  Y14  1  0.789951  0.587864  0.620046  1
  Y  Y15  1  0.909963  0.708542  0.120786  1
  Y  Y16  1  0.909813  0.291440  0.620868  1
  Y  Y17  1  0.090187  0.708560  0.620868  1
  Y  Y18  1  0.090037  0.291458  0.120786  1
  Y  Y19  1  0.500000  0.500000  0.500000  1
  Ir  Ir20  1  0.654209  0.345728  0.750751  1
  Ir  Ir21  1  0.654272  0.654209  0.249249  1
  Ir  Ir22  1  0.345728  0.345791  0.249249  1
  Ir  Ir23  1  0.345791  0.654272  0.750751  1
  Rh  Rh24  1  0.847365  0.152640  0.249927  1
  Rh  Rh25  1  0.847360  0.847365  0.750073  1
  Rh  Rh26  1  0.152640  0.152635  0.750073  1
  Rh  Rh27  1  0.152635  0.847360  0.249927  1
  Rh  Rh28  1  0.500000  0.000000  0.125635  1
  Rh  Rh29  1  0.500000  0.000000  0.625692  1
  Rh  Rh30  1  0.000000  0.500000  0.874365  1
  Rh  Rh31  1  0.000000  0.500000  0.374308  1
