# generated using pymatgen
data_Nd2Zn5Ge
_symmetry_space_group_name_H-M   'P 1'
_cell_length_a   8.40565134
_cell_length_b   8.40565092
_cell_length_c   8.90984700
_cell_angle_alpha   90.00000000
_cell_angle_beta   90.00000000
_cell_angle_gamma   149.37207289
_symmetry_Int_Tables_number   1
_chemical_formula_structural   Nd2Zn5Ge
_chemical_formula_sum   'Nd4 Zn10 Ge2'
_cell_volume   320.71836207
_cell_formula_units_Z   2
loop_
 _symmetry_equiv_pos_site_id
 _symmetry_equiv_pos_as_xyz
  1  'x, y, z'
loop_
 _atom_site_type_symbol
 _atom_site_label
 _atom_site_symmetry_multiplicity
 _atom_site_fract_x
 _atom_site_fract_y
 _atom_site_fract_z
 _atom_site_occupancy
  Nd  Nd0  1  0.202436  0.797564  0.250000  1
  Nd  Nd1  1  0.797564  0.202436  0.750000  1
  Nd  Nd2  1  0.000000  0.000000  0.500000  1
  Nd  Nd3  1  0.000000  0.000000  0.000000  1
  Zn  Zn4  1  0.814043  0.185957  0.392258  1
  Zn  Zn5  1  0.185957  0.814043  0.607742  1
  Zn  Zn6  1  0.814043  0.185957  0.107742  1
  Zn  Zn7  1  0.185957  0.814043  0.892258  1
  Zn  Zn8  1  0.651774  0.348226  0.478335  1
  Zn  Zn9  1  0.348226  0.651774  0.521665  1
  Zn  Zn10  1  0.651774  0.348226  0.021665  1
  Zn  Zn11  1  0.348226  0.651774  0.978335  1
  Zn  Zn12  1  0.401668  0.598332  0.250000  1
  Zn  Zn13  1  0.598332  0.401668  0.750000  1
  Ge  Ge14  1  0.556257  0.443743  0.250000  1
  Ge  Ge15  1  0.443743  0.556257  0.750000  1
