# generated using pymatgen
data_Sc4ZnGa2B4Ru9
_symmetry_space_group_name_H-M   'P 1'
_cell_length_a   9.36119603
_cell_length_b   9.41689104
_cell_length_c   3.07955700
_cell_angle_alpha   90.00000000
_cell_angle_beta   90.00000000
_cell_angle_gamma   89.56576101
_symmetry_Int_Tables_number   1
_chemical_formula_structural   Sc4ZnGa2B4Ru9
_chemical_formula_sum   'Sc4 Zn1 Ga2 B4 Ru9'
_cell_volume   271.46550963
_cell_formula_units_Z   1
loop_
 _symmetry_equiv_pos_site_id
 _symmetry_equiv_pos_as_xyz
  1  'x, y, z'
loop_
 _atom_site_type_symbol
 _atom_site_label
 _atom_site_symmetry_multiplicity
 _atom_site_fract_x
 _atom_site_fract_y
 _atom_site_fract_z
 _atom_site_occupancy
  Sc  Sc0  1  0.688812  0.172603  0.000000  1
  Sc  Sc1  1  0.337560  0.798808  0.000000  1
  Sc  Sc2  1  0.171749  0.347350  0.000000  1
  Sc  Sc3  1  0.826921  0.680494  0.000000  1
  Zn  Zn4  1  0.207585  0.066179  0.500000  1
  Ga  Ga5  1  0.977936  0.995317  0.000000  1
  Ga  Ga6  1  0.497932  0.498792  0.000000  1
  B  B7  1  0.120300  0.630684  0.000000  1
  B  B8  1  0.875729  0.376127  0.000000  1
  B  B9  1  0.616634  0.867196  0.000000  1
  B  B10  1  0.419617  0.138303  0.000000  1
  Ru  Ru11  1  0.770490  0.928703  0.500000  1
  Ru  Ru12  1  0.074941  0.792881  0.500000  1
  Ru  Ru13  1  0.715509  0.425890  0.500000  1
  Ru  Ru14  1  0.942871  0.216395  0.500000  1
  Ru  Ru15  1  0.280087  0.567490  0.500000  1
  Ru  Ru16  1  0.573080  0.710383  0.500000  1
  Ru  Ru17  1  0.422345  0.282090  0.500000  1
  Ru  Ru18  1  0.485624  0.997436  0.500000  1
  Ru  Ru19  1  0.994278  0.506879  0.500000  1
