# generated using pymatgen
data_DyLu(MgIr4)2
_symmetry_space_group_name_H-M   'P 1'
_cell_length_a   5.28398200
_cell_length_b   5.28398144
_cell_length_c   8.55000000
_cell_angle_alpha   90.00000000
_cell_angle_beta   90.00000000
_cell_angle_gamma   120.00000350
_symmetry_Int_Tables_number   1
_chemical_formula_structural   DyLu(MgIr4)2
_chemical_formula_sum   'Dy1 Lu1 Mg2 Ir8'
_cell_volume   206.73753999
_cell_formula_units_Z   1
loop_
 _symmetry_equiv_pos_site_id
 _symmetry_equiv_pos_as_xyz
  1  'x, y, z'
loop_
 _atom_site_type_symbol
 _atom_site_label
 _atom_site_symmetry_multiplicity
 _atom_site_fract_x
 _atom_site_fract_y
 _atom_site_fract_z
 _atom_site_occupancy
  Dy  Dy0  1  0.333333  0.666667  0.069269  1
  Lu  Lu1  1  0.666667  0.333333  0.569650  1
  Mg  Mg2  1  0.666667  0.333333  0.934998  1
  Mg  Mg3  1  0.333333  0.666667  0.436297  1
  Ir  Ir4  1  0.000000  0.000000  0.996204  1
  Ir  Ir5  1  0.000000  0.000000  0.496512  1
  Ir  Ir6  1  0.828720  0.657440  0.250657  1
  Ir  Ir7  1  0.171048  0.828952  0.748365  1
  Ir  Ir8  1  0.657904  0.828952  0.748365  1
  Ir  Ir9  1  0.342560  0.171280  0.250657  1
  Ir  Ir10  1  0.828720  0.171280  0.250657  1
  Ir  Ir11  1  0.171048  0.342096  0.748365  1
