# generated using pymatgen
data_La2USn7
_symmetry_space_group_name_H-M   'P 1'
_cell_length_a   12.98249933
_cell_length_b   12.98249908
_cell_length_c   4.62746800
_cell_angle_alpha   90.00000000
_cell_angle_beta   90.00000000
_cell_angle_gamma   20.83375361
_symmetry_Int_Tables_number   1
_chemical_formula_structural   La2USn7
_chemical_formula_sum   'La2 U1 Sn7'
_cell_volume   277.39086076
_cell_formula_units_Z   1
loop_
 _symmetry_equiv_pos_site_id
 _symmetry_equiv_pos_as_xyz
  1  'x, y, z'
loop_
 _atom_site_type_symbol
 _atom_site_label
 _atom_site_symmetry_multiplicity
 _atom_site_fract_x
 _atom_site_fract_y
 _atom_site_fract_z
 _atom_site_occupancy
  La  La0  1  0.182486  0.182486  0.000000  1
  La  La1  1  0.817515  0.817515  0.000000  1
  U  U2  1  0.000000  0.000000  0.000000  1
  Sn  Sn3  1  0.500000  0.500000  0.500001  1
  Sn  Sn4  1  0.408841  0.408841  0.000000  1
  Sn  Sn5  1  0.591159  0.591159  0.000000  1
  Sn  Sn6  1  0.091522  0.091522  0.500001  1
  Sn  Sn7  1  0.908478  0.908478  0.500001  1
  Sn  Sn8  1  0.289789  0.289789  0.500001  1
  Sn  Sn9  1  0.710211  0.710211  0.500001  1
