# generated using pymatgen
data_Dy3(TlCd2)2
_symmetry_space_group_name_H-M   'P 1'
_cell_length_a   7.57301300
_cell_length_b   7.57301219
_cell_length_c   4.60639000
_cell_angle_alpha   90.00000000
_cell_angle_beta   90.00000000
_cell_angle_gamma   119.99999915
_symmetry_Int_Tables_number   1
_chemical_formula_structural   Dy3(TlCd2)2
_chemical_formula_sum   'Dy3 Tl2 Cd4'
_cell_volume   228.78560664
_cell_formula_units_Z   1
loop_
 _symmetry_equiv_pos_site_id
 _symmetry_equiv_pos_as_xyz
  1  'x, y, z'
loop_
 _atom_site_type_symbol
 _atom_site_label
 _atom_site_symmetry_multiplicity
 _atom_site_fract_x
 _atom_site_fract_y
 _atom_site_fract_z
 _atom_site_occupancy
  Dy  Dy0  1  0.427225  0.427225  0.500000  1
  Dy  Dy1  1  0.572775  0.000000  0.500000  1
  Dy  Dy2  1  0.000000  0.572775  0.500000  1
  Tl  Tl3  1  0.666667  0.333333  0.000000  1
  Tl  Tl4  1  0.333333  0.666667  0.000000  1
  Cd  Cd5  1  0.760472  0.760472  0.000000  1
  Cd  Cd6  1  0.239528  0.000000  0.000000  1
  Cd  Cd7  1  0.000000  0.239528  0.000000  1
  Cd  Cd8  1  0.000000  0.000000  0.500000  1
