# generated using pymatgen
data_Mg2TaNbPt12
_symmetry_space_group_name_H-M   'P 1'
_cell_length_a   5.62075400
_cell_length_b   5.62075463
_cell_length_c   7.92388900
_cell_angle_alpha   90.00000000
_cell_angle_beta   90.00000000
_cell_angle_gamma   90.08800147
_symmetry_Int_Tables_number   1
_chemical_formula_structural   Mg2TaNbPt12
_chemical_formula_sum   'Mg2 Ta1 Nb1 Pt12'
_cell_volume   250.33817165
_cell_formula_units_Z   1
loop_
 _symmetry_equiv_pos_site_id
 _symmetry_equiv_pos_as_xyz
  1  'x, y, z'
loop_
 _atom_site_type_symbol
 _atom_site_label
 _atom_site_symmetry_multiplicity
 _atom_site_fract_x
 _atom_site_fract_y
 _atom_site_fract_z
 _atom_site_occupancy
  Mg  Mg0  1  0.500000  0.000000  0.248990  1
  Mg  Mg1  1  0.500000  0.000000  0.751222  1
  Ta  Ta2  1  0.000000  0.500000  0.250046  1
  Nb  Nb3  1  0.000000  0.500000  0.749569  1
  Pt  Pt4  1  0.246571  0.253429  0.000388  1
  Pt  Pt5  1  0.754126  0.254126  0.499491  1
  Pt  Pt6  1  0.754438  0.254438  0.000424  1
  Pt  Pt7  1  0.753429  0.746571  0.000388  1
  Pt  Pt8  1  0.500000  0.500000  0.749980  1
  Pt  Pt9  1  0.246644  0.253356  0.499728  1
  Pt  Pt10  1  0.753356  0.746644  0.499728  1
  Pt  Pt11  1  0.245874  0.745874  0.499491  1
  Pt  Pt12  1  0.500000  0.500000  0.250076  1
  Pt  Pt13  1  0.000000  0.000000  0.749980  1
  Pt  Pt14  1  0.000000  0.000000  0.250076  1
  Pt  Pt15  1  0.245562  0.745562  0.000424  1
