# generated using pymatgen
data_Tb16Mg3InPt4
_symmetry_space_group_name_H-M   'P 1'
_cell_length_a   9.77459501
_cell_length_b   9.81988587
_cell_length_c   9.81988600
_cell_angle_alpha   59.99999281
_cell_angle_beta   59.84659818
_cell_angle_gamma   59.84659816
_symmetry_Int_Tables_number   1
_chemical_formula_structural   Tb16Mg3InPt4
_chemical_formula_sum   'Tb16 Mg3 In1 Pt4'
_cell_volume   664.94504111
_cell_formula_units_Z   1
loop_
 _symmetry_equiv_pos_site_id
 _symmetry_equiv_pos_as_xyz
  1  'x, y, z'
loop_
 _atom_site_type_symbol
 _atom_site_label
 _atom_site_symmetry_multiplicity
 _atom_site_fract_x
 _atom_site_fract_y
 _atom_site_fract_z
 _atom_site_occupancy
  Tb  Tb0  1  0.349315  0.350151  0.350151  1
  Tb  Tb1  1  0.349315  0.350151  0.950383  1
  Tb  Tb2  1  0.349315  0.950383  0.350151  1
  Tb  Tb3  1  0.952199  0.349267  0.349267  1
  Tb  Tb4  1  0.812197  0.187930  0.187930  1
  Tb  Tb5  1  0.190057  0.810310  0.810310  1
  Tb  Tb6  1  0.190057  0.810310  0.189325  1
  Tb  Tb7  1  0.812197  0.187930  0.811942  1
  Tb  Tb8  1  0.190057  0.189325  0.810310  1
  Tb  Tb9  1  0.812197  0.811942  0.187930  1
  Tb  Tb10  1  0.936754  0.565031  0.565031  1
  Tb  Tb11  1  0.565754  0.933989  0.933989  1
  Tb  Tb12  1  0.565754  0.933989  0.566269  1
  Tb  Tb13  1  0.936754  0.565031  0.933184  1
  Tb  Tb14  1  0.565754  0.566269  0.933989  1
  Tb  Tb15  1  0.936754  0.933184  0.565031  1
  Mg  Mg16  1  0.577545  0.580438  0.580438  1
  Mg  Mg17  1  0.577545  0.580438  0.261578  1
  Mg  Mg18  1  0.577545  0.261578  0.580438  1
  In  In19  1  0.253975  0.582008  0.582008  1
  Pt  Pt20  1  0.142542  0.142657  0.142657  1
  Pt  Pt21  1  0.142542  0.142657  0.572145  1
  Pt  Pt22  1  0.142542  0.572145  0.142657  1
  Pt  Pt23  1  0.571334  0.142889  0.142889  1
