# generated using pymatgen
data_LaNd7Tl2OsPt
_symmetry_space_group_name_H-M   'P 1'
_cell_length_a   10.06598301
_cell_length_b   10.06598250
_cell_length_c   10.13367600
_cell_angle_alpha   59.77728249
_cell_angle_beta   59.77728418
_cell_angle_gamma   59.86898237
_symmetry_Int_Tables_number   1
_chemical_formula_structural   LaNd7Tl2OsPt
_chemical_formula_sum   'La2 Nd14 Tl4 Os2 Pt2'
_cell_volume   722.87832120
_cell_formula_units_Z   2
loop_
 _symmetry_equiv_pos_site_id
 _symmetry_equiv_pos_as_xyz
  1  'x, y, z'
loop_
 _atom_site_type_symbol
 _atom_site_label
 _atom_site_symmetry_multiplicity
 _atom_site_fract_x
 _atom_site_fract_y
 _atom_site_fract_z
 _atom_site_occupancy
  La  La0  1  0.345960  0.345960  0.353668  1
  La  La1  1  0.345960  0.345960  0.954412  1
  Nd  Nd2  1  0.345803  0.955559  0.349320  1
  Nd  Nd3  1  0.955559  0.345803  0.349320  1
  Nd  Nd4  1  0.816624  0.187464  0.191675  1
  Nd  Nd5  1  0.187464  0.816624  0.804237  1
  Nd  Nd6  1  0.187464  0.816624  0.191675  1
  Nd  Nd7  1  0.816624  0.187464  0.804237  1
  Nd  Nd8  1  0.188648  0.188648  0.811352  1
  Nd  Nd9  1  0.807559  0.807559  0.192441  1
  Nd  Nd10  1  0.939147  0.554608  0.564675  1
  Nd  Nd11  1  0.554608  0.939147  0.941571  1
  Nd  Nd12  1  0.554608  0.939147  0.564675  1
  Nd  Nd13  1  0.939147  0.554608  0.941571  1
  Nd  Nd14  1  0.560289  0.560289  0.939711  1
  Nd  Nd15  1  0.943372  0.943372  0.556628  1
  Tl  Tl16  1  0.584441  0.584441  0.583272  1
  Tl  Tl17  1  0.584441  0.584441  0.247846  1
  Tl  Tl18  1  0.585819  0.245924  0.584129  1
  Tl  Tl19  1  0.245924  0.585819  0.584129  1
  Os  Os20  1  0.144278  0.144278  0.136744  1
  Os  Os21  1  0.144278  0.144278  0.574699  1
  Pt  Pt22  1  0.144724  0.577260  0.139008  1
  Pt  Pt23  1  0.577260  0.144724  0.139008  1
