# generated using pymatgen
data_TiMnNb3Ga3B
_symmetry_space_group_name_H-M   'P 1'
_cell_length_a   7.70987900
_cell_length_b   7.70987919
_cell_length_c   5.12477800
_cell_angle_alpha   90.00000000
_cell_angle_beta   90.00000000
_cell_angle_gamma   120.00000349
_symmetry_Int_Tables_number   1
_chemical_formula_structural   TiMnNb3Ga3B
_chemical_formula_sum   'Ti2 Mn2 Nb6 Ga6 B2'
_cell_volume   263.81580381
_cell_formula_units_Z   2
loop_
 _symmetry_equiv_pos_site_id
 _symmetry_equiv_pos_as_xyz
  1  'x, y, z'
loop_
 _atom_site_type_symbol
 _atom_site_label
 _atom_site_symmetry_multiplicity
 _atom_site_fract_x
 _atom_site_fract_y
 _atom_site_fract_z
 _atom_site_occupancy
  Ti  Ti0  1  0.666667  0.333333  0.500000  1
  Ti  Ti1  1  0.333333  0.666667  0.500000  1
  Mn  Mn2  1  0.333333  0.666667  0.000000  1
  Mn  Mn3  1  0.666667  0.333333  0.000000  1
  Nb  Nb4  1  0.243577  0.000000  0.255565  1
  Nb  Nb5  1  0.756423  0.000000  0.744435  1
  Nb  Nb6  1  0.000000  0.243577  0.255565  1
  Nb  Nb7  1  0.000000  0.756423  0.744435  1
  Nb  Nb8  1  0.756423  0.756423  0.255565  1
  Nb  Nb9  1  0.243577  0.243577  0.744435  1
  Ga  Ga10  1  0.593295  0.000000  0.234004  1
  Ga  Ga11  1  0.406705  0.000000  0.765996  1
  Ga  Ga12  1  0.000000  0.593295  0.234004  1
  Ga  Ga13  1  0.000000  0.406705  0.765996  1
  Ga  Ga14  1  0.406705  0.406705  0.234004  1
  Ga  Ga15  1  0.593295  0.593295  0.765996  1
  B  B16  1  0.000000  0.000000  0.000000  1
  B  B17  1  0.000000  0.000000  0.500000  1
