# generated using pymatgen
data_Ho2Tm4Al24Os5Pd3
_symmetry_space_group_name_H-M   'P 1'
_cell_length_a   8.80939178
_cell_length_b   8.82585471
_cell_length_c   9.54331056
_cell_angle_alpha   90.15647744
_cell_angle_beta   89.66318765
_cell_angle_gamma   119.46210402
_symmetry_Int_Tables_number   1
_chemical_formula_structural   Ho2Tm4Al24Os5Pd3
_chemical_formula_sum   'Ho2 Tm4 Al24 Os5 Pd3'
_cell_volume   646.03107889
_cell_formula_units_Z   1
loop_
 _symmetry_equiv_pos_site_id
 _symmetry_equiv_pos_as_xyz
  1  'x, y, z'
loop_
 _atom_site_type_symbol
 _atom_site_label
 _atom_site_symmetry_multiplicity
 _atom_site_fract_x
 _atom_site_fract_y
 _atom_site_fract_z
 _atom_site_occupancy
  Ho  Ho0  1  0.187539  0.383255  0.251014  1
  Ho  Ho1  1  0.812461  0.616745  0.748986  1
  Tm  Tm2  1  0.611765  0.814784  0.252686  1
  Tm  Tm3  1  0.388235  0.185216  0.747314  1
  Tm  Tm4  1  0.196921  0.808816  0.252074  1
  Tm  Tm5  1  0.803079  0.191184  0.747926  1
  Al  Al6  1  0.335072  0.670942  0.031041  1
  Al  Al7  1  0.664928  0.329058  0.968959  1
  Al  Al8  1  0.669291  0.331501  0.528514  1
  Al  Al9  1  0.330709  0.668499  0.471486  1
  Al  Al10  1  0.157455  0.325001  0.575912  1
  Al  Al11  1  0.842545  0.674999  0.424088  1
  Al  Al12  1  0.673708  0.841177  0.575908  1
  Al  Al13  1  0.836911  0.676547  0.079298  1
  Al  Al14  1  0.326292  0.158823  0.424092  1
  Al  Al15  1  0.163089  0.323453  0.920702  1
  Al  Al16  1  0.163877  0.835064  0.576031  1
  Al  Al17  1  0.325522  0.158473  0.076601  1
  Al  Al18  1  0.836123  0.164936  0.423969  1
  Al  Al19  1  0.674478  0.841527  0.923399  1
  Al  Al20  1  0.831336  0.159128  0.077957  1
  Al  Al21  1  0.168664  0.840872  0.922043  1
  Al  Al22  1  0.560968  0.125310  0.249798  1
  Al  Al23  1  0.439032  0.874690  0.750202  1
  Al  Al24  1  0.874454  0.438407  0.252398  1
  Al  Al25  1  0.125546  0.561593  0.747602  1
  Al  Al26  1  0.562327  0.437695  0.249724  1
  Al  Al27  1  0.437673  0.562305  0.750276  1
  Al  Al28  1  0.998080  0.001399  0.250271  1
  Al  Al29  1  0.001920  0.998601  0.749729  1
  Os  Os30  1  0.500000  0.000000  0.000000  1
  Os  Os31  1  0.500000  0.000000  0.500000  1
  Os  Os32  1  0.000000  0.500000  0.500000  1
  Os  Os33  1  0.000000  0.000000  0.000000  1
  Os  Os34  1  0.000000  0.000000  0.500000  1
  Pd  Pd35  1  0.000000  0.500000  0.000000  1
  Pd  Pd36  1  0.500000  0.500000  0.000000  1
  Pd  Pd37  1  0.500000  0.500000  0.500000  1
