# generated using pymatgen
data_Zr4Al2Tc5W
_symmetry_space_group_name_H-M   'P 1'
_cell_length_a   5.27627600
_cell_length_b   5.27079879
_cell_length_c   8.67826300
_cell_angle_alpha   90.00000000
_cell_angle_beta   90.00000000
_cell_angle_gamma   120.03436857
_symmetry_Int_Tables_number   1
_chemical_formula_structural   Zr4Al2Tc5W
_chemical_formula_sum   'Zr4 Al2 Tc5 W1'
_cell_volume   208.93773042
_cell_formula_units_Z   1
loop_
 _symmetry_equiv_pos_site_id
 _symmetry_equiv_pos_as_xyz
  1  'x, y, z'
loop_
 _atom_site_type_symbol
 _atom_site_label
 _atom_site_symmetry_multiplicity
 _atom_site_fract_x
 _atom_site_fract_y
 _atom_site_fract_z
 _atom_site_occupancy
  Zr  Zr0  1  0.333440  0.666880  0.433972  1
  Zr  Zr1  1  0.666594  0.333186  0.936841  1
  Zr  Zr2  1  0.666594  0.333186  0.563159  1
  Zr  Zr3  1  0.333440  0.666880  0.066028  1
  Al  Al4  1  0.998897  0.997794  0.002030  1
  Al  Al5  1  0.998897  0.997794  0.497970  1
  Tc  Tc6  1  0.829718  0.171040  0.250000  1
  Tc  Tc7  1  0.341320  0.171040  0.250000  1
  Tc  Tc8  1  0.661808  0.830784  0.750000  1
  Tc  Tc9  1  0.828269  0.656540  0.250000  1
  Tc  Tc10  1  0.168978  0.830784  0.750000  1
  W  W11  1  0.172046  0.344090  0.750000  1
