# generated using pymatgen
data_CaYbBHN2
_symmetry_space_group_name_H-M   'P 1'
_cell_length_a   3.65151100
_cell_length_b   9.14589200
_cell_length_c   9.90787500
_cell_angle_alpha   90.00000000
_cell_angle_beta   90.00000000
_cell_angle_gamma   90.00000000
_symmetry_Int_Tables_number   1
_chemical_formula_structural   CaYbBHN2
_chemical_formula_sum   'Ca4 Yb4 B4 H4 N8'
_cell_volume   330.88661597
_cell_formula_units_Z   4
loop_
 _symmetry_equiv_pos_site_id
 _symmetry_equiv_pos_as_xyz
  1  'x, y, z'
loop_
 _atom_site_type_symbol
 _atom_site_label
 _atom_site_symmetry_multiplicity
 _atom_site_fract_x
 _atom_site_fract_y
 _atom_site_fract_z
 _atom_site_occupancy
  Ca  Ca0  1  0.250000  0.676196  0.523810  1
  Ca  Ca1  1  0.750000  0.323804  0.476190  1
  Ca  Ca2  1  0.250000  0.176196  0.976190  1
  Ca  Ca3  1  0.750000  0.823804  0.023810  1
  Yb  Yb4  1  0.250000  0.526337  0.154294  1
  Yb  Yb5  1  0.750000  0.473663  0.845706  1
  Yb  Yb6  1  0.250000  0.026337  0.345706  1
  Yb  Yb7  1  0.750000  0.973663  0.654294  1
  B  B8  1  0.250000  0.733370  0.824127  1
  B  B9  1  0.750000  0.266630  0.175873  1
  B  B10  1  0.250000  0.233370  0.675873  1
  B  B11  1  0.750000  0.766630  0.324127  1
  H  H12  1  0.250000  0.958641  0.104272  1
  H  H13  1  0.750000  0.041359  0.895728  1
  H  H14  1  0.250000  0.458641  0.395728  1
  H  H15  1  0.750000  0.541359  0.604272  1
  N  N16  1  0.750000  0.677610  0.217891  1
  N  N17  1  0.250000  0.322390  0.782109  1
  N  N18  1  0.750000  0.177610  0.282109  1
  N  N19  1  0.250000  0.822390  0.717891  1
  N  N20  1  0.750000  0.850673  0.436796  1
  N  N21  1  0.250000  0.149327  0.563204  1
  N  N22  1  0.750000  0.350673  0.063204  1
  N  N23  1  0.250000  0.649327  0.936796  1
