# generated using pymatgen
data_Y2BIrPd5
_symmetry_space_group_name_H-M   'P 1'
_cell_length_a   5.92626385
_cell_length_b   5.92848204
_cell_length_c   5.92848242
_cell_angle_alpha   59.97524415
_cell_angle_beta   60.01238092
_cell_angle_gamma   60.01237995
_symmetry_Int_Tables_number   1
_chemical_formula_structural   Y2BIrPd5
_chemical_formula_sum   'Y2 B1 Ir1 Pd5'
_cell_volume   147.28310284
_cell_formula_units_Z   1
loop_
 _symmetry_equiv_pos_site_id
 _symmetry_equiv_pos_as_xyz
  1  'x, y, z'
loop_
 _atom_site_type_symbol
 _atom_site_label
 _atom_site_symmetry_multiplicity
 _atom_site_fract_x
 _atom_site_fract_y
 _atom_site_fract_z
 _atom_site_occupancy
  Y  Y0  1  0.247345  0.252655  0.252655  1
  Y  Y1  1  0.747345  0.752655  0.752655  1
  B  B2  1  0.009978  0.990022  0.990022  1
  Ir  Ir3  1  0.254374  0.745627  0.745627  1
  Pd  Pd4  1  0.748904  0.251097  0.251097  1
  Pd  Pd5  1  0.255894  0.744107  0.259866  1
  Pd  Pd6  1  0.740133  0.744105  0.259868  1
  Pd  Pd7  1  0.255894  0.259866  0.744107  1
  Pd  Pd8  1  0.740133  0.259868  0.744105  1
