# generated using pymatgen
data_Er4B4SbIr9
_symmetry_space_group_name_H-M   'P 1'
_cell_length_a   10.83202168
_cell_length_b   10.83202167
_cell_length_c   10.83202221
_cell_angle_alpha   29.70091542
_cell_angle_beta   29.70091683
_cell_angle_gamma   29.70091779
_symmetry_Int_Tables_number   1
_chemical_formula_structural   Er4B4SbIr9
_chemical_formula_sum   'Er4 B4 Sb1 Ir9'
_cell_volume   276.25044682
_cell_formula_units_Z   1
loop_
 _symmetry_equiv_pos_site_id
 _symmetry_equiv_pos_as_xyz
  1  'x, y, z'
loop_
 _atom_site_type_symbol
 _atom_site_label
 _atom_site_symmetry_multiplicity
 _atom_site_fract_x
 _atom_site_fract_y
 _atom_site_fract_z
 _atom_site_occupancy
  Er  Er0  1  0.148940  0.148940  0.148940  1
  Er  Er1  1  0.950712  0.950712  0.950712  1
  Er  Er2  1  0.851060  0.851060  0.851060  1
  Er  Er3  1  0.049288  0.049288  0.049288  1
  B  B4  1  0.616595  0.616595  0.616595  1
  B  B5  1  0.716789  0.716789  0.716789  1
  B  B6  1  0.383405  0.383405  0.383405  1
  B  B7  1  0.283211  0.283211  0.283211  1
  Sb  Sb8  1  0.500000  0.500000  0.500000  1
  Ir  Ir9  1  0.403135  0.905813  0.403135  1
  Ir  Ir10  1  0.905813  0.403135  0.403135  1
  Ir  Ir11  1  0.500000  0.500000  0.000000  1
  Ir  Ir12  1  0.500000  0.000000  0.500000  1
  Ir  Ir13  1  0.000000  0.500000  0.500000  1
  Ir  Ir14  1  0.596865  0.094187  0.596865  1
  Ir  Ir15  1  0.596865  0.596865  0.094187  1
  Ir  Ir16  1  0.094187  0.596865  0.596865  1
  Ir  Ir17  1  0.403135  0.403135  0.905813  1
