# generated using pymatgen
data_Tb4Bi5SbRh7
_symmetry_space_group_name_H-M   'P 1'
_cell_length_a   7.79185341
_cell_length_b   7.79185386
_cell_length_c   7.79185310
_cell_angle_alpha   110.35689751
_cell_angle_beta   110.35690318
_cell_angle_gamma   107.71402011
_symmetry_Int_Tables_number   1
_chemical_formula_structural   Tb4Bi5SbRh7
_chemical_formula_sum   'Tb4 Bi5 Sb1 Rh7'
_cell_volume   363.91095906
_cell_formula_units_Z   1
loop_
 _symmetry_equiv_pos_site_id
 _symmetry_equiv_pos_as_xyz
  1  'x, y, z'
loop_
 _atom_site_type_symbol
 _atom_site_label
 _atom_site_symmetry_multiplicity
 _atom_site_fract_x
 _atom_site_fract_y
 _atom_site_fract_z
 _atom_site_occupancy
  Tb  Tb0  1  0.478559  0.002796  0.000000  1
  Tb  Tb1  1  0.002796  0.478559  0.000000  1
  Tb  Tb2  1  0.002796  0.002796  0.524237  1
  Tb  Tb3  1  0.478559  0.478559  0.475763  1
  Bi  Bi4  1  0.987520  0.299884  0.312364  1
  Bi  Bi5  1  0.675156  0.987520  0.687636  1
  Bi  Bi6  1  0.698173  0.698173  0.000000  1
  Bi  Bi7  1  0.987520  0.675156  0.687636  1
  Bi  Bi8  1  0.299884  0.987520  0.312364  1
  Sb  Sb9  1  0.344756  0.344756  0.000000  1
  Rh  Rh10  1  0.062121  0.062121  0.000000  1
  Rh  Rh11  1  0.500347  0.749881  0.249534  1
  Rh  Rh12  1  0.749881  0.500347  0.249534  1
  Rh  Rh13  1  0.240386  0.740386  0.500000  1
  Rh  Rh14  1  0.250813  0.500347  0.750466  1
  Rh  Rh15  1  0.500347  0.250813  0.750466  1
  Rh  Rh16  1  0.740386  0.240386  0.500000  1
