# generated using pymatgen
data_Ce8Mg3Sc8Si16Mo
_symmetry_space_group_name_H-M   'P 1'
_cell_length_a   7.03893289
_cell_length_b   7.39846409
_cell_length_c   14.15609200
_cell_angle_alpha   90.00000000
_cell_angle_beta   90.00000000
_cell_angle_gamma   90.24396473
_symmetry_Int_Tables_number   1
_chemical_formula_structural   Ce8Mg3Sc8Si16Mo
_chemical_formula_sum   'Ce8 Mg3 Sc8 Si16 Mo1'
_cell_volume   737.20425768
_cell_formula_units_Z   1
loop_
 _symmetry_equiv_pos_site_id
 _symmetry_equiv_pos_as_xyz
  1  'x, y, z'
loop_
 _atom_site_type_symbol
 _atom_site_label
 _atom_site_symmetry_multiplicity
 _atom_site_fract_x
 _atom_site_fract_y
 _atom_site_fract_z
 _atom_site_occupancy
  Ce  Ce0  1  0.993067  0.171786  0.100055  1
  Ce  Ce1  1  0.492371  0.325269  0.399598  1
  Ce  Ce2  1  0.511364  0.674981  0.904120  1
  Ce  Ce3  1  0.007660  0.827410  0.596800  1
  Ce  Ce4  1  0.007660  0.827410  0.903200  1
  Ce  Ce5  1  0.511364  0.674981  0.595880  1
  Ce  Ce6  1  0.492371  0.325269  0.100402  1
  Ce  Ce7  1  0.993067  0.171786  0.399945  1
  Mg  Mg8  1  0.160436  0.495576  0.250000  1
  Mg  Mg9  1  0.840236  0.500663  0.750000  1
  Mg  Mg10  1  0.338770  0.998175  0.750000  1
  Sc  Sc11  1  0.835246  0.679928  0.126487  1
  Sc  Sc12  1  0.330979  0.822268  0.372894  1
  Sc  Sc13  1  0.665250  0.178694  0.878920  1
  Sc  Sc14  1  0.166235  0.318505  0.623669  1
  Sc  Sc15  1  0.166235  0.318505  0.876331  1
  Sc  Sc16  1  0.665250  0.178694  0.621080  1
  Sc  Sc17  1  0.330979  0.822268  0.127106  1
  Sc  Sc18  1  0.835246  0.679928  0.373513  1
  Si  Si19  1  0.781511  0.367879  0.250000  1
  Si  Si20  1  0.302812  0.111401  0.250000  1
  Si  Si21  1  0.710956  0.885955  0.750000  1
  Si  Si22  1  0.214045  0.615792  0.750000  1
  Si  Si23  1  0.027186  0.896180  0.250000  1
  Si  Si24  1  0.545465  0.628123  0.250000  1
  Si  Si25  1  0.459717  0.385932  0.750000  1
  Si  Si26  1  0.956739  0.114724  0.750000  1
  Si  Si27  1  0.842398  0.461538  0.968436  1
  Si  Si28  1  0.339615  0.037272  0.531002  1
  Si  Si29  1  0.656820  0.966028  0.047052  1
  Si  Si30  1  0.159656  0.537121  0.465743  1
  Si  Si31  1  0.159656  0.537121  0.034257  1
  Si  Si32  1  0.656820  0.966028  0.452948  1
  Si  Si33  1  0.339615  0.037272  0.968998  1
  Si  Si34  1  0.842398  0.461538  0.531564  1
  Mo  Mo35  1  0.660804  0.997996  0.250000  1
