# generated using pymatgen
data_Hf5(Re11Mo)2
_symmetry_space_group_name_H-M   'P 1'
_cell_length_a   8.48467300
_cell_length_b   8.47105047
_cell_length_c   8.50474205
_cell_angle_alpha   109.62019173
_cell_angle_beta   109.38269542
_cell_angle_gamma   109.52426601
_symmetry_Int_Tables_number   1
_chemical_formula_structural   Hf5(Re11Mo)2
_chemical_formula_sum   'Hf5 Re22 Mo2'
_cell_volume   469.89458020
_cell_formula_units_Z   1
loop_
 _symmetry_equiv_pos_site_id
 _symmetry_equiv_pos_as_xyz
  1  'x, y, z'
loop_
 _atom_site_type_symbol
 _atom_site_label
 _atom_site_symmetry_multiplicity
 _atom_site_fract_x
 _atom_site_fract_y
 _atom_site_fract_z
 _atom_site_occupancy
  Hf  Hf0  1  0.001113  0.000000  0.999552  1
  Hf  Hf1  1  0.628619  0.000000  0.999976  1
  Hf  Hf2  1  0.000706  0.629082  0.999880  1
  Hf  Hf3  1  0.000520  0.000000  0.629714  1
  Hf  Hf4  1  0.371623  0.370918  0.370798  1
  Re  Re5  1  0.397275  0.000000  0.678255  1
  Re  Re6  1  0.675504  0.399353  0.998737  1
  Re  Re7  1  0.998808  0.393612  0.677226  1
  Re  Re8  1  0.322275  0.720274  0.324619  1
  Re  Re9  1  0.321361  0.321543  0.716155  1
  Re  Re10  1  0.999818  0.678457  0.394610  1
  Re  Re11  1  0.676618  0.000000  0.399084  1
  Re  Re12  1  0.605196  0.606388  0.283612  1
  Re  Re13  1  0.276150  0.600647  0.599384  1
  Re  Re14  1  0.602002  0.279726  0.604347  1
  Re  Re15  1  0.377476  0.194380  0.999992  1
  Re  Re16  1  0.183095  0.805620  0.805612  1
  Re  Re17  1  0.376629  0.000000  0.193121  1
  Re  Re18  1  0.193185  0.377233  0.000527  1
  Re  Re19  1  0.999334  0.375397  0.191895  1
  Re  Re20  1  0.805981  0.183262  0.807302  1
  Re  Re21  1  0.807445  0.807834  0.183196  1
  Re  Re22  1  0.999612  0.192166  0.375362  1
  Re  Re23  1  0.194300  0.000000  0.377466  1
  Re  Re24  1  0.623937  0.624603  0.816497  1
  Re  Re25  1  0.815952  0.622767  0.623294  1
  Re  Re26  1  0.622719  0.816738  0.624040  1
  Mo  Mo27  1  0.398494  0.674241  0.999995  1
  Mo  Mo28  1  0.724253  0.325759  0.325753  1
