# generated using pymatgen
data_Y4TmLu(RuI3)2
_symmetry_space_group_name_H-M   'P 1'
_cell_length_a   4.22411500
_cell_length_b   8.85863418
_cell_length_c   12.26986745
_cell_angle_alpha   85.93630055
_cell_angle_beta   90.00000000
_cell_angle_gamma   90.00000000
_symmetry_Int_Tables_number   1
_chemical_formula_structural   Y4TmLu(RuI3)2
_chemical_formula_sum   'Y4 Tm1 Lu1 Ru2 I6'
_cell_volume   457.98275895
_cell_formula_units_Z   1
loop_
 _symmetry_equiv_pos_site_id
 _symmetry_equiv_pos_as_xyz
  1  'x, y, z'
loop_
 _atom_site_type_symbol
 _atom_site_label
 _atom_site_symmetry_multiplicity
 _atom_site_fract_x
 _atom_site_fract_y
 _atom_site_fract_z
 _atom_site_occupancy
  Y  Y0  1  0.750000  0.097351  0.684664  1
  Y  Y1  1  0.250000  0.902387  0.315524  1
  Y  Y2  1  0.250000  0.262270  0.898374  1
  Y  Y3  1  0.750000  0.737621  0.101355  1
  Tm  Tm4  1  0.750000  0.127316  0.124237  1
  Lu  Lu5  1  0.250000  0.873780  0.876039  1
  Ru  Ru6  1  0.750000  0.050615  0.908830  1
  Ru  Ru7  1  0.250000  0.948478  0.090819  1
  I  I8  1  0.250000  0.353308  0.636781  1
  I  I9  1  0.750000  0.646667  0.363237  1
  I  I10  1  0.750000  0.144511  0.391243  1
  I  I11  1  0.250000  0.855427  0.608935  1
  I  I12  1  0.250000  0.424278  0.133548  1
  I  I13  1  0.750000  0.575990  0.866415  1
