# generated using pymatgen
data_Gd3Sn3OsRh2
_symmetry_space_group_name_H-M   'P 1'
_cell_length_a   7.31653900
_cell_length_b   7.31653836
_cell_length_c   3.96234100
_cell_angle_alpha   90.00000000
_cell_angle_beta   90.00000000
_cell_angle_gamma   120.00000926
_symmetry_Int_Tables_number   1
_chemical_formula_structural   Gd3Sn3OsRh2
_chemical_formula_sum   'Gd3 Sn3 Os1 Rh2'
_cell_volume   183.69349851
_cell_formula_units_Z   1
loop_
 _symmetry_equiv_pos_site_id
 _symmetry_equiv_pos_as_xyz
  1  'x, y, z'
loop_
 _atom_site_type_symbol
 _atom_site_label
 _atom_site_symmetry_multiplicity
 _atom_site_fract_x
 _atom_site_fract_y
 _atom_site_fract_z
 _atom_site_occupancy
  Gd  Gd0  1  0.995739  0.412750  0.000000  1
  Gd  Gd1  1  0.587250  0.582990  0.000000  1
  Gd  Gd2  1  0.417010  0.004261  0.000000  1
  Sn  Sn3  1  0.253302  0.252929  0.500000  1
  Sn  Sn4  1  0.999628  0.746698  0.500000  1
  Sn  Sn5  1  0.747071  0.000372  0.500000  1
  Os  Os6  1  0.666667  0.333333  0.500000  1
  Rh  Rh7  1  0.333333  0.666667  0.500000  1
  Rh  Rh8  1  0.000000  0.000000  0.000000  1
