# generated using pymatgen
data_Cs3BaV2(NiS4)2
_symmetry_space_group_name_H-M   'P 1'
_cell_length_a   13.98105443
_cell_length_b   12.52074138
_cell_length_c   7.29462295
_cell_angle_alpha   85.44379621
_cell_angle_beta   63.21712797
_cell_angle_gamma   31.35501022
_symmetry_Int_Tables_number   1
_chemical_formula_structural   Cs3BaV2(NiS4)2
_chemical_formula_sum   'Cs3 Ba1 V2 Ni2 S8'
_cell_volume   446.98234463
_cell_formula_units_Z   1
loop_
 _symmetry_equiv_pos_site_id
 _symmetry_equiv_pos_as_xyz
  1  'x, y, z'
loop_
 _atom_site_type_symbol
 _atom_site_label
 _atom_site_symmetry_multiplicity
 _atom_site_fract_x
 _atom_site_fract_y
 _atom_site_fract_z
 _atom_site_occupancy
  Cs  Cs0  1  0.921885  0.921885  0.578115  1
  Cs  Cs1  1  0.326283  0.326283  0.673717  1
  Cs  Cs2  1  0.678930  0.678930  0.321070  1
  Ba  Ba3  1  0.569571  0.569571  0.930429  1
  V  V4  1  0.742663  0.742663  0.757337  1
  V  V5  1  0.507892  0.507892  0.492108  1
  Ni  Ni6  1  0.009942  0.009942  0.990058  1
  Ni  Ni7  1  0.241946  0.241946  0.258054  1
  S  S8  1  0.222479  0.892860  0.580817  1
  S  S9  1  0.306279  0.611872  0.881447  1
  S  S10  1  0.611872  0.306279  0.200401  1
  S  S11  1  0.892860  0.222479  0.303843  1
  S  S12  1  0.361714  0.016324  0.965126  1
  S  S13  1  0.950384  0.638975  0.373111  1
  S  S14  1  0.638975  0.950384  0.037531  1
  S  S15  1  0.016324  0.361714  0.656837  1
