# generated using pymatgen
data_LiSc12Ga19
_symmetry_space_group_name_H-M   'P 1'
_cell_length_a   5.76575982
_cell_length_b   9.32383100
_cell_length_c   10.96963133
_cell_angle_alpha   90.00000000
_cell_angle_beta   90.92102875
_cell_angle_gamma   90.00000000
_symmetry_Int_Tables_number   1
_chemical_formula_structural   LiSc12Ga19
_chemical_formula_sum   'Li1 Sc12 Ga19'
_cell_volume   589.63989173
_cell_formula_units_Z   1
loop_
 _symmetry_equiv_pos_site_id
 _symmetry_equiv_pos_as_xyz
  1  'x, y, z'
loop_
 _atom_site_type_symbol
 _atom_site_label
 _atom_site_symmetry_multiplicity
 _atom_site_fract_x
 _atom_site_fract_y
 _atom_site_fract_z
 _atom_site_occupancy
  Li  Li0  1  0.168053  0.750000  0.254315  1
  Sc  Sc1  1  0.842353  0.750000  0.062929  1
  Sc  Sc2  1  0.651483  0.750000  0.565253  1
  Sc  Sc3  1  0.154250  0.250000  0.934192  1
  Sc  Sc4  1  0.346648  0.250000  0.433733  1
  Sc  Sc5  1  0.882668  0.502235  0.358361  1
  Sc  Sc6  1  0.609991  0.993749  0.854456  1
  Sc  Sc7  1  0.105737  0.006265  0.645487  1
  Sc  Sc8  1  0.396084  0.486301  0.141574  1
  Sc  Sc9  1  0.105737  0.493735  0.645487  1
  Sc  Sc10  1  0.396084  0.013699  0.141574  1
  Sc  Sc11  1  0.882668  0.997765  0.358361  1
  Sc  Sc12  1  0.609991  0.506251  0.854456  1
  Ga  Ga13  1  0.885382  0.042406  0.097613  1
  Ga  Ga14  1  0.619025  0.453362  0.592082  1
  Ga  Ga15  1  0.125997  0.546945  0.906071  1
  Ga  Ga16  1  0.371356  0.950801  0.400912  1
  Ga  Ga17  1  0.125997  0.953055  0.906071  1
  Ga  Ga18  1  0.371356  0.549199  0.400912  1
  Ga  Ga19  1  0.885382  0.457594  0.097613  1
  Ga  Ga20  1  0.619025  0.046638  0.592082  1
  Ga  Ga21  1  0.343143  0.750000  0.749699  1
  Ga  Ga22  1  0.841686  0.250000  0.751414  1
  Ga  Ga23  1  0.658498  0.250000  0.251542  1
  Ga  Ga24  1  0.373830  0.750000  0.014462  1
  Ga  Ga25  1  0.115281  0.750000  0.501997  1
  Ga  Ga26  1  0.626377  0.250000  0.993831  1
  Ga  Ga27  1  0.880811  0.250000  0.495506  1
  Ga  Ga28  1  0.628245  0.750000  0.290752  1
  Ga  Ga29  1  0.879507  0.750000  0.794765  1
  Ga  Ga30  1  0.377323  0.250000  0.706743  1
  Ga  Ga31  1  0.120031  0.250000  0.205750  1
