# generated using pymatgen
data_PrDy2Co(P3Rh4)2
_symmetry_space_group_name_H-M   'P 1'
_cell_length_a   3.89408300
_cell_length_b   11.16478700
_cell_length_c   12.87227800
_cell_angle_alpha   90.00000000
_cell_angle_beta   90.00000000
_cell_angle_gamma   90.00000000
_symmetry_Int_Tables_number   1
_chemical_formula_structural   PrDy2Co(P3Rh4)2
_chemical_formula_sum   'Pr2 Dy4 Co2 P12 Rh16'
_cell_volume   559.64297509
_cell_formula_units_Z   2
loop_
 _symmetry_equiv_pos_site_id
 _symmetry_equiv_pos_as_xyz
  1  'x, y, z'
loop_
 _atom_site_type_symbol
 _atom_site_label
 _atom_site_symmetry_multiplicity
 _atom_site_fract_x
 _atom_site_fract_y
 _atom_site_fract_z
 _atom_site_occupancy
  Pr  Pr0  1  0.000000  0.500000  0.522789  1
  Pr  Pr1  1  0.500000  0.000000  0.477211  1
  Dy  Dy2  1  0.500000  0.814738  0.201346  1
  Dy  Dy3  1  0.500000  0.185262  0.201346  1
  Dy  Dy4  1  0.000000  0.685262  0.798654  1
  Dy  Dy5  1  0.000000  0.314738  0.798654  1
  Co  Co6  1  0.000000  0.500000  0.979562  1
  Co  Co7  1  0.500000  0.000000  0.020438  1
  P  P8  1  0.500000  0.500000  0.883042  1
  P  P9  1  0.000000  0.000000  0.116958  1
  P  P10  1  0.500000  0.500000  0.347410  1
  P  P11  1  0.000000  0.000000  0.652590  1
  P  P12  1  0.500000  0.313556  0.621108  1
  P  P13  1  0.500000  0.686444  0.621108  1
  P  P14  1  0.000000  0.186444  0.378892  1
  P  P15  1  0.000000  0.813556  0.378892  1
  P  P16  1  0.500000  0.853228  0.896876  1
  P  P17  1  0.500000  0.146772  0.896876  1
  P  P18  1  0.000000  0.646772  0.103124  1
  P  P19  1  0.000000  0.353228  0.103124  1
  Rh  Rh20  1  0.500000  0.500000  0.167222  1
  Rh  Rh21  1  0.000000  0.000000  0.832778  1
  Rh  Rh22  1  0.500000  0.500000  0.707286  1
  Rh  Rh23  1  0.000000  0.000000  0.292714  1
  Rh  Rh24  1  0.500000  0.336497  0.994265  1
  Rh  Rh25  1  0.500000  0.663503  0.994265  1
  Rh  Rh26  1  0.000000  0.163503  0.005735  1
  Rh  Rh27  1  0.000000  0.836497  0.005735  1
  Rh  Rh28  1  0.500000  0.292329  0.428522  1
  Rh  Rh29  1  0.500000  0.707671  0.428522  1
  Rh  Rh30  1  0.000000  0.207671  0.571478  1
  Rh  Rh31  1  0.000000  0.792329  0.571478  1
  Rh  Rh32  1  0.500000  0.873573  0.713965  1
  Rh  Rh33  1  0.500000  0.126427  0.713965  1
  Rh  Rh34  1  0.000000  0.626427  0.286035  1
  Rh  Rh35  1  0.000000  0.373573  0.286035  1
