# generated using pymatgen
data_Li3Eu2PaGe3
_symmetry_space_group_name_H-M   'P 1'
_cell_length_a   7.27285634
_cell_length_b   7.18864070
_cell_length_c   4.40033300
_cell_angle_alpha   90.00000000
_cell_angle_beta   90.00000000
_cell_angle_gamma   119.61650446
_symmetry_Int_Tables_number   1
_chemical_formula_structural   Li3Eu2PaGe3
_chemical_formula_sum   'Li3 Eu2 Pa1 Ge3'
_cell_volume   200.00151800
_cell_formula_units_Z   1
loop_
 _symmetry_equiv_pos_site_id
 _symmetry_equiv_pos_as_xyz
  1  'x, y, z'
loop_
 _atom_site_type_symbol
 _atom_site_label
 _atom_site_symmetry_multiplicity
 _atom_site_fract_x
 _atom_site_fract_y
 _atom_site_fract_z
 _atom_site_occupancy
  Li  Li0  1  0.768584  0.769011  0.500000  1
  Li  Li1  1  0.231416  0.000426  0.500000  1
  Li  Li2  1  0.000000  0.226616  0.500000  1
  Eu  Eu3  1  0.425852  0.426435  0.000000  1
  Eu  Eu4  1  0.574149  0.000584  0.000000  1
  Pa  Pa5  1  0.999999  0.576187  0.000000  1
  Ge  Ge6  1  0.307301  0.660884  0.500000  1
  Ge  Ge7  1  0.692695  0.353590  0.500000  1
  Ge  Ge8  1  0.000005  0.986265  0.000000  1
