# generated using pymatgen
data_NdSm3(Co5As3)4
_symmetry_space_group_name_H-M   'P 1'
_cell_length_a   3.82954600
_cell_length_b   12.24140879
_cell_length_c   10.75205669
_cell_angle_alpha   89.95892071
_cell_angle_beta   90.00000000
_cell_angle_gamma   90.00000000
_symmetry_Int_Tables_number   1
_chemical_formula_structural   NdSm3(Co5As3)4
_chemical_formula_sum   'Nd1 Sm3 Co20 As12'
_cell_volume   504.04594521
_cell_formula_units_Z   1
loop_
 _symmetry_equiv_pos_site_id
 _symmetry_equiv_pos_as_xyz
  1  'x, y, z'
loop_
 _atom_site_type_symbol
 _atom_site_label
 _atom_site_symmetry_multiplicity
 _atom_site_fract_x
 _atom_site_fract_y
 _atom_site_fract_z
 _atom_site_occupancy
  Nd  Nd0  1  0.750000  0.201092  0.417328  1
  Sm  Sm1  1  0.750000  0.700931  0.082416  1
  Sm  Sm2  1  0.250000  0.299011  0.917645  1
  Sm  Sm3  1  0.250000  0.798986  0.582480  1
  Co  Co4  1  0.750000  0.696469  0.383756  1
  Co  Co5  1  0.250000  0.303993  0.616942  1
  Co  Co6  1  0.250000  0.803532  0.883779  1
  Co  Co7  1  0.750000  0.196337  0.115639  1
  Co  Co8  1  0.750000  0.990575  0.209952  1
  Co  Co9  1  0.250000  0.008959  0.790172  1
  Co  Co10  1  0.250000  0.509305  0.710216  1
  Co  Co11  1  0.750000  0.490787  0.289850  1
  Co  Co12  1  0.750000  0.677123  0.784045  1
  Co  Co13  1  0.250000  0.323124  0.215503  1
  Co  Co14  1  0.250000  0.822792  0.283905  1
  Co  Co15  1  0.750000  0.177096  0.716423  1
  Co  Co16  1  0.750000  0.932488  0.970246  1
  Co  Co17  1  0.250000  0.067251  0.029115  1
  Co  Co18  1  0.250000  0.567942  0.470422  1
  Co  Co19  1  0.750000  0.433200  0.530010  1
  Co  Co20  1  0.750000  0.988698  0.593980  1
  Co  Co21  1  0.250000  0.010010  0.406403  1
  Co  Co22  1  0.250000  0.511009  0.093661  1
  Co  Co23  1  0.750000  0.489044  0.906351  1
  As  As24  1  0.750000  0.613285  0.584619  1
  As  As25  1  0.250000  0.388075  0.415407  1
  As  As26  1  0.250000  0.886905  0.084470  1
  As  As27  1  0.750000  0.112969  0.915464  1
  As  As28  1  0.750000  0.891648  0.397364  1
  As  As29  1  0.250000  0.107851  0.603697  1
  As  As30  1  0.250000  0.608312  0.897383  1
  As  As31  1  0.750000  0.391706  0.102609  1
  As  As32  1  0.750000  0.870318  0.771771  1
  As  As33  1  0.250000  0.129113  0.226918  1
  As  As34  1  0.250000  0.629598  0.271698  1
  As  As35  1  0.750000  0.370465  0.728360  1
