# generated using pymatgen
data_Ti4TcP4Pd3
_symmetry_space_group_name_H-M   'P 1'
_cell_length_a   6.31687802
_cell_length_b   3.72431700
_cell_length_c   7.36329101
_cell_angle_alpha   90.00000000
_cell_angle_beta   90.62723016
_cell_angle_gamma   90.00000000
_symmetry_Int_Tables_number   1
_chemical_formula_structural   Ti4TcP4Pd3
_chemical_formula_sum   'Ti4 Tc1 P4 Pd3'
_cell_volume   173.21881825
_cell_formula_units_Z   1
loop_
 _symmetry_equiv_pos_site_id
 _symmetry_equiv_pos_as_xyz
  1  'x, y, z'
loop_
 _atom_site_type_symbol
 _atom_site_label
 _atom_site_symmetry_multiplicity
 _atom_site_fract_x
 _atom_site_fract_y
 _atom_site_fract_z
 _atom_site_occupancy
  Ti  Ti0  1  0.535418  0.250001  0.169882  1
  Ti  Ti1  1  0.026375  0.250001  0.321125  1
  Ti  Ti2  1  0.970007  0.750000  0.679186  1
  Ti  Ti3  1  0.467779  0.750000  0.833139  1
  Tc  Tc4  1  0.857859  0.750000  0.055805  1
  P  P5  1  0.241249  0.750000  0.129153  1
  P  P6  1  0.754203  0.750000  0.364404  1
  P  P7  1  0.245592  0.250001  0.625870  1
  P  P8  1  0.744902  0.250001  0.882060  1
  Pd  Pd9  1  0.355188  0.750000  0.438258  1
  Pd  Pd10  1  0.650905  0.250001  0.565875  1
  Pd  Pd11  1  0.150524  0.250001  0.935236  1
