# generated using pymatgen
data_SmEu7(Si3Pd)4
_symmetry_space_group_name_H-M   'P 1'
_cell_length_a   8.34256800
_cell_length_b   8.34256779
_cell_length_c   8.56403100
_cell_angle_alpha   90.00000000
_cell_angle_beta   90.00000000
_cell_angle_gamma   120.00000877
_symmetry_Int_Tables_number   1
_chemical_formula_structural   SmEu7(Si3Pd)4
_chemical_formula_sum   'Sm1 Eu7 Si12 Pd4'
_cell_volume   516.18849852
_cell_formula_units_Z   1
loop_
 _symmetry_equiv_pos_site_id
 _symmetry_equiv_pos_as_xyz
  1  'x, y, z'
loop_
 _atom_site_type_symbol
 _atom_site_label
 _atom_site_symmetry_multiplicity
 _atom_site_fract_x
 _atom_site_fract_y
 _atom_site_fract_z
 _atom_site_occupancy
  Sm  Sm0  1  0.000000  0.000000  0.750000  1
  Eu  Eu1  1  0.500682  0.001363  0.250000  1
  Eu  Eu2  1  0.499343  0.998686  0.750000  1
  Eu  Eu3  1  0.998637  0.499318  0.250000  1
  Eu  Eu4  1  0.001314  0.500657  0.750000  1
  Eu  Eu5  1  0.500682  0.499318  0.250000  1
  Eu  Eu6  1  0.499343  0.500657  0.750000  1
  Eu  Eu7  1  0.000000  0.000000  0.250000  1
  Si  Si8  1  0.164080  0.328160  0.998004  1
  Si  Si9  1  0.835931  0.671862  0.997276  1
  Si  Si10  1  0.671840  0.835920  0.998004  1
  Si  Si11  1  0.835931  0.671862  0.502724  1
  Si  Si12  1  0.328138  0.164069  0.997276  1
  Si  Si13  1  0.164080  0.328160  0.501996  1
  Si  Si14  1  0.164080  0.835920  0.998004  1
  Si  Si15  1  0.328138  0.164069  0.502724  1
  Si  Si16  1  0.835931  0.164069  0.997276  1
  Si  Si17  1  0.671840  0.835920  0.501996  1
  Si  Si18  1  0.835931  0.164069  0.502724  1
  Si  Si19  1  0.164080  0.835920  0.501996  1
  Pd  Pd20  1  0.333333  0.666667  0.001853  1
  Pd  Pd21  1  0.666667  0.333333  0.997627  1
  Pd  Pd22  1  0.666667  0.333333  0.502373  1
  Pd  Pd23  1  0.333333  0.666667  0.498147  1
