# generated using pymatgen
data_Tb4Tc2MoRu5
_symmetry_space_group_name_H-M   'P 1'
_cell_length_a   5.20433401
_cell_length_b   5.12832914
_cell_length_c   9.20287300
_cell_angle_alpha   90.00000000
_cell_angle_beta   90.00000000
_cell_angle_gamma   115.53498019
_symmetry_Int_Tables_number   1
_chemical_formula_structural   Tb4Tc2MoRu5
_chemical_formula_sum   'Tb4 Tc2 Mo1 Ru5'
_cell_volume   221.62878319
_cell_formula_units_Z   1
loop_
 _symmetry_equiv_pos_site_id
 _symmetry_equiv_pos_as_xyz
  1  'x, y, z'
loop_
 _atom_site_type_symbol
 _atom_site_label
 _atom_site_symmetry_multiplicity
 _atom_site_fract_x
 _atom_site_fract_y
 _atom_site_fract_z
 _atom_site_occupancy
  Tb  Tb0  1  0.325810  0.670572  0.435355  1
  Tb  Tb1  1  0.670968  0.335855  0.566168  1
  Tb  Tb2  1  0.670968  0.335855  0.933832  1
  Tb  Tb3  1  0.325810  0.670572  0.064645  1
  Tc  Tc4  1  0.162868  0.822602  0.750000  1
  Tc  Tc5  1  0.167771  0.338423  0.750000  1
  Mo  Mo6  1  0.838662  0.153725  0.250000  1
  Ru  Ru7  1  0.004302  0.014806  0.501554  1
  Ru  Ru8  1  0.004302  0.014806  0.998446  1
  Ru  Ru9  1  0.827169  0.645323  0.250000  1
  Ru  Ru10  1  0.346843  0.169274  0.250000  1
  Ru  Ru11  1  0.654530  0.828187  0.750000  1
