# generated using pymatgen
data_Ca8Co3N8
_symmetry_space_group_name_H-M   'P 1'
_cell_length_a   9.16490391
_cell_length_b   4.96200063
_cell_length_c   7.09161692
_cell_angle_alpha   90.00000984
_cell_angle_beta   74.76233169
_cell_angle_gamma   74.29367087
_symmetry_Int_Tables_number   1
_chemical_formula_structural   Ca8Co3N8
_chemical_formula_sum   'Ca8 Co3 N8'
_cell_volume   298.66402558
_cell_formula_units_Z   1
loop_
 _symmetry_equiv_pos_site_id
 _symmetry_equiv_pos_as_xyz
  1  'x, y, z'
loop_
 _atom_site_type_symbol
 _atom_site_label
 _atom_site_symmetry_multiplicity
 _atom_site_fract_x
 _atom_site_fract_y
 _atom_site_fract_z
 _atom_site_occupancy
  Ca  Ca0  1  0.057671  0.971165  0.742294  1
  Ca  Ca1  1  0.942329  0.028835  0.257706  1
  Ca  Ca2  1  0.668689  0.665655  0.474779  1
  Ca  Ca3  1  0.331311  0.334345  0.525221  1
  Ca  Ca4  1  0.813445  0.593278  0.965354  1
  Ca  Ca5  1  0.186555  0.406722  0.034646  1
  Ca  Ca6  1  0.397377  0.801312  0.184194  1
  Ca  Ca7  1  0.602623  0.198688  0.815806  1
  Co  Co8  1  0.000000  0.500000  0.500000  1
  Co  Co9  1  0.377209  0.811395  0.785962  1
  Co  Co10  1  0.622791  0.188605  0.214038  1
  N  N11  1  0.206899  0.896550  0.997222  1
  N  N12  1  0.793101  0.103450  0.002778  1
  N  N13  1  0.351160  0.824420  0.552827  1
  N  N14  1  0.648840  0.175580  0.447173  1
  N  N15  1  0.562579  0.718711  0.836455  1
  N  N16  1  0.437421  0.281289  0.163545  1
  N  N17  1  0.941637  0.529181  0.276610  1
  N  N18  1  0.058363  0.470819  0.723390  1
