# generated using pymatgen
data_La16MgIn3NiOs3
_symmetry_space_group_name_H-M   'P 1'
_cell_length_a   10.04069532
_cell_length_b   10.18363485
_cell_length_c   10.18363600
_cell_angle_alpha   60.00000276
_cell_angle_beta   59.52795105
_cell_angle_gamma   59.52794881
_symmetry_Int_Tables_number   1
_chemical_formula_structural   La16MgIn3NiOs3
_chemical_formula_sum   'La16 Mg1 In3 Ni1 Os3'
_cell_volume   731.00213831
_cell_formula_units_Z   1
loop_
 _symmetry_equiv_pos_site_id
 _symmetry_equiv_pos_as_xyz
  1  'x, y, z'
loop_
 _atom_site_type_symbol
 _atom_site_label
 _atom_site_symmetry_multiplicity
 _atom_site_fract_x
 _atom_site_fract_y
 _atom_site_fract_z
 _atom_site_occupancy
  La  La0  1  0.597714  0.594421  0.594421  1
  La  La1  1  0.597714  0.594421  0.213443  1
  La  La2  1  0.597714  0.213443  0.594421  1
  La  La3  1  0.215537  0.594821  0.594821  1
  La  La4  1  0.058705  0.442700  0.442700  1
  La  La5  1  0.437178  0.061830  0.061830  1
  La  La6  1  0.437178  0.061830  0.439162  1
  La  La7  1  0.058705  0.442700  0.055896  1
  La  La8  1  0.437178  0.439162  0.061830  1
  La  La9  1  0.058705  0.055896  0.442700  1
  La  La10  1  0.189906  0.807675  0.807675  1
  La  La11  1  0.805193  0.189771  0.189771  1
  La  La12  1  0.805193  0.189771  0.815265  1
  La  La13  1  0.189906  0.807675  0.194743  1
  La  La14  1  0.805193  0.815265  0.189771  1
  La  La15  1  0.189906  0.194743  0.807675  1
  Mg  Mg16  1  0.523823  0.825392  0.825392  1
  In  In17  1  0.828522  0.830042  0.830042  1
  In  In18  1  0.828522  0.830042  0.511396  1
  In  In19  1  0.828522  0.511396  0.830042  1
  Ni  Ni20  1  0.832326  0.389224  0.389224  1
  Os  Os21  1  0.392221  0.387315  0.387315  1
  Os  Os22  1  0.392221  0.387315  0.833148  1
  Os  Os23  1  0.392221  0.833148  0.387315  1
