# generated using pymatgen
data_NdDy4(CoO6)2
_symmetry_space_group_name_H-M   'P 1'
_cell_length_a   6.78736543
_cell_length_b   6.78736540
_cell_length_c   7.24678800
_cell_angle_alpha   74.63373733
_cell_angle_beta   74.63373739
_cell_angle_gamma   50.02189145
_symmetry_Int_Tables_number   1
_chemical_formula_structural   NdDy4(CoO6)2
_chemical_formula_sum   'Nd1 Dy4 Co2 O12'
_cell_volume   244.64277183
_cell_formula_units_Z   1
loop_
 _symmetry_equiv_pos_site_id
 _symmetry_equiv_pos_as_xyz
  1  'x, y, z'
loop_
 _atom_site_type_symbol
 _atom_site_label
 _atom_site_symmetry_multiplicity
 _atom_site_fract_x
 _atom_site_fract_y
 _atom_site_fract_z
 _atom_site_occupancy
  Nd  Nd0  1  0.000000  0.000000  0.500000  1
  Dy  Dy1  1  0.306976  0.306976  0.355235  1
  Dy  Dy2  1  0.693024  0.693024  0.644765  1
  Dy  Dy3  1  0.305706  0.305706  0.837815  1
  Dy  Dy4  1  0.694294  0.694294  0.162185  1
  Co  Co5  1  0.754883  0.245117  0.000000  1
  Co  Co6  1  0.245117  0.754883  0.000000  1
  O  O7  1  0.899055  0.416389  0.923282  1
  O  O8  1  0.416389  0.899055  0.923282  1
  O  O9  1  0.100945  0.583611  0.076718  1
  O  O10  1  0.583611  0.100945  0.076718  1
  O  O11  1  0.095344  0.588403  0.581494  1
  O  O12  1  0.588403  0.095344  0.581494  1
  O  O13  1  0.904656  0.411597  0.418506  1
  O  O14  1  0.411597  0.904656  0.418506  1
  O  O15  1  0.001197  0.001197  0.832325  1
  O  O16  1  0.998803  0.998803  0.167675  1
  O  O17  1  0.499717  0.499717  0.824287  1
  O  O18  1  0.500283  0.500283  0.175713  1
