# generated using pymatgen
data_La5Pr3(Y3In4)4
_symmetry_space_group_name_H-M   'P 1'
_cell_length_a   8.14334123
_cell_length_b   8.45299115
_cell_length_c   16.09036300
_cell_angle_alpha   89.96522123
_cell_angle_beta   89.91372569
_cell_angle_gamma   89.97844731
_symmetry_Int_Tables_number   1
_chemical_formula_structural   La5Pr3(Y3In4)4
_chemical_formula_sum   'La5 Pr3 Y12 In16'
_cell_volume   1107.58811502
_cell_formula_units_Z   1
loop_
 _symmetry_equiv_pos_site_id
 _symmetry_equiv_pos_as_xyz
  1  'x, y, z'
loop_
 _atom_site_type_symbol
 _atom_site_label
 _atom_site_symmetry_multiplicity
 _atom_site_fract_x
 _atom_site_fract_y
 _atom_site_fract_z
 _atom_site_occupancy
  La  La0  1  0.015126  0.179069  0.405814  1
  La  La1  1  0.515168  0.321084  0.405914  1
  La  La2  1  0.484925  0.679159  0.908030  1
  La  La3  1  0.485119  0.679164  0.594284  1
  La  La4  1  0.984972  0.821170  0.593868  1
  Pr  Pr5  1  0.983743  0.818755  0.907048  1
  Pr  Pr6  1  0.515928  0.317734  0.093635  1
  Pr  Pr7  1  0.015833  0.181598  0.093146  1
  Y  Y8  1  0.323771  0.169761  0.624287  1
  Y  Y9  1  0.675371  0.829775  0.375264  1
  Y  Y10  1  0.653930  0.996368  0.750749  1
  Y  Y11  1  0.175750  0.670363  0.375262  1
  Y  Y12  1  0.824616  0.329962  0.876745  1
  Y  Y13  1  0.824796  0.329977  0.624269  1
  Y  Y14  1  0.846113  0.495893  0.249162  1
  Y  Y15  1  0.346078  0.004051  0.249273  1
  Y  Y16  1  0.322700  0.169856  0.877113  1
  Y  Y17  1  0.175753  0.669738  0.123020  1
  Y  Y18  1  0.677469  0.831189  0.123306  1
  Y  Y19  1  0.154476  0.504004  0.750801  1
  In  In20  1  0.278523  0.869210  0.751469  1
  In  In21  1  0.478995  0.615918  0.248513  1
  In  In22  1  0.020906  0.115981  0.750795  1
  In  In23  1  0.521366  0.383172  0.750331  1
  In  In24  1  0.160690  0.466439  0.541994  1
  In  In25  1  0.979147  0.884376  0.249000  1
  In  In26  1  0.720875  0.131291  0.248546  1
  In  In27  1  0.837549  0.532098  0.042361  1
  In  In28  1  0.337458  0.969009  0.043009  1
  In  In29  1  0.160296  0.467065  0.958295  1
  In  In30  1  0.660256  0.033514  0.542066  1
  In  In31  1  0.339460  0.965928  0.457670  1
  In  In32  1  0.839665  0.534246  0.457568  1
  In  In33  1  0.779672  0.630862  0.750858  1
  In  In34  1  0.221068  0.368941  0.248554  1
  In  In35  1  0.662436  0.033279  0.957982  1
