# generated using pymatgen
data_La5Pr(BePd5)2
_symmetry_space_group_name_H-M   'P 1'
_cell_length_a   8.38866945
_cell_length_b   8.36570129
_cell_length_c   8.36570033
_cell_angle_alpha   126.50875265
_cell_angle_beta   125.59434234
_cell_angle_gamma   79.74104136
_symmetry_Int_Tables_number   1
_chemical_formula_structural   La5Pr(BePd5)2
_chemical_formula_sum   'La5 Pr1 Be2 Pd10'
_cell_volume   370.78770417
_cell_formula_units_Z   1
loop_
 _symmetry_equiv_pos_site_id
 _symmetry_equiv_pos_as_xyz
  1  'x, y, z'
loop_
 _atom_site_type_symbol
 _atom_site_label
 _atom_site_symmetry_multiplicity
 _atom_site_fract_x
 _atom_site_fract_y
 _atom_site_fract_z
 _atom_site_occupancy
  La  La0  1  0.217447  0.448107  0.769341  1
  La  La1  1  0.177793  0.948364  0.229430  1
  La  La2  1  0.396720  0.249803  0.146917  1
  La  La3  1  0.782478  0.551832  0.230645  1
  La  La4  1  0.603768  0.750527  0.853241  1
  Pr  Pr5  1  0.822299  0.051730  0.770568  1
  Be  Be6  1  0.207940  0.750040  0.457900  1
  Be  Be7  1  0.793013  0.249482  0.543531  1
  Pd  Pd8  1  0.826378  0.585127  0.639247  1
  Pd  Pd9  1  0.554441  0.313092  0.639299  1
  Pd  Pd10  1  0.445105  0.084650  0.758231  1
  Pd  Pd11  1  0.826378  0.187132  0.241251  1
  Pd  Pd12  1  0.173359  0.415080  0.360236  1
  Pd  Pd13  1  0.445105  0.686875  0.360455  1
  Pd  Pd14  1  0.554441  0.915142  0.241348  1
  Pd  Pd15  1  0.173359  0.813122  0.758279  1
  Pd  Pd16  1  0.999988  0.999872  0.499965  1
  Pd  Pd17  1  0.999988  0.500024  0.000117  1
