# generated using pymatgen
data_Tb6Dy4Si5Pb
_symmetry_space_group_name_H-M   'P 1'
_cell_length_a   8.56824900
_cell_length_b   8.60058236
_cell_length_c   6.44107000
_cell_angle_alpha   90.00000000
_cell_angle_beta   90.00000000
_cell_angle_gamma   119.87572033
_symmetry_Int_Tables_number   1
_chemical_formula_structural   Tb6Dy4Si5Pb
_chemical_formula_sum   'Tb6 Dy4 Si5 Pb1'
_cell_volume   411.57700760
_cell_formula_units_Z   1
loop_
 _symmetry_equiv_pos_site_id
 _symmetry_equiv_pos_as_xyz
  1  'x, y, z'
loop_
 _atom_site_type_symbol
 _atom_site_label
 _atom_site_symmetry_multiplicity
 _atom_site_fract_x
 _atom_site_fract_y
 _atom_site_fract_z
 _atom_site_occupancy
  Tb  Tb0  1  0.987576  0.746962  0.750000  1
  Tb  Tb1  1  0.998579  0.242967  0.250000  1
  Tb  Tb2  1  0.755611  0.757033  0.250000  1
  Tb  Tb3  1  0.766324  0.000000  0.750000  1
  Tb  Tb4  1  0.240613  0.253038  0.750000  1
  Tb  Tb5  1  0.240825  0.000000  0.250000  1
  Dy  Dy6  1  0.674853  0.343596  0.003988  1
  Dy  Dy7  1  0.331256  0.656404  0.496012  1
  Dy  Dy8  1  0.331256  0.656404  0.003988  1
  Dy  Dy9  1  0.674853  0.343596  0.496012  1
  Si  Si10  1  0.393769  0.392210  0.250000  1
  Si  Si11  1  0.001559  0.607790  0.250000  1
  Si  Si12  1  0.998448  0.394550  0.750000  1
  Si  Si13  1  0.603898  0.605450  0.750000  1
  Si  Si14  1  0.605796  0.000000  0.250000  1
  Pb  Pb15  1  0.394786  0.000000  0.750000  1
