# generated using pymatgen
data_Tm10Hg3Ru
_symmetry_space_group_name_H-M   'P 1'
_cell_length_a   9.44472700
_cell_length_b   9.44449115
_cell_length_c   9.58197500
_cell_angle_alpha   90.00000000
_cell_angle_beta   90.00000000
_cell_angle_gamma   119.99975441
_symmetry_Int_Tables_number   1
_chemical_formula_structural   Tm10Hg3Ru
_chemical_formula_sum   'Tm20 Hg6 Ru2'
_cell_volume   740.20959919
_cell_formula_units_Z   2
loop_
 _symmetry_equiv_pos_site_id
 _symmetry_equiv_pos_as_xyz
  1  'x, y, z'
loop_
 _atom_site_type_symbol
 _atom_site_label
 _atom_site_symmetry_multiplicity
 _atom_site_fract_x
 _atom_site_fract_y
 _atom_site_fract_z
 _atom_site_occupancy
  Tm  Tm0  1  0.000000  0.000000  0.500000  1
  Tm  Tm1  1  0.000000  0.000000  0.000000  1
  Tm  Tm2  1  0.209335  0.790667  0.440244  1
  Tm  Tm3  1  0.209333  0.418661  0.440239  1
  Tm  Tm4  1  0.581334  0.790665  0.440242  1
  Tm  Tm5  1  0.790665  0.209333  0.559756  1
  Tm  Tm6  1  0.790667  0.581339  0.559761  1
  Tm  Tm7  1  0.418666  0.209335  0.559758  1
  Tm  Tm8  1  0.790665  0.209333  0.940244  1
  Tm  Tm9  1  0.790667  0.581339  0.940239  1
  Tm  Tm10  1  0.418666  0.209335  0.940242  1
  Tm  Tm11  1  0.209335  0.790667  0.059756  1
  Tm  Tm12  1  0.209333  0.418661  0.059761  1
  Tm  Tm13  1  0.581334  0.790665  0.059758  1
  Tm  Tm14  1  0.541088  0.458911  0.250000  1
  Tm  Tm15  1  0.541085  0.082182  0.250000  1
  Tm  Tm16  1  0.917814  0.458915  0.250000  1
  Tm  Tm17  1  0.458912  0.541089  0.750000  1
  Tm  Tm18  1  0.458915  0.917818  0.750000  1
  Tm  Tm19  1  0.082186  0.541085  0.750000  1
  Hg  Hg20  1  0.881452  0.118576  0.250000  1
  Hg  Hg21  1  0.881449  0.762869  0.250000  1
  Hg  Hg22  1  0.237138  0.118568  0.250000  1
  Hg  Hg23  1  0.118548  0.881424  0.750000  1
  Hg  Hg24  1  0.118551  0.237131  0.750000  1
  Hg  Hg25  1  0.762862  0.881432  0.750000  1
  Ru  Ru26  1  0.333338  0.666664  0.250000  1
  Ru  Ru27  1  0.666662  0.333336  0.750000  1
