# generated using pymatgen
data_La19NdIr11Ru
_symmetry_space_group_name_H-M   'P 1'
_cell_length_a   11.42174800
_cell_length_b   11.42463700
_cell_length_c   6.67725300
_cell_angle_alpha   90.00000000
_cell_angle_beta   90.00000000
_cell_angle_gamma   89.99757740
_symmetry_Int_Tables_number   1
_chemical_formula_structural   La19NdIr11Ru
_chemical_formula_sum   'La19 Nd1 Ir11 Ru1'
_cell_volume   871.31023514
_cell_formula_units_Z   1
loop_
 _symmetry_equiv_pos_site_id
 _symmetry_equiv_pos_as_xyz
  1  'x, y, z'
loop_
 _atom_site_type_symbol
 _atom_site_label
 _atom_site_symmetry_multiplicity
 _atom_site_fract_x
 _atom_site_fract_y
 _atom_site_fract_z
 _atom_site_occupancy
  La  La0  1  0.291880  0.090344  0.385942  1
  La  La1  1  0.292653  0.909900  0.888161  1
  La  La2  1  0.707347  0.090100  0.888161  1
  La  La3  1  0.708120  0.909656  0.385942  1
  La  La4  1  0.590233  0.792950  0.888506  1
  La  La5  1  0.590639  0.207514  0.385091  1
  La  La6  1  0.409361  0.792486  0.385091  1
  La  La7  1  0.409767  0.207050  0.888506  1
  La  La8  1  0.208222  0.408370  0.614709  1
  La  La9  1  0.208100  0.590896  0.113974  1
  La  La10  1  0.791900  0.409104  0.113974  1
  La  La11  1  0.791778  0.591630  0.614709  1
  La  La12  1  0.909233  0.708460  0.114267  1
  La  La13  1  0.908725  0.291149  0.613862  1
  La  La14  1  0.091275  0.708851  0.613862  1
  La  La15  1  0.090767  0.291540  0.114267  1
  La  La16  1  0.000000  0.000000  0.998827  1
  La  La17  1  0.500000  0.500000  0.998759  1
  La  La18  1  0.500000  0.500000  0.499372  1
  Nd  Nd19  1  0.000000  0.000000  0.499277  1
  Ir  Ir20  1  0.846997  0.154090  0.249963  1
  Ir  Ir21  1  0.846816  0.846227  0.749774  1
  Ir  Ir22  1  0.153184  0.153773  0.749774  1
  Ir  Ir23  1  0.153003  0.845910  0.249963  1
  Ir  Ir24  1  0.653907  0.346789  0.749639  1
  Ir  Ir25  1  0.654076  0.653148  0.250074  1
  Ir  Ir26  1  0.345924  0.346852  0.250074  1
  Ir  Ir27  1  0.346093  0.653211  0.749639  1
  Ir  Ir28  1  0.500000  0.000000  0.616020  1
  Ir  Ir29  1  0.000000  0.500000  0.883744  1
  Ir  Ir30  1  0.000000  0.500000  0.383886  1
  Ru  Ru31  1  0.500000  0.000000  0.112195  1
