# generated using pymatgen
data_Nd4Ho12Cd4Pd3Ru
_symmetry_space_group_name_H-M   'P 1'
_cell_length_a   9.74664688
_cell_length_b   9.73756687
_cell_length_c   9.73756682
_cell_angle_alpha   59.83379505
_cell_angle_beta   59.53980710
_cell_angle_gamma   59.53980824
_symmetry_Int_Tables_number   1
_chemical_formula_structural   Nd4Ho12Cd4Pd3Ru
_chemical_formula_sum   'Nd4 Ho12 Cd4 Pd3 Ru1'
_cell_volume   648.10326182
_cell_formula_units_Z   1
loop_
 _symmetry_equiv_pos_site_id
 _symmetry_equiv_pos_as_xyz
  1  'x, y, z'
loop_
 _atom_site_type_symbol
 _atom_site_label
 _atom_site_symmetry_multiplicity
 _atom_site_fract_x
 _atom_site_fract_y
 _atom_site_fract_z
 _atom_site_occupancy
  Nd  Nd0  1  0.565664  0.934438  0.566427  1
  Nd  Nd1  1  0.937053  0.560552  0.935534  1
  Nd  Nd2  1  0.565664  0.566427  0.934438  1
  Nd  Nd3  1  0.937053  0.935534  0.560552  1
  Ho  Ho4  1  0.352475  0.352839  0.352839  1
  Ho  Ho5  1  0.348496  0.348541  0.949654  1
  Ho  Ho6  1  0.348496  0.949654  0.348541  1
  Ho  Ho7  1  0.947870  0.349159  0.349159  1
  Ho  Ho8  1  0.818709  0.186431  0.186431  1
  Ho  Ho9  1  0.186916  0.811818  0.811818  1
  Ho  Ho10  1  0.187493  0.817344  0.187512  1
  Ho  Ho11  1  0.811446  0.185674  0.811401  1
  Ho  Ho12  1  0.187493  0.187512  0.817344  1
  Ho  Ho13  1  0.811446  0.811401  0.185674  1
  Ho  Ho14  1  0.938440  0.560800  0.560800  1
  Ho  Ho15  1  0.555710  0.940613  0.940613  1
  Cd  Cd16  1  0.582495  0.578025  0.578025  1
  Cd  Cd17  1  0.578598  0.582988  0.257797  1
  Cd  Cd18  1  0.578598  0.257797  0.582988  1
  Cd  Cd19  1  0.257706  0.579148  0.579148  1
  Pd  Pd20  1  0.143497  0.146740  0.570226  1
  Pd  Pd21  1  0.143497  0.570226  0.146740  1
  Pd  Pd22  1  0.569943  0.143831  0.143831  1
  Ru  Ru23  1  0.145243  0.142508  0.142508  1
