# generated using pymatgen
data_Lu12Co4AgOs
_symmetry_space_group_name_H-M   'P 1'
_cell_length_a   8.08486127
_cell_length_b   8.08486252
_cell_length_c   8.08486130
_cell_angle_alpha   111.36560595
_cell_angle_beta   110.91039036
_cell_angle_gamma   106.18710020
_symmetry_Int_Tables_number   1
_chemical_formula_structural   Lu12Co4AgOs
_chemical_formula_sum   'Lu12 Co4 Ag1 Os1'
_cell_volume   405.81208336
_cell_formula_units_Z   1
loop_
 _symmetry_equiv_pos_site_id
 _symmetry_equiv_pos_as_xyz
  1  'x, y, z'
loop_
 _atom_site_type_symbol
 _atom_site_label
 _atom_site_symmetry_multiplicity
 _atom_site_fract_x
 _atom_site_fract_y
 _atom_site_fract_z
 _atom_site_occupancy
  Lu  Lu0  1  0.420166  0.225290  0.194876  1
  Lu  Lu1  1  0.579834  0.774710  0.805124  1
  Lu  Lu2  1  0.030413  0.225290  0.805124  1
  Lu  Lu3  1  0.969587  0.774710  0.194876  1
  Lu  Lu4  1  0.181596  0.276039  0.457635  1
  Lu  Lu5  1  0.818404  0.723961  0.542365  1
  Lu  Lu6  1  0.181596  0.723961  0.905559  1
  Lu  Lu7  1  0.818404  0.276039  0.094441  1
  Lu  Lu8  1  0.314506  0.620468  0.305960  1
  Lu  Lu9  1  0.685494  0.379532  0.694040  1
  Lu  Lu10  1  0.314506  0.008545  0.694040  1
  Lu  Lu11  1  0.685494  0.991455  0.305960  1
  Co  Co12  1  0.372570  0.000000  0.372570  1
  Co  Co13  1  0.627430  0.000000  0.627430  1
  Co  Co14  1  0.113275  0.613275  0.500000  1
  Co  Co15  1  0.886725  0.386725  0.500000  1
  Ag  Ag16  1  0.500000  0.500000  0.000000  1
  Os  Os17  1  0.000000  0.000000  0.000000  1
