# generated using pymatgen
data_Dy4YMn2O12
_symmetry_space_group_name_H-M   'P 1'
_cell_length_a   6.81206185
_cell_length_b   6.81214331
_cell_length_c   7.24148300
_cell_angle_alpha   74.53337339
_cell_angle_beta   74.53342497
_cell_angle_gamma   50.05370032
_symmetry_Int_Tables_number   1
_chemical_formula_structural   Dy4YMn2O12
_chemical_formula_sum   'Dy4 Y1 Mn2 O12'
_cell_volume   246.21316999
_cell_formula_units_Z   1
loop_
 _symmetry_equiv_pos_site_id
 _symmetry_equiv_pos_as_xyz
  1  'x, y, z'
loop_
 _atom_site_type_symbol
 _atom_site_label
 _atom_site_symmetry_multiplicity
 _atom_site_fract_x
 _atom_site_fract_y
 _atom_site_fract_z
 _atom_site_occupancy
  Dy  Dy0  1  0.305084  0.305078  0.356357  1
  Dy  Dy1  1  0.694916  0.694922  0.643643  1
  Dy  Dy2  1  0.307570  0.307547  0.835373  1
  Dy  Dy3  1  0.692430  0.692453  0.164627  1
  Y  Y4  1  0.000000  0.000000  0.500000  1
  Mn  Mn5  1  0.754279  0.245737  0.000001  1
  Mn  Mn6  1  0.245721  0.754263  0.999999  1
  O  O7  1  0.901473  0.421611  0.918763  1
  O  O8  1  0.421592  0.901468  0.918768  1
  O  O9  1  0.098527  0.578389  0.081237  1
  O  O10  1  0.578408  0.098532  0.081232  1
  O  O11  1  0.097013  0.597671  0.574593  1
  O  O12  1  0.597674  0.097007  0.574594  1
  O  O13  1  0.902987  0.402329  0.425407  1
  O  O14  1  0.402326  0.902993  0.425406  1
  O  O15  1  0.999866  0.999873  0.822080  1
  O  O16  1  0.000134  0.000127  0.177920  1
  O  O17  1  0.499988  0.499983  0.820153  1
  O  O18  1  0.500012  0.500017  0.179847  1
