# generated using pymatgen
data_TaPd6Au
_symmetry_space_group_name_H-M   'P 1'
_cell_length_a   8.36714396
_cell_length_b   8.36714402
_cell_length_c   8.36714344
_cell_angle_alpha   152.21791990
_cell_angle_beta   152.21791622
_cell_angle_gamma   39.69515639
_symmetry_Int_Tables_number   1
_chemical_formula_structural   TaPd6Au
_chemical_formula_sum   'Ta1 Pd6 Au1'
_cell_volume   127.02660424
_cell_formula_units_Z   1
loop_
 _symmetry_equiv_pos_site_id
 _symmetry_equiv_pos_as_xyz
  1  'x, y, z'
loop_
 _atom_site_type_symbol
 _atom_site_label
 _atom_site_symmetry_multiplicity
 _atom_site_fract_x
 _atom_site_fract_y
 _atom_site_fract_z
 _atom_site_occupancy
  Ta  Ta0  1  0.875857  0.875857  0.000000  1
  Pd  Pd1  1  0.374375  0.374375  0.000000  1
  Pd  Pd2  1  0.622822  0.622822  0.000000  1
  Pd  Pd3  1  0.994015  0.494015  0.500000  1
  Pd  Pd4  1  0.494015  0.994015  0.500000  1
  Pd  Pd5  1  0.255834  0.755834  0.500000  1
  Pd  Pd6  1  0.755834  0.255834  0.500000  1
  Au  Au7  1  0.127248  0.127248  0.000000  1
