# generated using pymatgen
data_Tm6Th2Mg2RuRh
_symmetry_space_group_name_H-M   'P 1'
_cell_length_a   9.68890551
_cell_length_b   9.68890573
_cell_length_c   9.72969900
_cell_angle_alpha   59.86062274
_cell_angle_beta   59.86062196
_cell_angle_gamma   59.73710309
_symmetry_Int_Tables_number   1
_chemical_formula_structural   Tm6Th2Mg2RuRh
_chemical_formula_sum   'Tm12 Th4 Mg4 Ru2 Rh2'
_cell_volume   643.20444992
_cell_formula_units_Z   2
loop_
 _symmetry_equiv_pos_site_id
 _symmetry_equiv_pos_as_xyz
  1  'x, y, z'
loop_
 _atom_site_type_symbol
 _atom_site_label
 _atom_site_symmetry_multiplicity
 _atom_site_fract_x
 _atom_site_fract_y
 _atom_site_fract_z
 _atom_site_occupancy
  Tm  Tm0  1  0.064807  0.436019  0.436362  1
  Tm  Tm1  1  0.436019  0.064807  0.062812  1
  Tm  Tm2  1  0.436019  0.064807  0.436362  1
  Tm  Tm3  1  0.064807  0.436019  0.062812  1
  Tm  Tm4  1  0.436011  0.436011  0.063989  1
  Tm  Tm5  1  0.063653  0.063653  0.436347  1
  Tm  Tm6  1  0.183656  0.814956  0.817729  1
  Tm  Tm7  1  0.814956  0.183656  0.183659  1
  Tm  Tm8  1  0.814956  0.183656  0.817729  1
  Tm  Tm9  1  0.183656  0.814956  0.183659  1
  Tm  Tm10  1  0.816754  0.816754  0.183246  1
  Tm  Tm11  1  0.183932  0.183932  0.816068  1
  Th  Th12  1  0.597493  0.597493  0.600935  1
  Th  Th13  1  0.597493  0.597493  0.204078  1
  Th  Th14  1  0.595852  0.206178  0.598985  1
  Th  Th15  1  0.206178  0.595852  0.598985  1
  Mg  Mg16  1  0.830460  0.830460  0.831728  1
  Mg  Mg17  1  0.830460  0.830460  0.507353  1
  Mg  Mg18  1  0.830482  0.506720  0.831399  1
  Mg  Mg19  1  0.506720  0.830482  0.831399  1
  Ru  Ru20  1  0.394780  0.394780  0.392509  1
  Ru  Ru21  1  0.394780  0.394780  0.817931  1
  Rh  Rh22  1  0.393764  0.822311  0.391963  1
  Rh  Rh23  1  0.822311  0.393764  0.391963  1
