# generated using pymatgen
data_LiY3Rh8
_symmetry_space_group_name_H-M   'P 1'
_cell_length_a   5.30772500
_cell_length_b   5.30761529
_cell_length_c   17.17306100
_cell_angle_alpha   90.00002914
_cell_angle_beta   90.00020037
_cell_angle_gamma   120.00024135
_symmetry_Int_Tables_number   1
_chemical_formula_structural   LiY3Rh8
_chemical_formula_sum   'Li2 Y6 Rh16'
_cell_volume   418.97213358
_cell_formula_units_Z   2
loop_
 _symmetry_equiv_pos_site_id
 _symmetry_equiv_pos_as_xyz
  1  'x, y, z'
loop_
 _atom_site_type_symbol
 _atom_site_label
 _atom_site_symmetry_multiplicity
 _atom_site_fract_x
 _atom_site_fract_y
 _atom_site_fract_z
 _atom_site_occupancy
  Li  Li0  1  0.000039  0.000011  0.249991  1
  Li  Li1  1  0.999980  0.999996  0.750027  1
  Y  Y2  1  0.333347  0.666662  0.539342  1
  Y  Y3  1  0.666649  0.333343  0.039386  1
  Y  Y4  1  0.666695  0.333338  0.460646  1
  Y  Y5  1  0.333319  0.666671  0.960616  1
  Y  Y6  1  0.333307  0.666673  0.749995  1
  Y  Y7  1  0.666670  0.333336  0.249994  1
  Rh  Rh8  1  0.167336  0.334688  0.125886  1
  Rh  Rh9  1  0.832624  0.665232  0.625770  1
  Rh  Rh10  1  0.665300  0.832673  0.125892  1
  Rh  Rh11  1  0.167318  0.832650  0.125884  1
  Rh  Rh12  1  0.832605  0.167349  0.625777  1
  Rh  Rh13  1  0.334734  0.167361  0.625772  1
  Rh  Rh14  1  0.832612  0.665252  0.874064  1
  Rh  Rh15  1  0.832632  0.167371  0.874054  1
  Rh  Rh16  1  0.334729  0.167356  0.874067  1
  Rh  Rh17  1  0.665316  0.832644  0.374268  1
  Rh  Rh18  1  0.167397  0.832668  0.374283  1
  Rh  Rh19  1  0.167377  0.334726  0.374282  1
  Rh  Rh20  1  0.333307  0.666664  0.250059  1
  Rh  Rh21  1  0.666635  0.333333  0.749931  1
  Rh  Rh22  1  0.999970  0.000003  0.999984  1
  Rh  Rh23  1  0.999999  0.999998  0.500029  1
