# generated using pymatgen
data_Sc3Ta(Be4Ru5)2
_symmetry_space_group_name_H-M   'P 1'
_cell_length_a   3.18524100
_cell_length_b   8.63986269
_cell_length_c   10.11830177
_cell_angle_alpha   90.07910443
_cell_angle_beta   90.00000000
_cell_angle_gamma   90.00000000
_symmetry_Int_Tables_number   1
_chemical_formula_structural   Sc3Ta(Be4Ru5)2
_chemical_formula_sum   'Sc3 Ta1 Be8 Ru10'
_cell_volume   278.45585334
_cell_formula_units_Z   1
loop_
 _symmetry_equiv_pos_site_id
 _symmetry_equiv_pos_as_xyz
  1  'x, y, z'
loop_
 _atom_site_type_symbol
 _atom_site_label
 _atom_site_symmetry_multiplicity
 _atom_site_fract_x
 _atom_site_fract_y
 _atom_site_fract_z
 _atom_site_occupancy
  Sc  Sc0  1  0.500000  0.163362  0.817792  1
  Sc  Sc1  1  0.500000  0.665645  0.683964  1
  Sc  Sc2  1  0.500000  0.340803  0.316981  1
  Ta  Ta3  1  0.500000  0.842630  0.180579  1
  Be  Be4  1  0.500000  0.962719  0.593232  1
  Be  Be5  1  0.500000  0.034518  0.404895  1
  Be  Be6  1  0.500000  0.839354  0.905258  1
  Be  Be7  1  0.500000  0.155355  0.096114  1
  Be  Be8  1  0.500000  0.657715  0.404019  1
  Be  Be9  1  0.500000  0.336087  0.593684  1
  Be  Be10  1  0.500000  0.464041  0.906344  1
  Be  Be11  1  0.500000  0.534649  0.096530  1
  Ru  Ru12  1  0.000000  0.658409  0.959205  1
  Ru  Ru13  1  0.000000  0.340205  0.047820  1
  Ru  Ru14  1  0.000000  0.841331  0.448375  1
  Ru  Ru15  1  0.000000  0.156047  0.544576  1
  Ru  Ru16  1  0.000000  0.993156  0.002741  1
  Ru  Ru17  1  0.000000  0.409256  0.753429  1
  Ru  Ru18  1  0.000000  0.607453  0.242248  1
  Ru  Ru19  1  0.000000  0.499647  0.501115  1
  Ru  Ru20  1  0.000000  0.908425  0.744300  1
  Ru  Ru21  1  0.000000  0.089194  0.256798  1
