# generated using pymatgen
data_Li2Dy2Ni10As7
_symmetry_space_group_name_H-M   'P 1'
_cell_length_a   9.49200627
_cell_length_b   9.38632258
_cell_length_c   3.85103700
_cell_angle_alpha   90.00000000
_cell_angle_beta   90.00000000
_cell_angle_gamma   119.91787973
_symmetry_Int_Tables_number   1
_chemical_formula_structural   Li2Dy2Ni10As7
_chemical_formula_sum   'Li2 Dy2 Ni10 As7'
_cell_volume   297.38605405
_cell_formula_units_Z   1
loop_
 _symmetry_equiv_pos_site_id
 _symmetry_equiv_pos_as_xyz
  1  'x, y, z'
loop_
 _atom_site_type_symbol
 _atom_site_label
 _atom_site_symmetry_multiplicity
 _atom_site_fract_x
 _atom_site_fract_y
 _atom_site_fract_z
 _atom_site_occupancy
  Li  Li0  1  0.213092  0.103577  0.500000  1
  Li  Li1  1  0.889146  0.103075  0.500000  1
  Dy  Dy2  1  0.338819  0.664991  0.000000  1
  Dy  Dy3  1  0.666092  0.335403  0.500000  1
  Ni  Ni4  1  0.430052  0.054880  0.000000  1
  Ni  Ni5  1  0.154507  0.278877  0.000000  1
  Ni  Ni6  1  0.946924  0.381929  0.000000  1
  Ni  Ni7  1  0.625122  0.568891  0.000000  1
  Ni  Ni8  1  0.127362  0.838286  0.000000  1
  Ni  Ni9  1  0.716230  0.876322  0.000000  1
  Ni  Ni10  1  0.383595  0.433750  0.500000  1
  Ni  Ni11  1  0.046344  0.613067  0.500000  1
  Ni  Ni12  1  0.895076  0.794296  0.500000  1
  Ni  Ni13  1  0.565355  0.956242  0.500000  1
  As  As14  1  0.994277  0.989366  0.000000  1
  As  As15  1  0.704892  0.117780  0.000000  1
  As  As16  1  0.410198  0.296840  0.000000  1
  As  As17  1  0.882816  0.595078  0.000000  1
  As  As18  1  0.116675  0.406975  0.500000  1
  As  As19  1  0.600736  0.711837  0.500000  1
  As  As20  1  0.292691  0.878537  0.500000  1
