# generated using pymatgen
data_Nd8Hf12Si15Ir
_symmetry_space_group_name_H-M   'P 1'
_cell_length_a   7.39009270
_cell_length_b   7.40831185
_cell_length_c   13.64387042
_cell_angle_alpha   89.96165641
_cell_angle_beta   89.91963742
_cell_angle_gamma   89.95619660
_symmetry_Int_Tables_number   1
_chemical_formula_structural   Nd8Hf12Si15Ir
_chemical_formula_sum   'Nd8 Hf12 Si15 Ir1'
_cell_volume   746.97501766
_cell_formula_units_Z   1
loop_
 _symmetry_equiv_pos_site_id
 _symmetry_equiv_pos_as_xyz
  1  'x, y, z'
loop_
 _atom_site_type_symbol
 _atom_site_label
 _atom_site_symmetry_multiplicity
 _atom_site_fract_x
 _atom_site_fract_y
 _atom_site_fract_z
 _atom_site_occupancy
  Nd  Nd0  1  0.994538  0.345762  0.214404  1
  Nd  Nd1  1  0.005957  0.656047  0.714574  1
  Nd  Nd2  1  0.159375  0.492476  0.463578  1
  Nd  Nd3  1  0.505130  0.841748  0.034568  1
  Nd  Nd4  1  0.843176  0.503004  0.964960  1
  Nd  Nd5  1  0.495056  0.158513  0.536137  1
  Nd  Nd6  1  0.342520  0.995988  0.785213  1
  Nd  Nd7  1  0.656799  0.003384  0.284586  1
  Hf  Hf8  1  0.175168  0.175151  0.998753  1
  Hf  Hf9  1  0.826876  0.825553  0.500698  1
  Hf  Hf10  1  0.326940  0.668126  0.252526  1
  Hf  Hf11  1  0.674096  0.325473  0.750172  1
  Hf  Hf12  1  0.155775  0.000961  0.372947  1
  Hf  Hf13  1  0.848609  0.006060  0.873635  1
  Hf  Hf14  1  0.505402  0.652198  0.625087  1
  Hf  Hf15  1  0.348910  0.494283  0.874440  1
  Hf  Hf16  1  0.493115  0.344839  0.126154  1
  Hf  Hf17  1  0.646936  0.501886  0.378865  1
  Hf  Hf18  1  0.996051  0.150709  0.626765  1
  Hf  Hf19  1  0.001983  0.845928  0.125508  1
  Si  Si20  1  0.634973  0.704031  0.816010  1
  Si  Si21  1  0.203686  0.865020  0.564343  1
  Si  Si22  1  0.134786  0.796135  0.935311  1
  Si  Si23  1  0.797366  0.133097  0.063397  1
  Si  Si24  1  0.865189  0.197948  0.437492  1
  Si  Si25  1  0.297336  0.365924  0.685710  1
  Si  Si26  1  0.703054  0.636986  0.185719  1
  Si  Si27  1  0.285169  0.047088  0.183998  1
  Si  Si28  1  0.709464  0.951212  0.685284  1
  Si  Si29  1  0.452413  0.794728  0.437989  1
  Si  Si30  1  0.209158  0.550995  0.061792  1
  Si  Si31  1  0.548482  0.207926  0.934834  1
  Si  Si32  1  0.791759  0.450875  0.566608  1
  Si  Si33  1  0.048483  0.291746  0.814912  1
  Si  Si34  1  0.948327  0.711932  0.314552  1
  Ir  Ir35  1  0.367941  0.306266  0.308482  1
