# generated using pymatgen
data_Er10ZnIn2Ru
_symmetry_space_group_name_H-M   'P 1'
_cell_length_a   9.51519467
_cell_length_b   9.51519396
_cell_length_c   9.63876500
_cell_angle_alpha   90.00000000
_cell_angle_beta   90.00000000
_cell_angle_gamma   120.04304298
_symmetry_Int_Tables_number   1
_chemical_formula_structural   Er10ZnIn2Ru
_chemical_formula_sum   'Er20 Zn2 In4 Ru2'
_cell_volume   755.43798285
_cell_formula_units_Z   2
loop_
 _symmetry_equiv_pos_site_id
 _symmetry_equiv_pos_as_xyz
  1  'x, y, z'
loop_
 _atom_site_type_symbol
 _atom_site_label
 _atom_site_symmetry_multiplicity
 _atom_site_fract_x
 _atom_site_fract_y
 _atom_site_fract_z
 _atom_site_occupancy
  Er  Er0  1  0.994732  0.005268  0.514054  1
  Er  Er1  1  0.994732  0.005268  0.985946  1
  Er  Er2  1  0.209072  0.790928  0.440997  1
  Er  Er3  1  0.210036  0.418255  0.441099  1
  Er  Er4  1  0.581745  0.789964  0.441099  1
  Er  Er5  1  0.790484  0.209516  0.560757  1
  Er  Er6  1  0.791860  0.582725  0.560985  1
  Er  Er7  1  0.417275  0.208140  0.560985  1
  Er  Er8  1  0.790484  0.209516  0.939243  1
  Er  Er9  1  0.791860  0.582725  0.939015  1
  Er  Er10  1  0.417275  0.208140  0.939015  1
  Er  Er11  1  0.209072  0.790928  0.059003  1
  Er  Er12  1  0.210036  0.418255  0.058901  1
  Er  Er13  1  0.581745  0.789964  0.058901  1
  Er  Er14  1  0.538895  0.461105  0.250000  1
  Er  Er15  1  0.538289  0.076328  0.250000  1
  Er  Er16  1  0.923672  0.461711  0.250000  1
  Er  Er17  1  0.461182  0.538818  0.750000  1
  Er  Er18  1  0.467852  0.918144  0.750000  1
  Er  Er19  1  0.081856  0.532148  0.750000  1
  Zn  Zn20  1  0.115847  0.232920  0.750000  1
  Zn  Zn21  1  0.767080  0.884153  0.750000  1
  In  In22  1  0.886306  0.113694  0.250000  1
  In  In23  1  0.888743  0.775321  0.250000  1
  In  In24  1  0.224679  0.111257  0.250000  1
  In  In25  1  0.116192  0.883808  0.750000  1
  Ru  Ru26  1  0.333072  0.666928  0.250000  1
  Ru  Ru27  1  0.665926  0.334074  0.750000  1
