# generated using pymatgen
data_Tb4Co17(MoP4)3
_symmetry_space_group_name_H-M   'P 1'
_cell_length_a   3.69583400
_cell_length_b   10.38017302
_cell_length_c   11.83697626
_cell_angle_alpha   89.92982393
_cell_angle_beta   90.00000000
_cell_angle_gamma   90.00000000
_symmetry_Int_Tables_number   1
_chemical_formula_structural   Tb4Co17(MoP4)3
_chemical_formula_sum   'Tb4 Co17 Mo3 P12'
_cell_volume   454.10627161
_cell_formula_units_Z   1
loop_
 _symmetry_equiv_pos_site_id
 _symmetry_equiv_pos_as_xyz
  1  'x, y, z'
loop_
 _atom_site_type_symbol
 _atom_site_label
 _atom_site_symmetry_multiplicity
 _atom_site_fract_x
 _atom_site_fract_y
 _atom_site_fract_z
 _atom_site_occupancy
  Tb  Tb0  1  0.250000  0.915342  0.203339  1
  Tb  Tb1  1  0.750000  0.081525  0.797543  1
  Tb  Tb2  1  0.750000  0.416616  0.294791  1
  Tb  Tb3  1  0.250000  0.582266  0.705820  1
  Co  Co4  1  0.250000  0.713902  0.989057  1
  Co  Co5  1  0.250000  0.091878  0.989345  1
  Co  Co6  1  0.750000  0.904545  0.011042  1
  Co  Co7  1  0.750000  0.593777  0.510929  1
  Co  Co8  1  0.250000  0.406884  0.488186  1
  Co  Co9  1  0.250000  0.278272  0.677190  1
  Co  Co10  1  0.750000  0.720400  0.321696  1
  Co  Co11  1  0.750000  0.777598  0.824735  1
  Co  Co12  1  0.250000  0.221474  0.177247  1
  Co  Co13  1  0.250000  0.616799  0.197432  1
  Co  Co14  1  0.750000  0.386174  0.799536  1
  Co  Co15  1  0.750000  0.112971  0.299508  1
  Co  Co16  1  0.250000  0.885347  0.701219  1
  Co  Co17  1  0.250000  0.034565  0.433467  1
  Co  Co18  1  0.750000  0.965234  0.566565  1
  Co  Co19  1  0.750000  0.536213  0.067524  1
  Co  Co20  1  0.250000  0.469059  0.932219  1
  Mo  Mo21  1  0.250000  0.791449  0.487544  1
  Mo  Mo22  1  0.750000  0.208274  0.512475  1
  Mo  Mo23  1  0.750000  0.291494  0.012438  1
  P  P24  1  0.250000  0.078839  0.615675  1
  P  P25  1  0.750000  0.919538  0.384594  1
  P  P26  1  0.750000  0.581315  0.888365  1
  P  P27  1  0.250000  0.421991  0.113394  1
  P  P28  1  0.250000  0.230237  0.364468  1
  P  P29  1  0.750000  0.769497  0.636677  1
  P  P30  1  0.750000  0.730055  0.130812  1
  P  P31  1  0.250000  0.272089  0.865176  1
  P  P32  1  0.250000  0.897851  0.893768  1
  P  P33  1  0.750000  0.094936  0.108246  1
  P  P34  1  0.750000  0.404294  0.608804  1
  P  P35  1  0.250000  0.597301  0.389175  1
