# generated using pymatgen
data_Er10Sn6HC
_symmetry_space_group_name_H-M   'P 1'
_cell_length_a   8.85323200
_cell_length_b   8.85323266
_cell_length_c   6.46689200
_cell_angle_alpha   90.00000000
_cell_angle_beta   90.00000000
_cell_angle_gamma   120.00000501
_symmetry_Int_Tables_number   1
_chemical_formula_structural   Er10Sn6HC
_chemical_formula_sum   'Er10 Sn6 H1 C1'
_cell_volume   438.96504682
_cell_formula_units_Z   1
loop_
 _symmetry_equiv_pos_site_id
 _symmetry_equiv_pos_as_xyz
  1  'x, y, z'
loop_
 _atom_site_type_symbol
 _atom_site_label
 _atom_site_symmetry_multiplicity
 _atom_site_fract_x
 _atom_site_fract_y
 _atom_site_fract_z
 _atom_site_occupancy
  Er  Er0  1  0.333333  0.666667  0.500000  1
  Er  Er1  1  0.666667  0.333333  0.500000  1
  Er  Er2  1  0.666667  0.333333  0.000000  1
  Er  Er3  1  0.333333  0.666667  0.000000  1
  Er  Er4  1  0.225527  0.000000  0.769447  1
  Er  Er5  1  0.774473  0.000000  0.230553  1
  Er  Er6  1  0.000000  0.225527  0.769447  1
  Er  Er7  1  0.000000  0.774473  0.230553  1
  Er  Er8  1  0.774473  0.774473  0.769447  1
  Er  Er9  1  0.225527  0.225527  0.230553  1
  Sn  Sn10  1  0.600151  0.000000  0.749529  1
  Sn  Sn11  1  0.399849  0.000000  0.250471  1
  Sn  Sn12  1  0.000000  0.600151  0.749529  1
  Sn  Sn13  1  0.000000  0.399849  0.250471  1
  Sn  Sn14  1  0.399849  0.399849  0.749529  1
  Sn  Sn15  1  0.600151  0.600151  0.250471  1
  H  H16  1  0.000000  0.000000  0.500000  1
  C  C17  1  0.000000  0.000000  0.000000  1
