# generated using pymatgen
data_Hf7UCo16Si5P7
_symmetry_space_group_name_H-M   'P 1'
_cell_length_a   12.19704928
_cell_length_b   12.21985345
_cell_length_c   3.67866200
_cell_angle_alpha   90.00000000
_cell_angle_beta   90.00000000
_cell_angle_gamma   120.35012685
_symmetry_Int_Tables_number   1
_chemical_formula_structural   Hf7UCo16Si5P7
_chemical_formula_sum   'Hf7 U1 Co16 Si5 P7'
_cell_volume   473.14931712
_cell_formula_units_Z   1
loop_
 _symmetry_equiv_pos_site_id
 _symmetry_equiv_pos_as_xyz
  1  'x, y, z'
loop_
 _atom_site_type_symbol
 _atom_site_label
 _atom_site_symmetry_multiplicity
 _atom_site_fract_x
 _atom_site_fract_y
 _atom_site_fract_z
 _atom_site_occupancy
  Hf  Hf0  1  0.439695  0.438508  0.000000  1
  Hf  Hf1  1  0.998933  0.179204  0.500000  1
  Hf  Hf2  1  0.554843  0.999118  0.000000  1
  Hf  Hf3  1  0.331557  0.663673  0.000000  1
  Hf  Hf4  1  0.664296  0.332536  0.000000  1
  Hf  Hf5  1  0.002678  0.559437  0.000000  1
  Hf  Hf6  1  0.181658  0.001532  0.500000  1
  U  U7  1  0.826295  0.826802  0.500000  1
  Co  Co8  1  0.629835  0.820545  0.000000  1
  Co  Co9  1  0.372141  0.193575  0.000000  1
  Co  Co10  1  0.004367  0.724835  0.500000  1
  Co  Co11  1  0.279942  0.278870  0.500000  1
  Co  Co12  1  0.880495  0.359227  0.500000  1
  Co  Co13  1  0.721349  0.998730  0.500000  1
  Co  Co14  1  0.822448  0.631032  0.000000  1
  Co  Co15  1  0.180352  0.808520  0.000000  1
  Co  Co16  1  0.353178  0.874146  0.500000  1
  Co  Co17  1  0.131731  0.486995  0.500000  1
  Co  Co18  1  0.641811  0.517808  0.500000  1
  Co  Co19  1  0.990656  0.990027  0.000000  1
  Co  Co20  1  0.519269  0.641352  0.500000  1
  Co  Co21  1  0.475455  0.124473  0.500000  1
  Co  Co22  1  0.197824  0.375035  0.000000  1
  Co  Co23  1  0.804508  0.176237  0.000000  1
  Si  Si24  1  0.000754  0.347634  0.000000  1
  Si  Si25  1  0.825144  0.515870  0.500000  1
  Si  Si26  1  0.691781  0.176914  0.500000  1
  Si  Si27  1  0.171743  0.173327  0.000000  1
  Si  Si28  1  0.515302  0.823625  0.500000  1
  P  P29  1  0.647523  0.647545  0.000000  1
  P  P30  1  0.822440  0.006569  0.000000  1
  P  P31  1  0.175817  0.691750  0.500000  1
  P  P32  1  0.346994  0.001753  0.000000  1
  P  P33  1  0.481544  0.307580  0.500000  1
  P  P34  1  0.006406  0.823150  0.000000  1
  P  P35  1  0.309241  0.482070  0.500000  1
