# generated using pymatgen
data_Sm2CrO6
_symmetry_space_group_name_H-M   'P 1'
_cell_length_a   4.38668700
_cell_length_b   7.27484699
_cell_length_c   8.28668490
_cell_angle_alpha   107.03527194
_cell_angle_beta   90.00000000
_cell_angle_gamma   107.54753414
_symmetry_Int_Tables_number   1
_chemical_formula_structural   Sm2CrO6
_chemical_formula_sum   'Sm4 Cr2 O12'
_cell_volume   239.94598716
_cell_formula_units_Z   2
loop_
 _symmetry_equiv_pos_site_id
 _symmetry_equiv_pos_as_xyz
  1  'x, y, z'
loop_
 _atom_site_type_symbol
 _atom_site_label
 _atom_site_symmetry_multiplicity
 _atom_site_fract_x
 _atom_site_fract_y
 _atom_site_fract_z
 _atom_site_occupancy
  Sm  Sm0  1  0.663138  0.345083  0.085573  1
  Sm  Sm1  1  0.318053  0.654918  0.414428  1
  Sm  Sm2  1  0.681946  0.345082  0.585572  1
  Sm  Sm3  1  0.336864  0.654918  0.914428  1
  Cr  Cr4  1  0.041283  0.000000  0.250000  1
  Cr  Cr5  1  0.958718  0.000001  0.750000  1
  O  O6  1  0.267157  0.997951  0.087626  1
  O  O7  1  0.217655  0.483838  0.121111  1
  O  O8  1  0.723098  0.794570  0.198654  1
  O  O9  1  0.928526  0.205429  0.301346  1
  O  O10  1  0.733816  0.516161  0.378888  1
  O  O11  1  0.269207  0.002049  0.412375  1
  O  O12  1  0.730795  0.997952  0.587626  1
  O  O13  1  0.266183  0.483839  0.621111  1
  O  O14  1  0.071473  0.794571  0.698654  1
  O  O15  1  0.276900  0.205429  0.801346  1
  O  O16  1  0.782346  0.516161  0.878889  1
  O  O17  1  0.732842  0.002049  0.912374  1
