# generated using pymatgen
data_Er3TmFe4(CoO5)4
_symmetry_space_group_name_H-M   'P 1'
_cell_length_a   5.76439000
_cell_length_b   7.22959830
_cell_length_c   8.47562036
_cell_angle_alpha   89.96673530
_cell_angle_beta   90.00000000
_cell_angle_gamma   90.00000000
_symmetry_Int_Tables_number   1
_chemical_formula_structural   Er3TmFe4(CoO5)4
_chemical_formula_sum   'Er3 Tm1 Fe4 Co4 O20'
_cell_volume   353.21484322
_cell_formula_units_Z   1
loop_
 _symmetry_equiv_pos_site_id
 _symmetry_equiv_pos_as_xyz
  1  'x, y, z'
loop_
 _atom_site_type_symbol
 _atom_site_label
 _atom_site_symmetry_multiplicity
 _atom_site_fract_x
 _atom_site_fract_y
 _atom_site_fract_z
 _atom_site_occupancy
  Er  Er0  1  0.500000  0.633593  0.669043  1
  Er  Er1  1  0.500000  0.133910  0.830711  1
  Er  Er2  1  0.500000  0.866154  0.169312  1
  Tm  Tm3  1  0.500000  0.365685  0.330864  1
  Fe  Fe4  1  0.000000  0.109019  0.147840  1
  Fe  Fe5  1  0.000000  0.891074  0.852360  1
  Fe  Fe6  1  0.000000  0.391086  0.647565  1
  Fe  Fe7  1  0.000000  0.608551  0.352233  1
  Co  Co8  1  0.251258  0.000285  0.499864  1
  Co  Co9  1  0.748742  0.000285  0.499864  1
  Co  Co10  1  0.748684  0.499920  0.000230  1
  Co  Co11  1  0.251316  0.499920  0.000230  1
  O  O12  1  0.236264  0.999988  0.000150  1
  O  O13  1  0.763736  0.999988  0.000150  1
  O  O14  1  0.762951  0.499111  0.499285  1
  O  O15  1  0.237049  0.499111  0.499285  1
  O  O16  1  0.000000  0.353876  0.069828  1
  O  O17  1  0.000000  0.646208  0.930155  1
  O  O18  1  0.000000  0.146148  0.569895  1
  O  O19  1  0.000000  0.853815  0.429743  1
  O  O20  1  0.261896  0.108762  0.297837  1
  O  O21  1  0.738539  0.892694  0.702188  1
  O  O22  1  0.261461  0.892694  0.702188  1
  O  O23  1  0.738606  0.392616  0.797711  1
  O  O24  1  0.738104  0.108762  0.297837  1
  O  O25  1  0.261951  0.606697  0.202607  1
  O  O26  1  0.738049  0.606697  0.202607  1
  O  O27  1  0.261394  0.392616  0.797711  1
  O  O28  1  0.500000  0.340438  0.058484  1
  O  O29  1  0.500000  0.659401  0.942687  1
  O  O30  1  0.500000  0.160131  0.556966  1
  O  O31  1  0.500000  0.840767  0.442574  1
