# generated using pymatgen
data_Li2Mn(IO3)6
_symmetry_space_group_name_H-M   'P 1'
_cell_length_a   5.29685000
_cell_length_b   9.34993234
_cell_length_c   9.34983600
_cell_angle_alpha   60.00017242
_cell_angle_beta   89.99998542
_cell_angle_gamma   90.00026593
_symmetry_Int_Tables_number   1
_chemical_formula_structural   Li2Mn(IO3)6
_chemical_formula_sum   'Li2 Mn1 I6 O18'
_cell_volume   401.01583516
_cell_formula_units_Z   1
loop_
 _symmetry_equiv_pos_site_id
 _symmetry_equiv_pos_as_xyz
  1  'x, y, z'
loop_
 _atom_site_type_symbol
 _atom_site_label
 _atom_site_symmetry_multiplicity
 _atom_site_fract_x
 _atom_site_fract_y
 _atom_site_fract_z
 _atom_site_occupancy
  Li  Li0  1  0.740195  0.333340  0.333333  1
  Li  Li1  1  0.215083  0.666662  0.666672  1
  Mn  Mn2  1  0.663712  0.000001  0.999998  1
  I  I3  1  0.783699  0.966524  0.673227  1
  I  I4  1  0.783687  0.360245  0.966527  1
  I  I5  1  0.783687  0.673233  0.360248  1
  I  I6  1  0.299612  0.025091  0.309011  1
  I  I7  1  0.299609  0.665904  0.025091  1
  I  I8  1  0.299613  0.309008  0.665898  1
  O  O9  1  0.498401  0.236939  0.556131  1
  O  O10  1  0.498398  0.206927  0.236941  1
  O  O11  1  0.498387  0.556131  0.206930  1
  O  O12  1  0.999948  0.763330  0.445803  1
  O  O13  1  0.999941  0.790864  0.763329  1
  O  O14  1  0.999935  0.445795  0.790868  1
  O  O15  1  0.880596  0.050565  0.814745  1
  O  O16  1  0.880574  0.134686  0.050576  1
  O  O17  1  0.880580  0.814747  0.134688  1
  O  O18  1  0.454805  0.926303  0.194761  1
  O  O19  1  0.454825  0.878937  0.926292  1
  O  O20  1  0.454815  0.194766  0.878932  1
  O  O21  1  0.964732  0.114434  0.493870  1
  O  O22  1  0.964719  0.391696  0.114435  1
  O  O23  1  0.964710  0.493878  0.391691  1
  O  O24  1  0.448120  0.883584  0.504781  1
  O  O25  1  0.448104  0.611632  0.883587  1
  O  O26  1  0.448112  0.504780  0.611635  1
