# generated using pymatgen
data_Cs4NaTl(VSe4)2
_symmetry_space_group_name_H-M   'P 1'
_cell_length_a   14.39376654
_cell_length_b   13.00212093
_cell_length_c   8.05421697
_cell_angle_alpha   82.66355073
_cell_angle_beta   63.62698075
_cell_angle_gamma   33.70947053
_symmetry_Int_Tables_number   1
_chemical_formula_structural   Cs4NaTl(VSe4)2
_chemical_formula_sum   'Cs4 Na1 Tl1 V2 Se8'
_cell_volume   654.86458195
_cell_formula_units_Z   1
loop_
 _symmetry_equiv_pos_site_id
 _symmetry_equiv_pos_as_xyz
  1  'x, y, z'
loop_
 _atom_site_type_symbol
 _atom_site_label
 _atom_site_symmetry_multiplicity
 _atom_site_fract_x
 _atom_site_fract_y
 _atom_site_fract_z
 _atom_site_occupancy
  Cs  Cs0  1  0.679451  0.679451  0.320549  1
  Cs  Cs1  1  0.320549  0.320549  0.679451  1
  Cs  Cs2  1  0.929094  0.929094  0.570906  1
  Cs  Cs3  1  0.570906  0.570906  0.929094  1
  Na  Na4  1  0.250000  0.250000  0.250000  1
  Tl  Tl5  1  0.000000  0.000000  0.000000  1
  V  V6  1  0.750000  0.750000  0.750000  1
  V  V7  1  0.500000  0.500000  0.500000  1
  Se  Se8  1  0.420115  0.974497  0.894879  1
  Se  Se9  1  0.710511  0.894879  0.974497  1
  Se  Se10  1  0.894879  0.710511  0.420115  1
  Se  Se11  1  0.974497  0.420115  0.710511  1
  Se  Se12  1  0.278453  0.827231  0.536015  1
  Se  Se13  1  0.536015  0.358299  0.278453  1
  Se  Se14  1  0.358299  0.536015  0.827231  1
  Se  Se15  1  0.827231  0.278453  0.358299  1
