# generated using pymatgen
data_NaYb3RhO6
_symmetry_space_group_name_H-M   'P 1'
_cell_length_a   6.38645731
_cell_length_b   6.38645774
_cell_length_c   6.38645700
_cell_angle_alpha   90.39698979
_cell_angle_beta   90.39699879
_cell_angle_gamma   90.39699273
_symmetry_Int_Tables_number   1
_chemical_formula_structural   NaYb3RhO6
_chemical_formula_sum   'Na2 Yb6 Rh2 O12'
_cell_volume   260.46455277
_cell_formula_units_Z   2
loop_
 _symmetry_equiv_pos_site_id
 _symmetry_equiv_pos_as_xyz
  1  'x, y, z'
loop_
 _atom_site_type_symbol
 _atom_site_label
 _atom_site_symmetry_multiplicity
 _atom_site_fract_x
 _atom_site_fract_y
 _atom_site_fract_z
 _atom_site_occupancy
  Na  Na0  1  0.250000  0.250000  0.250000  1
  Na  Na1  1  0.750000  0.750000  0.750000  1
  Yb  Yb2  1  0.750000  0.112177  0.387823  1
  Yb  Yb3  1  0.387823  0.750000  0.112177  1
  Yb  Yb4  1  0.112177  0.387823  0.750000  1
  Yb  Yb5  1  0.250000  0.887823  0.612177  1
  Yb  Yb6  1  0.612177  0.250000  0.887823  1
  Yb  Yb7  1  0.887823  0.612177  0.250000  1
  Rh  Rh8  1  0.500000  0.500000  0.500000  1
  Rh  Rh9  1  0.000000  0.000000  0.000000  1
  O  O10  1  0.428532  0.203072  0.561619  1
  O  O11  1  0.561619  0.428532  0.203072  1
  O  O12  1  0.203072  0.561619  0.428532  1
  O  O13  1  0.071468  0.938381  0.296928  1
  O  O14  1  0.296928  0.071468  0.938381  1
  O  O15  1  0.938381  0.296928  0.071468  1
  O  O16  1  0.571468  0.796928  0.438381  1
  O  O17  1  0.438381  0.571468  0.796928  1
  O  O18  1  0.796928  0.438381  0.571468  1
  O  O19  1  0.928532  0.061619  0.703072  1
  O  O20  1  0.061619  0.703072  0.928532  1
  O  O21  1  0.703072  0.928532  0.061619  1
