# generated using pymatgen
data_Cs6In3PBr18
_symmetry_space_group_name_H-M   'P 1'
_cell_length_a   7.93170700
_cell_length_b   7.93170696
_cell_length_c   19.90599500
_cell_angle_alpha   90.00000000
_cell_angle_beta   90.00000000
_cell_angle_gamma   119.99999600
_symmetry_Int_Tables_number   1
_chemical_formula_structural   Cs6In3PBr18
_chemical_formula_sum   'Cs6 In3 P1 Br18'
_cell_volume   1084.54571639
_cell_formula_units_Z   1
loop_
 _symmetry_equiv_pos_site_id
 _symmetry_equiv_pos_as_xyz
  1  'x, y, z'
loop_
 _atom_site_type_symbol
 _atom_site_label
 _atom_site_symmetry_multiplicity
 _atom_site_fract_x
 _atom_site_fract_y
 _atom_site_fract_z
 _atom_site_occupancy
  Cs  Cs0  1  0.333333  0.666667  0.066253  1
  Cs  Cs1  1  0.666667  0.333333  0.923919  1
  Cs  Cs2  1  0.666667  0.333333  0.576539  1
  Cs  Cs3  1  0.333333  0.666667  0.423534  1
  Cs  Cs4  1  0.000000  0.000000  0.248634  1
  Cs  Cs5  1  0.000000  0.000000  0.758540  1
  In  In6  1  0.666667  0.333333  0.344834  1
  In  In7  1  0.666667  0.333333  0.155165  1
  In  In8  1  0.333333  0.666667  0.838679  1
  P  P9  1  0.333333  0.666667  0.654338  1
  Br  Br10  1  0.183903  0.367807  0.590658  1
  Br  Br11  1  0.831635  0.663269  0.412452  1
  Br  Br12  1  0.632193  0.816097  0.590658  1
  Br  Br13  1  0.832328  0.664656  0.090513  1
  Br  Br14  1  0.336731  0.168365  0.412452  1
  Br  Br15  1  0.170048  0.340096  0.909445  1
  Br  Br16  1  0.183903  0.816097  0.590658  1
  Br  Br17  1  0.335344  0.167672  0.090513  1
  Br  Br18  1  0.831635  0.168365  0.412452  1
  Br  Br19  1  0.659904  0.829952  0.909445  1
  Br  Br20  1  0.832328  0.167672  0.090513  1
  Br  Br21  1  0.170048  0.829952  0.909445  1
  Br  Br22  1  0.512154  0.024308  0.251437  1
  Br  Br23  1  0.491241  0.982481  0.748682  1
  Br  Br24  1  0.975692  0.487846  0.251437  1
  Br  Br25  1  0.017519  0.508759  0.748682  1
  Br  Br26  1  0.512154  0.487846  0.251437  1
  Br  Br27  1  0.491241  0.508759  0.748682  1
