# generated using pymatgen
data_Er8Co3Si12Rh
_symmetry_space_group_name_H-M   'P 1'
_cell_length_a   8.00540800
_cell_length_b   8.00540826
_cell_length_c   7.81460300
_cell_angle_alpha   90.00000000
_cell_angle_beta   90.00000000
_cell_angle_gamma   119.99999891
_symmetry_Int_Tables_number   1
_chemical_formula_structural   Er8Co3Si12Rh
_chemical_formula_sum   'Er8 Co3 Si12 Rh1'
_cell_volume   433.71506971
_cell_formula_units_Z   1
loop_
 _symmetry_equiv_pos_site_id
 _symmetry_equiv_pos_as_xyz
  1  'x, y, z'
loop_
 _atom_site_type_symbol
 _atom_site_label
 _atom_site_symmetry_multiplicity
 _atom_site_fract_x
 _atom_site_fract_y
 _atom_site_fract_z
 _atom_site_occupancy
  Er  Er0  1  0.983040  0.491521  0.248498  1
  Er  Er1  1  0.508479  0.491521  0.248498  1
  Er  Er2  1  0.494271  0.988541  0.750368  1
  Er  Er3  1  0.011459  0.505729  0.750368  1
  Er  Er4  1  0.494271  0.505729  0.750368  1
  Er  Er5  1  0.508479  0.016960  0.248498  1
  Er  Er6  1  0.000000  0.000000  0.751162  1
  Er  Er7  1  0.000000  0.000000  0.249096  1
  Co  Co8  1  0.333333  0.666667  0.033368  1
  Co  Co9  1  0.666667  0.333333  0.967177  1
  Co  Co10  1  0.666667  0.333333  0.532979  1
  Si  Si11  1  0.166263  0.833737  0.500066  1
  Si  Si12  1  0.166263  0.332526  0.500066  1
  Si  Si13  1  0.667474  0.833737  0.500066  1
  Si  Si14  1  0.342241  0.171121  0.998415  1
  Si  Si15  1  0.828058  0.656117  0.501472  1
  Si  Si16  1  0.828879  0.171121  0.998415  1
  Si  Si17  1  0.828879  0.657759  0.998415  1
  Si  Si18  1  0.171676  0.343352  0.001371  1
  Si  Si19  1  0.656648  0.828324  0.001371  1
  Si  Si20  1  0.343883  0.171942  0.501472  1
  Si  Si21  1  0.828058  0.171942  0.501472  1
  Si  Si22  1  0.171676  0.828324  0.001371  1
  Rh  Rh23  1  0.333333  0.666667  0.465647  1
