# generated using pymatgen
data_Ho3Nb(ZnRh2)4
_symmetry_space_group_name_H-M   'P 1'
_cell_length_a   6.06681500
_cell_length_b   6.07381000
_cell_length_c   7.03629200
_cell_angle_alpha   89.99935783
_cell_angle_beta   89.99997818
_cell_angle_gamma   90.00007615
_symmetry_Int_Tables_number   1
_chemical_formula_structural   Ho3Nb(ZnRh2)4
_chemical_formula_sum   'Ho3 Nb1 Zn4 Rh8'
_cell_volume   259.27808368
_cell_formula_units_Z   1
loop_
 _symmetry_equiv_pos_site_id
 _symmetry_equiv_pos_as_xyz
  1  'x, y, z'
loop_
 _atom_site_type_symbol
 _atom_site_label
 _atom_site_symmetry_multiplicity
 _atom_site_fract_x
 _atom_site_fract_y
 _atom_site_fract_z
 _atom_site_occupancy
  Ho  Ho0  1  0.750009  0.250017  0.999940  1
  Ho  Ho1  1  0.249990  0.749989  0.999942  1
  Ho  Ho2  1  0.749997  0.249996  0.500060  1
  Nb  Nb3  1  0.250006  0.750009  0.499905  1
  Zn  Zn4  1  0.250009  0.249983  0.000036  1
  Zn  Zn5  1  0.749984  0.750019  0.000048  1
  Zn  Zn6  1  0.749997  0.750007  0.499968  1
  Zn  Zn7  1  0.250008  0.249995  0.499982  1
  Rh  Rh8  1  0.006319  0.506084  0.259437  1
  Rh  Rh9  1  0.006308  0.993936  0.259414  1
  Rh  Rh10  1  0.493679  0.506070  0.259417  1
  Rh  Rh11  1  0.493679  0.993927  0.259414  1
  Rh  Rh12  1  0.493705  0.506051  0.740614  1
  Rh  Rh13  1  0.493704  0.993928  0.740614  1
  Rh  Rh14  1  0.006307  0.506055  0.740604  1
  Rh  Rh15  1  0.006299  0.993934  0.740609  1
