# generated using pymatgen
data_BiRhI18
_symmetry_space_group_name_H-M   'P 1'
_cell_length_a   10.20240043
_cell_length_b   10.22930554
_cell_length_c   10.19381966
_cell_angle_alpha   87.63896124
_cell_angle_beta   87.73498428
_cell_angle_gamma   87.51111395
_symmetry_Int_Tables_number   1
_chemical_formula_structural   BiRhI18
_chemical_formula_sum   'Bi1 Rh1 I18'
_cell_volume   1061.19756548
_cell_formula_units_Z   1
loop_
 _symmetry_equiv_pos_site_id
 _symmetry_equiv_pos_as_xyz
  1  'x, y, z'
loop_
 _atom_site_type_symbol
 _atom_site_label
 _atom_site_symmetry_multiplicity
 _atom_site_fract_x
 _atom_site_fract_y
 _atom_site_fract_z
 _atom_site_occupancy
  Bi  Bi0  1  0.000000  0.000000  0.000000  1
  Rh  Rh1  1  0.500000  0.500000  0.500000  1
  I  I2  1  0.763934  0.477512  0.496739  1
  I  I3  1  0.495518  0.762945  0.476850  1
  I  I4  1  0.477400  0.496929  0.763817  1
  I  I5  1  0.236066  0.522488  0.503261  1
  I  I6  1  0.504482  0.237055  0.523150  1
  I  I7  1  0.522600  0.503071  0.236183  1
  I  I8  1  0.877810  0.387345  0.743703  1
  I  I9  1  0.742150  0.876627  0.387221  1
  I  I10  1  0.387677  0.743067  0.877822  1
  I  I11  1  0.122190  0.612655  0.256297  1
  I  I12  1  0.257850  0.123373  0.612779  1
  I  I13  1  0.612323  0.256933  0.122178  1
  I  I14  1  0.023060  0.974940  0.694295  1
  I  I15  1  0.694419  0.022950  0.973063  1
  I  I16  1  0.973620  0.695442  0.021136  1
  I  I17  1  0.976940  0.025060  0.305705  1
  I  I18  1  0.305581  0.977050  0.026937  1
  I  I19  1  0.026380  0.304558  0.978864  1
