# generated using pymatgen
data_Nd4TeC4I
_symmetry_space_group_name_H-M   'P 1'
_cell_length_a   7.76499935
_cell_length_b   7.76499964
_cell_length_c   7.05723299
_cell_angle_alpha   80.33497652
_cell_angle_beta   80.33497460
_cell_angle_gamma   33.14370338
_symmetry_Int_Tables_number   1
_chemical_formula_structural   Nd4TeC4I
_chemical_formula_sum   'Nd4 Te1 C4 I1'
_cell_volume   229.05083554
_cell_formula_units_Z   1
loop_
 _symmetry_equiv_pos_site_id
 _symmetry_equiv_pos_as_xyz
  1  'x, y, z'
loop_
 _atom_site_type_symbol
 _atom_site_label
 _atom_site_symmetry_multiplicity
 _atom_site_fract_x
 _atom_site_fract_y
 _atom_site_fract_z
 _atom_site_occupancy
  Nd  Nd0  1  0.542389  0.140521  0.141488  1
  Nd  Nd1  1  0.142073  0.548532  0.657144  1
  Nd  Nd2  1  0.451468  0.857927  0.842856  1
  Nd  Nd3  1  0.859479  0.457611  0.358512  1
  Te  Te4  1  0.786964  0.213036  0.750000  1
  C  C5  1  0.359966  0.104718  0.471821  1
  C  C6  1  0.895282  0.640034  0.028179  1
  C  C7  1  0.646653  0.899636  0.526548  1
  C  C8  1  0.100364  0.353347  0.973452  1
  I  I9  1  0.215361  0.784639  0.250000  1
