# generated using pymatgen
data_LiNdH6PtRh
_symmetry_space_group_name_H-M   'P 1'
_cell_length_a   5.18243944
_cell_length_b   5.18246226
_cell_length_c   5.18245500
_cell_angle_alpha   120.00065236
_cell_angle_beta   120.00008191
_cell_angle_gamma   89.99918530
_symmetry_Int_Tables_number   1
_chemical_formula_structural   LiNdH6PtRh
_chemical_formula_sum   'Li1 Nd1 H6 Pt1 Rh1'
_cell_volume   98.42132182
_cell_formula_units_Z   1
loop_
 _symmetry_equiv_pos_site_id
 _symmetry_equiv_pos_as_xyz
  1  'x, y, z'
loop_
 _atom_site_type_symbol
 _atom_site_label
 _atom_site_symmetry_multiplicity
 _atom_site_fract_x
 _atom_site_fract_y
 _atom_site_fract_z
 _atom_site_occupancy
  Li  Li0  1  0.250000  0.749998  0.499996  1
  Nd  Nd1  1  0.749994  0.249993  0.499993  1
  H  H2  1  0.245030  0.245026  0.999995  1
  H  H3  1  0.754967  0.245026  0.999997  1
  H  H4  1  0.754966  0.754962  0.999996  1
  H  H5  1  0.245030  0.754961  0.999994  1
  H  H6  1  0.245032  0.245028  0.490062  1
  H  H7  1  0.754966  0.754963  0.509931  1
  Pt  Pt8  1  0.499997  0.499998  0.999999  1
  Rh  Rh9  1  0.000013  0.000039  0.000034  1
