# generated using pymatgen
data_Hf6SiAsN2
_symmetry_space_group_name_H-M   'P 1'
_cell_length_a   5.77828989
_cell_length_b   5.77828976
_cell_length_c   8.48907600
_cell_angle_alpha   90.00000000
_cell_angle_beta   90.00000000
_cell_angle_gamma   145.41199415
_symmetry_Int_Tables_number   1
_chemical_formula_structural   Hf6SiAsN2
_chemical_formula_sum   'Hf6 Si1 As1 N2'
_cell_volume   160.90001830
_cell_formula_units_Z   1
loop_
 _symmetry_equiv_pos_site_id
 _symmetry_equiv_pos_as_xyz
  1  'x, y, z'
loop_
 _atom_site_type_symbol
 _atom_site_label
 _atom_site_symmetry_multiplicity
 _atom_site_fract_x
 _atom_site_fract_y
 _atom_site_fract_z
 _atom_site_occupancy
  Hf  Hf0  1  0.632285  0.367715  0.948053  1
  Hf  Hf1  1  0.367622  0.632378  0.443194  1
  Hf  Hf2  1  0.367622  0.632378  0.056806  1
  Hf  Hf3  1  0.632285  0.367715  0.551947  1
  Hf  Hf4  1  0.943353  0.056647  0.750000  1
  Hf  Hf5  1  0.056966  0.943034  0.250000  1
  Si  Si6  1  0.744308  0.255692  0.250000  1
  As  As7  1  0.254294  0.745706  0.750000  1
  N  N8  1  0.000631  0.999369  0.998898  1
  N  N9  1  0.000631  0.999369  0.501102  1
