# generated using pymatgen
data_Er2LuHf(Ga3Rh)6
_symmetry_space_group_name_H-M   'P 1'
_cell_length_a   7.52649501
_cell_length_b   7.50904884
_cell_length_c   9.42563200
_cell_angle_alpha   90.00000000
_cell_angle_beta   90.00000000
_cell_angle_gamma   119.80746194
_symmetry_Int_Tables_number   1
_chemical_formula_structural   Er2LuHf(Ga3Rh)6
_chemical_formula_sum   'Er2 Lu1 Hf1 Ga18 Rh6'
_cell_volume   462.23001802
_cell_formula_units_Z   1
loop_
 _symmetry_equiv_pos_site_id
 _symmetry_equiv_pos_as_xyz
  1  'x, y, z'
loop_
 _atom_site_type_symbol
 _atom_site_label
 _atom_site_symmetry_multiplicity
 _atom_site_fract_x
 _atom_site_fract_y
 _atom_site_fract_z
 _atom_site_occupancy
  Er  Er0  1  0.004116  0.329031  0.750000  1
  Er  Er1  1  0.329896  0.003420  0.750000  1
  Lu  Lu2  1  0.670802  0.998742  0.250000  1
  Hf  Hf3  1  0.996748  0.669747  0.250000  1
  Ga  Ga4  1  0.337245  0.549842  0.250000  1
  Ga  Ga5  1  0.662053  0.451798  0.750000  1
  Ga  Ga6  1  0.552155  0.340065  0.250000  1
  Ga  Ga7  1  0.450364  0.660243  0.750000  1
  Ga  Ga8  1  0.998668  0.337963  0.084019  1
  Ga  Ga9  1  0.000934  0.664655  0.921762  1
  Ga  Ga10  1  0.000934  0.664655  0.578238  1
  Ga  Ga11  1  0.331842  0.996459  0.415545  1
  Ga  Ga12  1  0.998668  0.337963  0.415981  1
  Ga  Ga13  1  0.665098  0.000091  0.580247  1
  Ga  Ga14  1  0.665098  0.000091  0.919753  1
  Ga  Ga15  1  0.331842  0.996459  0.084455  1
  Ga  Ga16  1  0.332690  0.332385  0.566009  1
  Ga  Ga17  1  0.670814  0.668908  0.428018  1
  Ga  Ga18  1  0.670814  0.668908  0.071982  1
  Ga  Ga19  1  0.332690  0.332385  0.933991  1
  Ga  Ga20  1  0.124450  0.124115  0.250000  1
  Ga  Ga21  1  0.872223  0.871642  0.750000  1
  Rh  Rh22  1  0.671991  0.328418  0.001200  1
  Rh  Rh23  1  0.328223  0.672459  0.001916  1
  Rh  Rh24  1  0.328223  0.672459  0.498084  1
  Rh  Rh25  1  0.671991  0.328418  0.498800  1
  Rh  Rh26  1  0.999715  0.999338  0.001226  1
  Rh  Rh27  1  0.999715  0.999338  0.498774  1
