# generated using pymatgen
data_Th3AlGa2FePd2
_symmetry_space_group_name_H-M   'P 1'
_cell_length_a   7.25272652
_cell_length_b   7.19010346
_cell_length_c   4.08929600
_cell_angle_alpha   90.00000000
_cell_angle_beta   90.00000000
_cell_angle_gamma   119.85945244
_symmetry_Int_Tables_number   1
_chemical_formula_structural   Th3AlGa2FePd2
_chemical_formula_sum   'Th3 Al1 Ga2 Fe1 Pd2'
_cell_volume   184.93918937
_cell_formula_units_Z   1
loop_
 _symmetry_equiv_pos_site_id
 _symmetry_equiv_pos_as_xyz
  1  'x, y, z'
loop_
 _atom_site_type_symbol
 _atom_site_label
 _atom_site_symmetry_multiplicity
 _atom_site_fract_x
 _atom_site_fract_y
 _atom_site_fract_z
 _atom_site_occupancy
  Th  Th0  1  0.432098  0.416162  0.500000  1
  Th  Th1  1  0.583328  0.013599  0.500000  1
  Th  Th2  1  0.984516  0.572520  0.500000  1
  Al  Al3  1  0.992898  0.233218  0.000000  1
  Ga  Ga4  1  0.759392  0.755754  0.000000  1
  Ga  Ga5  1  0.247878  0.008960  0.000000  1
  Fe  Fe6  1  0.671714  0.332416  0.000000  1
  Pd  Pd7  1  0.327492  0.660740  0.000000  1
  Pd  Pd8  1  0.000685  0.006630  0.500000  1
