# generated using pymatgen
data_Yb6UIrO12
_symmetry_space_group_name_H-M   'P 1'
_cell_length_a   6.58825485
_cell_length_b   6.58825583
_cell_length_c   6.58825487
_cell_angle_alpha   93.06083155
_cell_angle_beta   93.06083049
_cell_angle_gamma   93.06083728
_symmetry_Int_Tables_number   1
_chemical_formula_structural   Yb6UIrO12
_chemical_formula_sum   'Yb6 U1 Ir1 O12'
_cell_volume   284.69457322
_cell_formula_units_Z   1
loop_
 _symmetry_equiv_pos_site_id
 _symmetry_equiv_pos_as_xyz
  1  'x, y, z'
loop_
 _atom_site_type_symbol
 _atom_site_label
 _atom_site_symmetry_multiplicity
 _atom_site_fract_x
 _atom_site_fract_y
 _atom_site_fract_z
 _atom_site_occupancy
  Yb  Yb0  1  0.927302  0.433316  0.737978  1
  Yb  Yb1  1  0.737978  0.927302  0.433316  1
  Yb  Yb2  1  0.566684  0.262022  0.072698  1
  Yb  Yb3  1  0.262022  0.072698  0.566684  1
  Yb  Yb4  1  0.072698  0.566684  0.262022  1
  Yb  Yb5  1  0.433316  0.737978  0.927302  1
  U  U6  1  0.000000  0.000000  0.000000  1
  Ir  Ir7  1  0.500000  0.500000  0.500000  1
  O  O8  1  0.300544  0.064712  0.925460  1
  O  O9  1  0.064712  0.925460  0.300544  1
  O  O10  1  0.925460  0.300544  0.064712  1
  O  O11  1  0.699456  0.935288  0.074540  1
  O  O12  1  0.935288  0.074540  0.699456  1
  O  O13  1  0.074540  0.699456  0.935288  1
  O  O14  1  0.215391  0.418571  0.544932  1
  O  O15  1  0.418571  0.544932  0.215391  1
  O  O16  1  0.455068  0.784609  0.581429  1
  O  O17  1  0.581429  0.455068  0.784609  1
  O  O18  1  0.784609  0.581429  0.455068  1
  O  O19  1  0.544932  0.215391  0.418571  1
