# generated using pymatgen
data_Tb3YFePt3O14
_symmetry_space_group_name_H-M   'P 1'
_cell_length_a   7.31246054
_cell_length_b   7.31254404
_cell_length_c   7.31323227
_cell_angle_alpha   59.47865767
_cell_angle_beta   59.48074335
_cell_angle_gamma   59.47831083
_symmetry_Int_Tables_number   1
_chemical_formula_structural   Tb3YFePt3O14
_chemical_formula_sum   'Tb3 Y1 Fe1 Pt3 O14'
_cell_volume   273.24451776
_cell_formula_units_Z   1
loop_
 _symmetry_equiv_pos_site_id
 _symmetry_equiv_pos_as_xyz
  1  'x, y, z'
loop_
 _atom_site_type_symbol
 _atom_site_label
 _atom_site_symmetry_multiplicity
 _atom_site_fract_x
 _atom_site_fract_y
 _atom_site_fract_z
 _atom_site_occupancy
  Tb  Tb0  1  0.500002  0.000000  0.500001  1
  Tb  Tb1  1  0.000000  0.500000  0.500000  1
  Tb  Tb2  1  0.499999  0.500002  0.000000  1
  Y  Y3  1  0.500002  0.500001  0.500000  1
  Fe  Fe4  1  0.999986  0.999998  0.999998  1
  Pt  Pt5  1  0.000001  0.500001  0.999999  1
  Pt  Pt6  1  0.500001  0.000001  0.999999  1
  Pt  Pt7  1  0.000001  0.000000  0.500000  1
  O  O8  1  0.622909  0.622970  0.622881  1
  O  O9  1  0.377092  0.377030  0.377119  1
  O  O10  1  0.340314  0.911853  0.911812  1
  O  O11  1  0.090934  0.661490  0.661478  1
  O  O12  1  0.911812  0.340344  0.911781  1
  O  O13  1  0.911812  0.911825  0.340280  1
  O  O14  1  0.338517  0.338481  0.909096  1
  O  O15  1  0.338481  0.909106  0.338459  1
  O  O16  1  0.909068  0.338508  0.338523  1
  O  O17  1  0.661484  0.661518  0.090906  1
  O  O18  1  0.088190  0.088174  0.659721  1
  O  O19  1  0.659687  0.088149  0.088187  1
  O  O20  1  0.661523  0.090893  0.661544  1
  O  O21  1  0.088187  0.659660  0.088216  1
