# generated using pymatgen
data_CeHo3(CuSi3)2
_symmetry_space_group_name_H-M   'P 1'
_cell_length_a   7.98662500
_cell_length_b   7.98662513
_cell_length_c   8.16920700
_cell_angle_alpha   90.00000000
_cell_angle_beta   90.00000000
_cell_angle_gamma   120.00000361
_symmetry_Int_Tables_number   1
_chemical_formula_structural   CeHo3(CuSi3)2
_chemical_formula_sum   'Ce2 Ho6 Cu4 Si12'
_cell_volume   451.27067252
_cell_formula_units_Z   2
loop_
 _symmetry_equiv_pos_site_id
 _symmetry_equiv_pos_as_xyz
  1  'x, y, z'
loop_
 _atom_site_type_symbol
 _atom_site_label
 _atom_site_symmetry_multiplicity
 _atom_site_fract_x
 _atom_site_fract_y
 _atom_site_fract_z
 _atom_site_occupancy
  Ce  Ce0  1  0.000000  0.000000  0.250000  1
  Ce  Ce1  1  0.000000  0.000000  0.750000  1
  Ho  Ho2  1  0.501253  0.498747  0.250000  1
  Ho  Ho3  1  0.501253  0.002507  0.250000  1
  Ho  Ho4  1  0.997493  0.498747  0.250000  1
  Ho  Ho5  1  0.498747  0.501253  0.750000  1
  Ho  Ho6  1  0.498747  0.997493  0.750000  1
  Ho  Ho7  1  0.002507  0.501253  0.750000  1
  Cu  Cu8  1  0.333333  0.666667  0.494096  1
  Cu  Cu9  1  0.666667  0.333333  0.505904  1
  Cu  Cu10  1  0.666667  0.333333  0.994096  1
  Cu  Cu11  1  0.333333  0.666667  0.005904  1
  Si  Si12  1  0.169522  0.830478  0.500107  1
  Si  Si13  1  0.169522  0.339043  0.500107  1
  Si  Si14  1  0.660957  0.830478  0.500107  1
  Si  Si15  1  0.830478  0.169522  0.499893  1
  Si  Si16  1  0.830478  0.660957  0.499893  1
  Si  Si17  1  0.339043  0.169522  0.499893  1
  Si  Si18  1  0.830478  0.169522  0.000107  1
  Si  Si19  1  0.830478  0.660957  0.000107  1
  Si  Si20  1  0.339043  0.169522  0.000107  1
  Si  Si21  1  0.169522  0.830478  0.999893  1
  Si  Si22  1  0.169522  0.339043  0.999893  1
  Si  Si23  1  0.660957  0.830478  0.999893  1
