# generated using pymatgen
data_Nd2ThCoNiSn7
_symmetry_space_group_name_H-M   'P 1'
_cell_length_a   13.73348283
_cell_length_b   13.73348341
_cell_length_c   4.57225700
_cell_angle_alpha   90.00000000
_cell_angle_beta   90.00000000
_cell_angle_gamma   160.12007735
_symmetry_Int_Tables_number   1
_chemical_formula_structural   Nd2ThCoNiSn7
_chemical_formula_sum   'Nd2 Th1 Co1 Ni1 Sn7'
_cell_volume   293.24786334
_cell_formula_units_Z   1
loop_
 _symmetry_equiv_pos_site_id
 _symmetry_equiv_pos_as_xyz
  1  'x, y, z'
loop_
 _atom_site_type_symbol
 _atom_site_label
 _atom_site_symmetry_multiplicity
 _atom_site_fract_x
 _atom_site_fract_y
 _atom_site_fract_z
 _atom_site_occupancy
  Nd  Nd0  1  0.186427  0.813573  0.000000  1
  Nd  Nd1  1  0.814382  0.185618  0.000000  1
  Th  Th2  1  0.499118  0.500882  0.500000  1
  Co  Co3  1  0.373978  0.626022  0.500000  1
  Ni  Ni4  1  0.628083  0.371917  0.500000  1
  Sn  Sn5  1  0.998378  0.001622  0.000000  1
  Sn  Sn6  1  0.410601  0.589399  0.000000  1
  Sn  Sn7  1  0.588664  0.411336  0.000000  1
  Sn  Sn8  1  0.089858  0.910142  0.500000  1
  Sn  Sn9  1  0.908064  0.091936  0.500000  1
  Sn  Sn10  1  0.281909  0.718091  0.500000  1
  Sn  Sn11  1  0.720540  0.279460  0.500000  1
