# generated using pymatgen
data_Nd2B10Ir
_symmetry_space_group_name_H-M   'P 1'
_cell_length_a   4.22542400
_cell_length_b   5.75311300
_cell_length_c   11.46491100
_cell_angle_alpha   90.00000000
_cell_angle_beta   90.00000000
_cell_angle_gamma   90.00000000
_symmetry_Int_Tables_number   1
_chemical_formula_structural   Nd2B10Ir
_chemical_formula_sum   'Nd4 B20 Ir2'
_cell_volume   278.70443957
_cell_formula_units_Z   2
loop_
 _symmetry_equiv_pos_site_id
 _symmetry_equiv_pos_as_xyz
  1  'x, y, z'
loop_
 _atom_site_type_symbol
 _atom_site_label
 _atom_site_symmetry_multiplicity
 _atom_site_fract_x
 _atom_site_fract_y
 _atom_site_fract_z
 _atom_site_occupancy
  Nd  Nd0  1  0.500000  0.293944  0.866200  1
  Nd  Nd1  1  0.500000  0.706056  0.133800  1
  Nd  Nd2  1  0.500000  0.793944  0.633800  1
  Nd  Nd3  1  0.500000  0.206056  0.366200  1
  B  B4  1  0.000000  0.119466  0.543127  1
  B  B5  1  0.000000  0.880534  0.456873  1
  B  B6  1  0.000000  0.619466  0.956873  1
  B  B7  1  0.000000  0.380534  0.043127  1
  B  B8  1  0.000000  0.138718  0.696976  1
  B  B9  1  0.000000  0.861282  0.303024  1
  B  B10  1  0.300234  0.217906  0.118587  1
  B  B11  1  0.300234  0.782094  0.881413  1
  B  B12  1  0.699766  0.717906  0.381413  1
  B  B13  1  0.699766  0.282094  0.618587  1
  B  B14  1  0.699766  0.782094  0.881413  1
  B  B15  1  0.699766  0.217906  0.118587  1
  B  B16  1  0.300234  0.282094  0.618587  1
  B  B17  1  0.300234  0.717906  0.381413  1
  B  B18  1  0.000000  0.054921  0.192868  1
  B  B19  1  0.000000  0.945079  0.807132  1
  B  B20  1  0.000000  0.554921  0.307132  1
  B  B21  1  0.000000  0.445079  0.692868  1
  B  B22  1  0.000000  0.361282  0.196976  1
  B  B23  1  0.000000  0.638718  0.803024  1
  Ir  Ir24  1  0.000000  0.500000  0.500000  1
  Ir  Ir25  1  0.000000  0.000000  0.000000  1
