# generated using pymatgen
data_La4Tb5Nd7(CdPd)4
_symmetry_space_group_name_H-M   'P 1'
_cell_length_a   9.98359839
_cell_length_b   9.98359792
_cell_length_c   9.96348400
_cell_angle_alpha   60.06662991
_cell_angle_beta   60.06663146
_cell_angle_gamma   60.37552087
_symmetry_Int_Tables_number   1
_chemical_formula_structural   La4Tb5Nd7(CdPd)4
_chemical_formula_sum   'La4 Tb5 Nd7 Cd4 Pd4'
_cell_volume   704.89909044
_cell_formula_units_Z   1
loop_
 _symmetry_equiv_pos_site_id
 _symmetry_equiv_pos_as_xyz
  1  'x, y, z'
loop_
 _atom_site_type_symbol
 _atom_site_label
 _atom_site_symmetry_multiplicity
 _atom_site_fract_x
 _atom_site_fract_y
 _atom_site_fract_z
 _atom_site_occupancy
  La  La0  1  0.353851  0.353851  0.352492  1
  La  La1  1  0.353851  0.353851  0.939807  1
  La  La2  1  0.351549  0.939477  0.354488  1
  La  La3  1  0.939477  0.351549  0.354488  1
  Tb  Tb4  1  0.813621  0.188186  0.186012  1
  Tb  Tb5  1  0.188186  0.813621  0.812181  1
  Tb  Tb6  1  0.188186  0.813621  0.186012  1
  Tb  Tb7  1  0.813621  0.188186  0.812181  1
  Tb  Tb8  1  0.185972  0.185972  0.814028  1
  Nd  Nd9  1  0.813109  0.813109  0.186891  1
  Nd  Nd10  1  0.937555  0.562970  0.566969  1
  Nd  Nd11  1  0.562970  0.937555  0.932507  1
  Nd  Nd12  1  0.562970  0.937555  0.566969  1
  Nd  Nd13  1  0.937555  0.562970  0.932507  1
  Nd  Nd14  1  0.564963  0.564963  0.935037  1
  Nd  Nd15  1  0.934135  0.934135  0.565865  1
  Cd  Cd16  1  0.580733  0.580733  0.583121  1
  Cd  Cd17  1  0.580733  0.580733  0.255414  1
  Cd  Cd18  1  0.579779  0.256702  0.581760  1
  Cd  Cd19  1  0.256702  0.579779  0.581760  1
  Pd  Pd20  1  0.141252  0.141252  0.140640  1
  Pd  Pd21  1  0.141252  0.141252  0.576854  1
  Pd  Pd22  1  0.146102  0.571879  0.141009  1
  Pd  Pd23  1  0.571879  0.146102  0.141009  1
