# generated using pymatgen
data_ErTmPa(Co3P2)3
_symmetry_space_group_name_H-M   'P 1'
_cell_length_a   3.70177500
_cell_length_b   10.50499300
_cell_length_c   12.10585900
_cell_angle_alpha   90.00000000
_cell_angle_beta   90.00000000
_cell_angle_gamma   90.00000000
_symmetry_Int_Tables_number   1
_chemical_formula_structural   ErTmPa(Co3P2)3
_chemical_formula_sum   'Er2 Tm2 Pa2 Co18 P12'
_cell_volume   470.76199724
_cell_formula_units_Z   2
loop_
 _symmetry_equiv_pos_site_id
 _symmetry_equiv_pos_as_xyz
  1  'x, y, z'
loop_
 _atom_site_type_symbol
 _atom_site_label
 _atom_site_symmetry_multiplicity
 _atom_site_fract_x
 _atom_site_fract_y
 _atom_site_fract_z
 _atom_site_occupancy
  Er  Er0  1  0.750000  0.065380  0.204815  1
  Er  Er1  1  0.750000  0.434620  0.204815  1
  Tm  Tm2  1  0.250000  0.934345  0.795067  1
  Tm  Tm3  1  0.250000  0.565655  0.795067  1
  Pa  Pa4  1  0.750000  0.250000  0.470867  1
  Pa  Pa5  1  0.250000  0.750000  0.529432  1
  Co  Co6  1  0.250000  0.250000  0.841708  1
  Co  Co7  1  0.750000  0.750000  0.158290  1
  Co  Co8  1  0.250000  0.250000  0.302805  1
  Co  Co9  1  0.750000  0.750000  0.697399  1
  Co  Co10  1  0.750000  0.250000  0.014880  1
  Co  Co11  1  0.250000  0.750000  0.984272  1
  Co  Co12  1  0.250000  0.416227  0.006167  1
  Co  Co13  1  0.250000  0.083773  0.006167  1
  Co  Co14  1  0.750000  0.584128  0.993104  1
  Co  Co15  1  0.750000  0.915872  0.993104  1
  Co  Co16  1  0.250000  0.448947  0.568864  1
  Co  Co17  1  0.250000  0.051053  0.568864  1
  Co  Co18  1  0.750000  0.551190  0.431733  1
  Co  Co19  1  0.750000  0.948810  0.431733  1
  Co  Co20  1  0.250000  0.870238  0.289106  1
  Co  Co21  1  0.250000  0.629762  0.289106  1
  Co  Co22  1  0.750000  0.129506  0.711258  1
  Co  Co23  1  0.750000  0.370494  0.711258  1
  P  P24  1  0.250000  0.250000  0.121051  1
  P  P25  1  0.750000  0.750000  0.878253  1
  P  P26  1  0.250000  0.250000  0.656657  1
  P  P27  1  0.750000  0.750000  0.343575  1
  P  P28  1  0.250000  0.442930  0.382356  1
  P  P29  1  0.250000  0.057070  0.382356  1
  P  P30  1  0.750000  0.557198  0.618273  1
  P  P31  1  0.750000  0.942802  0.618273  1
  P  P32  1  0.250000  0.902786  0.105545  1
  P  P33  1  0.250000  0.597214  0.105545  1
  P  P34  1  0.750000  0.096603  0.894119  1
  P  P35  1  0.750000  0.403397  0.894119  1
