# generated using pymatgen
data_Sm2Mn4Fe3Ni5P7
_symmetry_space_group_name_H-M   'P 1'
_cell_length_a   9.17767624
_cell_length_b   9.18645730
_cell_length_c   3.65160700
_cell_angle_alpha   90.00000000
_cell_angle_beta   90.00000000
_cell_angle_gamma   119.88829506
_symmetry_Int_Tables_number   1
_chemical_formula_structural   Sm2Mn4Fe3Ni5P7
_chemical_formula_sum   'Sm2 Mn4 Fe3 Ni5 P7'
_cell_volume   266.92128325
_cell_formula_units_Z   1
loop_
 _symmetry_equiv_pos_site_id
 _symmetry_equiv_pos_as_xyz
  1  'x, y, z'
loop_
 _atom_site_type_symbol
 _atom_site_label
 _atom_site_symmetry_multiplicity
 _atom_site_fract_x
 _atom_site_fract_y
 _atom_site_fract_z
 _atom_site_occupancy
  Sm  Sm0  1  0.667747  0.333536  0.000000  1
  Sm  Sm1  1  0.332925  0.666308  0.500000  1
  Mn  Mn2  1  0.048190  0.612726  0.000000  1
  Mn  Mn3  1  0.216462  0.100830  0.000000  1
  Mn  Mn4  1  0.897664  0.116668  0.000000  1
  Mn  Mn5  1  0.888255  0.790709  0.000000  1
  Fe  Fe6  1  0.158435  0.275229  0.500000  1
  Fe  Fe7  1  0.724513  0.880602  0.500000  1
  Fe  Fe8  1  0.117711  0.847867  0.500000  1
  Ni  Ni9  1  0.431044  0.059348  0.500000  1
  Ni  Ni10  1  0.938449  0.365910  0.500000  1
  Ni  Ni11  1  0.631853  0.567915  0.500000  1
  Ni  Ni12  1  0.389853  0.437572  0.000000  1
  Ni  Ni13  1  0.560494  0.949033  0.000000  1
  P  P14  1  0.115231  0.402321  0.000000  1
  P  P15  1  0.603075  0.716919  0.000000  1
  P  P16  1  0.275716  0.877855  0.000000  1
  P  P17  1  0.998971  0.002009  0.500000  1
  P  P18  1  0.406585  0.297011  0.500000  1
  P  P19  1  0.701112  0.106385  0.500000  1
  P  P20  1  0.895715  0.593248  0.500000  1
