# generated using pymatgen
data_Ce12Pr8Si15Pd
_symmetry_space_group_name_H-M   'P 1'
_cell_length_a   7.73844397
_cell_length_b   7.98203185
_cell_length_c   15.17955600
_cell_angle_alpha   89.83763846
_cell_angle_beta   89.70299285
_cell_angle_gamma   90.30105199
_symmetry_Int_Tables_number   1
_chemical_formula_structural   Ce12Pr8Si15Pd
_chemical_formula_sum   'Ce12 Pr8 Si15 Pd1'
_cell_volume   937.58912227
_cell_formula_units_Z   1
loop_
 _symmetry_equiv_pos_site_id
 _symmetry_equiv_pos_as_xyz
  1  'x, y, z'
loop_
 _atom_site_type_symbol
 _atom_site_label
 _atom_site_symmetry_multiplicity
 _atom_site_fract_x
 _atom_site_fract_y
 _atom_site_fract_z
 _atom_site_occupancy
  Ce  Ce0  1  0.642017  0.011006  0.249551  1
  Ce  Ce1  1  0.144369  0.494712  0.249767  1
  Ce  Ce2  1  0.852576  0.505344  0.749967  1
  Ce  Ce3  1  0.357842  0.989423  0.753107  1
  Ce  Ce4  1  0.676177  0.814270  0.877608  1
  Ce  Ce5  1  0.177940  0.682904  0.623162  1
  Ce  Ce6  1  0.824080  0.329108  0.119130  1
  Ce  Ce7  1  0.317802  0.181989  0.376479  1
  Ce  Ce8  1  0.325026  0.180350  0.124694  1
  Ce  Ce9  1  0.818641  0.317233  0.375936  1
  Ce  Ce10  1  0.174973  0.678247  0.877442  1
  Ce  Ce11  1  0.680531  0.817620  0.623247  1
  Pr  Pr12  1  0.974825  0.818937  0.102980  1
  Pr  Pr13  1  0.468072  0.686016  0.398076  1
  Pr  Pr14  1  0.526304  0.314426  0.896848  1
  Pr  Pr15  1  0.031227  0.185744  0.602481  1
  Pr  Pr16  1  0.032328  0.181037  0.896509  1
  Pr  Pr17  1  0.531275  0.312450  0.602656  1
  Pr  Pr18  1  0.471258  0.688016  0.103768  1
  Pr  Pr19  1  0.966768  0.814028  0.397203  1
  Si  Si20  1  0.760223  0.623547  0.250430  1
  Si  Si21  1  0.258741  0.877938  0.250894  1
  Si  Si22  1  0.739586  0.121120  0.749677  1
  Si  Si23  1  0.237957  0.377634  0.748504  1
  Si  Si24  1  0.026120  0.104217  0.248718  1
  Si  Si25  1  0.528684  0.399509  0.250244  1
  Si  Si26  1  0.469122  0.602197  0.748587  1
  Si  Si27  1  0.970860  0.896404  0.749583  1
  Si  Si28  1  0.360835  0.972351  0.540094  1
  Si  Si29  1  0.643316  0.028420  0.039035  1
  Si  Si30  1  0.138546  0.472158  0.460300  1
  Si  Si31  1  0.155641  0.469676  0.041025  1
  Si  Si32  1  0.637590  0.027050  0.460187  1
  Si  Si33  1  0.357688  0.970147  0.961842  1
  Si  Si34  1  0.860317  0.526980  0.538737  1
  Pd  Pd35  1  0.860737  0.527796  0.961531  1
