# generated using pymatgen
data_Nd3(H6Ru)2
_symmetry_space_group_name_H-M   'P 1'
_cell_length_a   4.88644000
_cell_length_b   4.88643985
_cell_length_c   8.45568400
_cell_angle_alpha   90.00000000
_cell_angle_beta   90.00000000
_cell_angle_gamma   120.00000102
_symmetry_Int_Tables_number   1
_chemical_formula_structural   Nd3(H6Ru)2
_chemical_formula_sum   'Nd3 H12 Ru2'
_cell_volume   174.84954208
_cell_formula_units_Z   1
loop_
 _symmetry_equiv_pos_site_id
 _symmetry_equiv_pos_as_xyz
  1  'x, y, z'
loop_
 _atom_site_type_symbol
 _atom_site_label
 _atom_site_symmetry_multiplicity
 _atom_site_fract_x
 _atom_site_fract_y
 _atom_site_fract_z
 _atom_site_occupancy
  Nd  Nd0  1  0.000000  0.000000  0.000000  1
  Nd  Nd1  1  0.666667  0.333333  0.360691  1
  Nd  Nd2  1  0.333333  0.666667  0.639309  1
  H  H3  1  0.171353  0.828647  0.367559  1
  H  H4  1  0.657293  0.828647  0.367559  1
  H  H5  1  0.171353  0.342707  0.367559  1
  H  H6  1  0.828647  0.171353  0.632441  1
  H  H7  1  0.342707  0.171353  0.632441  1
  H  H8  1  0.828647  0.657293  0.632441  1
  H  H9  1  0.502104  0.004209  0.876193  1
  H  H10  1  0.502104  0.497896  0.876193  1
  H  H11  1  0.995791  0.497896  0.876193  1
  H  H12  1  0.497896  0.995791  0.123807  1
  H  H13  1  0.497896  0.502104  0.123807  1
  H  H14  1  0.004209  0.502104  0.123807  1
  Ru  Ru15  1  0.666667  0.333333  0.757415  1
  Ru  Ru16  1  0.333333  0.666667  0.242585  1
