# generated using pymatgen
data_Lu10Sc2InNi4Hg
_symmetry_space_group_name_H-M   'P 1'
_cell_length_a   8.18957824
_cell_length_b   8.14474268
_cell_length_c   8.14474342
_cell_angle_alpha   112.17298260
_cell_angle_beta   109.60243426
_cell_angle_gamma   106.48090735
_symmetry_Int_Tables_number   1
_chemical_formula_structural   Lu10Sc2InNi4Hg
_chemical_formula_sum   'Lu10 Sc2 In1 Ni4 Hg1'
_cell_volume   418.24344536
_cell_formula_units_Z   1
loop_
 _symmetry_equiv_pos_site_id
 _symmetry_equiv_pos_as_xyz
  1  'x, y, z'
loop_
 _atom_site_type_symbol
 _atom_site_label
 _atom_site_symmetry_multiplicity
 _atom_site_fract_x
 _atom_site_fract_y
 _atom_site_fract_z
 _atom_site_occupancy
  Lu  Lu0  1  0.024880  0.231450  0.793429  1
  Lu  Lu1  1  0.975120  0.768550  0.206571  1
  Lu  Lu2  1  0.190462  0.298091  0.478589  1
  Lu  Lu3  1  0.809538  0.701909  0.521411  1
  Lu  Lu4  1  0.190462  0.711872  0.892372  1
  Lu  Lu5  1  0.809538  0.288128  0.107628  1
  Lu  Lu6  1  0.327941  0.627944  0.307245  1
  Lu  Lu7  1  0.672059  0.372056  0.692755  1
  Lu  Lu8  1  0.327941  0.020695  0.699998  1
  Lu  Lu9  1  0.672059  0.979305  0.300002  1
  Sc  Sc10  1  0.430277  0.226275  0.204003  1
  Sc  Sc11  1  0.569723  0.773725  0.795997  1
  In  In12  1  0.500000  0.500000  0.000000  1
  Ni  Ni13  1  0.355490  0.000855  0.354635  1
  Ni  Ni14  1  0.644510  0.999145  0.645365  1
  Ni  Ni15  1  0.124845  0.625634  0.499212  1
  Ni  Ni16  1  0.875155  0.374366  0.500788  1
  Hg  Hg17  1  0.000000  0.000000  0.000000  1
