# generated using pymatgen
data_Ho4LuCu2Te
_symmetry_space_group_name_H-M   'P 1'
_cell_length_a   8.51698912
_cell_length_b   8.51698959
_cell_length_c   8.51699000
_cell_angle_alpha   124.52813380
_cell_angle_beta   124.52813597
_cell_angle_gamma   82.32106532
_symmetry_Int_Tables_number   1
_chemical_formula_structural   Ho4LuCu2Te
_chemical_formula_sum   'Ho8 Lu2 Cu4 Te2'
_cell_volume   402.98141021
_cell_formula_units_Z   2
loop_
 _symmetry_equiv_pos_site_id
 _symmetry_equiv_pos_as_xyz
  1  'x, y, z'
loop_
 _atom_site_type_symbol
 _atom_site_label
 _atom_site_symmetry_multiplicity
 _atom_site_fract_x
 _atom_site_fract_y
 _atom_site_fract_z
 _atom_site_occupancy
  Ho  Ho0  1  0.016663  0.516663  0.808086  1
  Ho  Ho1  1  0.708524  0.208524  0.191863  1
  Ho  Ho2  1  0.516237  0.708864  0.500063  1
  Ho  Ho3  1  0.208864  0.016237  0.500063  1
  Ho  Ho4  1  0.983337  0.483337  0.191914  1
  Ho  Ho5  1  0.291476  0.791476  0.808137  1
  Ho  Ho6  1  0.483763  0.291136  0.499937  1
  Ho  Ho7  1  0.791136  0.983763  0.499937  1
  Lu  Lu8  1  0.000000  0.000000  0.000000  1
  Lu  Lu9  1  0.500000  0.500000  0.000000  1
  Cu  Cu10  1  0.635919  0.135919  0.771405  1
  Cu  Cu11  1  0.364081  0.864081  0.228595  1
  Cu  Cu12  1  0.136239  0.363761  0.500000  1
  Cu  Cu13  1  0.863761  0.636239  0.500000  1
  Te  Te14  1  0.749927  0.750073  0.000000  1
  Te  Te15  1  0.250073  0.249927  0.000000  1
