# generated using pymatgen
data_LiLa6Mg6Cd16P
_symmetry_space_group_name_H-M   'P 1'
_cell_length_a   10.14664000
_cell_length_b   10.14663992
_cell_length_c   10.14664100
_cell_angle_alpha   59.99999972
_cell_angle_beta   59.99999999
_cell_angle_gamma   60.00000349
_symmetry_Int_Tables_number   1
_chemical_formula_structural   LiLa6Mg6Cd16P
_chemical_formula_sum   'Li1 La6 Mg6 Cd16 P1'
_cell_volume   738.67229036
_cell_formula_units_Z   1
loop_
 _symmetry_equiv_pos_site_id
 _symmetry_equiv_pos_as_xyz
  1  'x, y, z'
loop_
 _atom_site_type_symbol
 _atom_site_label
 _atom_site_symmetry_multiplicity
 _atom_site_fract_x
 _atom_site_fract_y
 _atom_site_fract_z
 _atom_site_occupancy
  Li  Li0  1  0.500000  0.500000  0.500000  1
  La  La1  1  0.793733  0.793733  0.206267  1
  La  La2  1  0.206267  0.793733  0.206267  1
  La  La3  1  0.793733  0.206267  0.206267  1
  La  La4  1  0.206267  0.206267  0.793733  1
  La  La5  1  0.793733  0.206267  0.793733  1
  La  La6  1  0.206267  0.793733  0.793733  1
  Mg  Mg7  1  0.000000  0.000000  0.500000  1
  Mg  Mg8  1  0.500000  0.000000  0.500000  1
  Mg  Mg9  1  0.000000  0.500000  0.500000  1
  Mg  Mg10  1  0.500000  0.500000  0.000000  1
  Mg  Mg11  1  0.000000  0.500000  0.000000  1
  Mg  Mg12  1  0.500000  0.000000  0.000000  1
  Cd  Cd13  1  0.830102  0.830102  0.509696  1
  Cd  Cd14  1  0.830102  0.509696  0.830102  1
  Cd  Cd15  1  0.509696  0.830102  0.830102  1
  Cd  Cd16  1  0.830102  0.830102  0.830102  1
  Cd  Cd17  1  0.169898  0.169898  0.490304  1
  Cd  Cd18  1  0.169898  0.490304  0.169898  1
  Cd  Cd19  1  0.490304  0.169898  0.169898  1
  Cd  Cd20  1  0.169898  0.169898  0.169898  1
  Cd  Cd21  1  0.619826  0.619826  0.140522  1
  Cd  Cd22  1  0.619826  0.140522  0.619826  1
  Cd  Cd23  1  0.140522  0.619826  0.619826  1
  Cd  Cd24  1  0.619826  0.619826  0.619826  1
  Cd  Cd25  1  0.380174  0.380174  0.859478  1
  Cd  Cd26  1  0.380174  0.859478  0.380174  1
  Cd  Cd27  1  0.859478  0.380174  0.380174  1
  Cd  Cd28  1  0.380174  0.380174  0.380174  1
  P  P29  1  0.000000  0.000000  0.000000  1
