# generated using pymatgen
data_CeY2Ho2Pt3F28
_symmetry_space_group_name_H-M   'P 1'
_cell_length_a   5.62710646
_cell_length_b   8.97148958
_cell_length_c   12.17169396
_cell_angle_alpha   62.80906689
_cell_angle_beta   89.98228486
_cell_angle_gamma   89.87986228
_symmetry_Int_Tables_number   1
_chemical_formula_structural   CeY2Ho2Pt3F28
_chemical_formula_sum   'Ce1 Y2 Ho2 Pt3 F28'
_cell_volume   546.56280798
_cell_formula_units_Z   1
loop_
 _symmetry_equiv_pos_site_id
 _symmetry_equiv_pos_as_xyz
  1  'x, y, z'
loop_
 _atom_site_type_symbol
 _atom_site_label
 _atom_site_symmetry_multiplicity
 _atom_site_fract_x
 _atom_site_fract_y
 _atom_site_fract_z
 _atom_site_occupancy
  Ce  Ce0  1  0.754304  0.271237  0.960681  1
  Y  Y1  1  0.761664  0.821771  0.760542  1
  Y  Y2  1  0.258663  0.188235  0.726672  1
  Ho  Ho3  1  0.241405  0.182355  0.242665  1
  Ho  Ho4  1  0.739902  0.809554  0.266459  1
  Pt  Pt5  1  0.259427  0.729502  0.541234  1
  Pt  Pt6  1  0.238638  0.726266  0.045560  1
  Pt  Pt7  1  0.741821  0.273869  0.455256  1
  F  F8  1  0.433756  0.704644  0.918616  1
  F  F9  1  0.937536  0.298209  0.579818  1
  F  F10  1  0.545640  0.294391  0.099739  1
  F  F11  1  0.063139  0.705292  0.416144  1
  F  F12  1  0.444599  0.280538  0.539098  1
  F  F13  1  0.944868  0.725473  0.955820  1
  F  F14  1  0.555868  0.723032  0.455530  1
  F  F15  1  0.086387  0.271699  0.053288  1
  F  F16  1  0.778313  0.540529  0.851513  1
  F  F17  1  0.274136  0.483571  0.636183  1
  F  F18  1  0.218562  0.479845  0.145609  1
  F  F19  1  0.727499  0.520398  0.358842  1
  F  F20  1  0.758356  0.002273  0.062498  1
  F  F21  1  0.253114  0.975928  0.449956  1
  F  F22  1  0.245883  0.972249  0.950026  1
  F  F23  1  0.745698  0.027998  0.548235  1
  F  F24  1  0.970339  0.729101  0.632863  1
  F  F25  1  0.444898  0.272709  0.853351  1
  F  F26  1  0.030871  0.273326  0.364174  1
  F  F27  1  0.524529  0.720240  0.141632  1
  F  F28  1  0.051348  0.742332  0.177743  1
  F  F29  1  0.550023  0.253399  0.327617  1
  F  F30  1  0.953086  0.249797  0.815221  1
  F  F31  1  0.450085  0.748574  0.671358  1
  F  F32  1  0.425171  0.971692  0.235580  1
  F  F33  1  0.920340  0.027136  0.264654  1
  F  F34  1  0.584020  0.033500  0.766144  1
  F  F35  1  0.086114  0.969336  0.729682  1
