# generated using pymatgen
data_Ce(TlSe)4
_symmetry_space_group_name_H-M   'P 1'
_cell_length_a   9.97658755
_cell_length_b   9.97698866
_cell_length_c   17.04809400
_cell_angle_alpha   104.08208195
_cell_angle_beta   104.79071602
_cell_angle_gamma   90.03742868
_symmetry_Int_Tables_number   1
_chemical_formula_structural   Ce(TlSe)4
_chemical_formula_sum   'Ce5 Tl20 Se20'
_cell_volume   1587.80309135
_cell_formula_units_Z   5
loop_
 _symmetry_equiv_pos_site_id
 _symmetry_equiv_pos_as_xyz
  1  'x, y, z'
loop_
 _atom_site_type_symbol
 _atom_site_label
 _atom_site_symmetry_multiplicity
 _atom_site_fract_x
 _atom_site_fract_y
 _atom_site_fract_z
 _atom_site_occupancy
  Ce  Ce0  1  0.986156  0.312616  0.400552  1
  Ce  Ce1  1  0.013844  0.687384  0.599448  1
  Ce  Ce2  1  0.819339  0.693111  0.800049  1
  Ce  Ce3  1  0.180661  0.306889  0.199951  1
  Ce  Ce4  1  0.000000  0.500000  0.000000  1
  Tl  Tl5  1  0.975514  0.926215  0.202826  1
  Tl  Tl6  1  0.024486  0.073785  0.797174  1
  Tl  Tl7  1  0.798973  0.290351  0.598697  1
  Tl  Tl8  1  0.201027  0.709649  0.401303  1
  Tl  Tl9  1  0.796118  0.918676  0.409708  1
  Tl  Tl10  1  0.203882  0.081324  0.590292  1
  Tl  Tl11  1  0.785584  0.526622  0.201209  1
  Tl  Tl12  1  0.214416  0.473378  0.798791  1
  Tl  Tl13  1  0.630946  0.897221  0.613513  1
  Tl  Tl14  1  0.369054  0.102779  0.386487  1
  Tl  Tl15  1  0.624822  0.309189  0.813689  1
  Tl  Tl16  1  0.375178  0.690811  0.186311  1
  Tl  Tl17  1  0.593574  0.513256  0.399595  1
  Tl  Tl18  1  0.406426  0.486744  0.600405  1
  Tl  Tl19  1  0.417784  0.882964  0.791471  1
  Tl  Tl20  1  0.582216  0.117036  0.208529  1
  Tl  Tl21  1  0.389798  0.298734  0.007872  1
  Tl  Tl22  1  0.610202  0.701266  0.992128  1
  Tl  Tl23  1  0.207013  0.890555  0.995149  1
  Tl  Tl24  1  0.792987  0.109445  0.004851  1
  Se  Se25  1  0.931449  0.960696  0.598226  1
  Se  Se26  1  0.068551  0.039304  0.401774  1
  Se  Se27  1  0.920750  0.600380  0.417663  1
  Se  Se28  1  0.079250  0.399620  0.582337  1
  Se  Se29  1  0.915818  0.770846  0.982110  1
  Se  Se30  1  0.084182  0.229154  0.017890  1
  Se  Se31  1  0.911126  0.421440  0.818281  1
  Se  Se32  1  0.088874  0.578560  0.181719  1
  Se  Se33  1  0.741112  0.967810  0.803577  1
  Se  Se34  1  0.258888  0.032190  0.196423  1
  Se  Se35  1  0.743040  0.613381  0.618049  1
  Se  Se36  1  0.256960  0.386619  0.381951  1
  Se  Se37  1  0.545434  0.611772  0.800584  1
  Se  Se38  1  0.454566  0.388228  0.199416  1
  Se  Se39  1  0.288303  0.768440  0.600188  1
  Se  Se40  1  0.711697  0.231560  0.399812  1
  Se  Se41  1  0.274090  0.578851  0.996963  1
  Se  Se42  1  0.725910  0.421149  0.003037  1
  Se  Se43  1  0.092352  0.754936  0.780892  1
  Se  Se44  1  0.907648  0.245064  0.219108  1
