# generated using pymatgen
data_Zr2MnOs3
_symmetry_space_group_name_H-M   'P 1'
_cell_length_a   5.11277413
_cell_length_b   5.29254402
_cell_length_c   8.58565600
_cell_angle_alpha   90.00000000
_cell_angle_beta   90.00000000
_cell_angle_gamma   121.17010885
_symmetry_Int_Tables_number   1
_chemical_formula_structural   Zr2MnOs3
_chemical_formula_sum   'Zr4 Mn2 Os6'
_cell_volume   198.78463152
_cell_formula_units_Z   2
loop_
 _symmetry_equiv_pos_site_id
 _symmetry_equiv_pos_as_xyz
  1  'x, y, z'
loop_
 _atom_site_type_symbol
 _atom_site_label
 _atom_site_symmetry_multiplicity
 _atom_site_fract_x
 _atom_site_fract_y
 _atom_site_fract_z
 _atom_site_occupancy
  Zr  Zr0  1  0.337229  0.668615  0.065539  1
  Zr  Zr1  1  0.662771  0.331385  0.565539  1
  Zr  Zr2  1  0.662771  0.331385  0.934461  1
  Zr  Zr3  1  0.337229  0.668615  0.434461  1
  Mn  Mn4  1  0.666245  0.833122  0.750000  1
  Mn  Mn5  1  0.333755  0.166878  0.250000  1
  Os  Os6  1  0.000000  0.000000  0.500000  1
  Os  Os7  1  0.000000  0.000000  0.000000  1
  Os  Os8  1  0.172443  0.346951  0.750000  1
  Os  Os9  1  0.827557  0.174509  0.250000  1
  Os  Os10  1  0.827557  0.653049  0.250000  1
  Os  Os11  1  0.172443  0.825491  0.750000  1
