# generated using pymatgen
data_VBr35
_symmetry_space_group_name_H-M   'P 1'
_cell_length_a   15.98197694
_cell_length_b   11.40028128
_cell_length_c   10.79188300
_cell_angle_alpha   88.81408278
_cell_angle_beta   66.02770512
_cell_angle_gamma   92.31545406
_symmetry_Int_Tables_number   1
_chemical_formula_structural   VBr35
_chemical_formula_sum   'V1 Br35'
_cell_volume   1793.71352310
_cell_formula_units_Z   1
loop_
 _symmetry_equiv_pos_site_id
 _symmetry_equiv_pos_as_xyz
  1  'x, y, z'
loop_
 _atom_site_type_symbol
 _atom_site_label
 _atom_site_symmetry_multiplicity
 _atom_site_fract_x
 _atom_site_fract_y
 _atom_site_fract_z
 _atom_site_occupancy
  V  V0  1  0.218395  0.437832  0.479664  1
  Br  Br1  1  0.518909  0.259379  0.520751  1
  Br  Br2  1  0.761036  0.580214  0.567324  1
  Br  Br3  1  0.481283  0.682876  0.740480  1
  Br  Br4  1  0.054286  0.889204  0.852032  1
  Br  Br5  1  0.890534  0.160783  0.019650  1
  Br  Br6  1  0.651494  0.318276  0.293097  1
  Br  Br7  1  0.617572  0.336554  0.837727  1
  Br  Br8  1  0.341389  0.756280  0.708596  1
  Br  Br9  1  0.327522  0.586204  0.234361  1
  Br  Br10  1  0.655405  0.136055  0.810761  1
  Br  Br11  1  0.910626  0.544523  0.374770  1
  Br  Br12  1  0.063027  0.951657  0.620641  1
  Br  Br13  1  0.897273  0.115052  0.254307  1
  Br  Br14  1  0.884893  0.211871  0.798872  1
  Br  Br15  1  0.647135  0.045068  0.221472  1
  Br  Br16  1  0.026414  0.823874  0.097858  1
  Br  Br17  1  0.363560  0.977087  0.725478  1
  Br  Br18  1  0.901848  0.325170  0.319934  1
  Br  Br19  1  0.880587  0.927699  0.695199  1
  Br  Br20  1  0.885973  0.658064  0.811385  1
  Br  Br21  1  0.319851  0.043973  0.264996  1
  Br  Br22  1  0.335222  0.332009  0.276048  1
  Br  Br23  1  0.615177  0.611869  0.786271  1
  Br  Br24  1  0.124202  0.405873  0.360453  1
  Br  Br25  1  0.712925  0.904996  0.783875  1
  Br  Br26  1  0.872234  0.448421  0.814262  1
  Br  Br27  1  0.488254  0.042829  0.243170  1
  Br  Br28  1  0.154090  0.289764  0.642089  1
  Br  Br29  1  0.677573  0.769266  0.268624  1
  Br  Br30  1  0.851464  0.798789  0.186424  1
  Br  Br31  1  0.385135  0.198827  0.744663  1
  Br  Br32  1  0.348906  0.480490  0.525639  1
  Br  Br33  1  0.659281  0.542552  0.277835  1
  Br  Br34  1  0.147405  0.606885  0.577601  1
  Br  Br35  1  0.329118  0.799736  0.263694  1
