# generated using pymatgen
data_YbPr(In2Ir)2
_symmetry_space_group_name_H-M   'P 1'
_cell_length_a   5.63740303
_cell_length_b   5.63740374
_cell_length_c   8.23210200
_cell_angle_alpha   90.00000000
_cell_angle_beta   90.00000000
_cell_angle_gamma   135.14514361
_symmetry_Int_Tables_number   1
_chemical_formula_structural   YbPr(In2Ir)2
_chemical_formula_sum   'Yb1 Pr1 In4 Ir2'
_cell_volume   184.52321285
_cell_formula_units_Z   1
loop_
 _symmetry_equiv_pos_site_id
 _symmetry_equiv_pos_as_xyz
  1  'x, y, z'
loop_
 _atom_site_type_symbol
 _atom_site_label
 _atom_site_symmetry_multiplicity
 _atom_site_fract_x
 _atom_site_fract_y
 _atom_site_fract_z
 _atom_site_occupancy
  Yb  Yb0  1  0.568836  0.431164  0.250000  1
  Pr  Pr1  1  0.430363  0.569637  0.750000  1
  In  In2  1  0.853658  0.146342  0.054222  1
  In  In3  1  0.145118  0.854882  0.955610  1
  In  In4  1  0.145118  0.854882  0.544390  1
  In  In5  1  0.853658  0.146342  0.445778  1
  Ir  Ir6  1  0.281739  0.718261  0.250000  1
  Ir  Ir7  1  0.721509  0.278491  0.750000  1
