# generated using pymatgen
data_Dy6Sc13Si16W
_symmetry_space_group_name_H-M   'P 1'
_cell_length_a   7.00494014
_cell_length_b   7.32112906
_cell_length_c   13.84001135
_cell_angle_alpha   89.75356850
_cell_angle_beta   89.93071762
_cell_angle_gamma   89.62983653
_symmetry_Int_Tables_number   1
_chemical_formula_structural   Dy6Sc13Si16W
_chemical_formula_sum   'Dy6 Sc13 Si16 W1'
_cell_volume   709.75024867
_cell_formula_units_Z   1
loop_
 _symmetry_equiv_pos_site_id
 _symmetry_equiv_pos_as_xyz
  1  'x, y, z'
loop_
 _atom_site_type_symbol
 _atom_site_label
 _atom_site_symmetry_multiplicity
 _atom_site_fract_x
 _atom_site_fract_y
 _atom_site_fract_z
 _atom_site_occupancy
  Dy  Dy0  1  0.994423  0.679838  0.600604  1
  Dy  Dy1  1  0.011277  0.322665  0.404605  1
  Dy  Dy2  1  0.509735  0.175969  0.405358  1
  Dy  Dy3  1  0.011685  0.322203  0.092365  1
  Dy  Dy4  1  0.488344  0.826493  0.597645  1
  Dy  Dy5  1  0.992967  0.679989  0.902766  1
  Sc  Sc6  1  0.839543  0.004987  0.248024  1
  Sc  Sc7  1  0.340408  0.496410  0.247984  1
  Sc  Sc8  1  0.659104  0.506542  0.751876  1
  Sc  Sc9  1  0.485027  0.824637  0.900472  1
  Sc  Sc10  1  0.512133  0.179920  0.096262  1
  Sc  Sc11  1  0.329825  0.320718  0.629551  1
  Sc  Sc12  1  0.669478  0.676621  0.372869  1
  Sc  Sc13  1  0.171880  0.826354  0.375542  1
  Sc  Sc14  1  0.668733  0.678545  0.124258  1
  Sc  Sc15  1  0.827942  0.169727  0.629649  1
  Sc  Sc16  1  0.330744  0.319593  0.873743  1
  Sc  Sc17  1  0.826668  0.168412  0.873125  1
  Sc  Sc18  1  0.172991  0.829280  0.121442  1
  Si  Si19  1  0.032137  0.376307  0.751789  1
  Si  Si20  1  0.970111  0.615381  0.248492  1
  Si  Si21  1  0.467909  0.889554  0.247714  1
  Si  Si22  1  0.520861  0.098741  0.752901  1
  Si  Si23  1  0.287747  0.643370  0.753079  1
  Si  Si24  1  0.713232  0.369271  0.246988  1
  Si  Si25  1  0.216782  0.130423  0.246941  1
  Si  Si26  1  0.792566  0.870059  0.752073  1
  Si  Si27  1  0.155464  0.034536  0.548037  1
  Si  Si28  1  0.842874  0.963557  0.463204  1
  Si  Si29  1  0.344633  0.535362  0.463188  1
  Si  Si30  1  0.835352  0.967926  0.037823  1
  Si  Si31  1  0.658739  0.464779  0.539447  1
  Si  Si32  1  0.161311  0.029435  0.950411  1
  Si  Si33  1  0.656536  0.465446  0.961183  1
  Si  Si34  1  0.346910  0.535002  0.036690  1
  W  W35  1  0.153929  0.001947  0.751898  1
