# generated using pymatgen
data_Hf5Nb(ReSi)6
_symmetry_space_group_name_H-M   'P 1'
_cell_length_a   7.73160250
_cell_length_b   7.73307947
_cell_length_c   7.73160262
_cell_angle_alpha   126.31780451
_cell_angle_beta   128.04861231
_cell_angle_gamma   77.95577016
_symmetry_Int_Tables_number   1
_chemical_formula_structural   Hf5Nb(ReSi)6
_chemical_formula_sum   'Hf5 Nb1 Re6 Si6'
_cell_volume   284.26837863
_cell_formula_units_Z   1
loop_
 _symmetry_equiv_pos_site_id
 _symmetry_equiv_pos_as_xyz
  1  'x, y, z'
loop_
 _atom_site_type_symbol
 _atom_site_label
 _atom_site_symmetry_multiplicity
 _atom_site_fract_x
 _atom_site_fract_y
 _atom_site_fract_z
 _atom_site_occupancy
  Hf  Hf0  1  0.550007  0.090907  0.040900  1
  Hf  Hf1  1  0.452405  0.499304  0.546900  1
  Hf  Hf2  1  0.950076  0.490951  0.040875  1
  Hf  Hf3  1  0.047669  0.094537  0.546869  1
  Hf  Hf4  1  0.750068  0.900894  0.650826  1
  Nb  Nb5  1  0.250115  0.902962  0.152847  1
  Re  Re6  1  0.497421  0.240618  0.738450  1
  Re  Re7  1  0.002168  0.240618  0.243197  1
  Re  Re8  1  0.127516  0.753709  0.626054  1
  Re  Re9  1  0.872255  0.497727  0.625279  1
  Re  Re10  1  0.627656  0.753709  0.126193  1
  Re  Re11  1  0.372448  0.497727  0.125472  1
  Si  Si12  1  0.750054  0.497164  0.247110  1
  Si  Si13  1  0.250025  0.499956  0.749931  1
  Si  Si14  1  0.330129  0.829557  0.491147  1
  Si  Si15  1  0.661644  0.161150  0.491215  1
  Si  Si16  1  0.838409  0.829557  0.999428  1
  Si  Si17  1  0.169936  0.161150  0.999507  1
