# generated using pymatgen
data_Na4LuP12Ir19
_symmetry_space_group_name_H-M   'P 1'
_cell_length_a   12.62765978
_cell_length_b   12.61804126
_cell_length_c   3.95436900
_cell_angle_alpha   90.00000000
_cell_angle_beta   90.00000000
_cell_angle_gamma   119.97480120
_symmetry_Int_Tables_number   1
_chemical_formula_structural   Na4LuP12Ir19
_chemical_formula_sum   'Na4 Lu1 P12 Ir19'
_cell_volume   545.79915614
_cell_formula_units_Z   1
loop_
 _symmetry_equiv_pos_site_id
 _symmetry_equiv_pos_as_xyz
  1  'x, y, z'
loop_
 _atom_site_type_symbol
 _atom_site_label
 _atom_site_symmetry_multiplicity
 _atom_site_fract_x
 _atom_site_fract_y
 _atom_site_fract_z
 _atom_site_occupancy
  Na  Na0  1  0.819227  0.818152  0.500000  1
  Na  Na1  1  0.180773  0.998925  0.500000  1
  Na  Na2  1  0.667583  0.333760  0.000000  1
  Na  Na3  1  0.332417  0.666177  0.000000  1
  Lu  Lu4  1  0.000000  0.175476  0.500000  1
  P  P5  1  0.000000  0.819408  0.000000  1
  P  P6  1  0.182832  0.178297  0.000000  1
  P  P7  1  0.817168  0.995465  0.000000  1
  P  P8  1  0.687351  0.175531  0.500000  1
  P  P9  1  0.823577  0.513043  0.500000  1
  P  P10  1  0.487235  0.312126  0.500000  1
  P  P11  1  0.176423  0.689465  0.500000  1
  P  P12  1  0.512765  0.824892  0.500000  1
  P  P13  1  0.312649  0.488180  0.500000  1
  P  P14  1  0.000000  0.359657  0.000000  1
  P  P15  1  0.639750  0.640349  0.000000  1
  P  P16  1  0.360250  0.000600  0.000000  1
  Ir  Ir17  1  0.000000  0.540935  0.000000  1
  Ir  Ir18  1  0.455706  0.460634  0.000000  1
  Ir  Ir19  1  0.544294  0.004927  0.000000  1
  Ir  Ir20  1  0.000000  0.707905  0.500000  1
  Ir  Ir21  1  0.289665  0.291857  0.500000  1
  Ir  Ir22  1  0.710335  0.002192  0.500000  1
  Ir  Ir23  1  0.809105  0.180534  0.000000  1
  Ir  Ir24  1  0.817622  0.621535  0.000000  1
  Ir  Ir25  1  0.379777  0.198252  0.000000  1
  Ir  Ir26  1  0.182378  0.803912  0.000000  1
  Ir  Ir27  1  0.620223  0.818474  0.000000  1
  Ir  Ir28  1  0.190895  0.371427  0.000000  1
  Ir  Ir29  1  0.869872  0.359761  0.500000  1
  Ir  Ir30  1  0.638071  0.510580  0.500000  1
  Ir  Ir31  1  0.489960  0.130412  0.500000  1
  Ir  Ir32  1  0.361929  0.872509  0.500000  1
  Ir  Ir33  1  0.510040  0.640453  0.500000  1
  Ir  Ir34  1  0.130128  0.489889  0.500000  1
  Ir  Ir35  1  0.000000  0.004310  0.000000  1
