# generated using pymatgen
data_Mn5Co7(W6C)2
_symmetry_space_group_name_H-M   'P 1'
_cell_length_a   7.75323872
_cell_length_b   7.75323883
_cell_length_c   7.75323829
_cell_angle_alpha   59.81456120
_cell_angle_beta   59.81456114
_cell_angle_gamma   59.81455704
_symmetry_Int_Tables_number   1
_chemical_formula_structural   Mn5Co7(W6C)2
_chemical_formula_sum   'Mn5 Co7 W12 C2'
_cell_volume   328.17276111
_cell_formula_units_Z   1
loop_
 _symmetry_equiv_pos_site_id
 _symmetry_equiv_pos_as_xyz
  1  'x, y, z'
loop_
 _atom_site_type_symbol
 _atom_site_label
 _atom_site_symmetry_multiplicity
 _atom_site_fract_x
 _atom_site_fract_y
 _atom_site_fract_z
 _atom_site_occupancy
  Mn  Mn0  1  0.121824  0.121824  0.625988  1
  Mn  Mn1  1  0.924847  0.924847  0.924847  1
  Mn  Mn2  1  0.121824  0.625988  0.121824  1
  Mn  Mn3  1  0.125418  0.125418  0.125418  1
  Mn  Mn4  1  0.625988  0.121824  0.121824  1
  Co  Co5  1  0.920793  0.240438  0.920793  1
  Co  Co6  1  0.330326  0.009111  0.330326  1
  Co  Co7  1  0.329567  0.329567  0.329567  1
  Co  Co8  1  0.009111  0.330326  0.330326  1
  Co  Co9  1  0.920793  0.920793  0.240438  1
  Co  Co10  1  0.240438  0.920793  0.920793  1
  Co  Co11  1  0.330326  0.330326  0.009111  1
  W  W12  1  0.302973  0.696852  0.696852  1
  W  W13  1  0.303450  0.303450  0.696499  1
  W  W14  1  0.553019  0.947875  0.553019  1
  W  W15  1  0.947875  0.553019  0.553019  1
  W  W16  1  0.553664  0.946019  0.946019  1
  W  W17  1  0.696499  0.303450  0.303450  1
  W  W18  1  0.946019  0.553664  0.946019  1
  W  W19  1  0.303450  0.696499  0.303450  1
  W  W20  1  0.553019  0.553019  0.947875  1
  W  W21  1  0.696852  0.302973  0.696852  1
  W  W22  1  0.696852  0.696852  0.302973  1
  W  W23  1  0.946019  0.946019  0.553664  1
  C  C24  1  0.749447  0.749447  0.749447  1
  C  C25  1  0.499604  0.499604  0.499604  1
