# generated using pymatgen
data_Cs2Nd10Rh2Br17
_symmetry_space_group_name_H-M   'P 1'
_cell_length_a   9.58221682
_cell_length_b   11.22022286
_cell_length_c   11.22021512
_cell_angle_alpha   108.11264080
_cell_angle_beta   93.46828771
_cell_angle_gamma   93.46862658
_symmetry_Int_Tables_number   1
_chemical_formula_structural   Cs2Nd10Rh2Br17
_chemical_formula_sum   'Cs2 Nd10 Rh2 Br17'
_cell_volume   1140.45356292
_cell_formula_units_Z   1
loop_
 _symmetry_equiv_pos_site_id
 _symmetry_equiv_pos_as_xyz
  1  'x, y, z'
loop_
 _atom_site_type_symbol
 _atom_site_label
 _atom_site_symmetry_multiplicity
 _atom_site_fract_x
 _atom_site_fract_y
 _atom_site_fract_z
 _atom_site_occupancy
  Cs  Cs0  1  0.000000  0.823431  0.176571  1
  Cs  Cs1  1  0.000002  0.176571  0.823432  1
  Nd  Nd2  1  0.437809  0.164559  0.164550  1
  Nd  Nd3  1  0.574014  0.513998  0.200133  1
  Nd  Nd4  1  0.829860  0.291605  0.291606  1
  Nd  Nd5  1  0.308938  0.434669  0.434671  1
  Nd  Nd6  1  0.425988  0.799864  0.486001  1
  Nd  Nd7  1  0.574011  0.200136  0.513997  1
  Nd  Nd8  1  0.691062  0.565330  0.565328  1
  Nd  Nd9  1  0.170145  0.708400  0.708403  1
  Nd  Nd10  1  0.425979  0.486004  0.799865  1
  Nd  Nd11  1  0.562190  0.835443  0.835446  1
  Rh  Rh12  1  0.570491  0.358322  0.358338  1
  Rh  Rh13  1  0.429510  0.641654  0.641666  1
  Br  Br14  1  0.578867  0.687648  0.021232  1
  Br  Br15  1  0.713937  0.066833  0.066833  1
  Br  Br16  1  0.856216  0.449018  0.120391  1
  Br  Br17  1  0.132673  0.206790  0.206789  1
  Br  Br18  1  0.284032  0.604048  0.255194  1
  Br  Br19  1  0.421132  0.978770  0.312355  1
  Br  Br20  1  0.715966  0.744822  0.395961  1
  Br  Br21  1  0.856213  0.120397  0.449022  1
  Br  Br22  1  0.000000  0.500002  0.500000  1
  Br  Br23  1  0.143805  0.879602  0.550980  1
  Br  Br24  1  0.284029  0.255194  0.604043  1
  Br  Br25  1  0.578866  0.021231  0.687645  1
  Br  Br26  1  0.715968  0.395957  0.744819  1
  Br  Br27  1  0.867318  0.793195  0.793196  1
  Br  Br28  1  0.143790  0.550982  0.879602  1
  Br  Br29  1  0.286060  0.933168  0.933167  1
  Br  Br30  1  0.421133  0.312356  0.978763  1
