# generated using pymatgen
data_Ce4DyY5(AgPb3)2
_symmetry_space_group_name_H-M   'P 1'
_cell_length_a   9.56986620
_cell_length_b   9.56645074
_cell_length_c   6.48285200
_cell_angle_alpha   90.00000000
_cell_angle_beta   90.00000000
_cell_angle_gamma   119.98819779
_symmetry_Int_Tables_number   1
_chemical_formula_structural   Ce4DyY5(AgPb3)2
_chemical_formula_sum   'Ce4 Dy1 Y5 Ag2 Pb6'
_cell_volume   514.04966581
_cell_formula_units_Z   1
loop_
 _symmetry_equiv_pos_site_id
 _symmetry_equiv_pos_as_xyz
  1  'x, y, z'
loop_
 _atom_site_type_symbol
 _atom_site_label
 _atom_site_symmetry_multiplicity
 _atom_site_fract_x
 _atom_site_fract_y
 _atom_site_fract_z
 _atom_site_occupancy
  Ce  Ce0  1  0.666770  0.333441  0.500081  1
  Ce  Ce1  1  0.333230  0.666671  0.500081  1
  Ce  Ce2  1  0.333230  0.666671  0.999919  1
  Ce  Ce3  1  0.666770  0.333441  0.999919  1
  Dy  Dy4  1  0.000000  0.724100  0.750000  1
  Y  Y5  1  0.723846  0.723877  0.250000  1
  Y  Y6  1  0.276154  0.000031  0.250000  1
  Y  Y7  1  0.000000  0.276059  0.250000  1
  Y  Y8  1  0.276126  0.276176  0.750000  1
  Y  Y9  1  0.723874  0.000050  0.750000  1
  Ag  Ag10  1  0.000000  0.999610  0.500426  1
  Ag  Ag11  1  0.000000  0.999610  0.999574  1
  Pb  Pb12  1  0.372471  0.372497  0.250000  1
  Pb  Pb13  1  0.627529  0.000026  0.250000  1
  Pb  Pb14  1  0.000000  0.627627  0.250000  1
  Pb  Pb15  1  0.627704  0.627627  0.750000  1
  Pb  Pb16  1  0.372296  0.999923  0.750000  1
  Pb  Pb17  1  0.000000  0.372563  0.750000  1
