# generated using pymatgen
data_YEr3CoAg
_symmetry_space_group_name_H-M   'P 1'
_cell_length_a   9.34219371
_cell_length_b   9.34299140
_cell_length_c   9.34299203
_cell_angle_alpha   59.99435568
_cell_angle_beta   60.00282001
_cell_angle_gamma   60.00282880
_symmetry_Int_Tables_number   1
_chemical_formula_structural   YEr3CoAg
_chemical_formula_sum   'Y4 Er12 Co4 Ag4'
_cell_volume   576.64138317
_cell_formula_units_Z   4
loop_
 _symmetry_equiv_pos_site_id
 _symmetry_equiv_pos_as_xyz
  1  'x, y, z'
loop_
 _atom_site_type_symbol
 _atom_site_label
 _atom_site_symmetry_multiplicity
 _atom_site_fract_x
 _atom_site_fract_y
 _atom_site_fract_z
 _atom_site_occupancy
  Y  Y0  1  0.562491  0.937509  0.562491  1
  Y  Y1  1  0.937509  0.562491  0.937509  1
  Y  Y2  1  0.562491  0.562491  0.937509  1
  Y  Y3  1  0.937509  0.937509  0.562491  1
  Er  Er4  1  0.347510  0.348182  0.348182  1
  Er  Er5  1  0.348182  0.347510  0.956127  1
  Er  Er6  1  0.348182  0.956127  0.347510  1
  Er  Er7  1  0.956127  0.348182  0.348182  1
  Er  Er8  1  0.811558  0.188442  0.188442  1
  Er  Er9  1  0.188442  0.811558  0.811558  1
  Er  Er10  1  0.188527  0.811473  0.188527  1
  Er  Er11  1  0.811473  0.188527  0.811473  1
  Er  Er12  1  0.188527  0.188527  0.811473  1
  Er  Er13  1  0.811473  0.811473  0.188527  1
  Er  Er14  1  0.938062  0.561938  0.561938  1
  Er  Er15  1  0.561938  0.938062  0.938062  1
  Co  Co16  1  0.141400  0.141107  0.141107  1
  Co  Co17  1  0.141107  0.141400  0.576386  1
  Co  Co18  1  0.141107  0.576386  0.141400  1
  Co  Co19  1  0.576386  0.141107  0.141107  1
  Ag  Ag20  1  0.581120  0.580553  0.580553  1
  Ag  Ag21  1  0.580553  0.581120  0.257776  1
  Ag  Ag22  1  0.580553  0.257776  0.581120  1
  Ag  Ag23  1  0.257776  0.580553  0.580553  1
