# generated using pymatgen
data_Pr3NdCdRu
_symmetry_space_group_name_H-M   'P 1'
_cell_length_a   9.98575258
_cell_length_b   9.98575211
_cell_length_c   9.98575300
_cell_angle_alpha   59.99999375
_cell_angle_beta   59.99999530
_cell_angle_gamma   59.99999723
_symmetry_Int_Tables_number   1
_chemical_formula_structural   Pr3NdCdRu
_chemical_formula_sum   'Pr12 Nd4 Cd4 Ru4'
_cell_volume   704.08867472
_cell_formula_units_Z   4
loop_
 _symmetry_equiv_pos_site_id
 _symmetry_equiv_pos_as_xyz
  1  'x, y, z'
loop_
 _atom_site_type_symbol
 _atom_site_label
 _atom_site_symmetry_multiplicity
 _atom_site_fract_x
 _atom_site_fract_y
 _atom_site_fract_z
 _atom_site_occupancy
  Pr  Pr0  1  0.809550  0.190450  0.190450  1
  Pr  Pr1  1  0.190450  0.809550  0.809550  1
  Pr  Pr2  1  0.190450  0.809550  0.190450  1
  Pr  Pr3  1  0.809550  0.190450  0.809550  1
  Pr  Pr4  1  0.190450  0.190450  0.809550  1
  Pr  Pr5  1  0.809550  0.809550  0.190450  1
  Pr  Pr6  1  0.939187  0.560813  0.560813  1
  Pr  Pr7  1  0.560813  0.939187  0.939187  1
  Pr  Pr8  1  0.560813  0.939187  0.560813  1
  Pr  Pr9  1  0.939187  0.560813  0.939187  1
  Pr  Pr10  1  0.560813  0.560813  0.939187  1
  Pr  Pr11  1  0.939187  0.939187  0.560813  1
  Nd  Nd12  1  0.345297  0.345297  0.345297  1
  Nd  Nd13  1  0.345297  0.345297  0.964108  1
  Nd  Nd14  1  0.345297  0.964108  0.345297  1
  Nd  Nd15  1  0.964108  0.345297  0.345297  1
  Cd  Cd16  1  0.579018  0.579018  0.579018  1
  Cd  Cd17  1  0.579018  0.579018  0.262945  1
  Cd  Cd18  1  0.579018  0.262945  0.579018  1
  Cd  Cd19  1  0.262945  0.579018  0.579018  1
  Ru  Ru20  1  0.138498  0.138498  0.138498  1
  Ru  Ru21  1  0.138498  0.138498  0.584504  1
  Ru  Ru22  1  0.138498  0.584504  0.138498  1
  Ru  Ru23  1  0.584504  0.138498  0.138498  1
