# generated using pymatgen
data_Ta3In(PO4)6
_symmetry_space_group_name_H-M   'P 1'
_cell_length_a   8.80732494
_cell_length_b   9.08321173
_cell_length_c   8.80725600
_cell_angle_alpha   89.99659272
_cell_angle_beta   59.99954288
_cell_angle_gamma   118.99746898
_symmetry_Int_Tables_number   1
_chemical_formula_structural   Ta3In(PO4)6
_chemical_formula_sum   'Ta3 In1 P6 O24'
_cell_volume   505.60504090
_cell_formula_units_Z   1
loop_
 _symmetry_equiv_pos_site_id
 _symmetry_equiv_pos_as_xyz
  1  'x, y, z'
loop_
 _atom_site_type_symbol
 _atom_site_label
 _atom_site_symmetry_multiplicity
 _atom_site_fract_x
 _atom_site_fract_y
 _atom_site_fract_z
 _atom_site_occupancy
  Ta  Ta0  1  0.284149  0.926109  0.357918  1
  Ta  Ta1  1  0.284220  0.426197  0.857883  1
  Ta  Ta2  1  0.714439  0.571577  0.142725  1
  In  In3  1  0.717069  0.075583  0.641434  1
  P  P4  1  0.785076  0.750907  0.749265  1
  P  P5  1  0.493144  0.249208  0.535503  1
  P  P6  1  0.500406  0.750996  0.465537  1
  P  P7  1  0.220669  0.249315  0.243830  1
  P  P8  1  0.784838  0.249255  0.971294  1
  P  P9  1  0.216670  0.750952  0.033982  1
  O  O10  1  0.658211  0.914231  0.474771  1
  O  O11  1  0.999420  0.710927  0.088865  1
  O  O12  1  0.221592  0.584216  0.002513  1
  O  O13  1  0.224853  0.778479  0.205731  1
  O  O14  1  0.986434  0.275792  0.945257  1
  O  O15  1  0.787425  0.415310  0.013701  1
  O  O16  1  0.789245  0.237524  0.799685  1
  O  O17  1  0.800082  0.711122  0.911611  1
  O  O18  1  0.984289  0.778340  0.569334  1
  O  O19  1  0.648803  0.237728  0.551555  1
  O  O20  1  0.780987  0.914005  0.743924  1
  O  O21  1  0.586822  0.584067  0.776001  1
  O  O22  1  0.588976  0.083653  0.145169  1
  O  O23  1  0.613955  0.415187  0.372040  1
  O  O24  1  0.220993  0.275618  0.068324  1
  O  O25  1  0.344043  0.275667  0.710600  1
  O  O26  1  0.622909  0.711071  0.288286  1
  O  O27  1  0.349608  0.083487  0.505319  1
  O  O28  1  0.389019  0.914079  0.866791  1
  O  O29  1  0.360388  0.584266  0.637177  1
  O  O30  1  0.228980  0.083745  0.265953  1
  O  O31  1  0.429206  0.415465  0.198594  1
  O  O32  1  0.347821  0.778276  0.446245  1
  O  O33  1  0.037389  0.237652  0.411052  1
