# generated using pymatgen
data_Tb3Ho2CoRuO12
_symmetry_space_group_name_H-M   'P 1'
_cell_length_a   6.81070046
_cell_length_b   6.80818914
_cell_length_c   7.26255917
_cell_angle_alpha   74.43930506
_cell_angle_beta   74.44334747
_cell_angle_gamma   50.82534773
_symmetry_Int_Tables_number   1
_chemical_formula_structural   Tb3Ho2CoRuO12
_chemical_formula_sum   'Tb3 Ho2 Co1 Ru1 O12'
_cell_volume   249.28365176
_cell_formula_units_Z   1
loop_
 _symmetry_equiv_pos_site_id
 _symmetry_equiv_pos_as_xyz
  1  'x, y, z'
loop_
 _atom_site_type_symbol
 _atom_site_label
 _atom_site_symmetry_multiplicity
 _atom_site_fract_x
 _atom_site_fract_y
 _atom_site_fract_z
 _atom_site_occupancy
  Tb  Tb0  1  0.995139  0.004723  0.000016  1
  Tb  Tb1  1  0.287060  0.322114  0.857076  1
  Tb  Tb2  1  0.305519  0.314269  0.332067  1
  Ho  Ho3  1  0.685665  0.694072  0.668525  1
  Ho  Ho4  1  0.677975  0.713043  0.142546  1
  Co  Co5  1  0.260228  0.740153  0.499911  1
  Ru  Ru6  1  0.771652  0.228634  0.499941  1
  O  O7  1  0.399571  0.911709  0.921110  1
  O  O8  1  0.579970  0.100738  0.581954  1
  O  O9  1  0.896370  0.422563  0.418242  1
  O  O10  1  0.083834  0.603823  0.079169  1
  O  O11  1  0.017478  0.983083  0.325461  1
  O  O12  1  0.504531  0.496976  0.680755  1
  O  O13  1  0.891034  0.408098  0.928658  1
  O  O14  1  0.095618  0.571607  0.581741  1
  O  O15  1  0.431851  0.900014  0.418335  1
  O  O16  1  0.594957  0.104771  0.071414  1
  O  O17  1  0.504400  0.496970  0.318612  1
  O  O18  1  0.017149  0.982639  0.674467  1
