# generated using pymatgen
data_Hg4Ir3PdO14
_symmetry_space_group_name_H-M   'P 1'
_cell_length_a   7.31749444
_cell_length_b   7.31749300
_cell_length_c   7.31749388
_cell_angle_alpha   60.22333152
_cell_angle_beta   60.22335138
_cell_angle_gamma   60.22333098
_symmetry_Int_Tables_number   1
_chemical_formula_structural   Hg4Ir3PdO14
_chemical_formula_sum   'Hg4 Ir3 Pd1 O14'
_cell_volume   278.45982279
_cell_formula_units_Z   1
loop_
 _symmetry_equiv_pos_site_id
 _symmetry_equiv_pos_as_xyz
  1  'x, y, z'
loop_
 _atom_site_type_symbol
 _atom_site_label
 _atom_site_symmetry_multiplicity
 _atom_site_fract_x
 _atom_site_fract_y
 _atom_site_fract_z
 _atom_site_occupancy
  Hg  Hg0  1  0.625000  0.125000  0.125000  1
  Hg  Hg1  1  0.125000  0.625000  0.125000  1
  Hg  Hg2  1  0.125000  0.125000  0.625000  1
  Hg  Hg3  1  0.125000  0.125000  0.125000  1
  Ir  Ir4  1  0.125000  0.625000  0.625000  1
  Ir  Ir5  1  0.625000  0.125000  0.625000  1
  Ir  Ir6  1  0.625000  0.625000  0.125000  1
  Pd  Pd7  1  0.625000  0.625000  0.625000  1
  O  O8  1  0.702528  0.702528  0.289907  1
  O  O9  1  0.307709  0.307709  0.702875  1
  O  O10  1  0.702528  0.289907  0.702528  1
  O  O11  1  0.307709  0.702875  0.307709  1
  O  O12  1  0.289907  0.702528  0.702528  1
  O  O13  1  0.702875  0.307709  0.307709  1
  O  O14  1  0.547472  0.547472  0.960093  1
  O  O15  1  0.942291  0.942291  0.547125  1
  O  O16  1  0.547472  0.960093  0.547472  1
  O  O17  1  0.942291  0.547125  0.942291  1
  O  O18  1  0.960093  0.547472  0.547472  1
  O  O19  1  0.547125  0.942291  0.942291  1
  O  O20  1  0.248900  0.248900  0.248900  1
  O  O21  1  0.001100  0.001100  0.001100  1
