# generated using pymatgen
data_Tb4DyRh5
_symmetry_space_group_name_H-M   'P 1'
_cell_length_a   3.44156200
_cell_length_b   3.44156200
_cell_length_c   17.20442600
_cell_angle_alpha   90.00000000
_cell_angle_beta   90.00000000
_cell_angle_gamma   90.00000000
_symmetry_Int_Tables_number   1
_chemical_formula_structural   Tb4DyRh5
_chemical_formula_sum   'Tb4 Dy1 Rh5'
_cell_volume   203.77522589
_cell_formula_units_Z   1
loop_
 _symmetry_equiv_pos_site_id
 _symmetry_equiv_pos_as_xyz
  1  'x, y, z'
loop_
 _atom_site_type_symbol
 _atom_site_label
 _atom_site_symmetry_multiplicity
 _atom_site_fract_x
 _atom_site_fract_y
 _atom_site_fract_z
 _atom_site_occupancy
  Tb  Tb0  1  0.000000  0.000000  0.199028  1
  Tb  Tb1  1  0.000000  0.000000  0.399639  1
  Tb  Tb2  1  0.000000  0.000000  0.600361  1
  Tb  Tb3  1  0.000000  0.000000  0.800972  1
  Dy  Dy4  1  0.000000  0.000000  0.000000  1
  Rh  Rh5  1  0.500000  0.500000  0.098370  1
  Rh  Rh6  1  0.500000  0.500000  0.299075  1
  Rh  Rh7  1  0.500000  0.500000  0.500000  1
  Rh  Rh8  1  0.500000  0.500000  0.700925  1
  Rh  Rh9  1  0.500000  0.500000  0.901630  1
