# generated using pymatgen
data_Nd2ThIn3CuPd2
_symmetry_space_group_name_H-M   'P 1'
_cell_length_a   7.70785511
_cell_length_b   7.83529704
_cell_length_c   4.05861400
_cell_angle_alpha   90.00000000
_cell_angle_beta   90.00000000
_cell_angle_gamma   120.54846700
_symmetry_Int_Tables_number   1
_chemical_formula_structural   Nd2ThIn3CuPd2
_chemical_formula_sum   'Nd2 Th1 In3 Cu1 Pd2'
_cell_volume   211.09139811
_cell_formula_units_Z   1
loop_
 _symmetry_equiv_pos_site_id
 _symmetry_equiv_pos_as_xyz
  1  'x, y, z'
loop_
 _atom_site_type_symbol
 _atom_site_label
 _atom_site_symmetry_multiplicity
 _atom_site_fract_x
 _atom_site_fract_y
 _atom_site_fract_z
 _atom_site_occupancy
  Nd  Nd0  1  0.411586  0.413444  0.000000  1
  Nd  Nd1  1  0.588414  0.001858  0.000000  1
  Th  Th2  1  0.000000  0.583089  0.000000  1
  In  In3  1  0.749779  0.754005  0.500000  1
  In  In4  1  0.000000  0.240133  0.500000  1
  In  In5  1  0.250221  0.004226  0.500000  1
  Cu  Cu6  1  0.000000  0.992287  0.000000  1
  Pd  Pd7  1  0.318373  0.664666  0.500000  1
  Pd  Pd8  1  0.681627  0.346291  0.500000  1
