# generated using pymatgen
data_Y2Ho2TmBi3
_symmetry_space_group_name_H-M   'P 1'
_cell_length_a   8.24132100
_cell_length_b   9.49153100
_cell_length_c   12.05946400
_cell_angle_alpha   90.00000000
_cell_angle_beta   90.00000000
_cell_angle_gamma   90.00000000
_symmetry_Int_Tables_number   1
_chemical_formula_structural   Y2Ho2TmBi3
_chemical_formula_sum   'Y8 Ho8 Tm4 Bi12'
_cell_volume   943.32448286
_cell_formula_units_Z   4
loop_
 _symmetry_equiv_pos_site_id
 _symmetry_equiv_pos_as_xyz
  1  'x, y, z'
loop_
 _atom_site_type_symbol
 _atom_site_label
 _atom_site_symmetry_multiplicity
 _atom_site_fract_x
 _atom_site_fract_y
 _atom_site_fract_z
 _atom_site_occupancy
  Y  Y0  1  0.186472  0.750000  0.718873  1
  Y  Y1  1  0.686472  0.750000  0.781127  1
  Y  Y2  1  0.813528  0.250000  0.281127  1
  Y  Y3  1  0.313528  0.250000  0.218873  1
  Y  Y4  1  0.353993  0.750000  0.215496  1
  Y  Y5  1  0.853993  0.750000  0.284504  1
  Y  Y6  1  0.646007  0.250000  0.784504  1
  Y  Y7  1  0.146007  0.250000  0.715496  1
  Ho  Ho8  1  0.306274  0.435988  0.940238  1
  Ho  Ho9  1  0.806274  0.064012  0.559762  1
  Ho  Ho10  1  0.693726  0.935988  0.059762  1
  Ho  Ho11  1  0.193726  0.564012  0.440238  1
  Ho  Ho12  1  0.693726  0.564012  0.059762  1
  Ho  Ho13  1  0.193726  0.935988  0.440238  1
  Ho  Ho14  1  0.306274  0.064012  0.940238  1
  Ho  Ho15  1  0.806274  0.435988  0.559762  1
  Tm  Tm16  1  0.025545  0.750000  0.988993  1
  Tm  Tm17  1  0.525545  0.750000  0.511007  1
  Tm  Tm18  1  0.974455  0.250000  0.011007  1
  Tm  Tm19  1  0.474455  0.250000  0.488993  1
  Bi  Bi20  1  0.433859  0.003742  0.672914  1
  Bi  Bi21  1  0.933859  0.496258  0.827086  1
  Bi  Bi22  1  0.566141  0.503742  0.327086  1
  Bi  Bi23  1  0.066141  0.996258  0.172914  1
  Bi  Bi24  1  0.566141  0.996258  0.327086  1
  Bi  Bi25  1  0.066141  0.503742  0.172914  1
  Bi  Bi26  1  0.433859  0.496258  0.672914  1
  Bi  Bi27  1  0.933859  0.003742  0.827086  1
  Bi  Bi28  1  0.408347  0.750000  0.958068  1
  Bi  Bi29  1  0.908347  0.750000  0.541932  1
  Bi  Bi30  1  0.591653  0.250000  0.041932  1
  Bi  Bi31  1  0.091653  0.250000  0.458068  1
