# generated using pymatgen
data_LaEu(SeO3)3
_symmetry_space_group_name_H-M   'P 1'
_cell_length_a   7.30596212
_cell_length_b   8.35603133
_cell_length_c   9.28883500
_cell_angle_alpha   70.78292202
_cell_angle_beta   70.21789791
_cell_angle_gamma   66.24344060
_symmetry_Int_Tables_number   1
_chemical_formula_structural   LaEu(SeO3)3
_chemical_formula_sum   'La2 Eu2 Se6 O18'
_cell_volume   475.99721675
_cell_formula_units_Z   2
loop_
 _symmetry_equiv_pos_site_id
 _symmetry_equiv_pos_as_xyz
  1  'x, y, z'
loop_
 _atom_site_type_symbol
 _atom_site_label
 _atom_site_symmetry_multiplicity
 _atom_site_fract_x
 _atom_site_fract_y
 _atom_site_fract_z
 _atom_site_occupancy
  La  La0  1  0.330729  0.733110  0.590702  1
  La  La1  1  0.669271  0.266890  0.409298  1
  Eu  Eu2  1  0.738593  0.736961  0.804444  1
  Eu  Eu3  1  0.261407  0.263039  0.195556  1
  Se  Se4  1  0.423690  0.781683  0.195407  1
  Se  Se5  1  0.576310  0.218317  0.804593  1
  Se  Se6  1  0.148418  0.748319  0.971207  1
  Se  Se7  1  0.851582  0.251681  0.028793  1
  Se  Se8  1  0.887484  0.754616  0.418785  1
  Se  Se9  1  0.112516  0.245384  0.581215  1
  O  O10  1  0.644045  0.794469  0.057948  1
  O  O11  1  0.355955  0.205531  0.942052  1
  O  O12  1  0.358938  0.945028  0.299787  1
  O  O13  1  0.641062  0.054972  0.700213  1
  O  O14  1  0.506766  0.599910  0.344726  1
  O  O15  1  0.493234  0.400090  0.655274  1
  O  O16  1  0.166298  0.570322  0.128269  1
  O  O17  1  0.833702  0.429678  0.871731  1
  O  O18  1  0.399923  0.714507  0.860243  1
  O  O19  1  0.600077  0.285493  0.139757  1
  O  O20  1  0.343360  0.240783  0.440157  1
  O  O21  1  0.656640  0.759217  0.559843  1
  O  O22  1  0.971466  0.294727  0.444031  1
  O  O23  1  0.028534  0.705273  0.555969  1
  O  O24  1  0.141694  0.025885  0.662587  1
  O  O25  1  0.858306  0.974115  0.337413  1
  O  O26  1  0.937510  0.305596  0.153590  1
  O  O27  1  0.062490  0.694404  0.846410  1
