# generated using pymatgen
data_TiAlPt5Rh
_symmetry_space_group_name_H-M   'P 1'
_cell_length_a   5.56069164
_cell_length_b   5.56069215
_cell_length_c   3.90545700
_cell_angle_alpha   90.00000000
_cell_angle_beta   90.00000000
_cell_angle_gamma   90.32438197
_symmetry_Int_Tables_number   1
_chemical_formula_structural   TiAlPt5Rh
_chemical_formula_sum   'Ti1 Al1 Pt5 Rh1'
_cell_volume   120.75985021
_cell_formula_units_Z   1
loop_
 _symmetry_equiv_pos_site_id
 _symmetry_equiv_pos_as_xyz
  1  'x, y, z'
loop_
 _atom_site_type_symbol
 _atom_site_label
 _atom_site_symmetry_multiplicity
 _atom_site_fract_x
 _atom_site_fract_y
 _atom_site_fract_z
 _atom_site_occupancy
  Ti  Ti0  1  0.994661  0.494661  0.500000  1
  Al  Al1  1  0.502957  0.002957  0.500000  1
  Pt  Pt2  1  0.248814  0.748814  0.000000  1
  Pt  Pt3  1  0.249691  0.250949  0.000000  1
  Pt  Pt4  1  0.750949  0.749691  0.000000  1
  Pt  Pt5  1  0.502756  0.496340  0.500000  1
  Pt  Pt6  1  0.996340  0.002756  0.500000  1
  Rh  Rh7  1  0.753831  0.253831  0.000000  1
