# generated using pymatgen
data_Zr8V11Si16Os
_symmetry_space_group_name_H-M   'P 1'
_cell_length_a   6.64282005
_cell_length_b   6.64282082
_cell_length_c   12.29004212
_cell_angle_alpha   90.05454097
_cell_angle_beta   89.94545949
_cell_angle_gamma   89.74159516
_symmetry_Int_Tables_number   1
_chemical_formula_structural   Zr8V11Si16Os
_chemical_formula_sum   'Zr8 V11 Si16 Os1'
_cell_volume   542.31745849
_cell_formula_units_Z   1
loop_
 _symmetry_equiv_pos_site_id
 _symmetry_equiv_pos_as_xyz
  1  'x, y, z'
loop_
 _atom_site_type_symbol
 _atom_site_label
 _atom_site_symmetry_multiplicity
 _atom_site_fract_x
 _atom_site_fract_y
 _atom_site_fract_z
 _atom_site_occupancy
  Zr  Zr0  1  0.001216  0.663803  0.030817  1
  Zr  Zr1  1  0.837815  0.500908  0.279727  1
  Zr  Zr2  1  0.161680  0.498756  0.779844  1
  Zr  Zr3  1  0.500908  0.837815  0.720273  1
  Zr  Zr4  1  0.498756  0.161680  0.220156  1
  Zr  Zr5  1  0.998469  0.338247  0.530495  1
  Zr  Zr6  1  0.663803  0.001216  0.969183  1
  Zr  Zr7  1  0.338247  0.998469  0.469505  1
  V  V8  1  0.167929  0.831712  0.248356  1
  V  V9  1  0.831712  0.167929  0.751644  1
  V  V10  1  0.666943  0.666943  0.500000  1
  V  V11  1  0.997329  0.157843  0.128816  1
  V  V12  1  0.341664  0.504229  0.375378  1
  V  V13  1  0.668621  0.495544  0.874261  1
  V  V14  1  0.504229  0.341664  0.624622  1
  V  V15  1  0.495544  0.668621  0.125739  1
  V  V16  1  0.995654  0.841176  0.626163  1
  V  V17  1  0.157843  0.997329  0.871184  1
  V  V18  1  0.841176  0.995654  0.373837  1
  Si  Si19  1  0.286165  0.962664  0.062226  1
  Si  Si20  1  0.539987  0.790771  0.315296  1
  Si  Si21  1  0.458436  0.210379  0.816422  1
  Si  Si22  1  0.790771  0.539987  0.684704  1
  Si  Si23  1  0.210379  0.458436  0.183578  1
  Si  Si24  1  0.709510  0.040618  0.565160  1
  Si  Si25  1  0.962664  0.286165  0.937774  1
  Si  Si26  1  0.040618  0.709510  0.434840  1
  Si  Si27  1  0.701779  0.377937  0.069379  1
  Si  Si28  1  0.126831  0.205374  0.320167  1
  Si  Si29  1  0.873101  0.794064  0.819845  1
  Si  Si30  1  0.205374  0.126831  0.679833  1
  Si  Si31  1  0.794064  0.873101  0.180155  1
  Si  Si32  1  0.294666  0.626758  0.570204  1
  Si  Si33  1  0.377937  0.701779  0.930621  1
  Si  Si34  1  0.626758  0.294666  0.429796  1
  Os  Os35  1  0.331419  0.331419  0.000000  1
