# generated using pymatgen
data_Rb3BaPrUTe6
_symmetry_space_group_name_H-M   'P 1'
_cell_length_a   8.27660919
_cell_length_b   8.27660935
_cell_length_c   9.05219804
_cell_angle_alpha   81.04733337
_cell_angle_beta   81.04732489
_cell_angle_gamma   120.01109289
_symmetry_Int_Tables_number   1
_chemical_formula_structural   Rb3BaPrUTe6
_chemical_formula_sum   'Rb3 Ba1 Pr1 U1 Te6'
_cell_volume   510.28018938
_cell_formula_units_Z   1
loop_
 _symmetry_equiv_pos_site_id
 _symmetry_equiv_pos_as_xyz
  1  'x, y, z'
loop_
 _atom_site_type_symbol
 _atom_site_label
 _atom_site_symmetry_multiplicity
 _atom_site_fract_x
 _atom_site_fract_y
 _atom_site_fract_z
 _atom_site_occupancy
  Rb  Rb0  1  0.658020  0.341980  0.500000  1
  Rb  Rb1  1  0.342091  0.657909  0.500000  1
  Rb  Rb2  1  0.999976  0.000024  0.500000  1
  Ba  Ba3  1  0.500009  0.499991  0.000000  1
  Pr  Pr4  1  0.832235  0.167765  0.000000  1
  U  U5  1  0.167704  0.832296  0.000000  1
  Te  Te6  1  0.800132  0.788553  0.204739  1
  Te  Te7  1  0.211447  0.199868  0.795261  1
  Te  Te8  1  0.417782  0.060123  0.207176  1
  Te  Te9  1  0.558616  0.927888  0.792603  1
  Te  Te10  1  0.939877  0.582218  0.792824  1
  Te  Te11  1  0.072112  0.441384  0.207397  1
