# generated using pymatgen
data_Sc12Fe2Si12RuAu
_symmetry_space_group_name_H-M   'P 1'
_cell_length_a   4.01882400
_cell_length_b   10.20380179
_cell_length_c   11.67774306
_cell_angle_alpha   89.94486387
_cell_angle_beta   90.00000000
_cell_angle_gamma   90.00000000
_symmetry_Int_Tables_number   1
_chemical_formula_structural   Sc12Fe2Si12RuAu
_chemical_formula_sum   'Sc12 Fe2 Si12 Ru1 Au1'
_cell_volume   478.87229862
_cell_formula_units_Z   1
loop_
 _symmetry_equiv_pos_site_id
 _symmetry_equiv_pos_as_xyz
  1  'x, y, z'
loop_
 _atom_site_type_symbol
 _atom_site_label
 _atom_site_symmetry_multiplicity
 _atom_site_fract_x
 _atom_site_fract_y
 _atom_site_fract_z
 _atom_site_occupancy
  Sc  Sc0  1  0.250000  0.877102  0.023440  1
  Sc  Sc1  1  0.250000  0.628558  0.518036  1
  Sc  Sc2  1  0.750000  0.118951  0.979434  1
  Sc  Sc3  1  0.750000  0.382755  0.473597  1
  Sc  Sc4  1  0.250000  0.922194  0.598299  1
  Sc  Sc5  1  0.250000  0.578176  0.099675  1
  Sc  Sc6  1  0.750000  0.079634  0.395439  1
  Sc  Sc7  1  0.750000  0.421049  0.897579  1
  Sc  Sc8  1  0.250000  0.671239  0.801985  1
  Sc  Sc9  1  0.250000  0.836370  0.299154  1
  Sc  Sc10  1  0.750000  0.346075  0.202770  1
  Sc  Sc11  1  0.750000  0.148565  0.702932  1
  Fe  Fe12  1  0.750000  0.608523  0.324289  1
  Fe  Fe13  1  0.750000  0.890024  0.824331  1
  Si  Si14  1  0.250000  0.000174  0.820985  1
  Si  Si15  1  0.250000  0.495756  0.321533  1
  Si  Si16  1  0.750000  0.982892  0.178311  1
  Si  Si17  1  0.750000  0.529363  0.674055  1
  Si  Si18  1  0.250000  0.241171  0.849306  1
  Si  Si19  1  0.250000  0.251344  0.340756  1
  Si  Si20  1  0.750000  0.741862  0.162777  1
  Si  Si21  1  0.750000  0.761288  0.662221  1
  Si  Si22  1  0.250000  0.183661  0.539858  1
  Si  Si23  1  0.250000  0.305746  0.047764  1
  Si  Si24  1  0.750000  0.802589  0.451999  1
  Si  Si25  1  0.750000  0.700315  0.955071  1
  Ru  Ru26  1  0.250000  0.108689  0.177339  1
  Au  Au27  1  0.250000  0.385934  0.677064  1
