# generated using pymatgen
data_Lu3Sc2P12Ru19
_symmetry_space_group_name_H-M   'P 1'
_cell_length_a   12.46844303
_cell_length_b   12.44724979
_cell_length_c   3.95159600
_cell_angle_alpha   90.00000000
_cell_angle_beta   90.00000000
_cell_angle_gamma   119.94378057
_symmetry_Int_Tables_number   1
_chemical_formula_structural   Lu3Sc2P12Ru19
_chemical_formula_sum   'Lu3 Sc2 P12 Ru19'
_cell_volume   531.41590697
_cell_formula_units_Z   1
loop_
 _symmetry_equiv_pos_site_id
 _symmetry_equiv_pos_as_xyz
  1  'x, y, z'
loop_
 _atom_site_type_symbol
 _atom_site_label
 _atom_site_symmetry_multiplicity
 _atom_site_fract_x
 _atom_site_fract_y
 _atom_site_fract_z
 _atom_site_occupancy
  Lu  Lu0  1  0.000000  0.817194  0.500000  1
  Lu  Lu1  1  0.333447  0.665967  0.000000  1
  Lu  Lu2  1  0.666553  0.332518  0.000000  1
  Sc  Sc3  1  0.182343  0.181886  0.500000  1
  Sc  Sc4  1  0.817657  0.999543  0.500000  1
  P  P5  1  0.817632  0.818742  0.000000  1
  P  P6  1  0.182368  0.001110  0.000000  1
  P  P7  1  0.000000  0.182186  0.000000  1
  P  P8  1  0.170307  0.476268  0.500000  1
  P  P9  1  0.522200  0.693414  0.500000  1
  P  P10  1  0.306749  0.829296  0.500000  1
  P  P11  1  0.693251  0.522547  0.500000  1
  P  P12  1  0.829693  0.305961  0.500000  1
  P  P13  1  0.477800  0.171213  0.500000  1
  P  P14  1  0.372321  0.372726  0.000000  1
  P  P15  1  0.627679  0.000404  0.000000  1
  P  P16  1  0.000000  0.627434  0.000000  1
  Ru  Ru17  1  0.554773  0.556443  0.000000  1
  Ru  Ru18  1  0.445227  0.001671  0.000000  1
  Ru  Ru19  1  0.000000  0.443764  0.000000  1
  Ru  Ru20  1  0.719290  0.720523  0.500000  1
  Ru  Ru21  1  0.280710  0.001234  0.500000  1
  Ru  Ru22  1  0.000000  0.278674  0.500000  1
  Ru  Ru23  1  0.184960  0.372999  0.000000  1
  Ru  Ru24  1  0.626338  0.812247  0.000000  1
  Ru  Ru25  1  0.191091  0.815283  0.000000  1
  Ru  Ru26  1  0.808909  0.624194  0.000000  1
  Ru  Ru27  1  0.815040  0.188038  0.000000  1
  Ru  Ru28  1  0.373662  0.185910  0.000000  1
  Ru  Ru29  1  0.364882  0.491838  0.500000  1
  Ru  Ru30  1  0.507665  0.873514  0.500000  1
  Ru  Ru31  1  0.126753  0.633965  0.500000  1
  Ru  Ru32  1  0.873247  0.507213  0.500000  1
  Ru  Ru33  1  0.635118  0.126956  0.500000  1
  Ru  Ru34  1  0.492335  0.365851  0.500000  1
  Ru  Ru35  1  0.000000  0.001277  0.000000  1
