# generated using pymatgen
data_Ho4P7Ir8
_symmetry_space_group_name_H-M   'P 1'
_cell_length_a   3.94534000
_cell_length_b   12.65194586
_cell_length_c   13.10114238
_cell_angle_alpha   99.13778437
_cell_angle_beta   90.00000000
_cell_angle_gamma   90.00000000
_symmetry_Int_Tables_number   1
_chemical_formula_structural   Ho4P7Ir8
_chemical_formula_sum   'Ho8 P14 Ir16'
_cell_volume   645.66040107
_cell_formula_units_Z   2
loop_
 _symmetry_equiv_pos_site_id
 _symmetry_equiv_pos_as_xyz
  1  'x, y, z'
loop_
 _atom_site_type_symbol
 _atom_site_label
 _atom_site_symmetry_multiplicity
 _atom_site_fract_x
 _atom_site_fract_y
 _atom_site_fract_z
 _atom_site_occupancy
  Ho  Ho0  1  0.750000  0.209036  0.561945  1
  Ho  Ho1  1  0.250000  0.790964  0.438055  1
  Ho  Ho2  1  0.750000  0.520541  0.706099  1
  Ho  Ho3  1  0.250000  0.479459  0.293901  1
  Ho  Ho4  1  0.750000  0.279485  0.897672  1
  Ho  Ho5  1  0.250000  0.720515  0.102328  1
  Ho  Ho6  1  0.750000  0.101990  0.210394  1
  Ho  Ho7  1  0.250000  0.898010  0.789606  1
  P  P8  1  0.750000  0.742250  0.920349  1
  P  P9  1  0.250000  0.257750  0.079651  1
  P  P10  1  0.750000  0.906173  0.587688  1
  P  P11  1  0.250000  0.093827  0.412312  1
  P  P12  1  0.750000  0.527587  0.129471  1
  P  P13  1  0.250000  0.472413  0.870529  1
  P  P14  1  0.750000  0.843559  0.282511  1
  P  P15  1  0.250000  0.156441  0.717489  1
  P  P16  1  0.750000  0.607684  0.432676  1
  P  P17  1  0.250000  0.392316  0.567324  1
  P  P18  1  0.750000  0.311990  0.310824  1
  P  P19  1  0.250000  0.688010  0.689176  1
  P  P20  1  0.750000  0.051705  0.899338  1
  P  P21  1  0.250000  0.948295  0.100662  1
  Ir  Ir22  1  0.750000  0.341351  0.141904  1
  Ir  Ir23  1  0.250000  0.658649  0.858096  1
  Ir  Ir24  1  0.750000  0.728666  0.604606  1
  Ir  Ir25  1  0.250000  0.271334  0.395394  1
  Ir  Ir26  1  0.750000  0.915189  0.002916  1
  Ir  Ir27  1  0.250000  0.084811  0.997084  1
  Ir  Ir28  1  0.750000  0.421707  0.476477  1
  Ir  Ir29  1  0.250000  0.578293  0.523523  1
  Ir  Ir30  1  0.750000  0.059029  0.727054  1
  Ir  Ir31  1  0.250000  0.940971  0.272946  1
  Ir  Ir32  1  0.750000  0.555547  0.955303  1
  Ir  Ir33  1  0.250000  0.444453  0.044697  1
  Ir  Ir34  1  0.750000  0.662924  0.268787  1
  Ir  Ir35  1  0.250000  0.337076  0.731213  1
  Ir  Ir36  1  0.750000  0.991040  0.424170  1
  Ir  Ir37  1  0.250000  0.008960  0.575830  1
