# generated using pymatgen
data_NaCa2Fe3N5
_symmetry_space_group_name_H-M   'P 1'
_cell_length_a   5.41840104
_cell_length_b   6.83843909
_cell_length_c   8.25916158
_cell_angle_alpha   108.37253389
_cell_angle_beta   103.40093944
_cell_angle_gamma   94.94157485
_symmetry_Int_Tables_number   1
_chemical_formula_structural   NaCa2Fe3N5
_chemical_formula_sum   'Na2 Ca4 Fe6 N10'
_cell_volume   278.29105213
_cell_formula_units_Z   2
loop_
 _symmetry_equiv_pos_site_id
 _symmetry_equiv_pos_as_xyz
  1  'x, y, z'
loop_
 _atom_site_type_symbol
 _atom_site_label
 _atom_site_symmetry_multiplicity
 _atom_site_fract_x
 _atom_site_fract_y
 _atom_site_fract_z
 _atom_site_occupancy
  Na  Na0  1  0.806260  0.418859  0.604422  1
  Na  Na1  1  0.193740  0.581141  0.395578  1
  Ca  Ca2  1  0.663991  0.859962  0.873052  1
  Ca  Ca3  1  0.336009  0.140038  0.126948  1
  Ca  Ca4  1  0.666214  0.658964  0.211490  1
  Ca  Ca5  1  0.333786  0.341036  0.788510  1
  Fe  Fe6  1  0.906124  0.320814  0.971945  1
  Fe  Fe7  1  0.093876  0.679186  0.028055  1
  Fe  Fe8  1  0.688638  0.956764  0.569186  1
  Fe  Fe9  1  0.311362  0.043236  0.430814  1
  Fe  Fe10  1  0.103827  0.887697  0.706407  1
  Fe  Fe11  1  0.896173  0.112303  0.293593  1
  N  N12  1  0.936441  0.121409  0.778142  1
  N  N13  1  0.063559  0.878591  0.221858  1
  N  N14  1  0.824187  0.721647  0.525991  1
  N  N15  1  0.175813  0.278353  0.474009  1
  N  N16  1  0.752326  0.536264  0.915113  1
  N  N17  1  0.247674  0.463736  0.084887  1
  N  N18  1  0.370792  0.944148  0.617427  1
  N  N19  1  0.629208  0.055852  0.382573  1
  N  N20  1  0.204560  0.782736  0.882122  1
  N  N21  1  0.795440  0.217264  0.117878  1
