# generated using pymatgen
data_Nd2Dy3Zr3(Ni4As3)4
_symmetry_space_group_name_H-M   'P 1'
_cell_length_a   12.78333209
_cell_length_b   12.78333043
_cell_length_c   3.94966000
_cell_angle_alpha   90.00000000
_cell_angle_beta   90.00000000
_cell_angle_gamma   119.99082419
_symmetry_Int_Tables_number   1
_chemical_formula_structural   Nd2Dy3Zr3(Ni4As3)4
_chemical_formula_sum   'Nd2 Dy3 Zr3 Ni16 As12'
_cell_volume   559.00871395
_cell_formula_units_Z   1
loop_
 _symmetry_equiv_pos_site_id
 _symmetry_equiv_pos_as_xyz
  1  'x, y, z'
loop_
 _atom_site_type_symbol
 _atom_site_label
 _atom_site_symmetry_multiplicity
 _atom_site_fract_x
 _atom_site_fract_y
 _atom_site_fract_z
 _atom_site_occupancy
  Nd  Nd0  1  0.666697  0.333379  0.000000  1
  Nd  Nd1  1  0.333379  0.666698  0.000000  1
  Dy  Dy2  1  0.184600  0.999980  0.499999  1
  Dy  Dy3  1  0.999980  0.184601  0.499999  1
  Dy  Dy4  1  0.815349  0.815349  0.499999  1
  Zr  Zr5  1  0.564388  0.999974  0.000000  1
  Zr  Zr6  1  0.435645  0.435645  0.000000  1
  Zr  Zr7  1  0.999974  0.564388  0.000000  1
  Ni  Ni8  1  0.999993  0.999993  0.000000  1
  Ni  Ni9  1  0.807951  0.183378  0.000000  1
  Ni  Ni10  1  0.375427  0.192024  0.000000  1
  Ni  Ni11  1  0.192024  0.375427  0.000000  1
  Ni  Ni12  1  0.816599  0.624592  0.000000  1
  Ni  Ni13  1  0.183379  0.807951  0.000000  1
  Ni  Ni14  1  0.624593  0.816600  0.000000  1
  Ni  Ni15  1  0.725688  0.999995  0.499999  1
  Ni  Ni16  1  0.482550  0.119367  0.499999  1
  Ni  Ni17  1  0.274351  0.274350  0.499999  1
  Ni  Ni18  1  0.880667  0.363198  0.499999  1
  Ni  Ni19  1  0.119367  0.482550  0.499999  1
  Ni  Ni20  1  0.636822  0.517465  0.499999  1
  Ni  Ni21  1  0.517465  0.636823  0.499999  1
  Ni  Ni22  1  0.999995  0.725689  0.499999  1
  Ni  Ni23  1  0.363199  0.880666  0.499999  1
  As  As24  1  0.356690  0.999996  0.000000  1
  As  As25  1  0.822588  0.999992  0.000000  1
  As  As26  1  0.177405  0.177405  0.000000  1
  As  As27  1  0.999996  0.356690  0.000000  1
  As  As28  1  0.643290  0.643290  0.000000  1
  As  As29  1  0.999992  0.822587  0.000000  1
  As  As30  1  0.695193  0.170588  0.499999  1
  As  As31  1  0.475396  0.304828  0.499999  1
  As  As32  1  0.304828  0.475396  0.499999  1
  As  As33  1  0.829427  0.524606  0.499999  1
  As  As34  1  0.170588  0.695193  0.499999  1
  As  As35  1  0.524606  0.829428  0.499999  1
