# generated using pymatgen
data_Nd2FeCo8P6Ru
_symmetry_space_group_name_H-M   'P 1'
_cell_length_a   3.72056700
_cell_length_b   10.43597100
_cell_length_c   11.89337700
_cell_angle_alpha   90.00000000
_cell_angle_beta   90.00000000
_cell_angle_gamma   90.00000000
_symmetry_Int_Tables_number   1
_chemical_formula_structural   Nd2FeCo8P6Ru
_chemical_formula_sum   'Nd4 Fe2 Co16 P12 Ru2'
_cell_volume   461.79282280
_cell_formula_units_Z   2
loop_
 _symmetry_equiv_pos_site_id
 _symmetry_equiv_pos_as_xyz
  1  'x, y, z'
loop_
 _atom_site_type_symbol
 _atom_site_label
 _atom_site_symmetry_multiplicity
 _atom_site_fract_x
 _atom_site_fract_y
 _atom_site_fract_z
 _atom_site_occupancy
  Nd  Nd0  1  0.250000  0.586204  0.703736  1
  Nd  Nd1  1  0.250000  0.913796  0.203736  1
  Nd  Nd2  1  0.750000  0.417726  0.298395  1
  Nd  Nd3  1  0.750000  0.082274  0.798395  1
  Fe  Fe4  1  0.250000  0.709312  0.987779  1
  Fe  Fe5  1  0.250000  0.790688  0.487779  1
  Co  Co6  1  0.250000  0.406502  0.491499  1
  Co  Co7  1  0.250000  0.093498  0.991499  1
  Co  Co8  1  0.750000  0.595007  0.512031  1
  Co  Co9  1  0.750000  0.904993  0.012031  1
  Co  Co10  1  0.250000  0.220725  0.175802  1
  Co  Co11  1  0.250000  0.279275  0.675802  1
  Co  Co12  1  0.750000  0.780246  0.824760  1
  Co  Co13  1  0.750000  0.719754  0.324760  1
  Co  Co14  1  0.250000  0.883591  0.697230  1
  Co  Co15  1  0.250000  0.616409  0.197230  1
  Co  Co16  1  0.750000  0.113469  0.299327  1
  Co  Co17  1  0.750000  0.386531  0.799327  1
  Co  Co18  1  0.250000  0.468312  0.932360  1
  Co  Co19  1  0.250000  0.031688  0.432360  1
  Co  Co20  1  0.750000  0.534120  0.065942  1
  Co  Co21  1  0.750000  0.965880  0.565942  1
  P  P22  1  0.250000  0.420576  0.111136  1
  P  P23  1  0.250000  0.079424  0.611136  1
  P  P24  1  0.750000  0.584061  0.889654  1
  P  P25  1  0.750000  0.915939  0.389654  1
  P  P26  1  0.250000  0.276200  0.866138  1
  P  P27  1  0.250000  0.223800  0.366138  1
  P  P28  1  0.750000  0.724641  0.132836  1
  P  P29  1  0.750000  0.775359  0.632836  1
  P  P30  1  0.250000  0.606549  0.393884  1
  P  P31  1  0.250000  0.893451  0.893884  1
  P  P32  1  0.750000  0.401780  0.607599  1
  P  P33  1  0.750000  0.098220  0.107599  1
  Ru  Ru34  1  0.750000  0.288332  0.009891  1
  Ru  Ru35  1  0.750000  0.211668  0.509891  1
