# generated using pymatgen
data_TbDy4(MnB3)2
_symmetry_space_group_name_H-M   'P 1'
_cell_length_a   5.42558710
_cell_length_b   5.42558647
_cell_length_c   8.25570678
_cell_angle_alpha   70.81640745
_cell_angle_beta   70.81640662
_cell_angle_gamma   59.99998165
_symmetry_Int_Tables_number   1
_chemical_formula_structural   TbDy4(MnB3)2
_chemical_formula_sum   'Tb1 Dy4 Mn2 B6'
_cell_volume   194.72576921
_cell_formula_units_Z   1
loop_
 _symmetry_equiv_pos_site_id
 _symmetry_equiv_pos_as_xyz
  1  'x, y, z'
loop_
 _atom_site_type_symbol
 _atom_site_label
 _atom_site_symmetry_multiplicity
 _atom_site_fract_x
 _atom_site_fract_y
 _atom_site_fract_z
 _atom_site_occupancy
  Tb  Tb0  1  0.000000  0.000000  0.000000  1
  Dy  Dy1  1  0.250893  0.250893  0.247323  1
  Dy  Dy2  1  0.749107  0.749107  0.752677  1
  Dy  Dy3  1  0.416399  0.416399  0.750804  1
  Dy  Dy4  1  0.583601  0.583601  0.249196  1
  Mn  Mn5  1  0.114847  0.114847  0.655460  1
  Mn  Mn6  1  0.885153  0.885153  0.344540  1
  B  B7  1  0.166352  0.833648  0.500000  1
  B  B8  1  0.833648  0.500000  0.500000  1
  B  B9  1  0.500000  0.166352  0.500000  1
  B  B10  1  0.166352  0.500000  0.500000  1
  B  B11  1  0.500000  0.833648  0.500000  1
  B  B12  1  0.833648  0.166352  0.500000  1
