# generated using pymatgen
data_SrLi3TcN3
_symmetry_space_group_name_H-M   'P 1'
_cell_length_a   7.30646437
_cell_length_b   7.30646404
_cell_length_c   7.30646403
_cell_angle_alpha   47.89812404
_cell_angle_beta   47.89812395
_cell_angle_gamma   47.89813178
_symmetry_Int_Tables_number   1
_chemical_formula_structural   SrLi3TcN3
_chemical_formula_sum   'Sr2 Li6 Tc2 N6'
_cell_volume   196.66791966
_cell_formula_units_Z   2
loop_
 _symmetry_equiv_pos_site_id
 _symmetry_equiv_pos_as_xyz
  1  'x, y, z'
loop_
 _atom_site_type_symbol
 _atom_site_label
 _atom_site_symmetry_multiplicity
 _atom_site_fract_x
 _atom_site_fract_y
 _atom_site_fract_z
 _atom_site_occupancy
  Sr  Sr0  1  0.337827  0.337827  0.337827  1
  Sr  Sr1  1  0.662173  0.662173  0.662173  1
  Li  Li2  1  0.474788  0.236537  0.895164  1
  Li  Li3  1  0.895164  0.474788  0.236537  1
  Li  Li4  1  0.763463  0.104836  0.525212  1
  Li  Li5  1  0.236537  0.895164  0.474788  1
  Li  Li6  1  0.104836  0.525212  0.763463  1
  Li  Li7  1  0.525212  0.763463  0.104836  1
  Tc  Tc8  1  0.060986  0.060986  0.060986  1
  Tc  Tc9  1  0.939014  0.939014  0.939014  1
  N  N10  1  0.605511  0.904546  0.214173  1
  N  N11  1  0.785827  0.394489  0.095454  1
  N  N12  1  0.394489  0.095454  0.785827  1
  N  N13  1  0.095454  0.785827  0.394489  1
  N  N14  1  0.214173  0.605511  0.904546  1
  N  N15  1  0.904546  0.214173  0.605511  1
