# generated using pymatgen
data_Li2Lu5Se7
_symmetry_space_group_name_H-M   'P 1'
_cell_length_a   6.87320963
_cell_length_b   6.85922150
_cell_length_c   6.85311000
_cell_angle_alpha   99.72123737
_cell_angle_beta   99.36365547
_cell_angle_gamma   99.33444621
_symmetry_Int_Tables_number   1
_chemical_formula_structural   Li2Lu5Se7
_chemical_formula_sum   'Li2 Lu5 Se7'
_cell_volume   308.17282600
_cell_formula_units_Z   1
loop_
 _symmetry_equiv_pos_site_id
 _symmetry_equiv_pos_as_xyz
  1  'x, y, z'
loop_
 _atom_site_type_symbol
 _atom_site_label
 _atom_site_symmetry_multiplicity
 _atom_site_fract_x
 _atom_site_fract_y
 _atom_site_fract_z
 _atom_site_occupancy
  Li  Li0  1  0.957832  0.295000  0.065276  1
  Li  Li1  1  0.079489  0.575686  0.648220  1
  Lu  Lu2  1  0.658488  0.721229  0.924483  1
  Lu  Lu3  1  0.797283  0.000070  0.493483  1
  Lu  Lu4  1  0.370327  0.144798  0.782063  1
  Lu  Lu5  1  0.514528  0.432607  0.354173  1
  Lu  Lu6  1  0.229944  0.866249  0.213374  1
  Se  Se7  1  0.593188  0.079583  0.138335  1
  Se  Se8  1  0.296726  0.504765  0.991933  1
  Se  Se9  1  0.153283  0.226923  0.425171  1
  Se  Se10  1  0.013842  0.933848  0.853523  1
  Se  Se11  1  0.874267  0.639354  0.282170  1
  Se  Se12  1  0.433779  0.785477  0.568027  1
  Se  Se13  1  0.733097  0.361288  0.716198  1
