# generated using pymatgen
data_Ac4Nd2InSn9
_symmetry_space_group_name_H-M   'P 1'
_cell_length_a   6.79947031
_cell_length_b   6.79947037
_cell_length_c   10.93734100
_cell_angle_alpha   89.55366030
_cell_angle_beta   89.55366030
_cell_angle_gamma   102.78681603
_symmetry_Int_Tables_number   1
_chemical_formula_structural   Ac4Nd2InSn9
_chemical_formula_sum   'Ac4 Nd2 In1 Sn9'
_cell_volume   493.08512483
_cell_formula_units_Z   1
loop_
 _symmetry_equiv_pos_site_id
 _symmetry_equiv_pos_as_xyz
  1  'x, y, z'
loop_
 _atom_site_type_symbol
 _atom_site_label
 _atom_site_symmetry_multiplicity
 _atom_site_fract_x
 _atom_site_fract_y
 _atom_site_fract_z
 _atom_site_occupancy
  Ac  Ac0  1  0.201346  0.799157  0.500236  1
  Ac  Ac1  1  0.200350  0.799481  0.999562  1
  Ac  Ac2  1  0.799157  0.201346  0.500236  1
  Ac  Ac3  1  0.799481  0.200350  0.999562  1
  Nd  Nd4  1  0.640205  0.640205  0.249718  1
  Nd  Nd5  1  0.363251  0.363251  0.751437  1
  In  In6  1  0.321143  0.321143  0.048379  1
  Sn  Sn7  1  0.026333  0.026333  0.250182  1
  Sn  Sn8  1  0.973680  0.973680  0.749477  1
  Sn  Sn9  1  0.672443  0.672443  0.952613  1
  Sn  Sn10  1  0.330254  0.330254  0.451261  1
  Sn  Sn11  1  0.669758  0.669758  0.549452  1
  Sn  Sn12  1  0.488000  0.075028  0.248381  1
  Sn  Sn13  1  0.927692  0.511877  0.750561  1
  Sn  Sn14  1  0.511877  0.927692  0.750561  1
  Sn  Sn15  1  0.075028  0.488000  0.248381  1
