# generated using pymatgen
data_K8Mn7CrP8(O4F)8
_symmetry_space_group_name_H-M   'P 1'
_cell_length_a   6.43128300
_cell_length_b   10.71823100
_cell_length_c   12.95030400
_cell_angle_alpha   90.00000000
_cell_angle_beta   90.00000000
_cell_angle_gamma   90.00000000
_symmetry_Int_Tables_number   1
_chemical_formula_structural   K8Mn7CrP8(O4F)8
_chemical_formula_sum   'K8 Mn7 Cr1 P8 O32 F8'
_cell_volume   892.69005514
_cell_formula_units_Z   1
loop_
 _symmetry_equiv_pos_site_id
 _symmetry_equiv_pos_as_xyz
  1  'x, y, z'
loop_
 _atom_site_type_symbol
 _atom_site_label
 _atom_site_symmetry_multiplicity
 _atom_site_fract_x
 _atom_site_fract_y
 _atom_site_fract_z
 _atom_site_occupancy
  K  K0  1  0.199363  0.691210  0.395158  1
  K  K1  1  0.801330  0.197571  0.604828  1
  K  K2  1  0.302592  0.693048  0.893754  1
  K  K3  1  0.699396  0.190349  0.104739  1
  K  K4  1  0.774989  0.946722  0.381232  1
  K  K5  1  0.225833  0.450178  0.615759  1
  K  K6  1  0.724531  0.947344  0.884161  1
  K  K7  1  0.276585  0.447039  0.117604  1
  Mn  Mn8  1  0.007429  0.749295  0.114423  1
  Mn  Mn9  1  0.994536  0.249371  0.884323  1
  Mn  Mn10  1  0.496791  0.752402  0.615234  1
  Mn  Mn11  1  0.490603  0.245078  0.385253  1
  Mn  Mn12  1  0.753058  0.499392  0.253673  1
  Mn  Mn13  1  0.249533  0.000942  0.749087  1
  Mn  Mn14  1  0.750271  0.501366  0.751308  1
  Cr  Cr15  1  0.254735  0.998493  0.247449  1
  P  P16  1  0.667464  0.499595  0.499836  1
  P  P17  1  0.327191  0.998779  0.500845  1
  P  P18  1  0.831713  0.494616  0.998682  1
  P  P19  1  0.168267  0.995105  0.001423  1
  P  P20  1  0.507615  0.747157  0.181270  1
  P  P21  1  0.493133  0.250881  0.819871  1
  P  P22  1  0.994321  0.752073  0.680321  1
  P  P23  1  0.999991  0.247528  0.319049  1
  O  O24  1  0.038015  0.870409  0.009114  1
  O  O25  1  0.306080  0.278158  0.890180  1
  O  O26  1  0.807566  0.781910  0.610810  1
  O  O27  1  0.186267  0.273200  0.392446  1
  O  O28  1  0.318403  0.718317  0.110089  1
  O  O29  1  0.682808  0.218608  0.888766  1
  O  O30  1  0.183851  0.721298  0.610782  1
  O  O31  1  0.807217  0.216408  0.386366  1
  O  O32  1  0.513087  0.609023  0.508183  1
  O  O33  1  0.484946  0.108128  0.484472  1
  O  O34  1  0.992464  0.599187  0.010136  1
  O  O35  1  0.008055  0.100121  0.989938  1
  O  O36  1  0.540888  0.377771  0.494880  1
  O  O37  1  0.467437  0.880106  0.513021  1
  O  O38  1  0.961117  0.370180  0.989447  1
  O  O39  1  0.697530  0.775591  0.112544  1
  O  O40  1  0.812190  0.517329  0.403820  1
  O  O41  1  0.189442  0.021129  0.596363  1
  O  O42  1  0.688103  0.514963  0.904054  1
  O  O43  1  0.455263  0.855212  0.256766  1
  O  O44  1  0.810770  0.490122  0.597280  1
  O  O45  1  0.192868  0.980375  0.403271  1
  O  O46  1  0.696040  0.478751  0.097820  1
  O  O47  1  0.305860  0.980763  0.903276  1
  O  O48  1  0.047450  0.138634  0.243887  1
  O  O49  1  0.949582  0.640372  0.755794  1
  O  O50  1  0.448468  0.138660  0.744827  1
  O  O51  1  0.545546  0.631195  0.253321  1
  O  O52  1  0.954184  0.362616  0.247523  1
  O  O53  1  0.049528  0.862702  0.755032  1
  O  O54  1  0.547538  0.362001  0.745601  1
  O  O55  1  0.311724  0.012842  0.095635  1
  F  F56  1  0.025213  0.881469  0.234039  1
  F  F57  1  0.987662  0.372824  0.761993  1
  F  F58  1  0.488297  0.874428  0.737361  1
  F  F59  1  0.511891  0.361492  0.272330  1
  F  F60  1  0.490197  0.108980  0.266043  1
  F  F61  1  0.505645  0.627931  0.721900  1
  F  F62  1  0.004624  0.126037  0.776797  1
  F  F63  1  0.994914  0.629226  0.224811  1
