# generated using pymatgen
data_Tc7P4Rh
_symmetry_space_group_name_H-M   'P 1'
_cell_length_a   3.95963300
_cell_length_b   5.97023757
_cell_length_c   6.93396408
_cell_angle_alpha   90.43115849
_cell_angle_beta   90.00000000
_cell_angle_gamma   90.00000000
_symmetry_Int_Tables_number   1
_chemical_formula_structural   Tc7P4Rh
_chemical_formula_sum   'Tc7 P4 Rh1'
_cell_volume   163.91392104
_cell_formula_units_Z   1
loop_
 _symmetry_equiv_pos_site_id
 _symmetry_equiv_pos_as_xyz
  1  'x, y, z'
loop_
 _atom_site_type_symbol
 _atom_site_label
 _atom_site_symmetry_multiplicity
 _atom_site_fract_x
 _atom_site_fract_y
 _atom_site_fract_z
 _atom_site_occupancy
  Tc  Tc0  1  0.750000  0.015333  0.662275  1
  Tc  Tc1  1  0.250000  0.974468  0.340101  1
  Tc  Tc2  1  0.750000  0.519460  0.831017  1
  Tc  Tc3  1  0.250000  0.486178  0.164559  1
  Tc  Tc4  1  0.250000  0.355810  0.568688  1
  Tc  Tc5  1  0.750000  0.639225  0.424674  1
  Tc  Tc6  1  0.250000  0.866356  0.927518  1
  P  P7  1  0.250000  0.747583  0.611407  1
  P  P8  1  0.750000  0.245755  0.395069  1
  P  P9  1  0.250000  0.255839  0.889829  1
  P  P10  1  0.750000  0.749716  0.105794  1
  Rh  Rh11  1  0.750000  0.144277  0.079069  1
