# generated using pymatgen
data_SrCo(P4Os)3
_symmetry_space_group_name_H-M   'P 1'
_cell_length_a   6.97672718
_cell_length_b   6.97672677
_cell_length_c   7.02537200
_cell_angle_alpha   109.61252805
_cell_angle_beta   109.61252684
_cell_angle_gamma   109.32954674
_symmetry_Int_Tables_number   1
_chemical_formula_structural   SrCo(P4Os)3
_chemical_formula_sum   'Sr1 Co1 P12 Os3'
_cell_volume   262.77892658
_cell_formula_units_Z   1
loop_
 _symmetry_equiv_pos_site_id
 _symmetry_equiv_pos_as_xyz
  1  'x, y, z'
loop_
 _atom_site_type_symbol
 _atom_site_label
 _atom_site_symmetry_multiplicity
 _atom_site_fract_x
 _atom_site_fract_y
 _atom_site_fract_z
 _atom_site_occupancy
  Sr  Sr0  1  0.000000  0.000000  0.000000  1
  Co  Co1  1  0.000000  0.000000  0.500000  1
  P  P2  1  0.350516  0.210064  0.849203  1
  P  P3  1  0.649484  0.789936  0.150797  1
  P  P4  1  0.640330  0.497816  0.856660  1
  P  P5  1  0.359670  0.502184  0.143340  1
  P  P6  1  0.210064  0.859548  0.360861  1
  P  P7  1  0.789936  0.140452  0.639139  1
  P  P8  1  0.497816  0.857487  0.641156  1
  P  P9  1  0.502184  0.142513  0.358844  1
  P  P10  1  0.857487  0.359670  0.216330  1
  P  P11  1  0.142513  0.640330  0.783670  1
  P  P12  1  0.859548  0.649484  0.498686  1
  P  P13  1  0.140452  0.350516  0.501314  1
  Os  Os14  1  0.500000  0.000000  0.000000  1
  Os  Os15  1  0.000000  0.500000  0.000000  1
  Os  Os16  1  0.500000  0.500000  0.500000  1
