# generated using pymatgen
data_Rb2MgSiSe4
_symmetry_space_group_name_H-M   'P 1'
_cell_length_a   13.99360915
_cell_length_b   12.41903707
_cell_length_c   7.82509362
_cell_angle_alpha   84.19938204
_cell_angle_beta   61.99843982
_cell_angle_gamma   33.80218203
_symmetry_Int_Tables_number   1
_chemical_formula_structural   Rb2MgSiSe4
_chemical_formula_sum   'Rb4 Mg2 Si2 Se8'
_cell_volume   540.06834332
_cell_formula_units_Z   2
loop_
 _symmetry_equiv_pos_site_id
 _symmetry_equiv_pos_as_xyz
  1  'x, y, z'
loop_
 _atom_site_type_symbol
 _atom_site_label
 _atom_site_symmetry_multiplicity
 _atom_site_fract_x
 _atom_site_fract_y
 _atom_site_fract_z
 _atom_site_occupancy
  Rb  Rb0  1  0.681110  0.681110  0.318890  1
  Rb  Rb1  1  0.318890  0.318890  0.681110  1
  Rb  Rb2  1  0.568890  0.568890  0.931110  1
  Rb  Rb3  1  0.931110  0.931110  0.568890  1
  Mg  Mg4  1  0.000000  0.000000  0.000000  1
  Mg  Mg5  1  0.250000  0.250000  0.250000  1
  Si  Si6  1  0.500000  0.500000  0.500000  1
  Si  Si7  1  0.750000  0.750000  0.750000  1
  Se  Se8  1  0.386464  0.005066  0.926853  1
  Se  Se9  1  0.681616  0.926853  0.005066  1
  Se  Se10  1  0.926853  0.681616  0.386464  1
  Se  Se11  1  0.005066  0.386464  0.681616  1
  Se  Se12  1  0.863536  0.244934  0.323147  1
  Se  Se13  1  0.568384  0.323147  0.244934  1
  Se  Se14  1  0.323147  0.568384  0.863536  1
  Se  Se15  1  0.244934  0.863536  0.568384  1
