# generated using pymatgen
data_Sc2Ga8Fe9
_symmetry_space_group_name_H-M   'P 1'
_cell_length_a   6.50407751
_cell_length_b   6.51429791
_cell_length_c   6.50633966
_cell_angle_alpha   83.78573253
_cell_angle_beta   96.55465415
_cell_angle_gamma   96.22064537
_symmetry_Int_Tables_number   1
_chemical_formula_structural   Sc2Ga8Fe9
_chemical_formula_sum   'Sc2 Ga8 Fe9'
_cell_volume   270.96988090
_cell_formula_units_Z   1
loop_
 _symmetry_equiv_pos_site_id
 _symmetry_equiv_pos_as_xyz
  1  'x, y, z'
loop_
 _atom_site_type_symbol
 _atom_site_label
 _atom_site_symmetry_multiplicity
 _atom_site_fract_x
 _atom_site_fract_y
 _atom_site_fract_z
 _atom_site_occupancy
  Sc  Sc0  1  0.628538  0.371397  0.371401  1
  Sc  Sc1  1  0.371384  0.628517  0.628600  1
  Ga  Ga2  1  0.325040  0.325153  0.000004  1
  Ga  Ga3  1  0.674916  0.674829  0.000024  1
  Ga  Ga4  1  0.863885  0.136256  0.136087  1
  Ga  Ga5  1  0.325007  0.999942  0.324981  1
  Ga  Ga6  1  0.000026  0.674886  0.325035  1
  Ga  Ga7  1  0.675021  0.000036  0.674965  1
  Ga  Ga8  1  0.999944  0.325102  0.674993  1
  Ga  Ga9  1  0.136158  0.863778  0.863916  1
  Fe  Fe10  1  0.500027  0.000011  0.000025  1
  Fe  Fe11  1  0.000010  0.500007  0.999975  1
  Fe  Fe12  1  0.337536  0.662346  0.168880  1
  Fe  Fe13  1  0.168879  0.337686  0.337481  1
  Fe  Fe14  1  0.662426  0.831176  0.337540  1
  Fe  Fe15  1  0.999994  0.000001  0.499985  1
  Fe  Fe16  1  0.337595  0.168878  0.662467  1
  Fe  Fe17  1  0.831122  0.662321  0.662494  1
  Fe  Fe18  1  0.662495  0.337675  0.831147  1
