# generated using pymatgen
data_TaTi4Nb7(BOs)12
_symmetry_space_group_name_H-M   'P 1'
_cell_length_a   3.10227700
_cell_length_b   9.04875733
_cell_length_c   15.70045839
_cell_angle_alpha   89.97163272
_cell_angle_beta   90.00000000
_cell_angle_gamma   90.00000000
_symmetry_Int_Tables_number   1
_chemical_formula_structural   TaTi4Nb7(BOs)12
_chemical_formula_sum   'Ta1 Ti4 Nb7 B12 Os12'
_cell_volume   440.73931641
_cell_formula_units_Z   1
loop_
 _symmetry_equiv_pos_site_id
 _symmetry_equiv_pos_as_xyz
  1  'x, y, z'
loop_
 _atom_site_type_symbol
 _atom_site_label
 _atom_site_symmetry_multiplicity
 _atom_site_fract_x
 _atom_site_fract_y
 _atom_site_fract_z
 _atom_site_occupancy
  Ta  Ta0  1  0.000000  0.799118  0.496476  1
  Ti  Ti1  1  0.000000  0.198925  0.506109  1
  Ti  Ti2  1  0.000000  0.304756  0.005224  1
  Ti  Ti3  1  0.000000  0.695820  0.993094  1
  Ti  Ti4  1  0.000000  0.513410  0.595183  1
  Nb  Nb5  1  0.000000  0.481809  0.407484  1
  Nb  Nb6  1  0.000000  0.017378  0.906085  1
  Nb  Nb7  1  0.000000  0.982771  0.092903  1
  Nb  Nb8  1  0.000000  0.687827  0.201789  1
  Nb  Nb9  1  0.000000  0.314482  0.795890  1
  Nb  Nb10  1  0.000000  0.188485  0.296341  1
  Nb  Nb11  1  0.000000  0.814083  0.703413  1
  B  B12  1  0.500000  0.601787  0.499049  1
  B  B13  1  0.500000  0.392463  0.506896  1
  B  B14  1  0.500000  0.111062  0.004002  1
  B  B15  1  0.500000  0.889324  0.994952  1
  B  B16  1  0.000000  0.606681  0.832938  1
  B  B17  1  0.000000  0.393045  0.163965  1
  B  B18  1  0.000000  0.113921  0.665457  1
  B  B19  1  0.000000  0.893539  0.334827  1
  B  B20  1  0.500000  0.708433  0.600416  1
  B  B21  1  0.500000  0.280917  0.404470  1
  B  B22  1  0.500000  0.219970  0.903625  1
  B  B23  1  0.500000  0.780318  0.094685  1
  Os  Os24  1  0.500000  0.718558  0.357714  1
  Os  Os25  1  0.500000  0.283558  0.640930  1
  Os  Os26  1  0.500000  0.219522  0.141534  1
  Os  Os27  1  0.500000  0.780841  0.857574  1
  Os  Os28  1  0.500000  0.519038  0.091705  1
  Os  Os29  1  0.500000  0.481734  0.906484  1
  Os  Os30  1  0.500000  0.019506  0.408079  1
  Os  Os31  1  0.500000  0.982592  0.593530  1
  Os  Os32  1  0.500000  0.563449  0.732349  1
  Os  Os33  1  0.500000  0.438530  0.264944  1
  Os  Os34  1  0.500000  0.063843  0.764721  1
  Os  Os35  1  0.500000  0.938508  0.235165  1
