# generated using pymatgen
data_Pr4Y6Ga5Si3
_symmetry_space_group_name_H-M   'P 1'
_cell_length_a   7.63109484
_cell_length_b   7.99862133
_cell_length_c   15.17233126
_cell_angle_alpha   89.95804743
_cell_angle_beta   90.11970905
_cell_angle_gamma   90.16119852
_symmetry_Int_Tables_number   1
_chemical_formula_structural   Pr4Y6Ga5Si3
_chemical_formula_sum   'Pr8 Y12 Ga10 Si6'
_cell_volume   926.08643448
_cell_formula_units_Z   2
loop_
 _symmetry_equiv_pos_site_id
 _symmetry_equiv_pos_as_xyz
  1  'x, y, z'
loop_
 _atom_site_type_symbol
 _atom_site_label
 _atom_site_symmetry_multiplicity
 _atom_site_fract_x
 _atom_site_fract_y
 _atom_site_fract_z
 _atom_site_occupancy
  Pr  Pr0  1  0.023172  0.179741  0.403877  1
  Pr  Pr1  1  0.522853  0.319860  0.404427  1
  Pr  Pr2  1  0.480976  0.678964  0.905832  1
  Pr  Pr3  1  0.479470  0.681681  0.593286  1
  Pr  Pr4  1  0.977755  0.816429  0.593509  1
  Pr  Pr5  1  0.976981  0.821298  0.905665  1
  Pr  Pr6  1  0.521303  0.317463  0.097181  1
  Pr  Pr7  1  0.021198  0.182335  0.097059  1
  Y  Y8  1  0.321101  0.175385  0.620512  1
  Y  Y9  1  0.679220  0.822768  0.378166  1
  Y  Y10  1  0.656791  0.981331  0.751618  1
  Y  Y11  1  0.178934  0.677536  0.377939  1
  Y  Y12  1  0.818720  0.323732  0.878538  1
  Y  Y13  1  0.819695  0.326362  0.621065  1
  Y  Y14  1  0.845294  0.482508  0.250930  1
  Y  Y15  1  0.346503  0.017113  0.251396  1
  Y  Y16  1  0.323444  0.177115  0.877625  1
  Y  Y17  1  0.178201  0.673313  0.123179  1
  Y  Y18  1  0.678744  0.826812  0.122428  1
  Y  Y19  1  0.153376  0.514799  0.750624  1
  Ga  Ga20  1  0.268860  0.879115  0.749242  1
  Ga  Ga21  1  0.473489  0.608240  0.251454  1
  Ga  Ga22  1  0.025069  0.112936  0.748642  1
  Ga  Ga23  1  0.525824  0.393215  0.748965  1
  Ga  Ga24  1  0.149706  0.469358  0.539794  1
  Ga  Ga25  1  0.973497  0.892204  0.250608  1
  Ga  Ga26  1  0.847566  0.530808  0.042412  1
  Ga  Ga27  1  0.348871  0.968614  0.041368  1
  Ga  Ga28  1  0.151415  0.469640  0.958290  1
  Ga  Ga29  1  0.650967  0.031808  0.539929  1
  Si  Si30  1  0.729505  0.117887  0.250932  1
  Si  Si31  1  0.351889  0.970250  0.457262  1
  Si  Si32  1  0.852402  0.529377  0.456734  1
  Si  Si33  1  0.769797  0.617620  0.749128  1
  Si  Si34  1  0.229714  0.381544  0.251229  1
  Si  Si35  1  0.647698  0.030841  0.959154  1
