# generated using pymatgen
data_Er4Tc3IrF28
_symmetry_space_group_name_H-M   'P 1'
_cell_length_a   5.59109010
_cell_length_b   8.84416904
_cell_length_c   11.90065175
_cell_angle_alpha   62.90722351
_cell_angle_beta   90.01603611
_cell_angle_gamma   90.01859477
_symmetry_Int_Tables_number   1
_chemical_formula_structural   Er4Tc3IrF28
_chemical_formula_sum   'Er4 Tc3 Ir1 F28'
_cell_volume   523.89722223
_cell_formula_units_Z   1
loop_
 _symmetry_equiv_pos_site_id
 _symmetry_equiv_pos_as_xyz
  1  'x, y, z'
loop_
 _atom_site_type_symbol
 _atom_site_label
 _atom_site_symmetry_multiplicity
 _atom_site_fract_x
 _atom_site_fract_y
 _atom_site_fract_z
 _atom_site_occupancy
  Er  Er0  1  0.759115  0.813011  0.766190  1
  Er  Er1  1  0.262363  0.185946  0.733910  1
  Er  Er2  1  0.237668  0.186317  0.236836  1
  Er  Er3  1  0.739964  0.815512  0.264805  1
  Tc  Tc4  1  0.758197  0.272860  0.956674  1
  Tc  Tc5  1  0.256984  0.726560  0.543447  1
  Tc  Tc6  1  0.243138  0.726980  0.043986  1
  Ir  Ir7  1  0.740942  0.272643  0.456062  1
  F  F8  1  0.450641  0.706529  0.919072  1
  F  F9  1  0.936593  0.294977  0.582513  1
  F  F10  1  0.549096  0.293410  0.080599  1
  F  F11  1  0.047765  0.706057  0.419158  1
  F  F12  1  0.440602  0.277894  0.546800  1
  F  F13  1  0.951446  0.720825  0.952559  1
  F  F14  1  0.548267  0.718699  0.452428  1
  F  F15  1  0.048639  0.278889  0.048858  1
  F  F16  1  0.772368  0.521506  0.858167  1
  F  F17  1  0.266873  0.478353  0.642150  1
  F  F18  1  0.232196  0.478818  0.141485  1
  F  F19  1  0.728371  0.518831  0.357506  1
  F  F20  1  0.756632  0.025323  0.053391  1
  F  F21  1  0.258836  0.974031  0.447186  1
  F  F22  1  0.244768  0.974254  0.946945  1
  F  F23  1  0.746854  0.026615  0.550077  1
  F  F24  1  0.977424  0.731473  0.641691  1
  F  F25  1  0.479693  0.269936  0.857042  1
  F  F26  1  0.032113  0.273308  0.358511  1
  F  F27  1  0.523055  0.729946  0.142734  1
  F  F28  1  0.040646  0.746989  0.172445  1
  F  F29  1  0.548822  0.252610  0.326143  1
  F  F30  1  0.961854  0.252490  0.828709  1
  F  F31  1  0.460962  0.747342  0.671332  1
  F  F32  1  0.422305  0.973338  0.233465  1
  F  F33  1  0.921967  0.026969  0.268099  1
  F  F34  1  0.578021  0.026384  0.767193  1
  F  F35  1  0.074818  0.974378  0.731833  1
