# generated using pymatgen
data_Tb3YAl17CuPd6
_symmetry_space_group_name_H-M   'P 1'
_cell_length_a   7.60548014
_cell_length_b   7.60554251
_cell_length_c   9.46889800
_cell_angle_alpha   90.00000000
_cell_angle_beta   90.00000000
_cell_angle_gamma   119.03168014
_symmetry_Int_Tables_number   1
_chemical_formula_structural   Tb3YAl17CuPd6
_chemical_formula_sum   'Tb3 Y1 Al17 Cu1 Pd6'
_cell_volume   478.89724443
_cell_formula_units_Z   1
loop_
 _symmetry_equiv_pos_site_id
 _symmetry_equiv_pos_as_xyz
  1  'x, y, z'
loop_
 _atom_site_type_symbol
 _atom_site_label
 _atom_site_symmetry_multiplicity
 _atom_site_fract_x
 _atom_site_fract_y
 _atom_site_fract_z
 _atom_site_occupancy
  Tb  Tb0  1  0.991508  0.670196  0.250000  1
  Tb  Tb1  1  0.006427  0.329221  0.750000  1
  Tb  Tb2  1  0.670195  0.991505  0.250000  1
  Y  Y3  1  0.329226  0.006428  0.750000  1
  Al  Al4  1  0.866790  0.866797  0.750000  1
  Al  Al5  1  0.003784  0.327104  0.083615  1
  Al  Al6  1  0.999495  0.663629  0.923428  1
  Al  Al7  1  0.999495  0.663629  0.576572  1
  Al  Al8  1  0.327101  0.003778  0.416383  1
  Al  Al9  1  0.003784  0.327104  0.416385  1
  Al  Al10  1  0.663605  0.999484  0.576572  1
  Al  Al11  1  0.663605  0.999484  0.923428  1
  Al  Al12  1  0.327101  0.003778  0.083617  1
  Al  Al13  1  0.332945  0.332937  0.551082  1
  Al  Al14  1  0.666708  0.666708  0.442330  1
  Al  Al15  1  0.666708  0.666708  0.057670  1
  Al  Al16  1  0.332945  0.332937  0.948918  1
  Al  Al17  1  0.337946  0.543813  0.250000  1
  Al  Al18  1  0.659986  0.450959  0.750000  1
  Al  Al19  1  0.543810  0.337942  0.250000  1
  Al  Al20  1  0.450953  0.659969  0.750000  1
  Cu  Cu21  1  0.155868  0.155867  0.250000  1
  Pd  Pd22  1  0.674614  0.328079  0.000491  1
  Pd  Pd23  1  0.328096  0.674653  0.000493  1
  Pd  Pd24  1  0.328096  0.674653  0.499507  1
  Pd  Pd25  1  0.674614  0.328079  0.499509  1
  Pd  Pd26  1  0.997299  0.997281  0.994384  1
  Pd  Pd27  1  0.997299  0.997281  0.505616  1
