# generated using pymatgen
data_HoLu11(OsRh)2
_symmetry_space_group_name_H-M   'P 1'
_cell_length_a   7.20396812
_cell_length_b   8.91469500
_cell_length_c   6.24145610
_cell_angle_alpha   90.00000000
_cell_angle_beta   89.97913562
_cell_angle_gamma   90.00000000
_symmetry_Int_Tables_number   1
_chemical_formula_structural   HoLu11(OsRh)2
_chemical_formula_sum   'Ho1 Lu11 Os2 Rh2'
_cell_volume   400.83364041
_cell_formula_units_Z   1
loop_
 _symmetry_equiv_pos_site_id
 _symmetry_equiv_pos_as_xyz
  1  'x, y, z'
loop_
 _atom_site_type_symbol
 _atom_site_label
 _atom_site_symmetry_multiplicity
 _atom_site_fract_x
 _atom_site_fract_y
 _atom_site_fract_z
 _atom_site_occupancy
  Ho  Ho0  1  0.538080  0.250000  0.874152  1
  Lu  Lu1  1  0.676355  0.057451  0.333668  1
  Lu  Lu2  1  0.176036  0.442285  0.167715  1
  Lu  Lu3  1  0.321438  0.565814  0.674387  1
  Lu  Lu4  1  0.822413  0.934339  0.824869  1
  Lu  Lu5  1  0.321438  0.934186  0.674387  1
  Lu  Lu6  1  0.822413  0.565661  0.824869  1
  Lu  Lu7  1  0.676355  0.442549  0.333668  1
  Lu  Lu8  1  0.176036  0.057715  0.167715  1
  Lu  Lu9  1  0.037605  0.250000  0.626099  1
  Lu  Lu10  1  0.464623  0.750000  0.123215  1
  Lu  Lu11  1  0.964874  0.750000  0.376321  1
  Os  Os12  1  0.114585  0.750000  0.965665  1
  Os  Os13  1  0.614757  0.750000  0.534439  1
  Rh  Rh14  1  0.888371  0.250000  0.042403  1
  Rh  Rh15  1  0.384620  0.250000  0.456431  1
