# generated using pymatgen
data_Nb4FeSiH2
_symmetry_space_group_name_H-M   'P 1'
_cell_length_a   5.13128496
_cell_length_b   5.13128340
_cell_length_c   5.13128435
_cell_angle_alpha   104.82209840
_cell_angle_beta   104.82210261
_cell_angle_gamma   119.23301398
_symmetry_Int_Tables_number   1
_chemical_formula_structural   Nb4FeSiH2
_chemical_formula_sum   'Nb4 Fe1 Si1 H2'
_cell_volume   101.70753887
_cell_formula_units_Z   1
loop_
 _symmetry_equiv_pos_site_id
 _symmetry_equiv_pos_as_xyz
  1  'x, y, z'
loop_
 _atom_site_type_symbol
 _atom_site_label
 _atom_site_symmetry_multiplicity
 _atom_site_fract_x
 _atom_site_fract_y
 _atom_site_fract_z
 _atom_site_occupancy
  Nb  Nb0  1  0.167402  0.667402  0.834804  1
  Nb  Nb1  1  0.832598  0.332598  0.165196  1
  Nb  Nb2  1  0.332598  0.167402  0.500000  1
  Nb  Nb3  1  0.667402  0.832598  0.500000  1
  Fe  Fe4  1  0.250000  0.250000  0.000000  1
  Si  Si5  1  0.750000  0.750000  0.000000  1
  H  H6  1  0.750000  0.250000  0.500000  1
  H  H7  1  0.250000  0.750000  0.500000  1
