# generated using pymatgen
data_CdB2PdPt6
_symmetry_space_group_name_H-M   'P 1'
_cell_length_a   5.57340500
_cell_length_b   5.57340584
_cell_length_c   5.55412400
_cell_angle_alpha   90.00000000
_cell_angle_beta   90.00000000
_cell_angle_gamma   120.00000093
_symmetry_Int_Tables_number   1
_chemical_formula_structural   CdB2PdPt6
_chemical_formula_sum   'Cd1 B2 Pd1 Pt6'
_cell_volume   149.41268509
_cell_formula_units_Z   1
loop_
 _symmetry_equiv_pos_site_id
 _symmetry_equiv_pos_as_xyz
  1  'x, y, z'
loop_
 _atom_site_type_symbol
 _atom_site_label
 _atom_site_symmetry_multiplicity
 _atom_site_fract_x
 _atom_site_fract_y
 _atom_site_fract_z
 _atom_site_occupancy
  Cd  Cd0  1  0.000000  0.000000  0.000000  1
  B  B1  1  0.666667  0.333333  0.500000  1
  B  B2  1  0.333333  0.666667  0.500000  1
  Pd  Pd3  1  0.000000  0.000000  0.500000  1
  Pt  Pt4  1  0.500000  0.500000  0.755991  1
  Pt  Pt5  1  0.000000  0.500000  0.755991  1
  Pt  Pt6  1  0.500000  0.000000  0.755991  1
  Pt  Pt7  1  0.000000  0.500000  0.244009  1
  Pt  Pt8  1  0.500000  0.500000  0.244009  1
  Pt  Pt9  1  0.500000  0.000000  0.244009  1
