# generated using pymatgen
data_Tb13Ho3MgHg3Ru4
_symmetry_space_group_name_H-M   'P 1'
_cell_length_a   9.64068639
_cell_length_b   9.62587058
_cell_length_c   9.62587200
_cell_angle_alpha   59.99999513
_cell_angle_beta   60.05081905
_cell_angle_gamma   60.05082607
_symmetry_Int_Tables_number   1
_chemical_formula_structural   Tb13Ho3MgHg3Ru4
_chemical_formula_sum   'Tb13 Ho3 Mg1 Hg3 Ru4'
_cell_volume   632.12975445
_cell_formula_units_Z   1
loop_
 _symmetry_equiv_pos_site_id
 _symmetry_equiv_pos_as_xyz
  1  'x, y, z'
loop_
 _atom_site_type_symbol
 _atom_site_label
 _atom_site_symmetry_multiplicity
 _atom_site_fract_x
 _atom_site_fract_y
 _atom_site_fract_z
 _atom_site_occupancy
  Tb  Tb0  1  0.203793  0.598736  0.598736  1
  Tb  Tb1  1  0.057810  0.441727  0.441727  1
  Tb  Tb2  1  0.438758  0.061319  0.061319  1
  Tb  Tb3  1  0.438758  0.061319  0.438604  1
  Tb  Tb4  1  0.057810  0.441727  0.058735  1
  Tb  Tb5  1  0.438758  0.438604  0.061319  1
  Tb  Tb6  1  0.057810  0.058735  0.441727  1
  Tb  Tb7  1  0.187501  0.812132  0.812132  1
  Tb  Tb8  1  0.811357  0.187879  0.187879  1
  Tb  Tb9  1  0.811357  0.187879  0.812885  1
  Tb  Tb10  1  0.187501  0.812132  0.188233  1
  Tb  Tb11  1  0.811357  0.812885  0.187879  1
  Tb  Tb12  1  0.187501  0.188233  0.812132  1
  Ho  Ho13  1  0.595701  0.594663  0.594663  1
  Ho  Ho14  1  0.595701  0.594663  0.214973  1
  Ho  Ho15  1  0.595701  0.214973  0.594663  1
  Mg  Mg16  1  0.537183  0.820939  0.820939  1
  Hg  Hg17  1  0.830752  0.835732  0.835732  1
  Hg  Hg18  1  0.830752  0.835732  0.497781  1
  Hg  Hg19  1  0.830752  0.497781  0.835732  1
  Ru  Ru20  1  0.386593  0.390112  0.390112  1
  Ru  Ru21  1  0.386593  0.390112  0.833182  1
  Ru  Ru22  1  0.386593  0.833182  0.390112  1
  Ru  Ru23  1  0.833602  0.388799  0.388799  1
