# generated using pymatgen
data_Tb4Sm2TaRuO14
_symmetry_space_group_name_H-M   'P 1'
_cell_length_a   6.49080412
_cell_length_b   6.49080407
_cell_length_c   7.56167407
_cell_angle_alpha   90.01315537
_cell_angle_beta   89.98684187
_cell_angle_gamma   109.41315930
_symmetry_Int_Tables_number   1
_chemical_formula_structural   Tb4Sm2TaRuO14
_chemical_formula_sum   'Tb4 Sm2 Ta1 Ru1 O14'
_cell_volume   300.46509394
_cell_formula_units_Z   1
loop_
 _symmetry_equiv_pos_site_id
 _symmetry_equiv_pos_as_xyz
  1  'x, y, z'
loop_
 _atom_site_type_symbol
 _atom_site_label
 _atom_site_symmetry_multiplicity
 _atom_site_fract_x
 _atom_site_fract_y
 _atom_site_fract_z
 _atom_site_occupancy
  Tb  Tb0  1  0.535517  0.999762  0.750110  1
  Tb  Tb1  1  0.999762  0.535517  0.249890  1
  Tb  Tb2  1  0.464483  0.000238  0.249890  1
  Tb  Tb3  1  0.000238  0.464483  0.750110  1
  Sm  Sm4  1  0.500000  0.500000  0.500000  1
  Sm  Sm5  1  0.500000  0.500000  0.000000  1
  Ta  Ta6  1  0.000000  0.000000  0.000000  1
  Ru  Ru7  1  0.000000  0.000000  0.500000  1
  O  O8  1  0.681817  0.929199  0.469508  1
  O  O9  1  0.929199  0.681817  0.530492  1
  O  O10  1  0.679086  0.929403  0.030924  1
  O  O11  1  0.929403  0.679086  0.969076  1
  O  O12  1  0.318183  0.070801  0.530492  1
  O  O13  1  0.070801  0.318183  0.469508  1
  O  O14  1  0.320914  0.070597  0.969076  1
  O  O15  1  0.070597  0.320914  0.030924  1
  O  O16  1  0.935285  0.064715  0.748512  1
  O  O17  1  0.064715  0.935285  0.251488  1
  O  O18  1  0.367065  0.632934  0.750094  1
  O  O19  1  0.632934  0.367065  0.249906  1
  O  O20  1  0.638714  0.361286  0.749258  1
  O  O21  1  0.361286  0.638714  0.250742  1
