# generated using pymatgen
data_SrCaH9W
_symmetry_space_group_name_H-M   'P 1'
_cell_length_a   8.80073400
_cell_length_b   8.80073295
_cell_length_c   5.07357700
_cell_angle_alpha   90.00000000
_cell_angle_beta   90.00000000
_cell_angle_gamma   120.00000396
_symmetry_Int_Tables_number   1
_chemical_formula_structural   SrCaH9W
_chemical_formula_sum   'Sr3 Ca3 H27 W3'
_cell_volume   340.31618793
_cell_formula_units_Z   3
loop_
 _symmetry_equiv_pos_site_id
 _symmetry_equiv_pos_as_xyz
  1  'x, y, z'
loop_
 _atom_site_type_symbol
 _atom_site_label
 _atom_site_symmetry_multiplicity
 _atom_site_fract_x
 _atom_site_fract_y
 _atom_site_fract_z
 _atom_site_occupancy
  Sr  Sr0  1  0.000000  0.609159  0.000000  1
  Sr  Sr1  1  0.390841  0.390841  0.000000  1
  Sr  Sr2  1  0.609159  0.000000  0.000000  1
  Ca  Ca3  1  0.000000  0.262712  0.500000  1
  Ca  Ca4  1  0.737288  0.737288  0.500000  1
  Ca  Ca5  1  0.262712  0.000000  0.500000  1
  H  H6  1  0.809558  0.330422  0.751597  1
  H  H7  1  0.669578  0.479136  0.751597  1
  H  H8  1  0.520864  0.190442  0.751597  1
  H  H9  1  0.190442  0.520864  0.248403  1
  H  H10  1  0.520864  0.190442  0.248403  1
  H  H11  1  0.809558  0.330422  0.248403  1
  H  H12  1  0.669578  0.479136  0.248403  1
  H  H13  1  0.330422  0.809558  0.751597  1
  H  H14  1  0.479136  0.669578  0.751597  1
  H  H15  1  0.205736  0.000000  0.000000  1
  H  H16  1  0.794264  0.794264  0.000000  1
  H  H17  1  0.000000  0.205736  0.000000  1
  H  H18  1  0.855165  0.000000  0.257624  1
  H  H19  1  0.144835  0.144835  0.742376  1
  H  H20  1  0.000000  0.855165  0.742376  1
  H  H21  1  0.000000  0.855165  0.257624  1
  H  H22  1  0.144835  0.144835  0.257624  1
  H  H23  1  0.855165  0.000000  0.742376  1
  H  H24  1  0.134494  0.674238  0.500000  1
  H  H25  1  0.539744  0.865506  0.500000  1
  H  H26  1  0.325762  0.460256  0.500000  1
  H  H27  1  0.460256  0.325762  0.500000  1
  H  H28  1  0.865506  0.539744  0.500000  1
  H  H29  1  0.674238  0.134494  0.500000  1
  H  H30  1  0.190442  0.520864  0.751597  1
  H  H31  1  0.330422  0.809558  0.248403  1
  H  H32  1  0.479136  0.669578  0.248403  1
  W  W33  1  0.666667  0.333333  0.500000  1
  W  W34  1  0.333333  0.666667  0.500000  1
  W  W35  1  0.000000  0.000000  0.000000  1
