# generated using pymatgen
data_Lu3FeSn3Pt2
_symmetry_space_group_name_H-M   'P 1'
_cell_length_a   7.62006320
_cell_length_b   7.61704557
_cell_length_c   3.65961600
_cell_angle_alpha   90.00000000
_cell_angle_beta   90.00000000
_cell_angle_gamma   119.98688626
_symmetry_Int_Tables_number   1
_chemical_formula_structural   Lu3FeSn3Pt2
_chemical_formula_sum   'Lu3 Fe1 Sn3 Pt2'
_cell_volume   183.97916793
_cell_formula_units_Z   1
loop_
 _symmetry_equiv_pos_site_id
 _symmetry_equiv_pos_as_xyz
  1  'x, y, z'
loop_
 _atom_site_type_symbol
 _atom_site_label
 _atom_site_symmetry_multiplicity
 _atom_site_fract_x
 _atom_site_fract_y
 _atom_site_fract_z
 _atom_site_occupancy
  Lu  Lu0  1  0.399369  0.399570  0.500000  1
  Lu  Lu1  1  0.600631  0.000201  0.500000  1
  Lu  Lu2  1  0.000000  0.600825  0.500000  1
  Fe  Fe3  1  0.000000  0.999534  0.500000  1
  Sn  Sn4  1  0.741216  0.741012  0.000000  1
  Sn  Sn5  1  0.258784  0.999796  0.000000  1
  Sn  Sn6  1  0.000000  0.257723  0.000000  1
  Pt  Pt7  1  0.667033  0.334186  0.000000  1
  Pt  Pt8  1  0.332967  0.667154  0.000000  1
