# generated using pymatgen
data_Be2Nb2Ru5W
_symmetry_space_group_name_H-M   'P 1'
_cell_length_a   9.41297000
_cell_length_b   9.41297000
_cell_length_c   3.11675300
_cell_angle_alpha   90.00000000
_cell_angle_beta   90.00000000
_cell_angle_gamma   90.00000000
_symmetry_Int_Tables_number   1
_chemical_formula_structural   Be2Nb2Ru5W
_chemical_formula_sum   'Be4 Nb4 Ru10 W2'
_cell_volume   276.15679597
_cell_formula_units_Z   2
loop_
 _symmetry_equiv_pos_site_id
 _symmetry_equiv_pos_as_xyz
  1  'x, y, z'
loop_
 _atom_site_type_symbol
 _atom_site_label
 _atom_site_symmetry_multiplicity
 _atom_site_fract_x
 _atom_site_fract_y
 _atom_site_fract_z
 _atom_site_occupancy
  Be  Be0  1  0.620892  0.879108  0.000000  1
  Be  Be1  1  0.379108  0.120892  0.000000  1
  Be  Be2  1  0.120892  0.620892  0.000000  1
  Be  Be3  1  0.879108  0.379108  0.000000  1
  Nb  Nb4  1  0.825620  0.674380  0.000000  1
  Nb  Nb5  1  0.174380  0.325620  0.000000  1
  Nb  Nb6  1  0.325620  0.825620  0.000000  1
  Nb  Nb7  1  0.674380  0.174380  0.000000  1
  Ru  Ru8  1  0.572857  0.709362  0.500000  1
  Ru  Ru9  1  0.427143  0.290638  0.500000  1
  Ru  Ru10  1  0.072857  0.790638  0.500000  1
  Ru  Ru11  1  0.927143  0.209362  0.500000  1
  Ru  Ru12  1  0.290638  0.572857  0.500000  1
  Ru  Ru13  1  0.709362  0.427143  0.500000  1
  Ru  Ru14  1  0.209362  0.072857  0.500000  1
  Ru  Ru15  1  0.790638  0.927143  0.500000  1
  Ru  Ru16  1  0.500000  0.000000  0.500000  1
  Ru  Ru17  1  0.000000  0.500000  0.500000  1
  W  W18  1  0.500000  0.500000  0.000000  1
  W  W19  1  0.000000  0.000000  0.000000  1
