# generated using pymatgen
data_TbHoV3P7Rh9
_symmetry_space_group_name_H-M   'P 1'
_cell_length_a   3.86602300
_cell_length_b   9.56603200
_cell_length_c   9.56287605
_cell_angle_alpha   120.00707762
_cell_angle_beta   89.99979785
_cell_angle_gamma   90.00057781
_symmetry_Int_Tables_number   1
_chemical_formula_structural   TbHoV3P7Rh9
_chemical_formula_sum   'Tb1 Ho1 V3 P7 Rh9'
_cell_volume   306.25588544
_cell_formula_units_Z   1
loop_
 _symmetry_equiv_pos_site_id
 _symmetry_equiv_pos_as_xyz
  1  'x, y, z'
loop_
 _atom_site_type_symbol
 _atom_site_label
 _atom_site_symmetry_multiplicity
 _atom_site_fract_x
 _atom_site_fract_y
 _atom_site_fract_z
 _atom_site_occupancy
  Tb  Tb0  1  0.261756  0.666448  0.333326  1
  Ho  Ho1  1  0.761522  0.333249  0.666511  1
  V  V2  1  0.762107  0.092631  0.876131  1
  V  V3  1  0.762076  0.124492  0.217086  1
  V  V4  1  0.762062  0.782808  0.907223  1
  P  P5  1  0.262449  0.000136  0.000155  1
  P  P6  1  0.761912  0.885013  0.596739  1
  P  P7  1  0.761901  0.403176  0.288133  1
  P  P8  1  0.761921  0.711789  0.115287  1
  P  P9  1  0.261708  0.117036  0.412457  1
  P  P10  1  0.261657  0.587467  0.704523  1
  P  P11  1  0.261691  0.295563  0.882798  1
  Rh  Rh12  1  0.261987  0.885530  0.158431  1
  Rh  Rh13  1  0.262000  0.841543  0.727190  1
  Rh  Rh14  1  0.262011  0.273223  0.114460  1
  Rh  Rh15  1  0.761860  0.612139  0.561048  1
  Rh  Rh16  1  0.761890  0.438743  0.050727  1
  Rh  Rh17  1  0.761892  0.948983  0.387848  1
  Rh  Rh18  1  0.261841  0.367619  0.437234  1
  Rh  Rh19  1  0.261879  0.562837  0.930333  1
  Rh  Rh20  1  0.261878  0.069574  0.632356  1
