# generated using pymatgen
data_Tm9Mg(Sn3Se)2
_symmetry_space_group_name_H-M   'P 1'
_cell_length_a   8.96556200
_cell_length_b   8.96556161
_cell_length_c   6.57956600
_cell_angle_alpha   90.00000000
_cell_angle_beta   90.00000000
_cell_angle_gamma   120.00000144
_symmetry_Int_Tables_number   1
_chemical_formula_structural   Tm9Mg(Sn3Se)2
_chemical_formula_sum   'Tm9 Mg1 Sn6 Se2'
_cell_volume   458.01836338
_cell_formula_units_Z   1
loop_
 _symmetry_equiv_pos_site_id
 _symmetry_equiv_pos_as_xyz
  1  'x, y, z'
loop_
 _atom_site_type_symbol
 _atom_site_label
 _atom_site_symmetry_multiplicity
 _atom_site_fract_x
 _atom_site_fract_y
 _atom_site_fract_z
 _atom_site_occupancy
  Tm  Tm0  1  0.333333  0.666667  0.000000  1
  Tm  Tm1  1  0.333333  0.666667  0.500000  1
  Tm  Tm2  1  0.666667  0.333333  0.500000  1
  Tm  Tm3  1  0.746043  0.744820  0.751819  1
  Tm  Tm4  1  0.255180  0.001223  0.751819  1
  Tm  Tm5  1  0.998777  0.253957  0.751819  1
  Tm  Tm6  1  0.255180  0.253957  0.248181  1
  Tm  Tm7  1  0.746043  0.001223  0.248181  1
  Tm  Tm8  1  0.998777  0.744820  0.248181  1
  Mg  Mg9  1  0.666667  0.333333  0.000000  1
  Sn  Sn10  1  0.397197  0.396937  0.751356  1
  Sn  Sn11  1  0.603063  0.000260  0.751356  1
  Sn  Sn12  1  0.999740  0.602803  0.751356  1
  Sn  Sn13  1  0.603063  0.602803  0.248644  1
  Sn  Sn14  1  0.397197  0.000260  0.248644  1
  Sn  Sn15  1  0.999740  0.396937  0.248644  1
  Se  Se16  1  0.000000  0.000000  0.000000  1
  Se  Se17  1  0.000000  0.000000  0.500000  1
