# generated using pymatgen
data_Sm2PaOs2
_symmetry_space_group_name_H-M   'P 1'
_cell_length_a   6.03502358
_cell_length_b   6.03502364
_cell_length_c   6.03502364
_cell_angle_alpha   138.00128950
_cell_angle_beta   123.39837978
_cell_angle_gamma   72.92536975
_symmetry_Int_Tables_number   1
_chemical_formula_structural   Sm2PaOs2
_chemical_formula_sum   'Sm2 Pa1 Os2'
_cell_volume   120.13561496
_cell_formula_units_Z   1
loop_
 _symmetry_equiv_pos_site_id
 _symmetry_equiv_pos_as_xyz
  1  'x, y, z'
loop_
 _atom_site_type_symbol
 _atom_site_label
 _atom_site_symmetry_multiplicity
 _atom_site_fract_x
 _atom_site_fract_y
 _atom_site_fract_z
 _atom_site_occupancy
  Sm  Sm0  1  0.698891  0.198891  0.500000  1
  Sm  Sm1  1  0.301109  0.801110  0.500000  1
  Pa  Pa2  1  0.000000  0.000000  0.000000  1
  Os  Os3  1  0.734413  0.500000  0.234413  1
  Os  Os4  1  0.265588  0.500000  0.765588  1
