# generated using pymatgen
data_SrLi4Dy3Si8
_symmetry_space_group_name_H-M   'P 1'
_cell_length_a   3.81317000
_cell_length_b   7.78539746
_cell_length_c   10.35897074
_cell_angle_alpha   89.40124166
_cell_angle_beta   90.00000000
_cell_angle_gamma   90.00000000
_symmetry_Int_Tables_number   1
_chemical_formula_structural   SrLi4Dy3Si8
_chemical_formula_sum   'Sr1 Li4 Dy3 Si8'
_cell_volume   307.51042823
_cell_formula_units_Z   1
loop_
 _symmetry_equiv_pos_site_id
 _symmetry_equiv_pos_as_xyz
  1  'x, y, z'
loop_
 _atom_site_type_symbol
 _atom_site_label
 _atom_site_symmetry_multiplicity
 _atom_site_fract_x
 _atom_site_fract_y
 _atom_site_fract_z
 _atom_site_occupancy
  Sr  Sr0  1  0.750000  0.360092  0.363644  1
  Li  Li1  1  0.250000  0.997671  0.393428  1
  Li  Li2  1  0.750000  0.010919  0.610094  1
  Li  Li3  1  0.250000  0.488337  0.107993  1
  Li  Li4  1  0.750000  0.509353  0.894007  1
  Dy  Dy5  1  0.250000  0.128245  0.863592  1
  Dy  Dy6  1  0.750000  0.865943  0.131828  1
  Dy  Dy7  1  0.250000  0.634504  0.636177  1
  Si  Si8  1  0.750000  0.256906  0.058786  1
  Si  Si9  1  0.250000  0.733993  0.932421  1
  Si  Si10  1  0.750000  0.777310  0.433034  1
  Si  Si11  1  0.250000  0.234464  0.579713  1
  Si  Si12  1  0.750000  0.838003  0.817439  1
  Si  Si13  1  0.250000  0.149056  0.168845  1
  Si  Si14  1  0.750000  0.341590  0.688613  1
  Si  Si15  1  0.250000  0.673615  0.320388  1
