# generated using pymatgen
data_Hf6Co4Si5P
_symmetry_space_group_name_H-M   'P 1'
_cell_length_a   3.79684400
_cell_length_b   5.32536074
_cell_length_c   12.78741200
_cell_angle_alpha   90.00000000
_cell_angle_beta   90.00000000
_cell_angle_gamma   110.88460817
_symmetry_Int_Tables_number   1
_chemical_formula_structural   Hf6Co4Si5P
_chemical_formula_sum   'Hf6 Co4 Si5 P1'
_cell_volume   241.56884360
_cell_formula_units_Z   1
loop_
 _symmetry_equiv_pos_site_id
 _symmetry_equiv_pos_as_xyz
  1  'x, y, z'
loop_
 _atom_site_type_symbol
 _atom_site_label
 _atom_site_symmetry_multiplicity
 _atom_site_fract_x
 _atom_site_fract_y
 _atom_site_fract_z
 _atom_site_occupancy
  Hf  Hf0  1  0.075185  0.150370  0.380703  1
  Hf  Hf1  1  0.925071  0.850142  0.615649  1
  Hf  Hf2  1  0.075185  0.150370  0.119297  1
  Hf  Hf3  1  0.925071  0.850142  0.884351  1
  Hf  Hf4  1  0.364821  0.729641  0.250000  1
  Hf  Hf5  1  0.634856  0.269713  0.750000  1
  Co  Co6  1  0.220832  0.441666  0.918348  1
  Co  Co7  1  0.778081  0.556161  0.085035  1
  Co  Co8  1  0.220832  0.441666  0.581652  1
  Co  Co9  1  0.778081  0.556161  0.414965  1
  Si  Si10  1  0.390494  0.780988  0.457477  1
  Si  Si11  1  0.609657  0.219315  0.541152  1
  Si  Si12  1  0.390494  0.780988  0.042523  1
  Si  Si13  1  0.609657  0.219315  0.958848  1
  Si  Si14  1  0.335384  0.670769  0.750000  1
  P  P15  1  0.666297  0.332594  0.250000  1
