# generated using pymatgen
data_Tb12Si12AgAu11
_symmetry_space_group_name_H-M   'P 1'
_cell_length_a   4.35170400
_cell_length_b   7.53971113
_cell_length_c   22.49102800
_cell_angle_alpha   90.01065408
_cell_angle_beta   90.00000000
_cell_angle_gamma   90.00000000
_symmetry_Int_Tables_number   1
_chemical_formula_structural   Tb12Si12AgAu11
_chemical_formula_sum   'Tb12 Si12 Ag1 Au11'
_cell_volume   737.94391003
_cell_formula_units_Z   1
loop_
 _symmetry_equiv_pos_site_id
 _symmetry_equiv_pos_as_xyz
  1  'x, y, z'
loop_
 _atom_site_type_symbol
 _atom_site_label
 _atom_site_symmetry_multiplicity
 _atom_site_fract_x
 _atom_site_fract_y
 _atom_site_fract_z
 _atom_site_occupancy
  Tb  Tb0  1  0.250000  0.740473  0.335712  1
  Tb  Tb1  1  0.750000  0.286261  0.666217  1
  Tb  Tb2  1  0.750000  0.242700  0.166024  1
  Tb  Tb3  1  0.250000  0.774383  0.830874  1
  Tb  Tb4  1  0.250000  0.758004  0.167619  1
  Tb  Tb5  1  0.750000  0.230644  0.831021  1
  Tb  Tb6  1  0.750000  0.259737  0.335684  1
  Tb  Tb7  1  0.250000  0.717984  0.666127  1
  Tb  Tb8  1  0.250000  0.730935  0.996601  1
  Tb  Tb9  1  0.750000  0.270903  0.998422  1
  Tb  Tb10  1  0.750000  0.228539  0.503423  1
  Tb  Tb11  1  0.250000  0.774766  0.501644  1
  Si  Si12  1  0.250000  0.082270  0.071795  1
  Si  Si13  1  0.750000  0.914179  0.910708  1
  Si  Si14  1  0.750000  0.586756  0.431556  1
  Si  Si15  1  0.250000  0.412238  0.579715  1
  Si  Si16  1  0.250000  0.085352  0.248084  1
  Si  Si17  1  0.750000  0.912806  0.735912  1
  Si  Si18  1  0.750000  0.584941  0.255599  1
  Si  Si19  1  0.250000  0.410343  0.754509  1
  Si  Si20  1  0.250000  0.087408  0.422269  1
  Si  Si21  1  0.750000  0.909388  0.597177  1
  Si  Si22  1  0.750000  0.588683  0.083147  1
  Si  Si23  1  0.250000  0.413549  0.912038  1
  Ag  Ag24  1  0.250000  0.079184  0.597787  1
  Au  Au25  1  0.250000  0.417258  0.248202  1
  Au  Au26  1  0.750000  0.583252  0.759515  1
  Au  Au27  1  0.750000  0.918817  0.256520  1
  Au  Au28  1  0.250000  0.078694  0.737613  1
  Au  Au29  1  0.250000  0.419855  0.422317  1
  Au  Au30  1  0.750000  0.582947  0.569182  1
  Au  Au31  1  0.750000  0.919447  0.080713  1
  Au  Au32  1  0.250000  0.080636  0.925205  1
  Au  Au33  1  0.250000  0.417032  0.087284  1
  Au  Au34  1  0.750000  0.580828  0.902649  1
  Au  Au35  1  0.750000  0.918807  0.411135  1
