# generated using pymatgen
data_Dy18Y2Si15Ir
_symmetry_space_group_name_H-M   'P 1'
_cell_length_a   7.44423598
_cell_length_b   7.68595423
_cell_length_c   14.60626905
_cell_angle_alpha   89.77422809
_cell_angle_beta   89.70766408
_cell_angle_gamma   90.20952494
_symmetry_Int_Tables_number   1
_chemical_formula_structural   Dy18Y2Si15Ir
_chemical_formula_sum   'Dy18 Y2 Si15 Ir1'
_cell_volume   835.69010731
_cell_formula_units_Z   1
loop_
 _symmetry_equiv_pos_site_id
 _symmetry_equiv_pos_as_xyz
  1  'x, y, z'
loop_
 _atom_site_type_symbol
 _atom_site_label
 _atom_site_symmetry_multiplicity
 _atom_site_fract_x
 _atom_site_fract_y
 _atom_site_fract_z
 _atom_site_occupancy
  Dy  Dy0  1  0.847652  0.488440  0.758868  1
  Dy  Dy1  1  0.352740  0.010715  0.752592  1
  Dy  Dy2  1  0.972835  0.814517  0.096918  1
  Dy  Dy3  1  0.471234  0.682786  0.401422  1
  Dy  Dy4  1  0.530990  0.324011  0.901409  1
  Dy  Dy5  1  0.029544  0.184721  0.599424  1
  Dy  Dy6  1  0.027646  0.186985  0.902510  1
  Dy  Dy7  1  0.530009  0.317835  0.598773  1
  Dy  Dy8  1  0.475508  0.680943  0.098413  1
  Dy  Dy9  1  0.970222  0.817096  0.400723  1
  Dy  Dy10  1  0.684102  0.811714  0.882685  1
  Dy  Dy11  1  0.178861  0.681703  0.621753  1
  Dy  Dy12  1  0.817440  0.332892  0.118836  1
  Dy  Dy13  1  0.316335  0.178099  0.376177  1
  Dy  Dy14  1  0.320298  0.178403  0.123398  1
  Dy  Dy15  1  0.819234  0.319121  0.377311  1
  Dy  Dy16  1  0.175783  0.675727  0.878463  1
  Dy  Dy17  1  0.682621  0.818923  0.622414  1
  Y  Y18  1  0.648444  0.992632  0.248488  1
  Y  Y19  1  0.147935  0.511089  0.247640  1
  Si  Si20  1  0.764065  0.628985  0.252112  1
  Si  Si21  1  0.265803  0.872628  0.250715  1
  Si  Si22  1  0.733303  0.123552  0.748201  1
  Si  Si23  1  0.235847  0.373730  0.746336  1
  Si  Si24  1  0.020273  0.104855  0.249112  1
  Si  Si25  1  0.522853  0.396820  0.251360  1
  Si  Si26  1  0.471622  0.606000  0.746006  1
  Si  Si27  1  0.977031  0.898363  0.748086  1
  Si  Si28  1  0.354376  0.971992  0.539663  1
  Si  Si29  1  0.645656  0.026753  0.042109  1
  Si  Si30  1  0.147252  0.470402  0.460089  1
  Si  Si31  1  0.155248  0.472402  0.041208  1
  Si  Si32  1  0.643870  0.028391  0.459697  1
  Si  Si33  1  0.353526  0.969311  0.961408  1
  Si  Si34  1  0.854570  0.528786  0.538721  1
  Ir  Ir35  1  0.855274  0.518676  0.956960  1
