# generated using pymatgen
data_YPu(AlB4)2
_symmetry_space_group_name_H-M   'P 1'
_cell_length_a   3.58060700
_cell_length_b   5.94709902
_cell_length_c   11.52759364
_cell_angle_alpha   90.01405319
_cell_angle_beta   90.00000000
_cell_angle_gamma   90.00000000
_symmetry_Int_Tables_number   1
_chemical_formula_structural   YPu(AlB4)2
_chemical_formula_sum   'Y2 Pu2 Al4 B16'
_cell_volume   245.47115833
_cell_formula_units_Z   2
loop_
 _symmetry_equiv_pos_site_id
 _symmetry_equiv_pos_as_xyz
  1  'x, y, z'
loop_
 _atom_site_type_symbol
 _atom_site_label
 _atom_site_symmetry_multiplicity
 _atom_site_fract_x
 _atom_site_fract_y
 _atom_site_fract_z
 _atom_site_occupancy
  Y  Y0  1  0.500000  0.128229  0.650294  1
  Y  Y1  1  0.500000  0.871771  0.349706  1
  Pu  Pu2  1  0.500000  0.370560  0.150171  1
  Pu  Pu3  1  0.500000  0.629440  0.849829  1
  Al  Al4  1  0.500000  0.362701  0.408569  1
  Al  Al5  1  0.500000  0.637299  0.591431  1
  Al  Al6  1  0.500000  0.139148  0.910191  1
  Al  Al7  1  0.500000  0.860852  0.089809  1
  B  B8  1  0.000000  0.113367  0.047144  1
  B  B9  1  0.000000  0.886633  0.952856  1
  B  B10  1  0.000000  0.385947  0.546126  1
  B  B11  1  0.000000  0.614053  0.453874  1
  B  B12  1  0.000000  0.133568  0.468895  1
  B  B13  1  0.000000  0.866432  0.531105  1
  B  B14  1  0.000000  0.366788  0.968626  1
  B  B15  1  0.000000  0.633212  0.031374  1
  B  B16  1  0.000000  0.027944  0.192499  1
  B  B17  1  0.000000  0.972056  0.807501  1
  B  B18  1  0.000000  0.473316  0.692607  1
  B  B19  1  0.000000  0.526684  0.307393  1
  B  B20  1  0.000000  0.211737  0.312133  1
  B  B21  1  0.000000  0.788263  0.687867  1
  B  B22  1  0.000000  0.290344  0.812574  1
  B  B23  1  0.000000  0.709656  0.187426  1
