# generated using pymatgen
data_Tb3U(Rh2Pb)2
_symmetry_space_group_name_H-M   'P 1'
_cell_length_a   7.80711741
_cell_length_b   7.80711818
_cell_length_c   3.59760200
_cell_angle_alpha   90.00000000
_cell_angle_beta   90.00000000
_cell_angle_gamma   86.87250512
_symmetry_Int_Tables_number   1
_chemical_formula_structural   Tb3U(Rh2Pb)2
_chemical_formula_sum   'Tb3 U1 Rh4 Pb2'
_cell_volume   218.95116580
_cell_formula_units_Z   1
loop_
 _symmetry_equiv_pos_site_id
 _symmetry_equiv_pos_as_xyz
  1  'x, y, z'
loop_
 _atom_site_type_symbol
 _atom_site_label
 _atom_site_symmetry_multiplicity
 _atom_site_fract_x
 _atom_site_fract_y
 _atom_site_fract_z
 _atom_site_occupancy
  Tb  Tb0  1  0.174555  0.325445  0.500000  1
  Tb  Tb1  1  0.663454  0.171521  0.500000  1
  Tb  Tb2  1  0.328479  0.836546  0.500000  1
  U  U3  1  0.836703  0.663297  0.500000  1
  Rh  Rh4  1  0.386673  0.113327  0.000000  1
  Rh  Rh5  1  0.658671  0.841329  0.000000  1
  Rh  Rh6  1  0.859985  0.396204  0.000000  1
  Rh  Rh7  1  0.103796  0.640015  0.000000  1
  Pb  Pb8  1  0.490243  0.502560  0.000000  1
  Pb  Pb9  1  0.997440  0.009757  0.000000  1
