# generated using pymatgen
data_Ca2In2AgPd
_symmetry_space_group_name_H-M   'P 1'
_cell_length_a   4.37815600
_cell_length_b   7.54982443
_cell_length_c   8.81272070
_cell_angle_alpha   90.56850722
_cell_angle_beta   90.00000000
_cell_angle_gamma   90.00000000
_symmetry_Int_Tables_number   1
_chemical_formula_structural   Ca2In2AgPd
_chemical_formula_sum   'Ca4 In4 Ag2 Pd2'
_cell_volume   291.28405475
_cell_formula_units_Z   2
loop_
 _symmetry_equiv_pos_site_id
 _symmetry_equiv_pos_as_xyz
  1  'x, y, z'
loop_
 _atom_site_type_symbol
 _atom_site_label
 _atom_site_symmetry_multiplicity
 _atom_site_fract_x
 _atom_site_fract_y
 _atom_site_fract_z
 _atom_site_occupancy
  Ca  Ca0  1  0.750000  0.036433  0.311395  1
  Ca  Ca1  1  0.250000  0.472328  0.827847  1
  Ca  Ca2  1  0.750000  0.527672  0.172153  1
  Ca  Ca3  1  0.250000  0.963567  0.688605  1
  In  In4  1  0.250000  0.853710  0.056070  1
  In  In5  1  0.250000  0.350188  0.431992  1
  In  In6  1  0.750000  0.649812  0.568008  1
  In  In7  1  0.750000  0.146290  0.943930  1
  Ag  Ag8  1  0.250000  0.734454  0.368376  1
  Ag  Ag9  1  0.750000  0.265546  0.631624  1
  Pd  Pd10  1  0.750000  0.768405  0.870694  1
  Pd  Pd11  1  0.250000  0.231595  0.129306  1
