# generated using pymatgen
data_Tm4VFeOs6
_symmetry_space_group_name_H-M   'P 1'
_cell_length_a   5.36784634
_cell_length_b   5.17119225
_cell_length_c   8.75954400
_cell_angle_alpha   90.00000000
_cell_angle_beta   90.00000000
_cell_angle_gamma   121.30383083
_symmetry_Int_Tables_number   1
_chemical_formula_structural   Tm4VFeOs6
_chemical_formula_sum   'Tm4 V1 Fe1 Os6'
_cell_volume   207.75225357
_cell_formula_units_Z   1
loop_
 _symmetry_equiv_pos_site_id
 _symmetry_equiv_pos_as_xyz
  1  'x, y, z'
loop_
 _atom_site_type_symbol
 _atom_site_label
 _atom_site_symmetry_multiplicity
 _atom_site_fract_x
 _atom_site_fract_y
 _atom_site_fract_z
 _atom_site_occupancy
  Tm  Tm0  1  0.670722  0.341762  0.562370  1
  Tm  Tm1  1  0.330415  0.660983  0.433382  1
  Tm  Tm2  1  0.330415  0.660983  0.066618  1
  Tm  Tm3  1  0.670722  0.341762  0.937630  1
  V  V4  1  0.164948  0.330497  0.750000  1
  Fe  Fe5  1  0.833325  0.667690  0.250000  1
  Os  Os6  1  0.002852  0.005442  0.499182  1
  Os  Os7  1  0.002852  0.005442  0.000818  1
  Os  Os8  1  0.176236  0.826145  0.750000  1
  Os  Os9  1  0.651374  0.826929  0.750000  1
  Os  Os10  1  0.820746  0.166543  0.250000  1
  Os  Os11  1  0.345391  0.165821  0.250000  1
