# generated using pymatgen
data_Mg12Ga3SiPd8
_symmetry_space_group_name_H-M   'P 1'
_cell_length_a   8.43991766
_cell_length_b   8.39391935
_cell_length_c   8.43991700
_cell_angle_alpha   59.81855701
_cell_angle_beta   59.99999866
_cell_angle_gamma   59.81855290
_symmetry_Int_Tables_number   1
_chemical_formula_structural   Mg12Ga3SiPd8
_chemical_formula_sum   'Mg12 Ga3 Si1 Pd8'
_cell_volume   421.62819463
_cell_formula_units_Z   1
loop_
 _symmetry_equiv_pos_site_id
 _symmetry_equiv_pos_as_xyz
  1  'x, y, z'
loop_
 _atom_site_type_symbol
 _atom_site_label
 _atom_site_symmetry_multiplicity
 _atom_site_fract_x
 _atom_site_fract_y
 _atom_site_fract_z
 _atom_site_occupancy
  Mg  Mg0  1  0.195757  0.803892  0.195769  1
  Mg  Mg1  1  0.196521  0.195184  0.804153  1
  Mg  Mg2  1  0.195680  0.803897  0.804722  1
  Mg  Mg3  1  0.054243  0.446108  0.054231  1
  Mg  Mg4  1  0.804134  0.195185  0.196521  1
  Mg  Mg5  1  0.054320  0.446103  0.445278  1
  Mg  Mg6  1  0.445902  0.054825  0.445855  1
  Mg  Mg7  1  0.445301  0.446123  0.054307  1
  Mg  Mg8  1  0.804699  0.803877  0.195693  1
  Mg  Mg9  1  0.445866  0.054815  0.053479  1
  Mg  Mg10  1  0.804098  0.195175  0.804145  1
  Mg  Mg11  1  0.053479  0.054816  0.445847  1
  Ga  Ga12  1  0.625000  0.625000  0.625000  1
  Ga  Ga13  1  0.125000  0.625000  0.625000  1
  Ga  Ga14  1  0.625000  0.625000  0.125000  1
  Si  Si15  1  0.625000  0.125000  0.625000  1
  Pd  Pd16  1  0.840870  0.477340  0.840870  1
  Pd  Pd17  1  0.835478  0.847183  0.835488  1
  Pd  Pd18  1  0.481842  0.847071  0.835585  1
  Pd  Pd19  1  0.409130  0.772660  0.409130  1
  Pd  Pd20  1  0.835590  0.847082  0.481837  1
  Pd  Pd21  1  0.768158  0.402929  0.414415  1
  Pd  Pd22  1  0.414522  0.402817  0.414512  1
  Pd  Pd23  1  0.414410  0.402918  0.768163  1
