# generated using pymatgen
data_Dy2Tm10ZnCo4Sn
_symmetry_space_group_name_H-M   'P 1'
_cell_length_a   8.23560846
_cell_length_b   8.19348585
_cell_length_c   8.19348681
_cell_angle_alpha   112.00670410
_cell_angle_beta   109.35669074
_cell_angle_gamma   106.89619744
_symmetry_Int_Tables_number   1
_chemical_formula_structural   Dy2Tm10ZnCo4Sn
_chemical_formula_sum   'Dy2 Tm10 Zn1 Co4 Sn1'
_cell_volume   425.77946453
_cell_formula_units_Z   1
loop_
 _symmetry_equiv_pos_site_id
 _symmetry_equiv_pos_as_xyz
  1  'x, y, z'
loop_
 _atom_site_type_symbol
 _atom_site_label
 _atom_site_symmetry_multiplicity
 _atom_site_fract_x
 _atom_site_fract_y
 _atom_site_fract_z
 _atom_site_occupancy
  Dy  Dy0  1  0.429753  0.228674  0.201079  1
  Dy  Dy1  1  0.570247  0.771326  0.798921  1
  Tm  Tm2  1  0.029021  0.229953  0.799068  1
  Tm  Tm3  1  0.970979  0.770047  0.200932  1
  Tm  Tm4  1  0.180142  0.282443  0.464672  1
  Tm  Tm5  1  0.819858  0.717557  0.535328  1
  Tm  Tm6  1  0.180142  0.715470  0.897698  1
  Tm  Tm7  1  0.819858  0.284530  0.102302  1
  Tm  Tm8  1  0.322101  0.635988  0.309379  1
  Tm  Tm9  1  0.677899  0.364012  0.690621  1
  Tm  Tm10  1  0.322101  0.012722  0.686115  1
  Tm  Tm11  1  0.677899  0.987278  0.313885  1
  Zn  Zn12  1  0.000000  0.000000  0.000000  1
  Co  Co13  1  0.344689  0.998754  0.345935  1
  Co  Co14  1  0.655311  0.001246  0.654065  1
  Co  Co15  1  0.113134  0.615120  0.498014  1
  Co  Co16  1  0.886866  0.384880  0.501986  1
  Sn  Sn17  1  0.500000  0.500000  0.000000  1
