# generated using pymatgen
data_Lu3Al2GaSi2Rh
_symmetry_space_group_name_H-M   'P 1'
_cell_length_a   6.80598400
_cell_length_b   6.77014227
_cell_length_c   4.17527400
_cell_angle_alpha   90.00000000
_cell_angle_beta   90.00000000
_cell_angle_gamma   120.17528207
_symmetry_Int_Tables_number   1
_chemical_formula_structural   Lu3Al2GaSi2Rh
_chemical_formula_sum   'Lu3 Al2 Ga1 Si2 Rh1'
_cell_volume   166.31619586
_cell_formula_units_Z   1
loop_
 _symmetry_equiv_pos_site_id
 _symmetry_equiv_pos_as_xyz
  1  'x, y, z'
loop_
 _atom_site_type_symbol
 _atom_site_label
 _atom_site_symmetry_multiplicity
 _atom_site_fract_x
 _atom_site_fract_y
 _atom_site_fract_z
 _atom_site_occupancy
  Lu  Lu0  1  0.416489  0.000000  0.000000  1
  Lu  Lu1  1  0.999783  0.416026  0.000000  1
  Lu  Lu2  1  0.583759  0.583975  0.000000  1
  Al  Al3  1  0.236762  0.235447  0.500001  1
  Al  Al4  1  0.001315  0.764553  0.500001  1
  Ga  Ga5  1  0.760254  0.000000  0.500001  1
  Si  Si6  1  0.666037  0.334651  0.500001  1
  Si  Si7  1  0.331386  0.665349  0.500001  1
  Rh  Rh8  1  0.004215  0.000000  0.000000  1
