# generated using pymatgen
data_DyHo5(Tm3Ga10)2
_symmetry_space_group_name_H-M   'P 1'
_cell_length_a   6.05169302
_cell_length_b   9.58448221
_cell_length_c   11.43250703
_cell_angle_alpha   90.00255519
_cell_angle_beta   89.99176703
_cell_angle_gamma   89.96835489
_symmetry_Int_Tables_number   1
_chemical_formula_structural   DyHo5(Tm3Ga10)2
_chemical_formula_sum   'Dy1 Ho5 Tm6 Ga20'
_cell_volume   663.11209835
_cell_formula_units_Z   1
loop_
 _symmetry_equiv_pos_site_id
 _symmetry_equiv_pos_as_xyz
  1  'x, y, z'
loop_
 _atom_site_type_symbol
 _atom_site_label
 _atom_site_symmetry_multiplicity
 _atom_site_fract_x
 _atom_site_fract_y
 _atom_site_fract_z
 _atom_site_occupancy
  Dy  Dy0  1  0.890577  0.509809  0.351733  1
  Ho  Ho1  1  0.609400  0.990186  0.851696  1
  Ho  Ho2  1  0.109163  0.009697  0.647976  1
  Ho  Ho3  1  0.390834  0.490285  0.147890  1
  Ho  Ho4  1  0.109133  0.490265  0.648529  1
  Ho  Ho5  1  0.390905  0.009735  0.148430  1
  Tm  Tm6  1  0.848687  0.749902  0.073880  1
  Tm  Tm7  1  0.651262  0.750157  0.573974  1
  Tm  Tm8  1  0.151735  0.249927  0.926021  1
  Tm  Tm9  1  0.348370  0.250063  0.426074  1
  Tm  Tm10  1  0.890804  0.990319  0.351686  1
  Tm  Tm11  1  0.609187  0.509670  0.851678  1
  Ga  Ga12  1  0.875219  0.052419  0.090851  1
  Ga  Ga13  1  0.624709  0.447549  0.590889  1
  Ga  Ga14  1  0.125433  0.552371  0.909532  1
  Ga  Ga15  1  0.374559  0.947638  0.409529  1
  Ga  Ga16  1  0.124797  0.947321  0.909602  1
  Ga  Ga17  1  0.375371  0.552732  0.409650  1
  Ga  Ga18  1  0.875264  0.447441  0.090008  1
  Ga  Ga19  1  0.624721  0.052525  0.590144  1
  Ga  Ga20  1  0.172043  0.750453  0.251551  1
  Ga  Ga21  1  0.328043  0.749648  0.751600  1
  Ga  Ga22  1  0.827331  0.250422  0.748978  1
  Ga  Ga23  1  0.672560  0.249448  0.248878  1
  Ga  Ga24  1  0.373806  0.749859  0.005072  1
  Ga  Ga25  1  0.126292  0.750189  0.505088  1
  Ga  Ga26  1  0.626702  0.250437  0.994267  1
  Ga  Ga27  1  0.873269  0.249398  0.494428  1
  Ga  Ga28  1  0.604569  0.750806  0.299023  1
  Ga  Ga29  1  0.895230  0.749352  0.799060  1
  Ga  Ga30  1  0.395961  0.250034  0.701155  1
  Ga  Ga31  1  0.104063  0.249944  0.201130  1
