# generated using pymatgen
data_Tm8Sc2(IrPd)3
_symmetry_space_group_name_H-M   'P 1'
_cell_length_a   10.78610837
_cell_length_b   10.77941700
_cell_length_c   6.20645500
_cell_angle_alpha   90.00000000
_cell_angle_beta   90.06697368
_cell_angle_gamma   90.00000000
_symmetry_Int_Tables_number   1
_chemical_formula_structural   Tm8Sc2(IrPd)3
_chemical_formula_sum   'Tm16 Sc4 Ir6 Pd6'
_cell_volume   721.61136816
_cell_formula_units_Z   2
loop_
 _symmetry_equiv_pos_site_id
 _symmetry_equiv_pos_as_xyz
  1  'x, y, z'
loop_
 _atom_site_type_symbol
 _atom_site_label
 _atom_site_symmetry_multiplicity
 _atom_site_fract_x
 _atom_site_fract_y
 _atom_site_fract_z
 _atom_site_occupancy
  Tm  Tm0  1  0.293720  0.089581  0.372376  1
  Tm  Tm1  1  0.293720  0.910419  0.872376  1
  Tm  Tm2  1  0.706234  0.085195  0.870860  1
  Tm  Tm3  1  0.706234  0.914805  0.370860  1
  Tm  Tm4  1  0.580005  0.788691  0.871945  1
  Tm  Tm5  1  0.580005  0.211309  0.371945  1
  Tm  Tm6  1  0.412548  0.790282  0.378294  1
  Tm  Tm7  1  0.412548  0.209718  0.878294  1
  Tm  Tm8  1  0.213165  0.417744  0.623575  1
  Tm  Tm9  1  0.213165  0.582256  0.123575  1
  Tm  Tm10  1  0.792771  0.414314  0.126235  1
  Tm  Tm11  1  0.792771  0.585686  0.626235  1
  Tm  Tm12  1  0.916404  0.706703  0.128436  1
  Tm  Tm13  1  0.916404  0.293297  0.628436  1
  Tm  Tm14  1  0.091138  0.705987  0.628456  1
  Tm  Tm15  1  0.091138  0.294013  0.128456  1
  Sc  Sc16  1  0.999744  0.999762  0.499879  1
  Sc  Sc17  1  0.999744  0.000238  0.999879  1
  Sc  Sc18  1  0.494184  0.498749  0.999810  1
  Sc  Sc19  1  0.494184  0.501251  0.499810  1
  Ir  Ir20  1  0.351235  0.349766  0.250054  1
  Ir  Ir21  1  0.351235  0.650234  0.750054  1
  Ir  Ir22  1  0.500436  0.999453  0.120636  1
  Ir  Ir23  1  0.500436  0.000547  0.620636  1
  Ir  Ir24  1  0.998517  0.500234  0.879530  1
  Ir  Ir25  1  0.998517  0.499766  0.379530  1
  Pd  Pd26  1  0.849729  0.150073  0.250014  1
  Pd  Pd27  1  0.849729  0.849927  0.750014  1
  Pd  Pd28  1  0.149130  0.149100  0.749991  1
  Pd  Pd29  1  0.149130  0.850900  0.249991  1
  Pd  Pd30  1  0.651039  0.350443  0.749910  1
  Pd  Pd31  1  0.651039  0.649557  0.249910  1
