# generated using pymatgen
data_Ba2Ca3(SnAs3)2
_symmetry_space_group_name_H-M   'P 1'
_cell_length_a   4.30127300
_cell_length_b   12.45862300
_cell_length_c   14.11087000
_cell_angle_alpha   90.00000000
_cell_angle_beta   90.00000000
_cell_angle_gamma   90.00000000
_symmetry_Int_Tables_number   1
_chemical_formula_structural   Ba2Ca3(SnAs3)2
_chemical_formula_sum   'Ba4 Ca6 Sn4 As12'
_cell_volume   756.17243695
_cell_formula_units_Z   2
loop_
 _symmetry_equiv_pos_site_id
 _symmetry_equiv_pos_as_xyz
  1  'x, y, z'
loop_
 _atom_site_type_symbol
 _atom_site_label
 _atom_site_symmetry_multiplicity
 _atom_site_fract_x
 _atom_site_fract_y
 _atom_site_fract_z
 _atom_site_occupancy
  Ba  Ba0  1  0.000000  0.866779  0.435870  1
  Ba  Ba1  1  0.000000  0.133221  0.564130  1
  Ba  Ba2  1  0.000000  0.366779  0.064130  1
  Ba  Ba3  1  0.000000  0.633221  0.935870  1
  Ca  Ca4  1  0.000000  0.622263  0.260748  1
  Ca  Ca5  1  0.000000  0.377737  0.739252  1
  Ca  Ca6  1  0.000000  0.122263  0.239252  1
  Ca  Ca7  1  0.000000  0.877737  0.760748  1
  Ca  Ca8  1  0.000000  0.500000  0.500000  1
  Ca  Ca9  1  0.000000  0.000000  0.000000  1
  Sn  Sn10  1  0.500000  0.791028  0.103581  1
  Sn  Sn11  1  0.500000  0.208972  0.896419  1
  Sn  Sn12  1  0.500000  0.291028  0.396419  1
  Sn  Sn13  1  0.500000  0.708972  0.603581  1
  As  As14  1  0.500000  0.579671  0.120169  1
  As  As15  1  0.500000  0.420329  0.879831  1
  As  As16  1  0.500000  0.079671  0.379831  1
  As  As17  1  0.500000  0.920329  0.620169  1
  As  As18  1  0.500000  0.653968  0.419476  1
  As  As19  1  0.500000  0.346032  0.580524  1
  As  As20  1  0.500000  0.153968  0.080524  1
  As  As21  1  0.500000  0.846032  0.919476  1
  As  As22  1  0.000000  0.873667  0.193714  1
  As  As23  1  0.000000  0.126333  0.806286  1
  As  As24  1  0.000000  0.373667  0.306286  1
  As  As25  1  0.000000  0.626333  0.693714  1
