# generated using pymatgen
data_K4ReRhCl12
_symmetry_space_group_name_H-M   'P 1'
_cell_length_a   6.99968000
_cell_length_b   6.99968000
_cell_length_c   10.35238900
_cell_angle_alpha   90.00000000
_cell_angle_beta   90.00000000
_cell_angle_gamma   90.00000000
_symmetry_Int_Tables_number   1
_chemical_formula_structural   K4ReRhCl12
_chemical_formula_sum   'K4 Re1 Rh1 Cl12'
_cell_volume   507.22068336
_cell_formula_units_Z   1
loop_
 _symmetry_equiv_pos_site_id
 _symmetry_equiv_pos_as_xyz
  1  'x, y, z'
loop_
 _atom_site_type_symbol
 _atom_site_label
 _atom_site_symmetry_multiplicity
 _atom_site_fract_x
 _atom_site_fract_y
 _atom_site_fract_z
 _atom_site_occupancy
  K  K0  1  0.500000  0.000000  0.786899  1
  K  K1  1  0.000000  0.500000  0.213101  1
  K  K2  1  0.500000  0.000000  0.213101  1
  K  K3  1  0.000000  0.500000  0.786899  1
  Re  Re4  1  0.500000  0.500000  0.500000  1
  Rh  Rh5  1  0.000000  0.000000  0.000000  1
  Cl  Cl6  1  0.000000  0.000000  0.771969  1
  Cl  Cl7  1  0.500000  0.500000  0.271326  1
  Cl  Cl8  1  0.736334  0.736334  0.500000  1
  Cl  Cl9  1  0.238321  0.238321  0.000000  1
  Cl  Cl10  1  0.736334  0.263666  0.500000  1
  Cl  Cl11  1  0.238321  0.761679  0.000000  1
  Cl  Cl12  1  0.000000  0.000000  0.228031  1
  Cl  Cl13  1  0.500000  0.500000  0.728674  1
  Cl  Cl14  1  0.263666  0.263666  0.500000  1
  Cl  Cl15  1  0.761679  0.761679  0.000000  1
  Cl  Cl16  1  0.263666  0.736334  0.500000  1
  Cl  Cl17  1  0.761679  0.238321  0.000000  1
