# generated using pymatgen
data_Na(EuSb)4
_symmetry_space_group_name_H-M   'P 1'
_cell_length_a   8.38327110
_cell_length_b   8.37114200
_cell_length_c   9.20289915
_cell_angle_alpha   90.00000000
_cell_angle_beta   117.09510619
_cell_angle_gamma   90.00000000
_symmetry_Int_Tables_number   1
_chemical_formula_structural   Na(EuSb)4
_chemical_formula_sum   'Na2 Eu8 Sb8'
_cell_volume   574.95744216
_cell_formula_units_Z   2
loop_
 _symmetry_equiv_pos_site_id
 _symmetry_equiv_pos_as_xyz
  1  'x, y, z'
loop_
 _atom_site_type_symbol
 _atom_site_label
 _atom_site_symmetry_multiplicity
 _atom_site_fract_x
 _atom_site_fract_y
 _atom_site_fract_z
 _atom_site_occupancy
  Na  Na0  1  0.500000  0.500000  0.000000  1
  Na  Na1  1  0.000000  0.000000  0.000000  1
  Eu  Eu2  1  0.184287  0.172055  0.719429  1
  Eu  Eu3  1  0.535142  0.827945  0.719429  1
  Eu  Eu4  1  0.035142  0.672055  0.719429  1
  Eu  Eu5  1  0.684287  0.327945  0.719429  1
  Eu  Eu6  1  0.815713  0.827945  0.280571  1
  Eu  Eu7  1  0.464858  0.172055  0.280571  1
  Eu  Eu8  1  0.964858  0.327945  0.280571  1
  Eu  Eu9  1  0.315713  0.672055  0.280571  1
  Sb  Sb10  1  0.293841  0.500000  0.587682  1
  Sb  Sb11  1  0.793841  0.000000  0.587682  1
  Sb  Sb12  1  0.706159  0.500000  0.412318  1
  Sb  Sb13  1  0.206159  0.000000  0.412318  1
  Sb  Sb14  1  0.623197  0.122804  0.000000  1
  Sb  Sb15  1  0.376803  0.877196  0.000000  1
  Sb  Sb16  1  0.876803  0.622804  0.000000  1
  Sb  Sb17  1  0.123197  0.377196  0.000000  1
