# generated using pymatgen
data_Pr16Cd4Ru3Pt
_symmetry_space_group_name_H-M   'P 1'
_cell_length_a   10.00048076
_cell_length_b   10.02109624
_cell_length_c   10.02109500
_cell_angle_alpha   60.00000080
_cell_angle_beta   59.93178515
_cell_angle_gamma   59.93178448
_symmetry_Int_Tables_number   1
_chemical_formula_structural   Pr16Cd4Ru3Pt
_chemical_formula_sum   'Pr16 Cd4 Ru3 Pt1'
_cell_volume   709.39436836
_cell_formula_units_Z   1
loop_
 _symmetry_equiv_pos_site_id
 _symmetry_equiv_pos_as_xyz
  1  'x, y, z'
loop_
 _atom_site_type_symbol
 _atom_site_label
 _atom_site_symmetry_multiplicity
 _atom_site_fract_x
 _atom_site_fract_y
 _atom_site_fract_z
 _atom_site_occupancy
  Pr  Pr0  1  0.343823  0.350010  0.350010  1
  Pr  Pr1  1  0.343823  0.350010  0.956157  1
  Pr  Pr2  1  0.343823  0.956157  0.350010  1
  Pr  Pr3  1  0.959765  0.346745  0.346745  1
  Pr  Pr4  1  0.815073  0.190606  0.190606  1
  Pr  Pr5  1  0.190363  0.810728  0.810728  1
  Pr  Pr6  1  0.190363  0.810728  0.188181  1
  Pr  Pr7  1  0.815073  0.190606  0.803715  1
  Pr  Pr8  1  0.190363  0.188181  0.810728  1
  Pr  Pr9  1  0.815073  0.803715  0.190606  1
  Pr  Pr10  1  0.937712  0.561997  0.561997  1
  Pr  Pr11  1  0.559466  0.938119  0.938119  1
  Pr  Pr12  1  0.559466  0.938119  0.564296  1
  Pr  Pr13  1  0.937712  0.561997  0.938293  1
  Pr  Pr14  1  0.559466  0.564296  0.938119  1
  Pr  Pr15  1  0.937712  0.938293  0.561997  1
  Cd  Cd16  1  0.579533  0.579795  0.579795  1
  Cd  Cd17  1  0.579533  0.579795  0.260877  1
  Cd  Cd18  1  0.579533  0.260877  0.579795  1
  Cd  Cd19  1  0.261220  0.579593  0.579593  1
  Ru  Ru20  1  0.141515  0.138372  0.138372  1
  Ru  Ru21  1  0.141515  0.138372  0.581741  1
  Ru  Ru22  1  0.141515  0.581741  0.138372  1
  Pt  Pt23  1  0.576560  0.141147  0.141147  1
