# generated using pymatgen
data_CaYb5(PrBi3)2
_symmetry_space_group_name_H-M   'P 1'
_cell_length_a   8.39713047
_cell_length_b   8.43706314
_cell_length_c   8.39935852
_cell_angle_alpha   109.48231834
_cell_angle_beta   109.28911066
_cell_angle_gamma   109.50155189
_symmetry_Int_Tables_number   1
_chemical_formula_structural   CaYb5(PrBi3)2
_chemical_formula_sum   'Ca1 Yb5 Pr2 Bi6'
_cell_volume   458.87753109
_cell_formula_units_Z   1
loop_
 _symmetry_equiv_pos_site_id
 _symmetry_equiv_pos_as_xyz
  1  'x, y, z'
loop_
 _atom_site_type_symbol
 _atom_site_label
 _atom_site_symmetry_multiplicity
 _atom_site_fract_x
 _atom_site_fract_y
 _atom_site_fract_z
 _atom_site_occupancy
  Ca  Ca0  1  0.501992  0.002078  0.143532  1
  Yb  Yb1  1  0.643449  0.501825  0.001845  1
  Yb  Yb2  1  0.998493  0.643272  0.500185  1
  Yb  Yb3  1  0.857061  0.855078  0.856955  1
  Yb  Yb4  1  0.000549  0.143459  0.498708  1
  Yb  Yb5  1  0.356776  0.355228  0.357172  1
  Pr  Pr6  1  0.141499  0.499460  0.000390  1
  Pr  Pr7  1  0.500608  0.000110  0.641987  1
  Bi  Bi8  1  0.624575  0.747790  0.375031  1
  Bi  Bi9  1  0.750707  0.376284  0.625178  1
  Bi  Bi10  1  0.250104  0.126039  0.874330  1
  Bi  Bi11  1  0.374520  0.625349  0.749876  1
  Bi  Bi12  1  0.124322  0.875646  0.250456  1
  Bi  Bi13  1  0.875344  0.248383  0.124354  1
