# generated using pymatgen
data_Pr3Er7(SiPb)4
_symmetry_space_group_name_H-M   'P 1'
_cell_length_a   9.17309365
_cell_length_b   8.21847714
_cell_length_c   8.05048639
_cell_angle_alpha   89.62743627
_cell_angle_beta   89.67855298
_cell_angle_gamma   127.25792595
_symmetry_Int_Tables_number   1
_chemical_formula_structural   Pr3Er7(SiPb)4
_chemical_formula_sum   'Pr3 Er7 Si4 Pb4'
_cell_volume   483.01135656
_cell_formula_units_Z   1
loop_
 _symmetry_equiv_pos_site_id
 _symmetry_equiv_pos_as_xyz
  1  'x, y, z'
loop_
 _atom_site_type_symbol
 _atom_site_label
 _atom_site_symmetry_multiplicity
 _atom_site_fract_x
 _atom_site_fract_y
 _atom_site_fract_z
 _atom_site_occupancy
  Pr  Pr0  1  0.069819  0.350899  0.321609  1
  Pr  Pr1  1  0.929469  0.648700  0.679269  1
  Pr  Pr2  1  0.434894  0.150507  0.825662  1
  Er  Er3  1  0.747113  0.518273  0.160796  1
  Er  Er4  1  0.565660  0.836644  0.172077  1
  Er  Er5  1  0.255252  0.487351  0.839373  1
  Er  Er6  1  0.757915  0.980558  0.661287  1
  Er  Er7  1  0.241369  0.021542  0.338691  1
  Er  Er8  1  0.998543  0.000970  0.000691  1
  Er  Er9  1  0.499764  0.500996  0.498937  1
  Si  Si10  1  0.364438  0.373828  0.133917  1
  Si  Si11  1  0.638059  0.632957  0.868797  1
  Si  Si12  1  0.145501  0.140243  0.639989  1
  Si  Si13  1  0.851565  0.863897  0.356495  1
  Pb  Pb14  1  0.831672  0.251840  0.959990  1
  Pb  Pb15  1  0.165737  0.739736  0.049307  1
  Pb  Pb16  1  0.660070  0.232079  0.454005  1
  Pb  Pb17  1  0.343162  0.768980  0.539109  1
