# generated using pymatgen
data_Y6Er4(SnBi)3
_symmetry_space_group_name_H-M   'P 1'
_cell_length_a   9.03597643
_cell_length_b   9.05346053
_cell_length_c   6.47687800
_cell_angle_alpha   90.00000000
_cell_angle_beta   90.00000000
_cell_angle_gamma   119.93938062
_symmetry_Int_Tables_number   1
_chemical_formula_structural   Y6Er4(SnBi)3
_chemical_formula_sum   'Y6 Er4 Sn3 Bi3'
_cell_volume   459.14621812
_cell_formula_units_Z   1
loop_
 _symmetry_equiv_pos_site_id
 _symmetry_equiv_pos_as_xyz
  1  'x, y, z'
loop_
 _atom_site_type_symbol
 _atom_site_label
 _atom_site_symmetry_multiplicity
 _atom_site_fract_x
 _atom_site_fract_y
 _atom_site_fract_z
 _atom_site_occupancy
  Y  Y0  1  0.757886  0.752195  0.250000  1
  Y  Y1  1  0.005758  0.247121  0.250000  1
  Y  Y2  1  0.764146  0.006217  0.750000  1
  Y  Y3  1  0.237109  0.999631  0.250000  1
  Y  Y4  1  0.999889  0.754693  0.750000  1
  Y  Y5  1  0.239755  0.245347  0.750000  1
  Er  Er6  1  0.325112  0.658424  0.498662  1
  Er  Er7  1  0.672006  0.338266  0.498667  1
  Er  Er8  1  0.325112  0.658424  0.001338  1
  Er  Er9  1  0.672006  0.338266  0.001333  1
  Sn  Sn10  1  0.997350  0.393101  0.750000  1
  Sn  Sn11  1  0.393373  0.390466  0.250000  1
  Sn  Sn12  1  0.001381  0.608022  0.250000  1
  Bi  Bi13  1  0.608458  0.611190  0.750000  1
  Bi  Bi14  1  0.391816  0.000116  0.750000  1
  Bi  Bi15  1  0.608842  0.998523  0.250000  1
