# generated using pymatgen
data_DyHo2Fe8Ru
_symmetry_space_group_name_H-M   'P 1'
_cell_length_a   8.77926577
_cell_length_b   8.77926616
_cell_length_c   8.77926637
_cell_angle_alpha   33.66528953
_cell_angle_beta   33.66528718
_cell_angle_gamma   33.66529043
_symmetry_Int_Tables_number   1
_chemical_formula_structural   DyHo2Fe8Ru
_chemical_formula_sum   'Dy1 Ho2 Fe8 Ru1'
_cell_volume   185.24552390
_cell_formula_units_Z   1
loop_
 _symmetry_equiv_pos_site_id
 _symmetry_equiv_pos_as_xyz
  1  'x, y, z'
loop_
 _atom_site_type_symbol
 _atom_site_label
 _atom_site_symmetry_multiplicity
 _atom_site_fract_x
 _atom_site_fract_y
 _atom_site_fract_z
 _atom_site_occupancy
  Dy  Dy0  1  0.000000  0.000000  0.000000  1
  Ho  Ho1  1  0.141792  0.141792  0.141792  1
  Ho  Ho2  1  0.858208  0.858208  0.858208  1
  Fe  Fe3  1  0.332694  0.332694  0.332694  1
  Fe  Fe4  1  0.667306  0.667306  0.667306  1
  Fe  Fe5  1  0.077381  0.581581  0.581581  1
  Fe  Fe6  1  0.581581  0.581581  0.077381  1
  Fe  Fe7  1  0.581581  0.077381  0.581581  1
  Fe  Fe8  1  0.418419  0.922619  0.418419  1
  Fe  Fe9  1  0.922619  0.418419  0.418419  1
  Fe  Fe10  1  0.418419  0.418419  0.922619  1
  Ru  Ru11  1  0.500000  0.500000  0.500000  1
