# generated using pymatgen
data_La5Yb3PrPt6
_symmetry_space_group_name_H-M   'P 1'
_cell_length_a   7.74497519
_cell_length_b   7.74521459
_cell_length_c   7.73715498
_cell_angle_alpha   71.05035952
_cell_angle_beta   70.97275346
_cell_angle_gamma   70.97452362
_symmetry_Int_Tables_number   1
_chemical_formula_structural   La5Yb3PrPt6
_chemical_formula_sum   'La5 Yb3 Pr1 Pt6'
_cell_volume   402.21566134
_cell_formula_units_Z   1
loop_
 _symmetry_equiv_pos_site_id
 _symmetry_equiv_pos_as_xyz
  1  'x, y, z'
loop_
 _atom_site_type_symbol
 _atom_site_label
 _atom_site_symmetry_multiplicity
 _atom_site_fract_x
 _atom_site_fract_y
 _atom_site_fract_z
 _atom_site_occupancy
  La  La0  1  0.844343  0.328151  0.605096  1
  La  La1  1  0.604551  0.844623  0.328161  1
  La  La2  1  0.672103  0.395338  0.154864  1
  La  La3  1  0.155622  0.672343  0.394980  1
  La  La4  1  0.395001  0.155273  0.672456  1
  Yb  Yb5  1  0.000279  0.999681  0.999834  1
  Yb  Yb6  1  0.804868  0.804469  0.804830  1
  Yb  Yb7  1  0.195407  0.195667  0.195010  1
  Pr  Pr8  1  0.328535  0.604383  0.844662  1
  Pt  Pt9  1  0.166895  0.956956  0.586038  1
  Pt  Pt10  1  0.586241  0.167119  0.956527  1
  Pt  Pt11  1  0.956639  0.586231  0.167132  1
  Pt  Pt12  1  0.832807  0.043346  0.413674  1
  Pt  Pt13  1  0.413594  0.833064  0.043585  1
  Pt  Pt14  1  0.043116  0.413354  0.833151  1
