# generated using pymatgen
data_SmEr2Mg(Co4P3)2
_symmetry_space_group_name_H-M   'P 1'
_cell_length_a   3.73458300
_cell_length_b   10.63797400
_cell_length_c   12.29402200
_cell_angle_alpha   90.00000000
_cell_angle_beta   90.00000000
_cell_angle_gamma   90.00000000
_symmetry_Int_Tables_number   1
_chemical_formula_structural   SmEr2Mg(Co4P3)2
_chemical_formula_sum   'Sm2 Er4 Mg2 Co16 P12'
_cell_volume   488.42178496
_cell_formula_units_Z   2
loop_
 _symmetry_equiv_pos_site_id
 _symmetry_equiv_pos_as_xyz
  1  'x, y, z'
loop_
 _atom_site_type_symbol
 _atom_site_label
 _atom_site_symmetry_multiplicity
 _atom_site_fract_x
 _atom_site_fract_y
 _atom_site_fract_z
 _atom_site_occupancy
  Sm  Sm0  1  0.750000  0.250000  0.473034  1
  Sm  Sm1  1  0.250000  0.750000  0.526966  1
  Er  Er2  1  0.250000  0.927796  0.794298  1
  Er  Er3  1  0.250000  0.572204  0.794298  1
  Er  Er4  1  0.750000  0.072204  0.205702  1
  Er  Er5  1  0.750000  0.427796  0.205702  1
  Mg  Mg6  1  0.250000  0.250000  0.844286  1
  Mg  Mg7  1  0.750000  0.750000  0.155714  1
  Co  Co8  1  0.250000  0.250000  0.292485  1
  Co  Co9  1  0.750000  0.750000  0.707515  1
  Co  Co10  1  0.750000  0.250000  0.011221  1
  Co  Co11  1  0.250000  0.750000  0.988779  1
  Co  Co12  1  0.250000  0.417555  0.003250  1
  Co  Co13  1  0.250000  0.082445  0.003250  1
  Co  Co14  1  0.750000  0.582445  0.996750  1
  Co  Co15  1  0.750000  0.917555  0.996750  1
  Co  Co16  1  0.250000  0.454388  0.568825  1
  Co  Co17  1  0.250000  0.045612  0.568825  1
  Co  Co18  1  0.750000  0.545612  0.431175  1
  Co  Co19  1  0.750000  0.954388  0.431175  1
  Co  Co20  1  0.250000  0.872463  0.293172  1
  Co  Co21  1  0.250000  0.627537  0.293172  1
  Co  Co22  1  0.750000  0.127537  0.706828  1
  Co  Co23  1  0.750000  0.372463  0.706828  1
  P  P24  1  0.250000  0.250000  0.114513  1
  P  P25  1  0.750000  0.750000  0.885487  1
  P  P26  1  0.250000  0.250000  0.646111  1
  P  P27  1  0.750000  0.750000  0.353889  1
  P  P28  1  0.250000  0.441959  0.383376  1
  P  P29  1  0.250000  0.058041  0.383376  1
  P  P30  1  0.750000  0.558041  0.616624  1
  P  P31  1  0.750000  0.941959  0.616624  1
  P  P32  1  0.250000  0.911695  0.107249  1
  P  P33  1  0.250000  0.588305  0.107249  1
  P  P34  1  0.750000  0.088305  0.892751  1
  P  P35  1  0.750000  0.411695  0.892751  1
