# generated using pymatgen
data_Ho2Be23Ni2B
_symmetry_space_group_name_H-M   'P 1'
_cell_length_a   7.21069083
_cell_length_b   7.28198953
_cell_length_c   7.17893278
_cell_angle_alpha   59.81410702
_cell_angle_beta   59.93442377
_cell_angle_gamma   59.38309083
_symmetry_Int_Tables_number   1
_chemical_formula_structural   Ho2Be23Ni2B
_chemical_formula_sum   'Ho2 Be23 Ni2 B1'
_cell_volume   264.77970708
_cell_formula_units_Z   1
loop_
 _symmetry_equiv_pos_site_id
 _symmetry_equiv_pos_as_xyz
  1  'x, y, z'
loop_
 _atom_site_type_symbol
 _atom_site_label
 _atom_site_symmetry_multiplicity
 _atom_site_fract_x
 _atom_site_fract_y
 _atom_site_fract_z
 _atom_site_occupancy
  Ho  Ho0  1  0.250162  0.249838  0.250162  1
  Ho  Ho1  1  0.749838  0.750162  0.749838  1
  Be  Be2  1  0.500000  0.500000  0.500000  1
  Be  Be3  1  0.568666  0.789422  0.431334  1
  Be  Be4  1  0.431334  0.210578  0.568666  1
  Be  Be5  1  0.286846  0.936817  0.713154  1
  Be  Be6  1  0.713154  0.063183  0.286846  1
  Be  Be7  1  0.934351  0.279879  0.065649  1
  Be  Be8  1  0.065649  0.720121  0.934351  1
  Be  Be9  1  0.204831  0.799834  0.560694  1
  Be  Be10  1  0.795169  0.200166  0.439306  1
  Be  Be11  1  0.439306  0.565359  0.795169  1
  Be  Be12  1  0.560694  0.434641  0.204831  1
  Be  Be13  1  0.717901  0.276880  0.936884  1
  Be  Be14  1  0.282099  0.723120  0.063116  1
  Be  Be15  1  0.063116  0.931664  0.282099  1
  Be  Be16  1  0.936884  0.068336  0.717901  1
  Be  Be17  1  0.562348  0.206231  0.795303  1
  Be  Be18  1  0.437652  0.793769  0.204697  1
  Be  Be19  1  0.795303  0.436118  0.562348  1
  Be  Be20  1  0.204697  0.563882  0.437652  1
  Be  Be21  1  0.935462  0.718275  0.282839  1
  Be  Be22  1  0.064538  0.281725  0.717161  1
  Be  Be23  1  0.282839  0.063424  0.935462  1
  Be  Be24  1  0.717161  0.936576  0.064538  1
  Ni  Ni25  1  0.799269  0.557438  0.200731  1
  Ni  Ni26  1  0.200731  0.442562  0.799269  1
  B  B27  1  0.000000  0.000000  0.000000  1
