# generated using pymatgen
data_Tm7Lu5InFe3Ag
_symmetry_space_group_name_H-M   'P 1'
_cell_length_a   8.16803967
_cell_length_b   8.16774140
_cell_length_c   8.16803943
_cell_angle_alpha   110.23811637
_cell_angle_beta   106.65623659
_cell_angle_gamma   111.55996640
_symmetry_Int_Tables_number   1
_chemical_formula_structural   Tm7Lu5InFe3Ag
_chemical_formula_sum   'Tm7 Lu5 In1 Fe3 Ag1'
_cell_volume   418.66238771
_cell_formula_units_Z   1
loop_
 _symmetry_equiv_pos_site_id
 _symmetry_equiv_pos_as_xyz
  1  'x, y, z'
loop_
 _atom_site_type_symbol
 _atom_site_label
 _atom_site_symmetry_multiplicity
 _atom_site_fract_x
 _atom_site_fract_y
 _atom_site_fract_z
 _atom_site_occupancy
  Tm  Tm0  1  0.307651  0.309016  0.616574  1
  Tm  Tm1  1  0.691781  0.691898  0.382927  1
  Tm  Tm2  1  0.692442  0.309016  0.001365  1
  Tm  Tm3  1  0.308971  0.691898  0.000117  1
  Tm  Tm4  1  0.193736  0.443934  0.250198  1
  Tm  Tm5  1  0.805872  0.555706  0.749834  1
  Tm  Tm6  1  0.194379  0.943912  0.749534  1
  Lu  Lu7  1  0.961185  0.188370  0.772488  1
  Lu  Lu8  1  0.805802  0.055439  0.249636  1
  Lu  Lu9  1  0.038734  0.812642  0.226913  1
  Lu  Lu10  1  0.415882  0.188370  0.227184  1
  Lu  Lu11  1  0.585729  0.812642  0.773909  1
  In  In12  1  0.499837  0.999707  0.499870  1
  Fe  Fe13  1  0.382223  0.382090  0.999867  1
  Fe  Fe14  1  0.617001  0.616722  0.999721  1
  Fe  Fe15  1  0.000218  0.000710  0.000492  1
  Ag  Ag16  1  0.998557  0.497928  0.499371  1
