# generated using pymatgen
data_CeDy(ZnIr)2
_symmetry_space_group_name_H-M   'P 1'
_cell_length_a   4.00659100
_cell_length_b   7.02826001
_cell_length_c   8.29461246
_cell_angle_alpha   90.64099855
_cell_angle_beta   90.00000000
_cell_angle_gamma   90.00000000
_symmetry_Int_Tables_number   1
_chemical_formula_structural   CeDy(ZnIr)2
_chemical_formula_sum   'Ce2 Dy2 Zn4 Ir4'
_cell_volume   233.55638889
_cell_formula_units_Z   2
loop_
 _symmetry_equiv_pos_site_id
 _symmetry_equiv_pos_as_xyz
  1  'x, y, z'
loop_
 _atom_site_type_symbol
 _atom_site_label
 _atom_site_symmetry_multiplicity
 _atom_site_fract_x
 _atom_site_fract_y
 _atom_site_fract_z
 _atom_site_occupancy
  Ce  Ce0  1  0.250000  0.541163  0.189142  1
  Ce  Ce1  1  0.750000  0.458837  0.810858  1
  Dy  Dy2  1  0.250000  0.046304  0.317780  1
  Dy  Dy3  1  0.750000  0.953696  0.682220  1
  Zn  Zn4  1  0.250000  0.126168  0.936862  1
  Zn  Zn5  1  0.750000  0.873832  0.063138  1
  Zn  Zn6  1  0.250000  0.638722  0.560394  1
  Zn  Zn7  1  0.750000  0.361278  0.439606  1
  Ir  Ir8  1  0.750000  0.747241  0.368234  1
  Ir  Ir9  1  0.250000  0.252759  0.631766  1
  Ir  Ir10  1  0.750000  0.256575  0.124258  1
  Ir  Ir11  1  0.250000  0.743425  0.875742  1
