# generated using pymatgen
data_YLu2Sc2Pb3
_symmetry_space_group_name_H-M   'P 1'
_cell_length_a   8.81962781
_cell_length_b   8.82941912
_cell_length_c   6.32835400
_cell_angle_alpha   90.00000000
_cell_angle_beta   90.00000000
_cell_angle_gamma   120.03673393
_symmetry_Int_Tables_number   1
_chemical_formula_structural   YLu2Sc2Pb3
_chemical_formula_sum   'Y2 Lu4 Sc4 Pb6'
_cell_volume   426.62167061
_cell_formula_units_Z   2
loop_
 _symmetry_equiv_pos_site_id
 _symmetry_equiv_pos_as_xyz
  1  'x, y, z'
loop_
 _atom_site_type_symbol
 _atom_site_label
 _atom_site_symmetry_multiplicity
 _atom_site_fract_x
 _atom_site_fract_y
 _atom_site_fract_z
 _atom_site_occupancy
  Y  Y0  1  0.236426  0.999458  0.250000  1
  Y  Y1  1  0.236426  0.236968  0.750000  1
  Lu  Lu2  1  0.999301  0.762801  0.750000  1
  Lu  Lu3  1  0.999301  0.236500  0.250000  1
  Lu  Lu4  1  0.764057  0.764335  0.250000  1
  Lu  Lu5  1  0.764057  0.999723  0.750000  1
  Sc  Sc6  1  0.333512  0.666757  0.000000  1
  Sc  Sc7  1  0.666772  0.333386  0.500000  1
  Sc  Sc8  1  0.666772  0.333386  0.000000  1
  Sc  Sc9  1  0.333512  0.666757  0.500000  1
  Pb  Pb10  1  0.602704  0.000056  0.250000  1
  Pb  Pb11  1  0.602704  0.602648  0.750000  1
  Pb  Pb12  1  0.998533  0.399104  0.750000  1
  Pb  Pb13  1  0.998533  0.599428  0.250000  1
  Pb  Pb14  1  0.398694  0.400280  0.250000  1
  Pb  Pb15  1  0.398694  0.998415  0.750000  1
