# generated using pymatgen
data_Rb2Mn(TeO4)3
_symmetry_space_group_name_H-M   'P 1'
_cell_length_a   7.12544000
_cell_length_b   7.12545695
_cell_length_c   7.12584345
_cell_angle_alpha   61.21693966
_cell_angle_beta   61.21696683
_cell_angle_gamma   61.22018532
_symmetry_Int_Tables_number   1
_chemical_formula_structural   Rb2Mn(TeO4)3
_chemical_formula_sum   'Rb2 Mn1 Te3 O12'
_cell_volume   262.83501789
_cell_formula_units_Z   1
loop_
 _symmetry_equiv_pos_site_id
 _symmetry_equiv_pos_as_xyz
  1  'x, y, z'
loop_
 _atom_site_type_symbol
 _atom_site_label
 _atom_site_symmetry_multiplicity
 _atom_site_fract_x
 _atom_site_fract_y
 _atom_site_fract_z
 _atom_site_occupancy
  Rb  Rb0  1  0.864141  0.876261  0.367372  1
  Rb  Rb1  1  0.123745  0.135844  0.632587  1
  Mn  Mn2  1  0.496170  0.504169  0.999964  1
  Te  Te3  1  0.996276  0.503815  0.000004  1
  Te  Te4  1  0.496187  0.003742  0.999991  1
  Te  Te5  1  0.496231  0.503740  0.500006  1
  O  O6  1  0.168729  0.176254  0.068829  1
  O  O7  1  0.566205  0.572782  0.681833  1
  O  O8  1  0.178011  0.573158  0.069785  1
  O  O9  1  0.564958  0.176213  0.672542  1
  O  O10  1  0.565952  0.185668  0.068972  1
  O  O11  1  0.168649  0.573019  0.672499  1
  O  O12  1  0.823714  0.831242  0.931112  1
  O  O13  1  0.427188  0.433764  0.318241  1
  O  O14  1  0.814316  0.434021  0.931063  1
  O  O15  1  0.426978  0.831297  0.327498  1
  O  O16  1  0.426820  0.821967  0.930248  1
  O  O17  1  0.823731  0.435044  0.327455  1
