# generated using pymatgen
data_Tb16MgCdHg2(OsPd)2
_symmetry_space_group_name_H-M   'P 1'
_cell_length_a   9.73145003
_cell_length_b   9.73144908
_cell_length_c   9.80060500
_cell_angle_alpha   59.50769891
_cell_angle_beta   59.50770221
_cell_angle_gamma   59.34282301
_symmetry_Int_Tables_number   1
_chemical_formula_structural   Tb16MgCdHg2(OsPd)2
_chemical_formula_sum   'Tb16 Mg1 Cd1 Hg2 Os2 Pd2'
_cell_volume   648.11153845
_cell_formula_units_Z   1
loop_
 _symmetry_equiv_pos_site_id
 _symmetry_equiv_pos_as_xyz
  1  'x, y, z'
loop_
 _atom_site_type_symbol
 _atom_site_label
 _atom_site_symmetry_multiplicity
 _atom_site_fract_x
 _atom_site_fract_y
 _atom_site_fract_z
 _atom_site_occupancy
  Tb  Tb0  1  0.352255  0.352079  0.355728  1
  Tb  Tb1  1  0.350403  0.349118  0.947009  1
  Tb  Tb2  1  0.343334  0.957288  0.349650  1
  Tb  Tb3  1  0.955669  0.343952  0.350069  1
  Tb  Tb4  1  0.814971  0.189226  0.192171  1
  Tb  Tb5  1  0.184441  0.816925  0.806614  1
  Tb  Tb6  1  0.188355  0.815825  0.191336  1
  Tb  Tb7  1  0.816530  0.185154  0.806766  1
  Tb  Tb8  1  0.188484  0.189814  0.810684  1
  Tb  Tb9  1  0.809548  0.809363  0.192260  1
  Tb  Tb10  1  0.938047  0.555962  0.568935  1
  Tb  Tb11  1  0.555669  0.937203  0.939808  1
  Tb  Tb12  1  0.555015  0.939933  0.568765  1
  Tb  Tb13  1  0.936158  0.556252  0.940832  1
  Tb  Tb14  1  0.563616  0.564654  0.937855  1
  Tb  Tb15  1  0.937225  0.940003  0.562431  1
  Mg  Mg16  1  0.574623  0.571879  0.570911  1
  Cd  Cd17  1  0.252677  0.582784  0.581296  1
  Hg  Hg18  1  0.585301  0.587661  0.244015  1
  Hg  Hg19  1  0.585823  0.242867  0.587064  1
  Os  Os20  1  0.145173  0.145623  0.137378  1
  Os  Os21  1  0.147120  0.147259  0.574199  1
  Pd  Pd22  1  0.147018  0.572320  0.142097  1
  Pd  Pd23  1  0.572545  0.146856  0.142131  1
