# generated using pymatgen
data_NaNb3(Co4P3)2
_symmetry_space_group_name_H-M   'P 1'
_cell_length_a   12.00570000
_cell_length_b   12.00569984
_cell_length_c   3.59930700
_cell_angle_alpha   90.00000000
_cell_angle_beta   90.00000000
_cell_angle_gamma   120.00000045
_symmetry_Int_Tables_number   1
_chemical_formula_structural   NaNb3(Co4P3)2
_chemical_formula_sum   'Na2 Nb6 Co16 P12'
_cell_volume   449.28765806
_cell_formula_units_Z   2
loop_
 _symmetry_equiv_pos_site_id
 _symmetry_equiv_pos_as_xyz
  1  'x, y, z'
loop_
 _atom_site_type_symbol
 _atom_site_label
 _atom_site_symmetry_multiplicity
 _atom_site_fract_x
 _atom_site_fract_y
 _atom_site_fract_z
 _atom_site_occupancy
  Na  Na0  1  0.333333  0.666667  0.000000  1
  Na  Na1  1  0.666667  0.333333  0.000000  1
  Nb  Nb2  1  0.821083  0.000000  0.500000  1
  Nb  Nb3  1  0.000000  0.821083  0.500000  1
  Nb  Nb4  1  0.178917  0.178917  0.500000  1
  Nb  Nb5  1  0.444231  0.000000  0.000000  1
  Nb  Nb6  1  0.000000  0.444231  0.000000  1
  Nb  Nb7  1  0.555769  0.555769  0.000000  1
  Co  Co8  1  0.274908  0.000000  0.500000  1
  Co  Co9  1  0.000000  0.274908  0.500000  1
  Co  Co10  1  0.725092  0.725092  0.500000  1
  Co  Co11  1  0.636230  0.809121  0.000000  1
  Co  Co12  1  0.190879  0.827109  0.000000  1
  Co  Co13  1  0.172891  0.363770  0.000000  1
  Co  Co14  1  0.363770  0.172891  0.000000  1
  Co  Co15  1  0.809121  0.636230  0.000000  1
  Co  Co16  1  0.827109  0.190879  0.000000  1
  Co  Co17  1  0.525812  0.875922  0.500000  1
  Co  Co18  1  0.124078  0.649890  0.500000  1
  Co  Co19  1  0.350110  0.474188  0.500000  1
  Co  Co20  1  0.474188  0.350110  0.500000  1
  Co  Co21  1  0.875922  0.525812  0.500000  1
  Co  Co22  1  0.649890  0.124078  0.500000  1
  Co  Co23  1  0.000000  0.000000  0.000000  1
  P  P24  1  0.172164  0.000000  0.000000  1
  P  P25  1  0.000000  0.172164  0.000000  1
  P  P26  1  0.827836  0.827836  0.000000  1
  P  P27  1  0.517045  0.687938  0.500000  1
  P  P28  1  0.312062  0.829107  0.500000  1
  P  P29  1  0.170893  0.482955  0.500000  1
  P  P30  1  0.482955  0.170893  0.500000  1
  P  P31  1  0.687938  0.517045  0.500000  1
  P  P32  1  0.829107  0.312062  0.500000  1
  P  P33  1  0.648805  0.000000  0.000000  1
  P  P34  1  0.000000  0.648805  0.000000  1
  P  P35  1  0.351195  0.351195  0.000000  1
