# generated using pymatgen
data_Dy4Al16SiGeIr6
_symmetry_space_group_name_H-M   'P 1'
_cell_length_a   7.54900608
_cell_length_b   7.54900572
_cell_length_c   9.39313400
_cell_angle_alpha   90.00000000
_cell_angle_beta   90.00000000
_cell_angle_gamma   119.68088322
_symmetry_Int_Tables_number   1
_chemical_formula_structural   Dy4Al16SiGeIr6
_chemical_formula_sum   'Dy4 Al16 Si1 Ge1 Ir6'
_cell_volume   465.05920831
_cell_formula_units_Z   1
loop_
 _symmetry_equiv_pos_site_id
 _symmetry_equiv_pos_as_xyz
  1  'x, y, z'
loop_
 _atom_site_type_symbol
 _atom_site_label
 _atom_site_symmetry_multiplicity
 _atom_site_fract_x
 _atom_site_fract_y
 _atom_site_fract_z
 _atom_site_occupancy
  Dy  Dy0  1  0.995198  0.675437  0.750000  1
  Dy  Dy1  1  0.004833  0.324649  0.250000  1
  Dy  Dy2  1  0.675437  0.995198  0.750000  1
  Dy  Dy3  1  0.324649  0.004833  0.250000  1
  Al  Al4  1  0.000345  0.337021  0.573750  1
  Al  Al5  1  0.998475  0.663074  0.423228  1
  Al  Al6  1  0.998475  0.663074  0.076772  1
  Al  Al7  1  0.337021  0.000345  0.926250  1
  Al  Al8  1  0.000345  0.337021  0.926250  1
  Al  Al9  1  0.663074  0.998475  0.076772  1
  Al  Al10  1  0.663074  0.998475  0.423228  1
  Al  Al11  1  0.337021  0.000345  0.573750  1
  Al  Al12  1  0.335555  0.335555  0.058762  1
  Al  Al13  1  0.664542  0.664542  0.943424  1
  Al  Al14  1  0.664542  0.664542  0.556576  1
  Al  Al15  1  0.335555  0.335555  0.441238  1
  Al  Al16  1  0.336352  0.552990  0.750000  1
  Al  Al17  1  0.664288  0.451070  0.250000  1
  Al  Al18  1  0.552990  0.336352  0.750000  1
  Al  Al19  1  0.451070  0.664288  0.250000  1
  Si  Si20  1  0.869001  0.869001  0.250000  1
  Ge  Ge21  1  0.132638  0.132638  0.750000  1
  Ir  Ir22  1  0.670919  0.328132  0.499850  1
  Ir  Ir23  1  0.328132  0.670919  0.499850  1
  Ir  Ir24  1  0.328132  0.670919  0.000150  1
  Ir  Ir25  1  0.670919  0.328132  0.000150  1
  Ir  Ir26  1  0.998710  0.998710  0.493522  1
  Ir  Ir27  1  0.998710  0.998710  0.006478  1
