# generated using pymatgen
data_CaNd3Lu4(B6Os)4
_symmetry_space_group_name_H-M   'P 1'
_cell_length_a   3.65732300
_cell_length_b   9.15841130
_cell_length_c   11.59680665
_cell_angle_alpha   89.93896080
_cell_angle_beta   90.00000000
_cell_angle_gamma   90.00000000
_symmetry_Int_Tables_number   1
_chemical_formula_structural   CaNd3Lu4(B6Os)4
_chemical_formula_sum   'Ca1 Nd3 Lu4 B24 Os4'
_cell_volume   388.43792944
_cell_formula_units_Z   1
loop_
 _symmetry_equiv_pos_site_id
 _symmetry_equiv_pos_as_xyz
  1  'x, y, z'
loop_
 _atom_site_type_symbol
 _atom_site_label
 _atom_site_symmetry_multiplicity
 _atom_site_fract_x
 _atom_site_fract_y
 _atom_site_fract_z
 _atom_site_occupancy
  Ca  Ca0  1  0.000000  0.321933  0.414228  1
  Nd  Nd1  1  0.000000  0.676126  0.584635  1
  Nd  Nd2  1  0.000000  0.822408  0.086439  1
  Nd  Nd3  1  0.000000  0.178224  0.914741  1
  Lu  Lu4  1  0.000000  0.945470  0.372141  1
  Lu  Lu5  1  0.000000  0.057175  0.626773  1
  Lu  Lu6  1  0.000000  0.443899  0.129192  1
  Lu  Lu7  1  0.000000  0.555014  0.872131  1
  B  B8  1  0.500000  0.554495  0.430194  1
  B  B9  1  0.500000  0.443168  0.568461  1
  B  B10  1  0.500000  0.056297  0.070014  1
  B  B11  1  0.500000  0.943466  0.929897  1
  B  B12  1  0.500000  0.750295  0.416588  1
  B  B13  1  0.500000  0.249778  0.581608  1
  B  B14  1  0.500000  0.250726  0.083827  1
  B  B15  1  0.500000  0.748800  0.916948  1
  B  B16  1  0.500000  0.791893  0.266791  1
  B  B17  1  0.500000  0.208803  0.732950  1
  B  B18  1  0.500000  0.292169  0.234896  1
  B  B19  1  0.500000  0.708268  0.766439  1
  B  B20  1  0.500000  0.629832  0.185956  1
  B  B21  1  0.500000  0.369814  0.814955  1
  B  B22  1  0.500000  0.131459  0.315678  1
  B  B23  1  0.500000  0.869986  0.684634  1
  B  B24  1  0.500000  0.985554  0.214606  1
  B  B25  1  0.500000  0.015306  0.785039  1
  B  B26  1  0.500000  0.483243  0.286555  1
  B  B27  1  0.500000  0.514630  0.714040  1
  B  B28  1  0.500000  0.600305  0.027443  1
  B  B29  1  0.500000  0.399671  0.973091  1
  B  B30  1  0.500000  0.101347  0.472417  1
  B  B31  1  0.500000  0.900356  0.527013  1
  Os  Os32  1  0.000000  0.640266  0.318635  1
  Os  Os33  1  0.000000  0.359858  0.681496  1
  Os  Os34  1  0.000000  0.139943  0.181005  1
  Os  Os35  1  0.000000  0.860022  0.818544  1
