# generated using pymatgen
data_YbHf5(Be2Ir5)2
_symmetry_space_group_name_H-M   'P 1'
_cell_length_a   9.58678169
_cell_length_b   9.58678169
_cell_length_c   3.28432200
_cell_angle_alpha   90.00000000
_cell_angle_beta   90.00000000
_cell_angle_gamma   89.75065858
_symmetry_Int_Tables_number   1
_chemical_formula_structural   YbHf5(Be2Ir5)2
_chemical_formula_sum   'Yb1 Hf5 Be4 Ir10'
_cell_volume   301.84729822
_cell_formula_units_Z   1
loop_
 _symmetry_equiv_pos_site_id
 _symmetry_equiv_pos_as_xyz
  1  'x, y, z'
loop_
 _atom_site_type_symbol
 _atom_site_label
 _atom_site_symmetry_multiplicity
 _atom_site_fract_x
 _atom_site_fract_y
 _atom_site_fract_z
 _atom_site_occupancy
  Yb  Yb0  1  0.175358  0.675358  0.000000  1
  Hf  Hf1  1  0.324310  0.174157  0.000000  1
  Hf  Hf2  1  0.826046  0.326046  0.000000  1
  Hf  Hf3  1  0.496817  0.501040  0.000000  1
  Hf  Hf4  1  0.674157  0.824310  0.000000  1
  Hf  Hf5  1  0.001040  0.996817  0.000000  1
  Be  Be6  1  0.382291  0.882291  0.000000  1
  Be  Be7  1  0.117732  0.377920  0.000000  1
  Be  Be8  1  0.877920  0.617732  0.000000  1
  Be  Be9  1  0.621664  0.121664  0.000000  1
  Ir  Ir10  1  0.223250  0.942503  0.500000  1
  Ir  Ir11  1  0.916600  0.783500  0.500000  1
  Ir  Ir12  1  0.442503  0.723250  0.500000  1
  Ir  Ir13  1  0.573899  0.285315  0.500000  1
  Ir  Ir14  1  0.713476  0.567913  0.500000  1
  Ir  Ir15  1  0.283500  0.416600  0.500000  1
  Ir  Ir16  1  0.067913  0.213476  0.500000  1
  Ir  Ir17  1  0.991752  0.491752  0.500000  1
  Ir  Ir18  1  0.504455  0.004455  0.500000  1
  Ir  Ir19  1  0.785315  0.073899  0.500000  1
