# generated using pymatgen
data_HfZr5Ta4Ga12Os7
_symmetry_space_group_name_H-M   'P 1'
_cell_length_a   8.86251528
_cell_length_b   8.86251585
_cell_length_c   8.85406500
_cell_angle_alpha   60.03152699
_cell_angle_beta   60.03152483
_cell_angle_gamma   59.94791026
_symmetry_Int_Tables_number   1
_chemical_formula_structural   HfZr5Ta4Ga12Os7
_chemical_formula_sum   'Hf1 Zr5 Ta4 Ga12 Os7'
_cell_volume   491.78705284
_cell_formula_units_Z   1
loop_
 _symmetry_equiv_pos_site_id
 _symmetry_equiv_pos_as_xyz
  1  'x, y, z'
loop_
 _atom_site_type_symbol
 _atom_site_label
 _atom_site_symmetry_multiplicity
 _atom_site_fract_x
 _atom_site_fract_y
 _atom_site_fract_z
 _atom_site_occupancy
  Hf  Hf0  1  0.704098  0.704098  0.295902  1
  Zr  Zr1  1  0.296344  0.703881  0.295937  1
  Zr  Zr2  1  0.703881  0.296344  0.295937  1
  Zr  Zr3  1  0.295883  0.295883  0.704117  1
  Zr  Zr4  1  0.703881  0.296344  0.703838  1
  Zr  Zr5  1  0.296344  0.703881  0.703838  1
  Ta  Ta6  1  0.877586  0.877586  0.366866  1
  Ta  Ta7  1  0.877637  0.367005  0.877679  1
  Ta  Ta8  1  0.367005  0.877637  0.877679  1
  Ta  Ta9  1  0.877586  0.877586  0.877964  1
  Ga  Ga10  1  0.120415  0.120415  0.638753  1
  Ga  Ga11  1  0.120346  0.638795  0.120429  1
  Ga  Ga12  1  0.638795  0.120346  0.120429  1
  Ga  Ga13  1  0.120415  0.120415  0.120416  1
  Ga  Ga14  1  0.656592  0.656592  0.030336  1
  Ga  Ga15  1  0.656635  0.030091  0.656637  1
  Ga  Ga16  1  0.030091  0.656635  0.656637  1
  Ga  Ga17  1  0.656592  0.656592  0.656479  1
  Ga  Ga18  1  0.339323  0.339323  0.982086  1
  Ga  Ga19  1  0.339471  0.981927  0.339302  1
  Ga  Ga20  1  0.981927  0.339471  0.339302  1
  Ga  Ga21  1  0.339323  0.339323  0.339268  1
  Os  Os22  1  0.999979  0.999979  0.000021  1
  Os  Os23  1  0.997640  0.997640  0.502360  1
  Os  Os24  1  0.502856  0.997014  0.501927  1
  Os  Os25  1  0.997014  0.502856  0.501927  1
  Os  Os26  1  0.502472  0.502472  0.997528  1
  Os  Os27  1  0.997014  0.502856  0.998203  1
  Os  Os28  1  0.502856  0.997014  0.998203  1
