# generated using pymatgen
data_Ca2Yb4N3
_symmetry_space_group_name_H-M   'P 1'
_cell_length_a   3.55142803
_cell_length_b   3.55143119
_cell_length_c   19.19054509
_cell_angle_alpha   89.99999968
_cell_angle_beta   90.00986471
_cell_angle_gamma   120.00001962
_symmetry_Int_Tables_number   1
_chemical_formula_structural   Ca2Yb4N3
_chemical_formula_sum   'Ca2 Yb4 N3'
_cell_volume   209.61592313
_cell_formula_units_Z   1
loop_
 _symmetry_equiv_pos_site_id
 _symmetry_equiv_pos_as_xyz
  1  'x, y, z'
loop_
 _atom_site_type_symbol
 _atom_site_label
 _atom_site_symmetry_multiplicity
 _atom_site_fract_x
 _atom_site_fract_y
 _atom_site_fract_z
 _atom_site_occupancy
  Ca  Ca0  1  0.000145  0.000072  0.733265  1
  Ca  Ca1  1  0.333237  0.666618  0.933396  1
  Yb  Yb2  1  0.666765  0.333384  0.064793  1
  Yb  Yb3  1  0.999866  0.999934  0.268120  1
  Yb  Yb4  1  0.333403  0.666701  0.398624  1
  Yb  Yb5  1  0.666619  0.333310  0.601834  1
  N  N6  1  0.999982  0.999991  0.001573  1
  N  N7  1  0.666656  0.333328  0.333363  1
  N  N8  1  0.333391  0.666695  0.665063  1
