# generated using pymatgen
data_V5Tc2
_symmetry_space_group_name_H-M   'P 1'
_cell_length_a   3.00591495
_cell_length_b   5.01413405
_cell_length_c   8.93521832
_cell_angle_alpha   105.40017522
_cell_angle_beta   120.44021776
_cell_angle_gamma   107.29601757
_symmetry_Int_Tables_number   1
_chemical_formula_structural   V5Tc2
_chemical_formula_sum   'V5 Tc2'
_cell_volume   95.64582376
_cell_formula_units_Z   1
loop_
 _symmetry_equiv_pos_site_id
 _symmetry_equiv_pos_as_xyz
  1  'x, y, z'
loop_
 _atom_site_type_symbol
 _atom_site_label
 _atom_site_symmetry_multiplicity
 _atom_site_fract_x
 _atom_site_fract_y
 _atom_site_fract_z
 _atom_site_occupancy
  V  V0  1  0.866746  0.179713  0.289031  1
  V  V1  1  0.011018  0.614370  0.572181  1
  V  V2  1  0.154965  0.035829  0.861797  1
  V  V3  1  0.295471  0.469245  0.144866  1
  V  V4  1  0.583491  0.325238  0.717112  1
  Tc  Tc5  1  0.722422  0.753694  0.000782  1
  Tc  Tc6  1  0.442344  0.897021  0.433284  1
