# generated using pymatgen
data_Sc5SiTc3P11Ir16
_symmetry_space_group_name_H-M   'P 1'
_cell_length_a   12.58460252
_cell_length_b   12.56331798
_cell_length_c   3.92557600
_cell_angle_alpha   90.00000000
_cell_angle_beta   90.00000000
_cell_angle_gamma   119.91495704
_symmetry_Int_Tables_number   1
_chemical_formula_structural   Sc5SiTc3P11Ir16
_chemical_formula_sum   'Sc5 Si1 Tc3 P11 Ir16'
_cell_volume   537.95928456
_cell_formula_units_Z   1
loop_
 _symmetry_equiv_pos_site_id
 _symmetry_equiv_pos_as_xyz
  1  'x, y, z'
loop_
 _atom_site_type_symbol
 _atom_site_label
 _atom_site_symmetry_multiplicity
 _atom_site_fract_x
 _atom_site_fract_y
 _atom_site_fract_z
 _atom_site_occupancy
  Sc  Sc0  1  0.332628  0.665875  0.000000  1
  Sc  Sc1  1  0.667492  0.333402  0.000000  1
  Sc  Sc2  1  0.821429  0.000531  0.500000  1
  Sc  Sc3  1  0.000238  0.820994  0.500000  1
  Sc  Sc4  1  0.179162  0.179824  0.500000  1
  Si  Si5  1  0.168833  0.485362  0.500000  1
  Tc  Tc6  1  0.455768  0.999613  0.000000  1
  Tc  Tc7  1  0.999982  0.454738  0.000000  1
  Tc  Tc8  1  0.546331  0.544308  0.000000  1
  P  P9  1  0.175622  0.001272  0.000000  1
  P  P10  1  0.999851  0.175395  0.000000  1
  P  P11  1  0.824772  0.825167  0.000000  1
  P  P12  1  0.513910  0.683798  0.500000  1
  P  P13  1  0.315092  0.829609  0.500000  1
  P  P14  1  0.684712  0.514521  0.500000  1
  P  P15  1  0.830321  0.315387  0.500000  1
  P  P16  1  0.485656  0.170091  0.500000  1
  P  P17  1  0.640905  0.999851  0.000000  1
  P  P18  1  0.001231  0.640877  0.000000  1
  P  P19  1  0.358977  0.360389  0.000000  1
  Ir  Ir20  1  0.360020  0.489750  0.500000  1
  Ir  Ir21  1  0.508781  0.865851  0.500000  1
  Ir  Ir22  1  0.131436  0.646277  0.500000  1
  Ir  Ir23  1  0.865484  0.508676  0.500000  1
  Ir  Ir24  1  0.642428  0.133934  0.500000  1
  Ir  Ir25  1  0.492417  0.356864  0.500000  1
  Ir  Ir26  1  0.179028  0.369745  0.000000  1
  Ir  Ir27  1  0.629509  0.808857  0.000000  1
  Ir  Ir28  1  0.191152  0.822838  0.000000  1
  Ir  Ir29  1  0.809748  0.630191  0.000000  1
  Ir  Ir30  1  0.819062  0.190586  0.000000  1
  Ir  Ir31  1  0.370049  0.179923  0.000000  1
  Ir  Ir32  1  0.290799  0.000904  0.500000  1
  Ir  Ir33  1  0.996900  0.284600  0.500000  1
  Ir  Ir34  1  0.710362  0.710463  0.500000  1
  Ir  Ir35  1  0.999913  0.999535  0.000000  1
