# generated using pymatgen
data_Er2Co9Si(As2Rh)3
_symmetry_space_group_name_H-M   'P 1'
_cell_length_a   9.38800100
_cell_length_b   9.38800131
_cell_length_c   3.77949800
_cell_angle_alpha   90.00000000
_cell_angle_beta   90.00000000
_cell_angle_gamma   119.99999539
_symmetry_Int_Tables_number   1
_chemical_formula_structural   Er2Co9Si(As2Rh)3
_chemical_formula_sum   'Er2 Co9 Si1 As6 Rh3'
_cell_volume   288.47689858
_cell_formula_units_Z   1
loop_
 _symmetry_equiv_pos_site_id
 _symmetry_equiv_pos_as_xyz
  1  'x, y, z'
loop_
 _atom_site_type_symbol
 _atom_site_label
 _atom_site_symmetry_multiplicity
 _atom_site_fract_x
 _atom_site_fract_y
 _atom_site_fract_z
 _atom_site_occupancy
  Er  Er0  1  0.666667  0.333333  0.742945  1
  Er  Er1  1  0.333333  0.666667  0.242888  1
  Co  Co2  1  0.058402  0.629097  0.742991  1
  Co  Co3  1  0.370903  0.429307  0.742991  1
  Co  Co4  1  0.570693  0.941598  0.742991  1
  Co  Co5  1  0.948564  0.385249  0.242910  1
  Co  Co6  1  0.614751  0.563315  0.242910  1
  Co  Co7  1  0.436685  0.051436  0.242910  1
  Co  Co8  1  0.281763  0.122542  0.743097  1
  Co  Co9  1  0.877458  0.159223  0.743097  1
  Co  Co10  1  0.840777  0.718237  0.743097  1
  Si  Si11  1  0.000000  0.000000  0.743307  1
  As  As12  1  0.299783  0.885936  0.742857  1
  As  As13  1  0.114064  0.413847  0.742857  1
  As  As14  1  0.586153  0.700217  0.742857  1
  As  As15  1  0.710387  0.120323  0.243015  1
  As  As16  1  0.879677  0.590064  0.243015  1
  As  As17  1  0.409936  0.289613  0.243015  1
  Rh  Rh18  1  0.787635  0.904774  0.243291  1
  Rh  Rh19  1  0.095226  0.882862  0.243291  1
  Rh  Rh20  1  0.117138  0.212365  0.243291  1
