# generated using pymatgen
data_Rb6Lu(AsBr6)3
_symmetry_space_group_name_H-M   'P 1'
_cell_length_a   7.76089900
_cell_length_b   7.76089952
_cell_length_c   19.74938700
_cell_angle_alpha   90.00000000
_cell_angle_beta   90.00000000
_cell_angle_gamma   120.00000205
_symmetry_Int_Tables_number   1
_chemical_formula_structural   Rb6Lu(AsBr6)3
_chemical_formula_sum   'Rb6 Lu1 As3 Br18'
_cell_volume   1030.16866347
_cell_formula_units_Z   1
loop_
 _symmetry_equiv_pos_site_id
 _symmetry_equiv_pos_as_xyz
  1  'x, y, z'
loop_
 _atom_site_type_symbol
 _atom_site_label
 _atom_site_symmetry_multiplicity
 _atom_site_fract_x
 _atom_site_fract_y
 _atom_site_fract_z
 _atom_site_occupancy
  Rb  Rb0  1  0.333333  0.666667  0.070155  1
  Rb  Rb1  1  0.666667  0.333333  0.928367  1
  Rb  Rb2  1  0.666667  0.333333  0.569843  1
  Rb  Rb3  1  0.333333  0.666667  0.420377  1
  Rb  Rb4  1  0.000000  0.000000  0.250062  1
  Rb  Rb5  1  0.000000  0.000000  0.758470  1
  Lu  Lu6  1  0.333333  0.666667  0.841495  1
  As  As7  1  0.333333  0.666667  0.653423  1
  As  As8  1  0.666667  0.333333  0.342152  1
  As  As9  1  0.666667  0.333333  0.157054  1
  Br  Br10  1  0.174005  0.348009  0.585974  1
  Br  Br11  1  0.826277  0.652551  0.413070  1
  Br  Br12  1  0.651991  0.825995  0.585974  1
  Br  Br13  1  0.825587  0.651173  0.088202  1
  Br  Br14  1  0.347449  0.173723  0.413070  1
  Br  Br15  1  0.165886  0.331774  0.914302  1
  Br  Br16  1  0.174005  0.825995  0.585974  1
  Br  Br17  1  0.348827  0.174413  0.088202  1
  Br  Br18  1  0.826277  0.173723  0.413070  1
  Br  Br19  1  0.668226  0.834114  0.914302  1
  Br  Br20  1  0.825587  0.174413  0.088202  1
  Br  Br21  1  0.165886  0.834114  0.914302  1
  Br  Br22  1  0.502951  0.005904  0.251560  1
  Br  Br23  1  0.496331  0.992663  0.749760  1
  Br  Br24  1  0.994096  0.497049  0.251560  1
  Br  Br25  1  0.007337  0.503669  0.749760  1
  Br  Br26  1  0.502951  0.497049  0.251560  1
  Br  Br27  1  0.496331  0.503669  0.749760  1
