# generated using pymatgen
data_YbDy4Er2IrI12
_symmetry_space_group_name_H-M   'P 1'
_cell_length_a   9.81035527
_cell_length_b   9.82095005
_cell_length_c   9.77042284
_cell_angle_alpha   107.10187809
_cell_angle_beta   107.22496853
_cell_angle_gamma   106.88031405
_symmetry_Int_Tables_number   1
_chemical_formula_structural   YbDy4Er2IrI12
_chemical_formula_sum   'Yb1 Dy4 Er2 Ir1 I12'
_cell_volume   782.47906336
_cell_formula_units_Z   1
loop_
 _symmetry_equiv_pos_site_id
 _symmetry_equiv_pos_as_xyz
  1  'x, y, z'
loop_
 _atom_site_type_symbol
 _atom_site_label
 _atom_site_symmetry_multiplicity
 _atom_site_fract_x
 _atom_site_fract_y
 _atom_site_fract_z
 _atom_site_occupancy
  Yb  Yb0  1  0.499973  0.499950  0.500038  1
  Dy  Dy1  1  0.093261  0.022145  0.293922  1
  Dy  Dy2  1  0.300737  0.096430  0.023134  1
  Dy  Dy3  1  0.023965  0.300796  0.095887  1
  Dy  Dy4  1  0.905601  0.976930  0.705402  1
  Er  Er5  1  0.701581  0.903406  0.976703  1
  Er  Er6  1  0.975548  0.701491  0.905039  1
  Ir  Ir7  1  0.999680  0.999755  0.999652  1
  I  I8  1  0.071423  0.677854  0.223591  1
  I  I9  1  0.223308  0.071017  0.677151  1
  I  I10  1  0.676979  0.222362  0.070953  1
  I  I11  1  0.928185  0.322915  0.775096  1
  I  I12  1  0.775743  0.928568  0.321653  1
  I  I13  1  0.322704  0.775479  0.928422  1
  I  I14  1  0.456434  0.151280  0.379643  1
  I  I15  1  0.379820  0.457712  0.151380  1
  I  I16  1  0.151590  0.378763  0.457285  1
  I  I17  1  0.543369  0.848622  0.621595  1
  I  I18  1  0.621132  0.543560  0.849242  1
  I  I19  1  0.848966  0.620962  0.544212  1
