# generated using pymatgen
data_Ho5TmHg10
_symmetry_space_group_name_H-M   'P 1'
_cell_length_a   6.36387552
_cell_length_b   6.36387435
_cell_length_c   10.09819300
_cell_angle_alpha   90.00000000
_cell_angle_beta   90.00000000
_cell_angle_gamma   105.37674748
_symmetry_Int_Tables_number   1
_chemical_formula_structural   Ho5TmHg10
_chemical_formula_sum   'Ho5 Tm1 Hg10'
_cell_volume   394.32604341
_cell_formula_units_Z   1
loop_
 _symmetry_equiv_pos_site_id
 _symmetry_equiv_pos_as_xyz
  1  'x, y, z'
loop_
 _atom_site_type_symbol
 _atom_site_label
 _atom_site_symmetry_multiplicity
 _atom_site_fract_x
 _atom_site_fract_y
 _atom_site_fract_z
 _atom_site_occupancy
  Ho  Ho0  1  0.429961  0.429961  0.750000  1
  Ho  Ho1  1  0.214020  0.786081  0.499845  1
  Ho  Ho2  1  0.214020  0.786081  0.000155  1
  Ho  Ho3  1  0.786081  0.214020  0.499845  1
  Ho  Ho4  1  0.786081  0.214020  0.000155  1
  Tm  Tm5  1  0.570457  0.570457  0.250000  1
  Hg  Hg6  1  0.972148  0.972148  0.250000  1
  Hg  Hg7  1  0.026385  0.026385  0.750000  1
  Hg  Hg8  1  0.293489  0.293489  0.030295  1
  Hg  Hg9  1  0.706962  0.706962  0.971770  1
  Hg  Hg10  1  0.293489  0.293489  0.469705  1
  Hg  Hg11  1  0.706962  0.706962  0.528230  1
  Hg  Hg12  1  0.481180  0.038242  0.250000  1
  Hg  Hg13  1  0.961342  0.519183  0.750000  1
  Hg  Hg14  1  0.519183  0.961342  0.750000  1
  Hg  Hg15  1  0.038242  0.481180  0.250000  1
