# generated using pymatgen
data_Ho6Er4In3Hg5Pd4
_symmetry_space_group_name_H-M   'P 1'
_cell_length_a   3.62003900
_cell_length_b   7.94097775
_cell_length_c   18.27012217
_cell_angle_alpha   89.70114162
_cell_angle_beta   90.00000000
_cell_angle_gamma   90.00000000
_symmetry_Int_Tables_number   1
_chemical_formula_structural   Ho6Er4In3Hg5Pd4
_chemical_formula_sum   'Ho6 Er4 In3 Hg5 Pd4'
_cell_volume   525.19764745
_cell_formula_units_Z   1
loop_
 _symmetry_equiv_pos_site_id
 _symmetry_equiv_pos_as_xyz
  1  'x, y, z'
loop_
 _atom_site_type_symbol
 _atom_site_label
 _atom_site_symmetry_multiplicity
 _atom_site_fract_x
 _atom_site_fract_y
 _atom_site_fract_z
 _atom_site_occupancy
  Ho  Ho0  1  0.000000  0.497395  0.501520  1
  Ho  Ho1  1  0.000000  0.000984  0.000574  1
  Ho  Ho2  1  0.000000  0.745549  0.284528  1
  Ho  Ho3  1  0.000000  0.265354  0.712227  1
  Ho  Ho4  1  0.000000  0.753439  0.782839  1
  Ho  Ho5  1  0.000000  0.246433  0.216177  1
  Er  Er6  1  0.000000  0.611638  0.083529  1
  Er  Er7  1  0.000000  0.387310  0.916406  1
  Er  Er8  1  0.000000  0.883354  0.585360  1
  Er  Er9  1  0.000000  0.108178  0.416988  1
  In  In10  1  0.500000  0.419976  0.351792  1
  In  In11  1  0.500000  0.921551  0.149544  1
  In  In12  1  0.500000  0.079486  0.849397  1
  Hg  Hg13  1  0.500000  0.712881  0.934339  1
  Hg  Hg14  1  0.500000  0.288071  0.066236  1
  Hg  Hg15  1  0.500000  0.784840  0.434347  1
  Hg  Hg16  1  0.500000  0.205280  0.563927  1
  Hg  Hg17  1  0.500000  0.581646  0.647872  1
  Pd  Pd18  1  0.500000  0.534663  0.197798  1
  Pd  Pd19  1  0.500000  0.465393  0.803949  1
  Pd  Pd20  1  0.500000  0.972753  0.697808  1
  Pd  Pd21  1  0.500000  0.033826  0.302844  1
