# generated using pymatgen
data_Li3Pr3SiAgAs
_symmetry_space_group_name_H-M   'P 1'
_cell_length_a   7.41193900
_cell_length_b   7.41193971
_cell_length_c   4.34038600
_cell_angle_alpha   90.00000000
_cell_angle_beta   90.00000000
_cell_angle_gamma   120.00000128
_symmetry_Int_Tables_number   1
_chemical_formula_structural   Li3Pr3SiAgAs
_chemical_formula_sum   'Li3 Pr3 Si1 Ag1 As1'
_cell_volume   206.50125468
_cell_formula_units_Z   1
loop_
 _symmetry_equiv_pos_site_id
 _symmetry_equiv_pos_as_xyz
  1  'x, y, z'
loop_
 _atom_site_type_symbol
 _atom_site_label
 _atom_site_symmetry_multiplicity
 _atom_site_fract_x
 _atom_site_fract_y
 _atom_site_fract_z
 _atom_site_occupancy
  Li  Li0  1  0.245735  0.000113  0.500000  1
  Li  Li1  1  0.754378  0.754265  0.500000  1
  Li  Li2  1  0.999887  0.245622  0.500000  1
  Pr  Pr3  1  0.995759  0.577805  0.000000  1
  Pr  Pr4  1  0.582046  0.004241  0.000000  1
  Pr  Pr5  1  0.422195  0.417954  0.000000  1
  Si  Si6  1  0.666667  0.333333  0.500000  1
  Ag  Ag7  1  0.000000  0.000000  0.000000  1
  As  As8  1  0.333333  0.666667  0.500000  1
