# generated using pymatgen
data_K16Ti3SiSe16
_symmetry_space_group_name_H-M   'P 1'
_cell_length_a   8.28194667
_cell_length_b   10.09916200
_cell_length_c   14.78164700
_cell_angle_alpha   90.00000000
_cell_angle_beta   89.89976974
_cell_angle_gamma   90.00000000
_symmetry_Int_Tables_number   1
_chemical_formula_structural   K16Ti3SiSe16
_chemical_formula_sum   'K16 Ti3 Si1 Se16'
_cell_volume   1236.34572266
_cell_formula_units_Z   1
loop_
 _symmetry_equiv_pos_site_id
 _symmetry_equiv_pos_as_xyz
  1  'x, y, z'
loop_
 _atom_site_type_symbol
 _atom_site_label
 _atom_site_symmetry_multiplicity
 _atom_site_fract_x
 _atom_site_fract_y
 _atom_site_fract_z
 _atom_site_occupancy
  K  K0  1  0.500351  0.504475  0.499854  1
  K  K1  1  0.157966  0.448611  0.275230  1
  K  K2  1  0.157966  0.051389  0.275230  1
  K  K3  1  0.012178  0.750000  0.428451  1
  K  K4  1  0.989964  0.250000  0.572911  1
  K  K5  1  0.657971  0.948069  0.224050  1
  K  K6  1  0.340869  0.053457  0.776140  1
  K  K7  1  0.842208  0.952820  0.726446  1
  K  K8  1  0.340869  0.446543  0.776140  1
  K  K9  1  0.999801  0.495802  0.999344  1
  K  K10  1  0.512053  0.250000  0.073486  1
  K  K11  1  0.657971  0.551931  0.224050  1
  K  K12  1  0.490562  0.750000  0.922655  1
  K  K13  1  0.999801  0.004198  0.999344  1
  K  K14  1  0.842208  0.547180  0.726446  1
  K  K15  1  0.500351  0.995525  0.499854  1
  Ti  Ti16  1  0.756998  0.250000  0.334187  1
  Ti  Ti17  1  0.243196  0.750000  0.667160  1
  Ti  Ti18  1  0.257734  0.750000  0.164644  1
  Si  Si19  1  0.740286  0.250000  0.833385  1
  Se  Se20  1  0.534601  0.750000  0.674380  1
  Se  Se21  1  0.465849  0.250000  0.327670  1
  Se  Se22  1  0.369266  0.750000  0.316671  1
  Se  Se23  1  0.129935  0.750000  0.818743  1
  Se  Se24  1  0.020346  0.250000  0.826631  1
  Se  Se25  1  0.966912  0.750000  0.171573  1
  Se  Se26  1  0.635582  0.250000  0.687480  1
  Se  Se27  1  0.870921  0.250000  0.182662  1
  Se  Se28  1  0.846333  0.446360  0.410242  1
  Se  Se29  1  0.653308  0.064275  0.908541  1
  Se  Se30  1  0.348996  0.945249  0.088029  1
  Se  Se31  1  0.348996  0.554751  0.088029  1
  Se  Se32  1  0.154007  0.553849  0.590778  1
  Se  Se33  1  0.846333  0.053640  0.410242  1
  Se  Se34  1  0.154007  0.946151  0.590778  1
  Se  Se35  1  0.653308  0.435725  0.908541  1
