# generated using pymatgen
data_Pr2BeGaGe2
_symmetry_space_group_name_H-M   'P 1'
_cell_length_a   4.13527286
_cell_length_b   4.24334950
_cell_length_c   7.72948700
_cell_angle_alpha   105.90514260
_cell_angle_beta   105.50735315
_cell_angle_gamma   90.06381360
_symmetry_Int_Tables_number   1
_chemical_formula_structural   Pr2BeGaGe2
_chemical_formula_sum   'Pr2 Be1 Ga1 Ge2'
_cell_volume   125.28594015
_cell_formula_units_Z   1
loop_
 _symmetry_equiv_pos_site_id
 _symmetry_equiv_pos_as_xyz
  1  'x, y, z'
loop_
 _atom_site_type_symbol
 _atom_site_label
 _atom_site_symmetry_multiplicity
 _atom_site_fract_x
 _atom_site_fract_y
 _atom_site_fract_z
 _atom_site_occupancy
  Pr  Pr0  1  0.997927  0.246453  0.493841  1
  Pr  Pr1  1  0.249723  0.001006  0.002135  1
  Be  Be2  1  0.833037  0.584736  0.167970  1
  Ga  Ga3  1  0.587233  0.831262  0.662096  1
  Ge  Ge4  1  0.407050  0.657885  0.316004  1
  Ge  Ge5  1  0.671853  0.425481  0.851353  1
