# generated using pymatgen
data_Tb4Al18Re2PdAu3
_symmetry_space_group_name_H-M   'P 1'
_cell_length_a   7.69818084
_cell_length_b   7.69818071
_cell_length_c   9.58045962
_cell_angle_alpha   90.00091848
_cell_angle_beta   90.00091577
_cell_angle_gamma   119.28850652
_symmetry_Int_Tables_number   1
_chemical_formula_structural   Tb4Al18Re2PdAu3
_chemical_formula_sum   'Tb4 Al18 Re2 Pd1 Au3'
_cell_volume   495.17922634
_cell_formula_units_Z   1
loop_
 _symmetry_equiv_pos_site_id
 _symmetry_equiv_pos_as_xyz
  1  'x, y, z'
loop_
 _atom_site_type_symbol
 _atom_site_label
 _atom_site_symmetry_multiplicity
 _atom_site_fract_x
 _atom_site_fract_y
 _atom_site_fract_z
 _atom_site_occupancy
  Tb  Tb0  1  0.995456  0.674219  0.250310  1
  Tb  Tb1  1  0.008416  0.328641  0.749990  1
  Tb  Tb2  1  0.671359  0.991584  0.250010  1
  Tb  Tb3  1  0.325781  0.004544  0.749690  1
  Al  Al4  1  0.124673  0.125953  0.250866  1
  Al  Al5  1  0.874047  0.875327  0.749134  1
  Al  Al6  1  0.001582  0.326633  0.079269  1
  Al  Al7  1  0.996537  0.672987  0.920585  1
  Al  Al8  1  0.993478  0.668231  0.577069  1
  Al  Al9  1  0.331769  0.006522  0.422931  1
  Al  Al10  1  0.993942  0.325585  0.423024  1
  Al  Al11  1  0.674415  0.006058  0.576976  1
  Al  Al12  1  0.673367  0.998418  0.920731  1
  Al  Al13  1  0.327013  0.003463  0.079415  1
  Al  Al14  1  0.327634  0.323785  0.551663  1
  Al  Al15  1  0.676215  0.672366  0.448337  1
  Al  Al16  1  0.675283  0.674919  0.055957  1
  Al  Al17  1  0.325081  0.324717  0.944043  1
  Al  Al18  1  0.344700  0.542557  0.250594  1
  Al  Al19  1  0.655111  0.450063  0.744952  1
  Al  Al20  1  0.549937  0.344889  0.255048  1
  Al  Al21  1  0.457443  0.655300  0.749406  1
  Re  Re22  1  0.999876  0.000124  0.000000  1
  Re  Re23  1  0.999900  0.000100  0.500000  1
  Pd  Pd24  1  0.671650  0.328350  0.500000  1
  Au  Au25  1  0.672863  0.327137  0.000000  1
  Au  Au26  1  0.326251  0.673749  0.000000  1
  Au  Au27  1  0.326223  0.673777  0.500000  1
