# generated using pymatgen
data_CaCdPbO4
_symmetry_space_group_name_H-M   'P 1'
_cell_length_a   3.40122600
_cell_length_b   5.81680068
_cell_length_c   10.03530595
_cell_angle_alpha   90.93311360
_cell_angle_beta   90.00000000
_cell_angle_gamma   90.00000000
_symmetry_Int_Tables_number   1
_chemical_formula_structural   CaCdPbO4
_chemical_formula_sum   'Ca2 Cd2 Pb2 O8'
_cell_volume   198.51470987
_cell_formula_units_Z   2
loop_
 _symmetry_equiv_pos_site_id
 _symmetry_equiv_pos_as_xyz
  1  'x, y, z'
loop_
 _atom_site_type_symbol
 _atom_site_label
 _atom_site_symmetry_multiplicity
 _atom_site_fract_x
 _atom_site_fract_y
 _atom_site_fract_z
 _atom_site_occupancy
  Ca  Ca0  1  0.500000  0.930919  0.316963  1
  Ca  Ca1  1  0.500000  0.069081  0.683037  1
  Cd  Cd2  1  0.500000  0.432622  0.176545  1
  Cd  Cd3  1  0.500000  0.567378  0.823455  1
  Pb  Pb4  1  0.000000  0.500000  0.500000  1
  Pb  Pb5  1  0.000000  0.000000  0.000000  1
  O  O6  1  0.000000  0.143932  0.200172  1
  O  O7  1  0.000000  0.856068  0.799828  1
  O  O8  1  0.000000  0.639725  0.298382  1
  O  O9  1  0.000000  0.360275  0.701618  1
  O  O10  1  0.500000  0.252623  0.460998  1
  O  O11  1  0.500000  0.747377  0.539002  1
  O  O12  1  0.500000  0.759694  0.046344  1
  O  O13  1  0.500000  0.240306  0.953656  1
