# generated using pymatgen
data_Hf3ZrTi2(Si2Mo)2
_symmetry_space_group_name_H-M   'P 1'
_cell_length_a   3.57253200
_cell_length_b   6.89565364
_cell_length_c   8.28692036
_cell_angle_alpha   89.88237714
_cell_angle_beta   90.00000000
_cell_angle_gamma   90.00000000
_symmetry_Int_Tables_number   1
_chemical_formula_structural   Hf3ZrTi2(Si2Mo)2
_chemical_formula_sum   'Hf3 Zr1 Ti2 Si4 Mo2'
_cell_volume   204.14738285
_cell_formula_units_Z   1
loop_
 _symmetry_equiv_pos_site_id
 _symmetry_equiv_pos_as_xyz
  1  'x, y, z'
loop_
 _atom_site_type_symbol
 _atom_site_label
 _atom_site_symmetry_multiplicity
 _atom_site_fract_x
 _atom_site_fract_y
 _atom_site_fract_z
 _atom_site_occupancy
  Hf  Hf0  1  0.250000  0.050346  0.334896  1
  Hf  Hf1  1  0.250000  0.551077  0.165996  1
  Hf  Hf2  1  0.750000  0.956098  0.665014  1
  Zr  Zr3  1  0.750000  0.456255  0.834334  1
  Ti  Ti4  1  0.250000  0.124595  0.941489  1
  Ti  Ti5  1  0.250000  0.625222  0.558566  1
  Si  Si6  1  0.250000  0.252637  0.637902  1
  Si  Si7  1  0.250000  0.754603  0.861076  1
  Si  Si8  1  0.750000  0.746931  0.361410  1
  Si  Si9  1  0.750000  0.246964  0.139529  1
  Mo  Mo10  1  0.750000  0.868186  0.059841  1
  Mo  Mo11  1  0.750000  0.367085  0.439946  1
