# generated using pymatgen
data_Er12ZnCo4Pb
_symmetry_space_group_name_H-M   'P 1'
_cell_length_a   8.33330205
_cell_length_b   8.33330232
_cell_length_c   8.33330195
_cell_angle_alpha   111.35528559
_cell_angle_beta   109.88714348
_cell_angle_gamma   107.19840024
_symmetry_Int_Tables_number   1
_chemical_formula_structural   Er12ZnCo4Pb
_chemical_formula_sum   'Er12 Zn1 Co4 Pb1'
_cell_volume   444.88194826
_cell_formula_units_Z   1
loop_
 _symmetry_equiv_pos_site_id
 _symmetry_equiv_pos_as_xyz
  1  'x, y, z'
loop_
 _atom_site_type_symbol
 _atom_site_label
 _atom_site_symmetry_multiplicity
 _atom_site_fract_x
 _atom_site_fract_y
 _atom_site_fract_z
 _atom_site_occupancy
  Er  Er0  1  0.314325  0.619929  0.305603  1
  Er  Er1  1  0.685675  0.380072  0.694397  1
  Er  Er2  1  0.314325  0.008720  0.694397  1
  Er  Er3  1  0.685675  0.991280  0.305603  1
  Er  Er4  1  0.427059  0.220677  0.206382  1
  Er  Er5  1  0.572941  0.779323  0.793618  1
  Er  Er6  1  0.014296  0.220677  0.793618  1
  Er  Er7  1  0.985704  0.779323  0.206382  1
  Er  Er8  1  0.183485  0.286903  0.470387  1
  Er  Er9  1  0.816515  0.713097  0.529613  1
  Er  Er10  1  0.183485  0.713097  0.896582  1
  Er  Er11  1  0.816515  0.286903  0.103418  1
  Zn  Zn12  1  0.000000  0.000000  0.000000  1
  Co  Co13  1  0.112683  0.612683  0.500000  1
  Co  Co14  1  0.887318  0.387318  0.500000  1
  Co  Co15  1  0.377323  0.000000  0.377323  1
  Co  Co16  1  0.622677  0.000000  0.622677  1
  Pb  Pb17  1  0.500000  0.500000  0.000000  1
