# generated using pymatgen
data_Tb3GdEr2Ta2O14
_symmetry_space_group_name_H-M   'P 1'
_cell_length_a   6.48952677
_cell_length_b   6.48873292
_cell_length_c   7.50208261
_cell_angle_alpha   89.95462140
_cell_angle_beta   89.94747307
_cell_angle_gamma   108.82772986
_symmetry_Int_Tables_number   1
_chemical_formula_structural   Tb3GdEr2Ta2O14
_chemical_formula_sum   'Tb3 Gd1 Er2 Ta2 O14'
_cell_volume   299.00041337
_cell_formula_units_Z   1
loop_
 _symmetry_equiv_pos_site_id
 _symmetry_equiv_pos_as_xyz
  1  'x, y, z'
loop_
 _atom_site_type_symbol
 _atom_site_label
 _atom_site_symmetry_multiplicity
 _atom_site_fract_x
 _atom_site_fract_y
 _atom_site_fract_z
 _atom_site_occupancy
  Tb  Tb0  1  0.999900  0.465428  0.743883  1
  Tb  Tb1  1  0.534448  0.000318  0.755355  1
  Tb  Tb2  1  0.532299  0.530910  0.498753  1
  Gd  Gd3  1  0.474086  0.472761  0.001452  1
  Er  Er4  1  0.464964  0.999322  0.256488  1
  Er  Er5  1  0.000790  0.534930  0.244286  1
  Ta  Ta6  1  0.002742  0.003243  0.498197  1
  Ta  Ta7  1  0.997170  0.997672  0.001783  1
  O  O8  1  0.069441  0.930325  0.250011  1
  O  O9  1  0.052018  0.310586  0.456419  1
  O  O10  1  0.076859  0.325408  0.029925  1
  O  O11  1  0.357834  0.641934  0.251849  1
  O  O12  1  0.369912  0.630139  0.747845  1
  O  O13  1  0.326596  0.079200  0.975530  1
  O  O14  1  0.312898  0.057336  0.537199  1
  O  O15  1  0.688603  0.946743  0.043484  1
  O  O16  1  0.673738  0.920726  0.470410  1
  O  O17  1  0.632062  0.367961  0.251976  1
  O  O18  1  0.638400  0.361479  0.748136  1
  O  O19  1  0.918463  0.672592  0.524169  1
  O  O20  1  0.941643  0.686300  0.962871  1
  O  O21  1  0.935137  0.064687  0.749976  1
