# generated using pymatgen
data_Tb2Hf4Pb5
_symmetry_space_group_name_H-M   'P 1'
_cell_length_a   6.07268087
_cell_length_b   9.19955406
_cell_length_c   11.31629701
_cell_angle_alpha   113.98351793
_cell_angle_beta   105.56407228
_cell_angle_gamma   89.99999946
_symmetry_Int_Tables_number   1
_chemical_formula_structural   Tb2Hf4Pb5
_chemical_formula_sum   'Tb4 Hf8 Pb10'
_cell_volume   552.14460192
_cell_formula_units_Z   2
loop_
 _symmetry_equiv_pos_site_id
 _symmetry_equiv_pos_as_xyz
  1  'x, y, z'
loop_
 _atom_site_type_symbol
 _atom_site_label
 _atom_site_symmetry_multiplicity
 _atom_site_fract_x
 _atom_site_fract_y
 _atom_site_fract_z
 _atom_site_occupancy
  Tb  Tb0  1  0.143948  0.254521  0.287895  1
  Tb  Tb1  1  0.856052  0.745479  0.712105  1
  Tb  Tb2  1  0.643948  0.033374  0.287895  1
  Tb  Tb3  1  0.356052  0.966626  0.712105  1
  Hf  Hf4  1  0.562264  0.312264  0.624527  1
  Hf  Hf5  1  0.437736  0.687736  0.375473  1
  Hf  Hf6  1  0.937736  0.687736  0.375473  1
  Hf  Hf7  1  0.062264  0.312264  0.624527  1
  Hf  Hf8  1  0.434325  0.671369  0.868650  1
  Hf  Hf9  1  0.565675  0.328631  0.131350  1
  Hf  Hf10  1  0.934325  0.197280  0.868650  1
  Hf  Hf11  1  0.065675  0.802720  0.131350  1
  Pb  Pb12  1  0.288396  0.588229  0.576791  1
  Pb  Pb13  1  0.711604  0.411771  0.423209  1
  Pb  Pb14  1  0.788396  0.988562  0.576791  1
  Pb  Pb15  1  0.211604  0.011438  0.423209  1
  Pb  Pb16  1  0.250000  0.000000  0.000000  1
  Pb  Pb17  1  0.750000  0.000000  0.000000  1
  Pb  Pb18  1  0.066821  0.462666  0.133642  1
  Pb  Pb19  1  0.933179  0.537334  0.866358  1
  Pb  Pb20  1  0.566821  0.670976  0.133642  1
  Pb  Pb21  1  0.433179  0.329024  0.866358  1
