# generated using pymatgen
data_SmLuNpO6
_symmetry_space_group_name_H-M   'P 1'
_cell_length_a   5.57618000
_cell_length_b   7.84640090
_cell_length_c   11.73995991
_cell_angle_alpha   74.50803046
_cell_angle_beta   90.00000000
_cell_angle_gamma   90.00000000
_symmetry_Int_Tables_number   1
_chemical_formula_structural   SmLuNpO6
_chemical_formula_sum   'Sm4 Lu4 Np4 O24'
_cell_volume   494.99553887
_cell_formula_units_Z   4
loop_
 _symmetry_equiv_pos_site_id
 _symmetry_equiv_pos_as_xyz
  1  'x, y, z'
loop_
 _atom_site_type_symbol
 _atom_site_label
 _atom_site_symmetry_multiplicity
 _atom_site_fract_x
 _atom_site_fract_y
 _atom_site_fract_z
 _atom_site_occupancy
  Sm  Sm0  1  0.747176  0.000000  0.750000  1
  Sm  Sm1  1  0.252824  0.000000  0.250000  1
  Sm  Sm2  1  0.694665  0.500000  0.750000  1
  Sm  Sm3  1  0.305335  0.500000  0.250000  1
  Lu  Lu4  1  0.186454  0.792845  0.581011  1
  Lu  Lu5  1  0.813546  0.792845  0.081011  1
  Lu  Lu6  1  0.186454  0.207155  0.918989  1
  Lu  Lu7  1  0.813546  0.207155  0.418989  1
  Np  Np8  1  0.255224  0.722155  0.888246  1
  Np  Np9  1  0.744776  0.722155  0.388246  1
  Np  Np10  1  0.255224  0.277845  0.611754  1
  Np  Np11  1  0.744776  0.277845  0.111754  1
  O  O12  1  0.053360  0.946944  0.899704  1
  O  O13  1  0.557584  0.843109  0.936701  1
  O  O14  1  0.946640  0.946944  0.399704  1
  O  O15  1  0.443759  0.797890  0.725593  1
  O  O16  1  0.442416  0.843109  0.436701  1
  O  O17  1  0.969557  0.716821  0.766074  1
  O  O18  1  0.556241  0.797890  0.225593  1
  O  O19  1  0.882835  0.631175  0.554640  1
  O  O20  1  0.377990  0.479852  0.886610  1
  O  O21  1  0.030443  0.716821  0.266074  1
  O  O22  1  0.377990  0.520148  0.613390  1
  O  O23  1  0.882835  0.368825  0.945360  1
  O  O24  1  0.117165  0.631175  0.054640  1
  O  O25  1  0.622010  0.479852  0.386610  1
  O  O26  1  0.969557  0.283179  0.733926  1
  O  O27  1  0.622010  0.520148  0.113390  1
  O  O28  1  0.117165  0.368825  0.445360  1
  O  O29  1  0.443759  0.202110  0.774407  1
  O  O30  1  0.030443  0.283179  0.233926  1
  O  O31  1  0.557584  0.156891  0.563299  1
  O  O32  1  0.556241  0.202110  0.274407  1
  O  O33  1  0.053360  0.053056  0.600296  1
  O  O34  1  0.442416  0.156891  0.063299  1
  O  O35  1  0.946640  0.053056  0.100296  1
