# generated using pymatgen
data_La5Nd3TiPd24
_symmetry_space_group_name_H-M   'P 1'
_cell_length_a   8.55894721
_cell_length_b   8.55894721
_cell_length_c   8.55935705
_cell_angle_alpha   90.00839351
_cell_angle_beta   90.00839351
_cell_angle_gamma   90.02411240
_symmetry_Int_Tables_number   1
_chemical_formula_structural   La5Nd3TiPd24
_chemical_formula_sum   'La5 Nd3 Ti1 Pd24'
_cell_volume   627.02057346
_cell_formula_units_Z   1
loop_
 _symmetry_equiv_pos_site_id
 _symmetry_equiv_pos_as_xyz
  1  'x, y, z'
loop_
 _atom_site_type_symbol
 _atom_site_label
 _atom_site_symmetry_multiplicity
 _atom_site_fract_x
 _atom_site_fract_y
 _atom_site_fract_z
 _atom_site_occupancy
  La  La0  1  0.746989  0.253091  0.747018  1
  La  La1  1  0.253038  0.253038  0.746863  1
  La  La2  1  0.253167  0.746896  0.253018  1
  La  La3  1  0.253091  0.746989  0.747018  1
  La  La4  1  0.746896  0.253167  0.253018  1
  Nd  Nd5  1  0.252426  0.252426  0.252414  1
  Nd  Nd6  1  0.747496  0.747496  0.747380  1
  Nd  Nd7  1  0.747551  0.747551  0.252573  1
  Ti  Ti8  1  0.999485  0.999485  0.000527  1
  Pd  Pd9  1  0.263259  0.499859  0.000348  1
  Pd  Pd10  1  0.736709  0.500550  0.000050  1
  Pd  Pd11  1  0.000246  0.263238  0.499697  1
  Pd  Pd12  1  0.499859  0.263259  0.000348  1
  Pd  Pd13  1  0.999353  0.736739  0.499918  1
  Pd  Pd14  1  0.500550  0.736709  0.000050  1
  Pd  Pd15  1  0.500088  0.999950  0.263265  1
  Pd  Pd16  1  0.263238  0.000246  0.499697  1
  Pd  Pd17  1  0.500301  0.999646  0.736749  1
  Pd  Pd18  1  0.736739  0.999353  0.499918  1
  Pd  Pd19  1  0.999950  0.500088  0.263265  1
  Pd  Pd20  1  0.999646  0.500301  0.736749  1
  Pd  Pd21  1  0.254484  0.499795  0.499677  1
  Pd  Pd22  1  0.745548  0.500587  0.499945  1
  Pd  Pd23  1  0.499795  0.254484  0.499677  1
  Pd  Pd24  1  0.500587  0.745548  0.499945  1
  Pd  Pd25  1  0.500057  0.500057  0.254447  1
  Pd  Pd26  1  0.500321  0.500321  0.745534  1
  Pd  Pd27  1  0.298131  0.000485  0.000455  1
  Pd  Pd28  1  0.701934  0.999046  0.999998  1
  Pd  Pd29  1  0.000485  0.298131  0.000455  1
  Pd  Pd30  1  0.999046  0.701934  0.999998  1
  Pd  Pd31  1  0.000000  0.000000  0.298077  1
  Pd  Pd32  1  0.999536  0.999536  0.701907  1
