# generated using pymatgen
data_Zr6Al16Co2Cu2Ni3
_symmetry_space_group_name_H-M   'P 1'
_cell_length_a   8.60658446
_cell_length_b   8.61526473
_cell_length_c   8.59586121
_cell_angle_alpha   60.00785119
_cell_angle_beta   60.11750070
_cell_angle_gamma   59.99655389
_symmetry_Int_Tables_number   1
_chemical_formula_structural   Zr6Al16Co2Cu2Ni3
_chemical_formula_sum   'Zr6 Al16 Co2 Cu2 Ni3'
_cell_volume   451.09966930
_cell_formula_units_Z   1
loop_
 _symmetry_equiv_pos_site_id
 _symmetry_equiv_pos_as_xyz
  1  'x, y, z'
loop_
 _atom_site_type_symbol
 _atom_site_label
 _atom_site_symmetry_multiplicity
 _atom_site_fract_x
 _atom_site_fract_y
 _atom_site_fract_z
 _atom_site_occupancy
  Zr  Zr0  1  0.689382  0.310597  0.311613  1
  Zr  Zr1  1  0.692649  0.307350  0.692083  1
  Zr  Zr2  1  0.694954  0.694985  0.305047  1
  Zr  Zr3  1  0.310618  0.689403  0.688387  1
  Zr  Zr4  1  0.307351  0.692650  0.307917  1
  Zr  Zr5  1  0.305046  0.305015  0.694953  1
  Al  Al6  1  0.647719  0.119401  0.120291  1
  Al  Al7  1  0.119411  0.647733  0.112595  1
  Al  Al8  1  0.117970  0.111133  0.646619  1
  Al  Al9  1  0.111139  0.117939  0.124286  1
  Al  Al10  1  0.352281  0.880599  0.879709  1
  Al  Al11  1  0.880589  0.352267  0.887405  1
  Al  Al12  1  0.882030  0.888867  0.353381  1
  Al  Al13  1  0.888861  0.882061  0.875714  1
  Al  Al14  1  0.000030  0.329815  0.332699  1
  Al  Al15  1  0.329851  0.000022  0.337488  1
  Al  Al16  1  0.331324  0.336459  0.000351  1
  Al  Al17  1  0.336494  0.331262  0.331903  1
  Al  Al18  1  0.999970  0.670185  0.667301  1
  Al  Al19  1  0.670149  0.999978  0.662512  1
  Al  Al20  1  0.668676  0.663541  0.999649  1
  Al  Al21  1  0.663506  0.668738  0.668097  1
  Co  Co22  1  0.000000  0.000000  0.000000  1
  Co  Co23  1  0.000000  0.000000  0.500000  1
  Cu  Cu24  1  0.500000  0.000000  0.000000  1
  Cu  Cu25  1  0.000000  0.500000  0.500000  1
  Ni  Ni26  1  0.500000  0.000000  0.500000  1
  Ni  Ni27  1  0.500000  0.500000  0.000000  1
  Ni  Ni28  1  0.000000  0.500000  0.000000  1
