# generated using pymatgen
data_Sc22Ir5OsRh2
_symmetry_space_group_name_H-M   'P 1'
_cell_length_a   9.47378495
_cell_length_b   9.47378481
_cell_length_c   9.49296500
_cell_angle_alpha   59.93300916
_cell_angle_beta   59.93300963
_cell_angle_gamma   60.13398778
_symmetry_Int_Tables_number   1
_chemical_formula_structural   Sc22Ir5OsRh2
_chemical_formula_sum   'Sc22 Ir5 Os1 Rh2'
_cell_volume   602.46299168
_cell_formula_units_Z   1
loop_
 _symmetry_equiv_pos_site_id
 _symmetry_equiv_pos_as_xyz
  1  'x, y, z'
loop_
 _atom_site_type_symbol
 _atom_site_label
 _atom_site_symmetry_multiplicity
 _atom_site_fract_x
 _atom_site_fract_y
 _atom_site_fract_z
 _atom_site_occupancy
  Sc  Sc0  1  0.843009  0.843009  0.843922  1
  Sc  Sc1  1  0.529941  0.156078  0.156991  1
  Sc  Sc2  1  0.156991  0.156991  0.529941  1
  Sc  Sc3  1  0.156078  0.529941  0.156991  1
  Sc  Sc4  1  0.843009  0.843009  0.470059  1
  Sc  Sc5  1  0.843922  0.470059  0.843009  1
  Sc  Sc6  1  0.470059  0.843922  0.843009  1
  Sc  Sc7  1  0.156991  0.156991  0.156078  1
  Sc  Sc8  1  0.198457  0.801543  0.198457  1
  Sc  Sc9  1  0.198457  0.801543  0.801543  1
  Sc  Sc10  1  0.801543  0.198457  0.198457  1
  Sc  Sc11  1  0.801092  0.801092  0.198908  1
  Sc  Sc12  1  0.198908  0.198908  0.801092  1
  Sc  Sc13  1  0.801543  0.198457  0.801543  1
  Sc  Sc14  1  0.382268  0.382268  0.385027  1
  Sc  Sc15  1  0.149564  0.614973  0.617732  1
  Sc  Sc16  1  0.614973  0.149564  0.617732  1
  Sc  Sc17  1  0.617732  0.617732  0.149564  1
  Sc  Sc18  1  0.385027  0.850436  0.382268  1
  Sc  Sc19  1  0.382268  0.382268  0.850436  1
  Sc  Sc20  1  0.850436  0.385027  0.382268  1
  Sc  Sc21  1  0.617732  0.617732  0.614973  1
  Ir  Ir22  1  0.500000  0.000000  0.500000  1
  Ir  Ir23  1  0.000000  0.500000  0.500000  1
  Ir  Ir24  1  0.500000  0.000000  0.000000  1
  Ir  Ir25  1  0.000000  0.500000  0.000000  1
  Ir  Ir26  1  0.000000  0.000000  0.000000  1
  Os  Os27  1  0.500000  0.500000  0.500000  1
  Rh  Rh28  1  0.500000  0.500000  0.000000  1
  Rh  Rh29  1  0.000000  0.000000  0.500000  1
