# generated using pymatgen
data_YbTm(Ni2As)4
_symmetry_space_group_name_H-M   'P 1'
_cell_length_a   7.21360719
_cell_length_b   7.21360719
_cell_length_c   3.75047400
_cell_angle_alpha   90.00000000
_cell_angle_beta   90.00000000
_cell_angle_gamma   89.74980361
_symmetry_Int_Tables_number   1
_chemical_formula_structural   YbTm(Ni2As)4
_chemical_formula_sum   'Yb1 Tm1 Ni8 As4'
_cell_volume   195.15828724
_cell_formula_units_Z   1
loop_
 _symmetry_equiv_pos_site_id
 _symmetry_equiv_pos_as_xyz
  1  'x, y, z'
loop_
 _atom_site_type_symbol
 _atom_site_label
 _atom_site_symmetry_multiplicity
 _atom_site_fract_x
 _atom_site_fract_y
 _atom_site_fract_z
 _atom_site_occupancy
  Yb  Yb0  1  0.500000  0.500000  0.000000  1
  Tm  Tm1  1  0.000000  0.000000  0.500000  1
  Ni  Ni2  1  0.588142  0.154549  0.500000  1
  Ni  Ni3  1  0.411858  0.845451  0.500000  1
  Ni  Ni4  1  0.088434  0.345905  0.000000  1
  Ni  Ni5  1  0.911566  0.654095  0.000000  1
  Ni  Ni6  1  0.154549  0.588142  0.500000  1
  Ni  Ni7  1  0.845451  0.411858  0.500000  1
  Ni  Ni8  1  0.345905  0.088434  0.000000  1
  Ni  Ni9  1  0.654095  0.911566  0.000000  1
  As  As10  1  0.719534  0.719534  0.500000  1
  As  As11  1  0.280466  0.280466  0.500000  1
  As  As12  1  0.216664  0.783336  0.000000  1
  As  As13  1  0.783336  0.216664  0.000000  1
