# generated using pymatgen
data_La2ErSn6Ru
_symmetry_space_group_name_H-M   'P 1'
_cell_length_a   8.63417218
_cell_length_b   8.63417122
_cell_length_c   13.55440900
_cell_angle_alpha   90.00000000
_cell_angle_beta   90.00000000
_cell_angle_gamma   148.20586992
_symmetry_Int_Tables_number   1
_chemical_formula_structural   La2ErSn6Ru
_chemical_formula_sum   'La4 Er2 Sn12 Ru2'
_cell_volume   532.38322785
_cell_formula_units_Z   2
loop_
 _symmetry_equiv_pos_site_id
 _symmetry_equiv_pos_as_xyz
  1  'x, y, z'
loop_
 _atom_site_type_symbol
 _atom_site_label
 _atom_site_symmetry_multiplicity
 _atom_site_fract_x
 _atom_site_fract_y
 _atom_site_fract_z
 _atom_site_occupancy
  La  La0  1  0.400513  0.599487  0.404616  1
  La  La1  1  0.599487  0.400513  0.595384  1
  La  La2  1  0.400513  0.599487  0.095384  1
  La  La3  1  0.599487  0.400513  0.904616  1
  Er  Er4  1  0.604214  0.395786  0.250000  1
  Er  Er5  1  0.395786  0.604214  0.750000  1
  Sn  Sn6  1  0.925938  0.074062  0.921010  1
  Sn  Sn7  1  0.074062  0.925938  0.078990  1
  Sn  Sn8  1  0.925938  0.074062  0.578990  1
  Sn  Sn9  1  0.074062  0.925938  0.421010  1
  Sn  Sn10  1  0.961208  0.038792  0.250000  1
  Sn  Sn11  1  0.038792  0.961208  0.750000  1
  Sn  Sn12  1  0.745379  0.254622  0.432519  1
  Sn  Sn13  1  0.254622  0.745378  0.567481  1
  Sn  Sn14  1  0.745379  0.254622  0.067481  1
  Sn  Sn15  1  0.254622  0.745378  0.932519  1
  Sn  Sn16  1  0.230759  0.769241  0.250000  1
  Sn  Sn17  1  0.769241  0.230759  0.750000  1
  Ru  Ru18  1  0.799930  0.200070  0.250000  1
  Ru  Ru19  1  0.200070  0.799930  0.750000  1
