# generated using pymatgen
data_Na8ZrP4
_symmetry_space_group_name_H-M   'P 1'
_cell_length_a   9.69873707
_cell_length_b   9.69873702
_cell_length_c   9.69873800
_cell_angle_alpha   60.00000347
_cell_angle_beta   60.00000366
_cell_angle_gamma   60.00000422
_symmetry_Int_Tables_number   1
_chemical_formula_structural   Na8ZrP4
_chemical_formula_sum   'Na16 Zr2 P8'
_cell_volume   645.10533939
_cell_formula_units_Z   2
loop_
 _symmetry_equiv_pos_site_id
 _symmetry_equiv_pos_as_xyz
  1  'x, y, z'
loop_
 _atom_site_type_symbol
 _atom_site_label
 _atom_site_symmetry_multiplicity
 _atom_site_fract_x
 _atom_site_fract_y
 _atom_site_fract_z
 _atom_site_occupancy
  Na  Na0  1  0.625000  0.625000  0.125000  1
  Na  Na1  1  0.625000  0.125000  0.625000  1
  Na  Na2  1  0.125000  0.625000  0.625000  1
  Na  Na3  1  0.625000  0.625000  0.625000  1
  Na  Na4  1  0.029620  0.470380  0.470380  1
  Na  Na5  1  0.779620  0.220380  0.220380  1
  Na  Na6  1  0.470380  0.029620  0.470380  1
  Na  Na7  1  0.470380  0.470380  0.029620  1
  Na  Na8  1  0.029620  0.029620  0.470380  1
  Na  Na9  1  0.029620  0.470380  0.029620  1
  Na  Na10  1  0.470380  0.029620  0.029620  1
  Na  Na11  1  0.779620  0.220380  0.779620  1
  Na  Na12  1  0.220380  0.779620  0.220380  1
  Na  Na13  1  0.220380  0.220380  0.779620  1
  Na  Na14  1  0.779620  0.779620  0.220380  1
  Na  Na15  1  0.220380  0.779620  0.779620  1
  Zr  Zr16  1  0.750000  0.750000  0.750000  1
  Zr  Zr17  1  0.500000  0.500000  0.500000  1
  P  P18  1  0.857040  0.857040  0.428881  1
  P  P19  1  0.857040  0.428881  0.857040  1
  P  P20  1  0.392960  0.392960  0.821119  1
  P  P21  1  0.392960  0.821119  0.392960  1
  P  P22  1  0.821119  0.392960  0.392960  1
  P  P23  1  0.857040  0.857040  0.857040  1
  P  P24  1  0.428881  0.857040  0.857040  1
  P  P25  1  0.392960  0.392960  0.392960  1
