# generated using pymatgen
data_Ti12Ga7PdO4
_symmetry_space_group_name_H-M   'P 1'
_cell_length_a   6.87538037
_cell_length_b   6.87538037
_cell_length_c   6.87538037
_cell_angle_alpha   89.77115181
_cell_angle_beta   90.22884819
_cell_angle_gamma   90.22884819
_symmetry_Int_Tables_number   1
_chemical_formula_structural   Ti12Ga7PdO4
_chemical_formula_sum   'Ti12 Ga7 Pd1 O4'
_cell_volume   324.99735299
_cell_formula_units_Z   1
loop_
 _symmetry_equiv_pos_site_id
 _symmetry_equiv_pos_as_xyz
  1  'x, y, z'
loop_
 _atom_site_type_symbol
 _atom_site_label
 _atom_site_symmetry_multiplicity
 _atom_site_fract_x
 _atom_site_fract_y
 _atom_site_fract_z
 _atom_site_occupancy
  Ti  Ti0  1  0.789661  0.960145  0.375157  1
  Ti  Ti1  1  0.707385  0.041972  0.874277  1
  Ti  Ti2  1  0.210717  0.457277  0.124289  1
  Ti  Ti3  1  0.291040  0.542996  0.623469  1
  Ti  Ti4  1  0.958028  0.374277  0.792615  1
  Ti  Ti5  1  0.039855  0.875157  0.710339  1
  Ti  Ti6  1  0.457004  0.123469  0.208960  1
  Ti  Ti7  1  0.542723  0.624289  0.289283  1
  Ti  Ti8  1  0.375711  0.789283  0.957277  1
  Ti  Ti9  1  0.876531  0.708960  0.042996  1
  Ti  Ti10  1  0.124843  0.210339  0.460145  1
  Ti  Ti11  1  0.625723  0.292615  0.541972  1
  Ga  Ga12  1  0.319629  0.179073  0.819540  1
  Ga  Ga13  1  0.820927  0.319540  0.180371  1
  Ga  Ga14  1  0.680460  0.680371  0.679073  1
  Ga  Ga15  1  0.569176  0.430824  0.930824  1
  Ga  Ga16  1  0.427568  0.929473  0.567965  1
  Ga  Ga17  1  0.932035  0.572432  0.429473  1
  Ga  Ga18  1  0.070527  0.067965  0.072432  1
  Pd  Pd19  1  0.179584  0.820416  0.320416  1
  O  O20  1  0.876379  0.123621  0.623621  1
  O  O21  1  0.624548  0.874271  0.125784  1
  O  O22  1  0.125729  0.625784  0.875452  1
  O  O23  1  0.374216  0.375452  0.374271  1
