# generated using pymatgen
data_NaHfRhSe4
_symmetry_space_group_name_H-M   'P 1'
_cell_length_a   7.79770978
_cell_length_b   7.79771149
_cell_length_c   6.18723300
_cell_angle_alpha   80.79379484
_cell_angle_beta   80.79379280
_cell_angle_gamma   28.05597394
_symmetry_Int_Tables_number   1
_chemical_formula_structural   NaHfRhSe4
_chemical_formula_sum   'Na1 Hf1 Rh1 Se4'
_cell_volume   174.52197490
_cell_formula_units_Z   1
loop_
 _symmetry_equiv_pos_site_id
 _symmetry_equiv_pos_as_xyz
  1  'x, y, z'
loop_
 _atom_site_type_symbol
 _atom_site_label
 _atom_site_symmetry_multiplicity
 _atom_site_fract_x
 _atom_site_fract_y
 _atom_site_fract_z
 _atom_site_occupancy
  Na  Na0  1  0.243205  0.243205  0.879329  1
  Hf  Hf1  1  0.496060  0.496060  0.459537  1
  Rh  Rh2  1  0.990509  0.990509  0.039945  1
  Se  Se3  1  0.900465  0.900465  0.724542  1
  Se  Se4  1  0.382453  0.382453  0.199426  1
  Se  Se5  1  0.579282  0.579282  0.831126  1
  Se  Se6  1  0.109026  0.109026  0.299095  1
