# generated using pymatgen
data_Y8Ga12Pd3Pt
_symmetry_space_group_name_H-M   'P 1'
_cell_length_a   8.91531900
_cell_length_b   8.91531948
_cell_length_c   7.07136700
_cell_angle_alpha   90.00000000
_cell_angle_beta   90.00000000
_cell_angle_gamma   120.00000194
_symmetry_Int_Tables_number   1
_chemical_formula_structural   Y8Ga12Pd3Pt
_chemical_formula_sum   'Y8 Ga12 Pd3 Pt1'
_cell_volume   486.75206049
_cell_formula_units_Z   1
loop_
 _symmetry_equiv_pos_site_id
 _symmetry_equiv_pos_as_xyz
  1  'x, y, z'
loop_
 _atom_site_type_symbol
 _atom_site_label
 _atom_site_symmetry_multiplicity
 _atom_site_fract_x
 _atom_site_fract_y
 _atom_site_fract_z
 _atom_site_occupancy
  Y  Y0  1  0.514598  0.029196  0.249639  1
  Y  Y1  1  0.483449  0.966897  0.750754  1
  Y  Y2  1  0.970804  0.485402  0.249639  1
  Y  Y3  1  0.033103  0.516551  0.750754  1
  Y  Y4  1  0.514598  0.485402  0.249639  1
  Y  Y5  1  0.483449  0.516551  0.750754  1
  Y  Y6  1  0.000000  0.000000  0.250396  1
  Y  Y7  1  0.000000  0.000000  0.749579  1
  Ga  Ga8  1  0.166784  0.333568  0.042163  1
  Ga  Ga9  1  0.832326  0.664652  0.958596  1
  Ga  Ga10  1  0.666432  0.833216  0.042163  1
  Ga  Ga11  1  0.832414  0.664828  0.541169  1
  Ga  Ga12  1  0.335348  0.167674  0.958596  1
  Ga  Ga13  1  0.166946  0.333891  0.460243  1
  Ga  Ga14  1  0.166784  0.833216  0.042163  1
  Ga  Ga15  1  0.335172  0.167586  0.541169  1
  Ga  Ga16  1  0.832326  0.167674  0.958596  1
  Ga  Ga17  1  0.666109  0.833054  0.460243  1
  Ga  Ga18  1  0.832414  0.167586  0.541169  1
  Ga  Ga19  1  0.166946  0.833054  0.460243  1
  Pd  Pd20  1  0.666667  0.333333  0.972678  1
  Pd  Pd21  1  0.666667  0.333333  0.527360  1
  Pd  Pd22  1  0.333333  0.666667  0.468346  1
  Pt  Pt23  1  0.333333  0.666667  0.023954  1
