# generated using pymatgen
data_Er2AgPd2
_symmetry_space_group_name_H-M   'P 1'
_cell_length_a   7.65169600
_cell_length_b   7.65169600
_cell_length_c   3.65299800
_cell_angle_alpha   90.00000000
_cell_angle_beta   90.00000000
_cell_angle_gamma   90.00000000
_symmetry_Int_Tables_number   1
_chemical_formula_structural   Er2AgPd2
_chemical_formula_sum   'Er4 Ag2 Pd4'
_cell_volume   213.87737688
_cell_formula_units_Z   2
loop_
 _symmetry_equiv_pos_site_id
 _symmetry_equiv_pos_as_xyz
  1  'x, y, z'
loop_
 _atom_site_type_symbol
 _atom_site_label
 _atom_site_symmetry_multiplicity
 _atom_site_fract_x
 _atom_site_fract_y
 _atom_site_fract_z
 _atom_site_occupancy
  Er  Er0  1  0.670829  0.170829  0.500000  1
  Er  Er1  1  0.170829  0.329171  0.500000  1
  Er  Er2  1  0.829171  0.670829  0.500000  1
  Er  Er3  1  0.329171  0.829171  0.500000  1
  Ag  Ag4  1  0.000000  0.000000  0.000000  1
  Ag  Ag5  1  0.500000  0.500000  0.000000  1
  Pd  Pd6  1  0.369769  0.130231  0.000000  1
  Pd  Pd7  1  0.130231  0.630231  0.000000  1
  Pd  Pd8  1  0.630231  0.869769  0.000000  1
  Pd  Pd9  1  0.869769  0.369769  0.000000  1
