# generated using pymatgen
data_LuSe23
_symmetry_space_group_name_H-M   'P 1'
_cell_length_a   5.65670443
_cell_length_b   10.23373796
_cell_length_c   16.63650800
_cell_angle_alpha   95.07158697
_cell_angle_beta   79.47072745
_cell_angle_gamma   86.83067715
_symmetry_Int_Tables_number   1
_chemical_formula_structural   LuSe23
_chemical_formula_sum   'Lu1 Se23'
_cell_volume   940.63822003
_cell_formula_units_Z   1
loop_
 _symmetry_equiv_pos_site_id
 _symmetry_equiv_pos_as_xyz
  1  'x, y, z'
loop_
 _atom_site_type_symbol
 _atom_site_label
 _atom_site_symmetry_multiplicity
 _atom_site_fract_x
 _atom_site_fract_y
 _atom_site_fract_z
 _atom_site_occupancy
  Lu  Lu0  1  0.650070  0.336984  0.377678  1
  Se  Se1  1  0.452079  0.814860  0.395927  1
  Se  Se2  1  0.049727  0.323422  0.149983  1
  Se  Se3  1  0.880501  0.207427  0.485131  1
  Se  Se4  1  0.244352  0.782232  0.526516  1
  Se  Se5  1  0.220460  0.236428  0.015900  1
  Se  Se6  1  0.773430  0.733248  0.021088  1
  Se  Se7  1  0.160127  0.376083  0.365224  1
  Se  Se8  1  0.658913  0.607873  0.332692  1
  Se  Se9  1  0.762718  0.165558  0.228692  1
  Se  Se10  1  0.216346  0.879783  0.146321  1
  Se  Se11  1  0.748025  0.593372  0.592475  1
  Se  Se12  1  0.227838  0.374922  0.597830  1
  Se  Se13  1  0.243960  0.852901  0.856184  1
  Se  Se14  1  0.766972  0.136257  0.886021  1
  Se  Se15  1  0.014459  0.687680  0.118282  1
  Se  Se16  1  0.527734  0.800799  0.614744  1
  Se  Se17  1  0.419056  0.188510  0.498610  1
  Se  Se18  1  0.017137  0.672343  0.889944  1
  Se  Se19  1  0.994631  0.312100  0.919085  1
  Se  Se20  1  0.413564  0.481306  0.254662  1
  Se  Se21  1  0.018462  0.000285  0.270284  1
  Se  Se22  1  0.514136  0.446177  0.672619  1
  Se  Se23  1  0.025302  0.989451  0.784110  1
