# generated using pymatgen
data_PrGd11Fe2Cl17
_symmetry_space_group_name_H-M   'P 1'
_cell_length_a   9.01730719
_cell_length_b   10.91889089
_cell_length_c   10.94575500
_cell_angle_alpha   74.06062361
_cell_angle_beta   75.14424812
_cell_angle_gamma   65.41720431
_symmetry_Int_Tables_number   1
_chemical_formula_structural   PrGd11Fe2Cl17
_chemical_formula_sum   'Pr1 Gd11 Fe2 Cl17'
_cell_volume   929.81198987
_cell_formula_units_Z   1
loop_
 _symmetry_equiv_pos_site_id
 _symmetry_equiv_pos_as_xyz
  1  'x, y, z'
loop_
 _atom_site_type_symbol
 _atom_site_label
 _atom_site_symmetry_multiplicity
 _atom_site_fract_x
 _atom_site_fract_y
 _atom_site_fract_z
 _atom_site_occupancy
  Pr  Pr0  1  0.122596  0.712171  0.143303  1
  Gd  Gd1  1  0.459550  0.476574  0.323218  1
  Gd  Gd2  1  0.560462  0.673038  0.000984  1
  Gd  Gd3  1  0.262524  0.998511  0.108610  1
  Gd  Gd4  1  0.873400  0.289426  0.852764  1
  Gd  Gd5  1  0.400247  0.237204  0.711664  1
  Gd  Gd6  1  0.739512  0.002780  0.893043  1
  Gd  Gd7  1  0.542242  0.523073  0.675258  1
  Gd  Gd8  1  0.441494  0.326731  0.998736  1
  Gd  Gd9  1  0.597736  0.761886  0.289346  1
  Gd  Gd10  1  0.833520  0.191722  0.572475  1
  Gd  Gd11  1  0.165953  0.807724  0.428008  1
  Fe  Fe12  1  0.363463  0.739110  0.214251  1
  Fe  Fe13  1  0.635413  0.262139  0.785690  1
  Cl  Cl14  1  0.055782  0.090754  0.330481  1
  Cl  Cl15  1  0.467920  0.952764  0.854721  1
  Cl  Cl16  1  0.421613  0.808213  0.532082  1
  Cl  Cl17  1  0.577106  0.189322  0.469799  1
  Cl  Cl18  1  0.825624  0.712585  0.052085  1
  Cl  Cl19  1  0.233541  0.419605  0.238319  1
  Cl  Cl20  1  0.677074  0.378283  0.094505  1
  Cl  Cl21  1  0.533576  0.048366  0.145166  1
  Cl  Cl22  1  0.725765  0.475871  0.424018  1
  Cl  Cl23  1  0.889150  0.784226  0.367045  1
  Cl  Cl24  1  0.942811  0.909574  0.671569  1
  Cl  Cl25  1  0.168459  0.289964  0.946389  1
  Cl  Cl26  1  0.329695  0.620848  0.900392  1
  Cl  Cl27  1  0.999414  0.006045  0.998423  1
  Cl  Cl28  1  0.106443  0.216932  0.639830  1
  Cl  Cl29  1  0.773449  0.572996  0.761855  1
  Cl  Cl30  1  0.274470  0.521564  0.575971  1
