# generated using pymatgen
data_Tb2DySi3(Ni3Sn)3
_symmetry_space_group_name_H-M   'P 1'
_cell_length_a   3.89519500
_cell_length_b   9.23186296
_cell_length_c   9.23186401
_cell_angle_alpha   59.99610438
_cell_angle_beta   90.00000000
_cell_angle_gamma   90.00000000
_symmetry_Int_Tables_number   1
_chemical_formula_structural   Tb2DySi3(Ni3Sn)3
_chemical_formula_sum   'Tb2 Dy1 Si3 Ni9 Sn3'
_cell_volume   287.48919956
_cell_formula_units_Z   1
loop_
 _symmetry_equiv_pos_site_id
 _symmetry_equiv_pos_as_xyz
  1  'x, y, z'
loop_
 _atom_site_type_symbol
 _atom_site_label
 _atom_site_symmetry_multiplicity
 _atom_site_fract_x
 _atom_site_fract_y
 _atom_site_fract_z
 _atom_site_occupancy
  Tb  Tb0  1  0.500000  0.333166  0.333498  1
  Tb  Tb1  1  0.500000  0.666502  0.666834  1
  Dy  Dy2  1  0.000000  0.000083  0.999917  1
  Si  Si3  1  0.500000  0.751402  0.248598  1
  Si  Si4  1  0.500000  0.248732  0.999943  1
  Si  Si5  1  0.500000  0.000057  0.751268  1
  Ni  Ni6  1  0.000000  0.215756  0.153205  1
  Ni  Ni7  1  0.000000  0.153358  0.630548  1
  Ni  Ni8  1  0.000000  0.630677  0.215980  1
  Ni  Ni9  1  0.000000  0.846795  0.784244  1
  Ni  Ni10  1  0.000000  0.369452  0.846642  1
  Ni  Ni11  1  0.000000  0.784020  0.369323  1
  Ni  Ni12  1  0.500000  0.260930  0.739070  1
  Ni  Ni13  1  0.500000  0.739147  0.999830  1
  Ni  Ni14  1  0.500000  0.000170  0.260853  1
  Sn  Sn15  1  0.000000  0.460534  0.539466  1
  Sn  Sn16  1  0.000000  0.539277  0.000161  1
  Sn  Sn17  1  0.000000  0.999839  0.460723  1
