# generated using pymatgen
data_LuTh(Tc2Ge)4
_symmetry_space_group_name_H-M   'P 1'
_cell_length_a   7.50066438
_cell_length_b   7.50066438
_cell_length_c   4.19418700
_cell_angle_alpha   90.00000000
_cell_angle_beta   90.00000000
_cell_angle_gamma   88.10058103
_symmetry_Int_Tables_number   1
_chemical_formula_structural   LuTh(Tc2Ge)4
_chemical_formula_sum   'Lu1 Th1 Tc8 Ge4'
_cell_volume   235.83516804
_cell_formula_units_Z   1
loop_
 _symmetry_equiv_pos_site_id
 _symmetry_equiv_pos_as_xyz
  1  'x, y, z'
loop_
 _atom_site_type_symbol
 _atom_site_label
 _atom_site_symmetry_multiplicity
 _atom_site_fract_x
 _atom_site_fract_y
 _atom_site_fract_z
 _atom_site_occupancy
  Lu  Lu0  1  0.000000  0.000000  0.500000  1
  Th  Th1  1  0.500000  0.500000  0.000000  1
  Tc  Tc2  1  0.145133  0.598961  0.500000  1
  Tc  Tc3  1  0.854867  0.401039  0.500000  1
  Tc  Tc4  1  0.347703  0.087493  0.000000  1
  Tc  Tc5  1  0.652297  0.912507  0.000000  1
  Tc  Tc6  1  0.598961  0.145133  0.500000  1
  Tc  Tc7  1  0.401039  0.854867  0.500000  1
  Tc  Tc8  1  0.087493  0.347703  0.000000  1
  Tc  Tc9  1  0.912507  0.652297  0.000000  1
  Ge  Ge10  1  0.716397  0.716397  0.500000  1
  Ge  Ge11  1  0.283603  0.283603  0.500000  1
  Ge  Ge12  1  0.801671  0.198329  0.000000  1
  Ge  Ge13  1  0.198329  0.801671  0.000000  1
