# generated using pymatgen
data_YbCeTh2(Al3Ir)6
_symmetry_space_group_name_H-M   'P 1'
_cell_length_a   7.62504896
_cell_length_b   7.63665410
_cell_length_c   9.49607900
_cell_angle_alpha   90.00000000
_cell_angle_beta   90.00000000
_cell_angle_gamma   119.42508738
_symmetry_Int_Tables_number   1
_chemical_formula_structural   YbCeTh2(Al3Ir)6
_chemical_formula_sum   'Yb1 Ce1 Th2 Al18 Ir6'
_cell_volume   481.62344802
_cell_formula_units_Z   1
loop_
 _symmetry_equiv_pos_site_id
 _symmetry_equiv_pos_as_xyz
  1  'x, y, z'
loop_
 _atom_site_type_symbol
 _atom_site_label
 _atom_site_symmetry_multiplicity
 _atom_site_fract_x
 _atom_site_fract_y
 _atom_site_fract_z
 _atom_site_occupancy
  Yb  Yb0  1  0.327215  0.005630  0.750000  1
  Ce  Ce1  1  0.002722  0.327838  0.750000  1
  Th  Th2  1  0.995798  0.672254  0.250000  1
  Th  Th3  1  0.670092  0.994154  0.250000  1
  Al  Al4  1  0.135718  0.133264  0.250000  1
  Al  Al5  1  0.870149  0.871801  0.750000  1
  Al  Al6  1  0.006358  0.335783  0.072503  1
  Al  Al7  1  0.000947  0.667346  0.919100  1
  Al  Al8  1  0.000947  0.667346  0.580900  1
  Al  Al9  1  0.335697  0.005417  0.432264  1
  Al  Al10  1  0.006358  0.335783  0.427497  1
  Al  Al11  1  0.660626  0.997822  0.580878  1
  Al  Al12  1  0.660626  0.997822  0.919122  1
  Al  Al13  1  0.335697  0.005417  0.067736  1
  Al  Al14  1  0.333914  0.332252  0.554668  1
  Al  Al15  1  0.663777  0.663269  0.456620  1
  Al  Al16  1  0.663777  0.663269  0.043380  1
  Al  Al17  1  0.333914  0.332252  0.945332  1
  Al  Al18  1  0.341869  0.543669  0.250000  1
  Al  Al19  1  0.659297  0.449977  0.750000  1
  Al  Al20  1  0.544368  0.338835  0.250000  1
  Al  Al21  1  0.448576  0.656971  0.750000  1
  Ir  Ir22  1  0.674587  0.329510  0.001125  1
  Ir  Ir23  1  0.328424  0.672183  0.001877  1
  Ir  Ir24  1  0.328424  0.672183  0.498123  1
  Ir  Ir25  1  0.674587  0.329510  0.498875  1
  Ir  Ir26  1  0.997766  0.999220  0.001460  1
  Ir  Ir27  1  0.997766  0.999220  0.498540  1
