# generated using pymatgen
data_CsPmSe2
_symmetry_space_group_name_H-M   'P 1'
_cell_length_a   9.02175142
_cell_length_b   8.59875800
_cell_length_c   7.69697327
_cell_angle_alpha   89.99980371
_cell_angle_beta   106.27531538
_cell_angle_gamma   90.00196039
_symmetry_Int_Tables_number   1
_chemical_formula_structural   CsPmSe2
_chemical_formula_sum   'Cs4 Pm4 Se8'
_cell_volume   573.17121502
_cell_formula_units_Z   4
loop_
 _symmetry_equiv_pos_site_id
 _symmetry_equiv_pos_as_xyz
  1  'x, y, z'
loop_
 _atom_site_type_symbol
 _atom_site_label
 _atom_site_symmetry_multiplicity
 _atom_site_fract_x
 _atom_site_fract_y
 _atom_site_fract_z
 _atom_site_occupancy
  Cs  Cs0  1  0.000760  0.754915  0.999680  1
  Cs  Cs1  1  0.999235  0.254930  0.500331  1
  Cs  Cs2  1  0.000763  0.745090  0.499678  1
  Cs  Cs3  1  0.999233  0.245064  0.000326  1
  Pm  Pm4  1  0.499983  0.627790  0.251277  1
  Pm  Pm5  1  0.500014  0.127788  0.248717  1
  Pm  Pm6  1  0.499994  0.872215  0.751286  1
  Pm  Pm7  1  0.500011  0.372215  0.748716  1
  Se  Se8  1  0.685034  0.883903  0.143072  1
  Se  Se9  1  0.314971  0.383883  0.356923  1
  Se  Se10  1  0.685023  0.616107  0.643056  1
  Se  Se11  1  0.314974  0.116097  0.856934  1
  Se  Se12  1  0.684293  0.383939  0.140126  1
  Se  Se13  1  0.315711  0.883931  0.359868  1
  Se  Se14  1  0.684291  0.116072  0.640135  1
  Se  Se15  1  0.315706  0.616063  0.859868  1
