# generated using pymatgen
data_LiLu3In3Au2
_symmetry_space_group_name_H-M   'P 1'
_cell_length_a   7.79032600
_cell_length_b   7.79032618
_cell_length_c   3.73987500
_cell_angle_alpha   90.00000000
_cell_angle_beta   90.00000000
_cell_angle_gamma   119.99999076
_symmetry_Int_Tables_number   1
_chemical_formula_structural   LiLu3In3Au2
_chemical_formula_sum   'Li1 Lu3 In3 Au2'
_cell_volume   196.56176014
_cell_formula_units_Z   1
loop_
 _symmetry_equiv_pos_site_id
 _symmetry_equiv_pos_as_xyz
  1  'x, y, z'
loop_
 _atom_site_type_symbol
 _atom_site_label
 _atom_site_symmetry_multiplicity
 _atom_site_fract_x
 _atom_site_fract_y
 _atom_site_fract_z
 _atom_site_occupancy
  Li  Li0  1  0.000000  0.000000  0.500000  1
  Lu  Lu1  1  0.407275  0.000000  0.500000  1
  Lu  Lu2  1  0.000000  0.407275  0.500000  1
  Lu  Lu3  1  0.592725  0.592725  0.500000  1
  In  In4  1  0.745231  0.000000  0.000000  1
  In  In5  1  0.000000  0.745231  0.000000  1
  In  In6  1  0.254769  0.254769  0.000000  1
  Au  Au7  1  0.333333  0.666667  0.000000  1
  Au  Au8  1  0.666667  0.333333  0.000000  1
