# generated using pymatgen
data_InPb4W3O13
_symmetry_space_group_name_H-M   'P 1'
_cell_length_a   7.56248143
_cell_length_b   7.55854176
_cell_length_c   7.56187097
_cell_angle_alpha   60.70285818
_cell_angle_beta   60.71901730
_cell_angle_gamma   60.69966747
_symmetry_Int_Tables_number   1
_chemical_formula_structural   InPb4W3O13
_chemical_formula_sum   'In1 Pb4 W3 O13'
_cell_volume   310.52271284
_cell_formula_units_Z   1
loop_
 _symmetry_equiv_pos_site_id
 _symmetry_equiv_pos_as_xyz
  1  'x, y, z'
loop_
 _atom_site_type_symbol
 _atom_site_label
 _atom_site_symmetry_multiplicity
 _atom_site_fract_x
 _atom_site_fract_y
 _atom_site_fract_z
 _atom_site_occupancy
  In  In0  1  0.500555  0.500662  0.500649  1
  Pb  Pb1  1  0.997056  0.996788  0.997031  1
  Pb  Pb2  1  0.497829  0.001508  0.001736  1
  Pb  Pb3  1  0.001602  0.002107  0.497791  1
  Pb  Pb4  1  0.001626  0.497896  0.001530  1
  W  W5  1  0.001387  0.500158  0.500094  1
  W  W6  1  0.500114  0.500047  0.001394  1
  W  W7  1  0.500154  0.001377  0.500066  1
  O  O8  1  0.845365  0.419952  0.420156  1
  O  O9  1  0.421085  0.819418  0.819364  1
  O  O10  1  0.420068  0.420106  0.845361  1
  O  O11  1  0.819258  0.819276  0.421219  1
  O  O12  1  0.819295  0.421282  0.819283  1
  O  O13  1  0.420081  0.845319  0.420115  1
  O  O14  1  0.159108  0.576785  0.576939  1
  O  O15  1  0.577008  0.183151  0.183224  1
  O  O16  1  0.576871  0.576889  0.159088  1
  O  O17  1  0.183284  0.183206  0.576730  1
  O  O18  1  0.183286  0.576814  0.183304  1
  O  O19  1  0.576886  0.159112  0.576840  1
  O  O20  1  0.123078  0.123144  0.123085  1
