# generated using pymatgen
data_Lu4VOs6W
_symmetry_space_group_name_H-M   'P 1'
_cell_length_a   5.42367500
_cell_length_b   5.42367619
_cell_length_c   8.38875400
_cell_angle_alpha   90.00000000
_cell_angle_beta   90.00000000
_cell_angle_gamma   119.99998661
_symmetry_Int_Tables_number   1
_chemical_formula_structural   Lu4VOs6W
_chemical_formula_sum   'Lu4 V1 Os6 W1'
_cell_volume   213.70543143
_cell_formula_units_Z   1
loop_
 _symmetry_equiv_pos_site_id
 _symmetry_equiv_pos_as_xyz
  1  'x, y, z'
loop_
 _atom_site_type_symbol
 _atom_site_label
 _atom_site_symmetry_multiplicity
 _atom_site_fract_x
 _atom_site_fract_y
 _atom_site_fract_z
 _atom_site_occupancy
  Lu  Lu0  1  0.333333  0.666667  0.436073  1
  Lu  Lu1  1  0.666667  0.333333  0.563927  1
  Lu  Lu2  1  0.666667  0.333333  0.936150  1
  Lu  Lu3  1  0.333333  0.666667  0.063850  1
  V  V4  1  0.000000  0.000000  0.500000  1
  Os  Os5  1  0.171896  0.343793  0.747263  1
  Os  Os6  1  0.171896  0.828104  0.747263  1
  Os  Os7  1  0.343793  0.171896  0.252737  1
  Os  Os8  1  0.828104  0.656207  0.252737  1
  Os  Os9  1  0.656207  0.828104  0.747263  1
  Os  Os10  1  0.828104  0.171896  0.252737  1
  W  W11  1  0.000000  0.000000  0.000000  1
