# generated using pymatgen
data_Sc2Mn4Fe3Ni5P7
_symmetry_space_group_name_H-M   'P 1'
_cell_length_a   9.05301601
_cell_length_b   9.09905253
_cell_length_c   3.55430000
_cell_angle_alpha   90.00000000
_cell_angle_beta   90.00000000
_cell_angle_gamma   120.03633641
_symmetry_Int_Tables_number   1
_chemical_formula_structural   Sc2Mn4Fe3Ni5P7
_chemical_formula_sum   'Sc2 Mn4 Fe3 Ni5 P7'
_cell_volume   253.46327404
_cell_formula_units_Z   1
loop_
 _symmetry_equiv_pos_site_id
 _symmetry_equiv_pos_as_xyz
  1  'x, y, z'
loop_
 _atom_site_type_symbol
 _atom_site_label
 _atom_site_symmetry_multiplicity
 _atom_site_fract_x
 _atom_site_fract_y
 _atom_site_fract_z
 _atom_site_occupancy
  Sc  Sc0  1  0.670197  0.336961  0.500000  1
  Sc  Sc1  1  0.333273  0.668734  0.000000  1
  Mn  Mn2  1  0.049494  0.609772  0.500000  1
  Mn  Mn3  1  0.216943  0.095766  0.500000  1
  Mn  Mn4  1  0.877403  0.778404  0.500000  1
  Mn  Mn5  1  0.901446  0.123985  0.500000  1
  Fe  Fe6  1  0.389794  0.436292  0.500000  1
  Fe  Fe7  1  0.717075  0.880721  0.000000  1
  Fe  Fe8  1  0.120923  0.845492  0.000000  1
  Ni  Ni9  1  0.158552  0.275768  0.000000  1
  Ni  Ni10  1  0.937479  0.365867  0.000000  1
  Ni  Ni11  1  0.635223  0.567665  0.000000  1
  Ni  Ni12  1  0.436419  0.068591  0.000000  1
  Ni  Ni13  1  0.555908  0.948172  0.500000  1
  P  P14  1  0.993542  0.993713  0.000000  1
  P  P15  1  0.418659  0.303912  0.000000  1
  P  P16  1  0.585748  0.710151  0.500000  1
  P  P17  1  0.279183  0.868943  0.500000  1
  P  P18  1  0.130547  0.417794  0.500000  1
  P  P19  1  0.702422  0.116397  0.000000  1
  P  P20  1  0.889770  0.586902  0.000000  1
