# generated using pymatgen
data_Tb3TmScPt3O14
_symmetry_space_group_name_H-M   'P 1'
_cell_length_a   7.26575066
_cell_length_b   7.26574978
_cell_length_c   7.33252556
_cell_angle_alpha   60.30078483
_cell_angle_beta   60.30079872
_cell_angle_gamma   59.99999769
_symmetry_Int_Tables_number   1
_chemical_formula_structural   Tb3TmScPt3O14
_chemical_formula_sum   'Tb3 Tm1 Sc1 Pt3 O14'
_cell_volume   274.95341806
_cell_formula_units_Z   1
loop_
 _symmetry_equiv_pos_site_id
 _symmetry_equiv_pos_as_xyz
  1  'x, y, z'
loop_
 _atom_site_type_symbol
 _atom_site_label
 _atom_site_symmetry_multiplicity
 _atom_site_fract_x
 _atom_site_fract_y
 _atom_site_fract_z
 _atom_site_occupancy
  Tb  Tb0  1  0.625000  0.625000  0.625000  1
  Tb  Tb1  1  0.625000  0.125000  0.625000  1
  Tb  Tb2  1  0.125000  0.625000  0.625000  1
  Tm  Tm3  1  0.625000  0.625000  0.125000  1
  Sc  Sc4  1  0.125000  0.125000  0.625000  1
  Pt  Pt5  1  0.125000  0.125000  0.125000  1
  Pt  Pt6  1  0.625000  0.125000  0.125000  1
  Pt  Pt7  1  0.125000  0.625000  0.125000  1
  O  O8  1  0.031454  0.476746  0.460345  1
  O  O9  1  0.788182  0.788182  0.201772  1
  O  O10  1  0.788182  0.221865  0.201772  1
  O  O11  1  0.476746  0.031454  0.460345  1
  O  O12  1  0.028135  0.461818  0.048228  1
  O  O13  1  0.745625  0.745625  0.763125  1
  O  O14  1  0.031454  0.031454  0.460345  1
  O  O15  1  0.221865  0.788182  0.201772  1
  O  O16  1  0.218546  0.218546  0.789655  1
  O  O17  1  0.504375  0.504375  0.486875  1
  O  O18  1  0.773254  0.218546  0.789655  1
  O  O19  1  0.461818  0.028135  0.048228  1
  O  O20  1  0.461818  0.461818  0.048228  1
  O  O21  1  0.218546  0.773254  0.789655  1
