# generated using pymatgen
data_Yb4TaCr(MoO6)2
_symmetry_space_group_name_H-M   'P 1'
_cell_length_a   7.78471444
_cell_length_b   5.41198499
_cell_length_c   5.65011936
_cell_angle_alpha   89.74281690
_cell_angle_beta   90.36392040
_cell_angle_gamma   89.91504911
_symmetry_Int_Tables_number   1
_chemical_formula_structural   Yb4TaCr(MoO6)2
_chemical_formula_sum   'Yb4 Ta1 Cr1 Mo2 O12'
_cell_volume   238.03633795
_cell_formula_units_Z   1
loop_
 _symmetry_equiv_pos_site_id
 _symmetry_equiv_pos_as_xyz
  1  'x, y, z'
loop_
 _atom_site_type_symbol
 _atom_site_label
 _atom_site_symmetry_multiplicity
 _atom_site_fract_x
 _atom_site_fract_y
 _atom_site_fract_z
 _atom_site_occupancy
  Yb  Yb0  1  0.763552  0.979528  0.061646  1
  Yb  Yb1  1  0.763577  0.513504  0.555842  1
  Yb  Yb2  1  0.236423  0.486496  0.444158  1
  Yb  Yb3  1  0.236448  0.020472  0.938354  1
  Ta  Ta4  1  0.500000  0.000000  0.500000  1
  Cr  Cr5  1  0.000000  0.000000  0.500000  1
  Mo  Mo6  1  0.000000  0.500000  0.000000  1
  Mo  Mo7  1  0.500000  0.500000  0.000000  1
  O  O8  1  0.442914  0.192350  0.204940  1
  O  O9  1  0.554984  0.701062  0.309072  1
  O  O10  1  0.557086  0.807650  0.795060  1
  O  O11  1  0.050194  0.298237  0.703187  1
  O  O12  1  0.253957  0.903334  0.533421  1
  O  O13  1  0.445016  0.298938  0.690928  1
  O  O14  1  0.949806  0.701763  0.296813  1
  O  O15  1  0.050119  0.199641  0.205361  1
  O  O16  1  0.743400  0.388810  0.959365  1
  O  O17  1  0.949881  0.800359  0.794639  1
  O  O18  1  0.256600  0.611190  0.040635  1
  O  O19  1  0.746043  0.096666  0.466579  1
