# generated using pymatgen
data_Tm3Th(Ga3Rh)6
_symmetry_space_group_name_H-M   'P 1'
_cell_length_a   7.59504009
_cell_length_b   7.60024729
_cell_length_c   9.49610700
_cell_angle_alpha   90.00000000
_cell_angle_beta   90.00000000
_cell_angle_gamma   119.80204839
_symmetry_Int_Tables_number   1
_chemical_formula_structural   Tm3Th(Ga3Rh)6
_chemical_formula_sum   'Tm3 Th1 Ga18 Rh6'
_cell_volume   475.66024734
_cell_formula_units_Z   1
loop_
 _symmetry_equiv_pos_site_id
 _symmetry_equiv_pos_as_xyz
  1  'x, y, z'
loop_
 _atom_site_type_symbol
 _atom_site_label
 _atom_site_symmetry_multiplicity
 _atom_site_fract_x
 _atom_site_fract_y
 _atom_site_fract_z
 _atom_site_occupancy
  Tm  Tm0  1  0.003182  0.331468  0.750000  1
  Tm  Tm1  1  0.669417  0.997191  0.250000  1
  Tm  Tm2  1  0.330994  0.002670  0.750000  1
  Th  Th3  1  0.996904  0.668537  0.250000  1
  Ga  Ga4  1  0.127446  0.130354  0.250000  1
  Ga  Ga5  1  0.875788  0.877103  0.750000  1
  Ga  Ga6  1  0.998615  0.327917  0.076675  1
  Ga  Ga7  1  0.000799  0.665384  0.913937  1
  Ga  Ga8  1  0.000799  0.665384  0.586063  1
  Ga  Ga9  1  0.340740  0.004979  0.423219  1
  Ga  Ga10  1  0.998615  0.327917  0.423325  1
  Ga  Ga11  1  0.665636  0.001485  0.580681  1
  Ga  Ga12  1  0.665636  0.001485  0.919319  1
  Ga  Ga13  1  0.340740  0.004979  0.076781  1
  Ga  Ga14  1  0.331790  0.331773  0.567164  1
  Ga  Ga15  1  0.662327  0.668199  0.438650  1
  Ga  Ga16  1  0.662327  0.668199  0.061350  1
  Ga  Ga17  1  0.331790  0.331773  0.932836  1
  Ga  Ga18  1  0.341921  0.546834  0.250000  1
  Ga  Ga19  1  0.660643  0.450465  0.750000  1
  Ga  Ga20  1  0.542173  0.334841  0.250000  1
  Ga  Ga21  1  0.451313  0.661646  0.750000  1
  Rh  Rh22  1  0.673450  0.330733  0.000241  1
  Rh  Rh23  1  0.326023  0.670899  0.000328  1
  Rh  Rh24  1  0.326023  0.670899  0.499672  1
  Rh  Rh25  1  0.673450  0.330733  0.499759  1
  Rh  Rh26  1  0.000729  0.998077  0.000275  1
  Rh  Rh27  1  0.000729  0.998077  0.499725  1
