# generated using pymatgen
data_LiMg(Sc2Pt5)2
_symmetry_space_group_name_H-M   'P 1'
_cell_length_a   4.11399400
_cell_length_b   5.64530247
_cell_length_c   11.30774000
_cell_angle_alpha   87.12481047
_cell_angle_beta   90.00000000
_cell_angle_gamma   90.00000000
_symmetry_Int_Tables_number   1
_chemical_formula_structural   LiMg(Sc2Pt5)2
_chemical_formula_sum   'Li1 Mg1 Sc4 Pt10'
_cell_volume   262.28873422
_cell_formula_units_Z   1
loop_
 _symmetry_equiv_pos_site_id
 _symmetry_equiv_pos_as_xyz
  1  'x, y, z'
loop_
 _atom_site_type_symbol
 _atom_site_label
 _atom_site_symmetry_multiplicity
 _atom_site_fract_x
 _atom_site_fract_y
 _atom_site_fract_z
 _atom_site_occupancy
  Li  Li0  1  0.000000  0.000000  0.500000  1
  Mg  Mg1  1  0.000000  0.000000  0.000000  1
  Sc  Sc2  1  0.500000  0.741751  0.369632  1
  Sc  Sc3  1  0.500000  0.721531  0.861897  1
  Sc  Sc4  1  0.500000  0.278469  0.138103  1
  Sc  Sc5  1  0.500000  0.258249  0.630368  1
  Pt  Pt6  1  0.000000  0.009086  0.252043  1
  Pt  Pt7  1  0.000000  0.990914  0.747957  1
  Pt  Pt8  1  0.000000  0.500000  0.000000  1
  Pt  Pt9  1  0.000000  0.500000  0.500000  1
  Pt  Pt10  1  0.000000  0.509234  0.251310  1
  Pt  Pt11  1  0.000000  0.490766  0.748690  1
  Pt  Pt12  1  0.500000  0.239648  0.383834  1
  Pt  Pt13  1  0.500000  0.226651  0.882806  1
  Pt  Pt14  1  0.500000  0.773349  0.117194  1
  Pt  Pt15  1  0.500000  0.760352  0.616166  1
