# generated using pymatgen
data_Pa3Al12TcOs3
_symmetry_space_group_name_H-M   'P 1'
_cell_length_a   8.89703300
_cell_length_b   8.89703273
_cell_length_c   9.41399800
_cell_angle_alpha   90.00000000
_cell_angle_beta   90.00000000
_cell_angle_gamma   120.00000471
_symmetry_Int_Tables_number   1
_chemical_formula_structural   Pa3Al12TcOs3
_chemical_formula_sum   'Pa6 Al24 Tc2 Os6'
_cell_volume   645.34968531
_cell_formula_units_Z   2
loop_
 _symmetry_equiv_pos_site_id
 _symmetry_equiv_pos_as_xyz
  1  'x, y, z'
loop_
 _atom_site_type_symbol
 _atom_site_label
 _atom_site_symmetry_multiplicity
 _atom_site_fract_x
 _atom_site_fract_y
 _atom_site_fract_z
 _atom_site_occupancy
  Pa  Pa0  1  0.196314  0.392627  0.250000  1
  Pa  Pa1  1  0.803686  0.607373  0.750000  1
  Pa  Pa2  1  0.607373  0.803686  0.250000  1
  Pa  Pa3  1  0.392627  0.196314  0.750000  1
  Pa  Pa4  1  0.196314  0.803686  0.250000  1
  Pa  Pa5  1  0.803686  0.196314  0.750000  1
  Al  Al6  1  0.333333  0.666667  0.016814  1
  Al  Al7  1  0.666667  0.333333  0.983186  1
  Al  Al8  1  0.666667  0.333333  0.516814  1
  Al  Al9  1  0.333333  0.666667  0.483186  1
  Al  Al10  1  0.161423  0.322845  0.579370  1
  Al  Al11  1  0.838577  0.677155  0.420630  1
  Al  Al12  1  0.677155  0.838577  0.579370  1
  Al  Al13  1  0.838577  0.677155  0.079370  1
  Al  Al14  1  0.322845  0.161423  0.420630  1
  Al  Al15  1  0.161423  0.322845  0.920630  1
  Al  Al16  1  0.161423  0.838577  0.579370  1
  Al  Al17  1  0.322845  0.161423  0.079370  1
  Al  Al18  1  0.838577  0.161423  0.420630  1
  Al  Al19  1  0.677155  0.838577  0.920630  1
  Al  Al20  1  0.838577  0.161423  0.079370  1
  Al  Al21  1  0.161423  0.838577  0.920630  1
  Al  Al22  1  0.562911  0.125823  0.250000  1
  Al  Al23  1  0.437089  0.874177  0.750000  1
  Al  Al24  1  0.874177  0.437089  0.250000  1
  Al  Al25  1  0.125823  0.562911  0.750000  1
  Al  Al26  1  0.562911  0.437089  0.250000  1
  Al  Al27  1  0.437089  0.562911  0.750000  1
  Al  Al28  1  0.000000  0.000000  0.250000  1
  Al  Al29  1  0.000000  0.000000  0.750000  1
  Tc  Tc30  1  0.000000  0.000000  0.000000  1
  Tc  Tc31  1  0.000000  0.000000  0.500000  1
  Os  Os32  1  0.500000  0.000000  0.000000  1
  Os  Os33  1  0.000000  0.500000  0.000000  1
  Os  Os34  1  0.500000  0.000000  0.500000  1
  Os  Os35  1  0.500000  0.500000  0.000000  1
  Os  Os36  1  0.000000  0.500000  0.500000  1
  Os  Os37  1  0.500000  0.500000  0.500000  1
