# generated using pymatgen
data_Dy2MnFe2Tc14C3
_symmetry_space_group_name_H-M   'P 1'
_cell_length_a   6.90235647
_cell_length_b   6.90235600
_cell_length_c   6.90605381
_cell_angle_alpha   82.36799078
_cell_angle_beta   82.36797908
_cell_angle_gamma   82.43262447
_symmetry_Int_Tables_number   1
_chemical_formula_structural   Dy2MnFe2Tc14C3
_chemical_formula_sum   'Dy2 Mn1 Fe2 Tc14 C3'
_cell_volume   321.03254484
_cell_formula_units_Z   1
loop_
 _symmetry_equiv_pos_site_id
 _symmetry_equiv_pos_as_xyz
  1  'x, y, z'
loop_
 _atom_site_type_symbol
 _atom_site_label
 _atom_site_symmetry_multiplicity
 _atom_site_fract_x
 _atom_site_fract_y
 _atom_site_fract_z
 _atom_site_occupancy
  Dy  Dy0  1  0.652041  0.652041  0.652195  1
  Dy  Dy1  1  0.347959  0.347959  0.347805  1
  Mn  Mn2  1  0.000000  0.000000  0.500000  1
  Fe  Fe3  1  0.500000  0.000000  0.000000  1
  Fe  Fe4  1  0.000000  0.500000  0.000000  1
  Tc  Tc5  1  0.724026  0.275974  0.000000  1
  Tc  Tc6  1  0.999969  0.723601  0.275737  1
  Tc  Tc7  1  0.276399  0.000031  0.724263  1
  Tc  Tc8  1  0.000031  0.276399  0.724263  1
  Tc  Tc9  1  0.723601  0.999969  0.275737  1
  Tc  Tc10  1  0.275974  0.724026  0.000000  1
  Tc  Tc11  1  0.348546  0.348546  0.860252  1
  Tc  Tc12  1  0.860051  0.348579  0.348133  1
  Tc  Tc13  1  0.348579  0.860051  0.348133  1
  Tc  Tc14  1  0.651454  0.651454  0.139748  1
  Tc  Tc15  1  0.139949  0.651421  0.651867  1
  Tc  Tc16  1  0.651421  0.139949  0.651867  1
  Tc  Tc17  1  0.899037  0.899037  0.899524  1
  Tc  Tc18  1  0.100963  0.100963  0.100476  1
  C  C19  1  0.500000  0.500000  0.000000  1
  C  C20  1  0.000000  0.500000  0.500000  1
  C  C21  1  0.500000  0.000000  0.500000  1
