# generated using pymatgen
data_Tb5TmAl24(Os3Ru)2
_symmetry_space_group_name_H-M   'P 1'
_cell_length_a   8.81395300
_cell_length_b   8.82291139
_cell_length_c   9.58722900
_cell_angle_alpha   90.00000000
_cell_angle_beta   90.00000000
_cell_angle_gamma   119.96641425
_symmetry_Int_Tables_number   1
_chemical_formula_structural   Tb5TmAl24(Os3Ru)2
_chemical_formula_sum   'Tb5 Tm1 Al24 Os6 Ru2'
_cell_volume   645.88211734
_cell_formula_units_Z   1
loop_
 _symmetry_equiv_pos_site_id
 _symmetry_equiv_pos_as_xyz
  1  'x, y, z'
loop_
 _atom_site_type_symbol
 _atom_site_label
 _atom_site_symmetry_multiplicity
 _atom_site_fract_x
 _atom_site_fract_y
 _atom_site_fract_z
 _atom_site_occupancy
  Tb  Tb0  1  0.806568  0.613136  0.750000  1
  Tb  Tb1  1  0.613479  0.806772  0.250000  1
  Tb  Tb2  1  0.386529  0.193140  0.750000  1
  Tb  Tb3  1  0.193294  0.806772  0.250000  1
  Tb  Tb4  1  0.806610  0.193140  0.750000  1
  Tm  Tm5  1  0.194576  0.389151  0.250000  1
  Al  Al6  1  0.333216  0.666434  0.016017  1
  Al  Al7  1  0.666551  0.333100  0.984679  1
  Al  Al8  1  0.666551  0.333100  0.515321  1
  Al  Al9  1  0.333216  0.666434  0.483983  1
  Al  Al10  1  0.162929  0.325855  0.575124  1
  Al  Al11  1  0.836976  0.673953  0.423752  1
  Al  Al12  1  0.673905  0.836839  0.575335  1
  Al  Al13  1  0.836976  0.673953  0.076248  1
  Al  Al14  1  0.325583  0.163331  0.424153  1
  Al  Al15  1  0.162929  0.325855  0.924876  1
  Al  Al16  1  0.162936  0.836839  0.575335  1
  Al  Al17  1  0.325583  0.163331  0.075847  1
  Al  Al18  1  0.837747  0.163331  0.424153  1
  Al  Al19  1  0.673905  0.836839  0.924665  1
  Al  Al20  1  0.837747  0.163331  0.075847  1
  Al  Al21  1  0.162936  0.836839  0.924665  1
  Al  Al22  1  0.561518  0.123036  0.250000  1
  Al  Al23  1  0.438529  0.877060  0.750000  1
  Al  Al24  1  0.878047  0.438543  0.250000  1
  Al  Al25  1  0.122770  0.561193  0.750000  1
  Al  Al26  1  0.560497  0.438543  0.250000  1
  Al  Al27  1  0.438422  0.561193  0.750000  1
  Al  Al28  1  0.001144  0.002289  0.250000  1
  Al  Al29  1  0.999793  0.999585  0.750000  1
  Os  Os30  1  0.499814  0.999629  0.000213  1
  Os  Os31  1  0.000437  0.499678  0.000593  1
  Os  Os32  1  0.499814  0.999629  0.499787  1
  Os  Os33  1  0.499240  0.499678  0.000593  1
  Os  Os34  1  0.000437  0.499678  0.499407  1
  Os  Os35  1  0.499240  0.499678  0.499407  1
  Ru  Ru36  1  0.999778  0.999556  0.000035  1
  Ru  Ru37  1  0.999778  0.999556  0.499965  1
