# generated using pymatgen
data_Na6Zr2PaCl18
_symmetry_space_group_name_H-M   'P 1'
_cell_length_a   11.88591900
_cell_length_b   11.88591842
_cell_length_c   6.20101900
_cell_angle_alpha   90.00000000
_cell_angle_beta   90.00000000
_cell_angle_gamma   119.99999326
_symmetry_Int_Tables_number   1
_chemical_formula_structural   Na6Zr2PaCl18
_chemical_formula_sum   'Na6 Zr2 Pa1 Cl18'
_cell_volume   758.68104676
_cell_formula_units_Z   1
loop_
 _symmetry_equiv_pos_site_id
 _symmetry_equiv_pos_as_xyz
  1  'x, y, z'
loop_
 _atom_site_type_symbol
 _atom_site_label
 _atom_site_symmetry_multiplicity
 _atom_site_fract_x
 _atom_site_fract_y
 _atom_site_fract_z
 _atom_site_occupancy
  Na  Na0  1  0.664573  0.003901  0.998992  1
  Na  Na1  1  0.339327  0.003901  0.998992  1
  Na  Na2  1  0.996099  0.660673  0.998992  1
  Na  Na3  1  0.664573  0.660673  0.998992  1
  Na  Na4  1  0.339327  0.335427  0.998992  1
  Na  Na5  1  0.996099  0.335427  0.998992  1
  Zr  Zr6  1  0.666667  0.333333  0.503098  1
  Zr  Zr7  1  0.000000  0.000000  0.000842  1
  Pa  Pa8  1  0.333333  0.666667  0.497667  1
  Cl  Cl9  1  0.566955  0.133911  0.737322  1
  Cl  Cl10  1  0.766968  0.233032  0.277554  1
  Cl  Cl11  1  0.799710  0.899855  0.227931  1
  Cl  Cl12  1  0.439361  0.560639  0.250374  1
  Cl  Cl13  1  0.766968  0.533935  0.277554  1
  Cl  Cl14  1  0.100145  0.200290  0.227931  1
  Cl  Cl15  1  0.226193  0.773807  0.736073  1
  Cl  Cl16  1  0.566955  0.433045  0.737322  1
  Cl  Cl17  1  0.226193  0.452387  0.736073  1
  Cl  Cl18  1  0.121279  0.560639  0.250374  1
  Cl  Cl19  1  0.200428  0.100214  0.772226  1
  Cl  Cl20  1  0.100145  0.899855  0.227931  1
  Cl  Cl21  1  0.547613  0.773807  0.736073  1
  Cl  Cl22  1  0.439361  0.878721  0.250374  1
  Cl  Cl23  1  0.899786  0.100214  0.772226  1
  Cl  Cl24  1  0.866089  0.433045  0.737322  1
  Cl  Cl25  1  0.466065  0.233032  0.277554  1
  Cl  Cl26  1  0.899786  0.799572  0.772226  1
