# generated using pymatgen
data_Ta7Nb5Al4(AuN)4
_symmetry_space_group_name_H-M   'P 1'
_cell_length_a   7.10227630
_cell_length_b   7.09310644
_cell_length_c   7.09030807
_cell_angle_alpha   90.07707007
_cell_angle_beta   90.04141432
_cell_angle_gamma   89.94439918
_symmetry_Int_Tables_number   1
_chemical_formula_structural   Ta7Nb5Al4(AuN)4
_chemical_formula_sum   'Ta7 Nb5 Al4 Au4 N4'
_cell_volume   357.18929556
_cell_formula_units_Z   1
loop_
 _symmetry_equiv_pos_site_id
 _symmetry_equiv_pos_as_xyz
  1  'x, y, z'
loop_
 _atom_site_type_symbol
 _atom_site_label
 _atom_site_symmetry_multiplicity
 _atom_site_fract_x
 _atom_site_fract_y
 _atom_site_fract_z
 _atom_site_occupancy
  Ta  Ta0  1  0.786386  0.957016  0.377066  1
  Ta  Ta1  1  0.713560  0.043465  0.876391  1
  Ta  Ta2  1  0.213486  0.457269  0.123499  1
  Ta  Ta3  1  0.286754  0.542674  0.622723  1
  Ta  Ta4  1  0.955803  0.375401  0.785365  1
  Ta  Ta5  1  0.044287  0.875210  0.714747  1
  Ta  Ta6  1  0.455728  0.124857  0.214414  1
  Nb  Nb7  1  0.544632  0.624570  0.285184  1
  Nb  Nb8  1  0.376367  0.785986  0.955913  1
  Nb  Nb9  1  0.876113  0.714276  0.044371  1
  Nb  Nb10  1  0.122957  0.213698  0.455797  1
  Nb  Nb11  1  0.623573  0.285978  0.544276  1
  Al  Al12  1  0.572020  0.428137  0.927814  1
  Al  Al13  1  0.428030  0.927986  0.572131  1
  Al  Al14  1  0.927959  0.571724  0.428046  1
  Al  Al15  1  0.072176  0.071722  0.072048  1
  Au  Au16  1  0.179302  0.820090  0.321708  1
  Au  Au17  1  0.320084  0.180012  0.821736  1
  Au  Au18  1  0.820798  0.319515  0.178083  1
  Au  Au19  1  0.680144  0.680228  0.678987  1
  N  N20  1  0.877343  0.120382  0.625249  1
  N  N21  1  0.623774  0.881949  0.124009  1
  N  N22  1  0.122657  0.620330  0.874709  1
  N  N23  1  0.376065  0.377524  0.375734  1
