# generated using pymatgen
data_Y2Ga9NiIr2
_symmetry_space_group_name_H-M   'P 1'
_cell_length_a   7.55729559
_cell_length_b   7.55729551
_cell_length_c   9.45573600
_cell_angle_alpha   90.00000000
_cell_angle_beta   90.00000000
_cell_angle_gamma   120.07559327
_symmetry_Int_Tables_number   1
_chemical_formula_structural   Y2Ga9NiIr2
_chemical_formula_sum   'Y4 Ga18 Ni2 Ir4'
_cell_volume   467.33409371
_cell_formula_units_Z   2
loop_
 _symmetry_equiv_pos_site_id
 _symmetry_equiv_pos_as_xyz
  1  'x, y, z'
loop_
 _atom_site_type_symbol
 _atom_site_label
 _atom_site_symmetry_multiplicity
 _atom_site_fract_x
 _atom_site_fract_y
 _atom_site_fract_z
 _atom_site_occupancy
  Y  Y0  1  0.996281  0.662836  0.250000  1
  Y  Y1  1  0.003719  0.337164  0.750000  1
  Y  Y2  1  0.662836  0.996281  0.250000  1
  Y  Y3  1  0.337164  0.003719  0.750000  1
  Ga  Ga4  1  0.114393  0.114393  0.250000  1
  Ga  Ga5  1  0.885607  0.885607  0.750000  1
  Ga  Ga6  1  0.999376  0.328343  0.078102  1
  Ga  Ga7  1  0.000624  0.671657  0.921898  1
  Ga  Ga8  1  0.000624  0.671657  0.578102  1
  Ga  Ga9  1  0.328343  0.999376  0.421898  1
  Ga  Ga10  1  0.999376  0.328343  0.421898  1
  Ga  Ga11  1  0.671657  0.000624  0.578102  1
  Ga  Ga12  1  0.671657  0.000624  0.921898  1
  Ga  Ga13  1  0.328343  0.999376  0.078102  1
  Ga  Ga14  1  0.327398  0.327398  0.564451  1
  Ga  Ga15  1  0.672602  0.672602  0.435549  1
  Ga  Ga16  1  0.672602  0.672602  0.064451  1
  Ga  Ga17  1  0.327398  0.327398  0.935549  1
  Ga  Ga18  1  0.337909  0.541957  0.250000  1
  Ga  Ga19  1  0.662091  0.458043  0.750000  1
  Ga  Ga20  1  0.541957  0.337909  0.250000  1
  Ga  Ga21  1  0.458043  0.662091  0.750000  1
  Ni  Ni22  1  0.000000  0.000000  0.000000  1
  Ni  Ni23  1  0.000000  0.000000  0.500000  1
  Ir  Ir24  1  0.671512  0.328488  0.000000  1
  Ir  Ir25  1  0.328488  0.671512  0.000000  1
  Ir  Ir26  1  0.328488  0.671512  0.500000  1
  Ir  Ir27  1  0.671512  0.328488  0.500000  1
