# generated using pymatgen
data_Tb7Ho(Si3Ni)4
_symmetry_space_group_name_H-M   'P 1'
_cell_length_a   7.98306900
_cell_length_b   7.97270469
_cell_length_c   8.16152000
_cell_angle_alpha   90.00000000
_cell_angle_beta   90.00000000
_cell_angle_gamma   120.04301626
_symmetry_Int_Tables_number   1
_chemical_formula_structural   Tb7Ho(Si3Ni)4
_chemical_formula_sum   'Tb7 Ho1 Si12 Ni4'
_cell_volume   449.66473515
_cell_formula_units_Z   1
loop_
 _symmetry_equiv_pos_site_id
 _symmetry_equiv_pos_as_xyz
  1  'x, y, z'
loop_
 _atom_site_type_symbol
 _atom_site_label
 _atom_site_symmetry_multiplicity
 _atom_site_fract_x
 _atom_site_fract_y
 _atom_site_fract_z
 _atom_site_occupancy
  Tb  Tb0  1  0.499699  0.999399  0.750000  1
  Tb  Tb1  1  0.999529  0.499687  0.250000  1
  Tb  Tb2  1  0.000477  0.500219  0.750000  1
  Tb  Tb3  1  0.500158  0.499687  0.250000  1
  Tb  Tb4  1  0.499741  0.500219  0.750000  1
  Tb  Tb5  1  0.999994  0.999988  0.250000  1
  Tb  Tb6  1  0.999955  0.999912  0.750000  1
  Ho  Ho7  1  0.500494  0.000988  0.250000  1
  Si  Si8  1  0.171070  0.342140  0.000421  1
  Si  Si9  1  0.828899  0.657801  0.999867  1
  Si  Si10  1  0.658158  0.829096  0.000854  1
  Si  Si11  1  0.828899  0.657801  0.500133  1
  Si  Si12  1  0.341773  0.170771  0.000188  1
  Si  Si13  1  0.171070  0.342140  0.499579  1
  Si  Si14  1  0.170940  0.829096  0.000854  1
  Si  Si15  1  0.341773  0.170771  0.499812  1
  Si  Si16  1  0.828997  0.170771  0.000188  1
  Si  Si17  1  0.658158  0.829096  0.499146  1
  Si  Si18  1  0.828997  0.170771  0.499812  1
  Si  Si19  1  0.170940  0.829096  0.499146  1
  Ni  Ni20  1  0.333808  0.667617  0.000776  1
  Ni  Ni21  1  0.666329  0.332659  0.000458  1
  Ni  Ni22  1  0.666329  0.332659  0.499542  1
  Ni  Ni23  1  0.333808  0.667617  0.499224  1
