# generated using pymatgen
data_Nd17Ho3SnPb15
_symmetry_space_group_name_H-M   'P 1'
_cell_length_a   8.36153400
_cell_length_b   8.50771760
_cell_length_c   16.12083600
_cell_angle_alpha   90.00000000
_cell_angle_beta   90.00000000
_cell_angle_gamma   90.13205821
_symmetry_Int_Tables_number   1
_chemical_formula_structural   Nd17Ho3SnPb15
_chemical_formula_sum   'Nd17 Ho3 Sn1 Pb15'
_cell_volume   1146.79405264
_cell_formula_units_Z   1
loop_
 _symmetry_equiv_pos_site_id
 _symmetry_equiv_pos_as_xyz
  1  'x, y, z'
loop_
 _atom_site_type_symbol
 _atom_site_label
 _atom_site_symmetry_multiplicity
 _atom_site_fract_x
 _atom_site_fract_y
 _atom_site_fract_z
 _atom_site_occupancy
  Nd  Nd0  1  0.022144  0.179999  0.402080  1
  Nd  Nd1  1  0.365659  0.841157  0.120796  1
  Nd  Nd2  1  0.132593  0.338006  0.622240  1
  Nd  Nd3  1  0.477673  0.680406  0.901808  1
  Nd  Nd4  1  0.866158  0.658795  0.122110  1
  Nd  Nd5  1  0.132593  0.338006  0.877760  1
  Nd  Nd6  1  0.477673  0.680406  0.598192  1
  Nd  Nd7  1  0.634791  0.158366  0.620723  1
  Nd  Nd8  1  0.804402  0.495568  0.750000  1
  Nd  Nd9  1  0.866158  0.658795  0.377890  1
  Nd  Nd10  1  0.022144  0.179999  0.097920  1
  Nd  Nd11  1  0.978683  0.823001  0.901020  1
  Nd  Nd12  1  0.634791  0.158366  0.879277  1
  Nd  Nd13  1  0.522046  0.320339  0.098934  1
  Nd  Nd14  1  0.365659  0.841157  0.379204  1
  Nd  Nd15  1  0.978683  0.823001  0.598980  1
  Nd  Nd16  1  0.522046  0.320339  0.401066  1
  Ho  Ho17  1  0.198170  0.503275  0.250000  1
  Ho  Ho18  1  0.697658  0.997031  0.250000  1
  Ho  Ho19  1  0.298898  0.005233  0.750000  1
  Sn  Sn20  1  0.938473  0.118145  0.750000  1
  Pb  Pb21  1  0.790522  0.463573  0.542078  1
  Pb  Pb22  1  0.710306  0.964458  0.454745  1
  Pb  Pb23  1  0.669568  0.851818  0.750000  1
  Pb  Pb24  1  0.209519  0.534495  0.455635  1
  Pb  Pb25  1  0.290584  0.035485  0.955433  1
  Pb  Pb26  1  0.832443  0.344860  0.250000  1
  Pb  Pb27  1  0.790522  0.463573  0.957922  1
  Pb  Pb28  1  0.559117  0.622411  0.250000  1
  Pb  Pb29  1  0.209519  0.534495  0.044365  1
  Pb  Pb30  1  0.436859  0.377017  0.750000  1
  Pb  Pb31  1  0.171912  0.655064  0.750000  1
  Pb  Pb32  1  0.290584  0.035485  0.544567  1
  Pb  Pb33  1  0.710306  0.964458  0.045255  1
  Pb  Pb34  1  0.331041  0.153860  0.250000  1
  Pb  Pb35  1  0.060110  0.879557  0.250000  1
