# generated using pymatgen
data_Ca5Zr3(Ni4P3)4
_symmetry_space_group_name_H-M   'P 1'
_cell_length_a   12.43014900
_cell_length_b   12.43014942
_cell_length_c   3.82057100
_cell_angle_alpha   90.00000000
_cell_angle_beta   90.00000000
_cell_angle_gamma   120.00000155
_symmetry_Int_Tables_number   1
_chemical_formula_structural   Ca5Zr3(Ni4P3)4
_chemical_formula_sum   'Ca5 Zr3 Ni16 P12'
_cell_volume   511.22441125
_cell_formula_units_Z   1
loop_
 _symmetry_equiv_pos_site_id
 _symmetry_equiv_pos_as_xyz
  1  'x, y, z'
loop_
 _atom_site_type_symbol
 _atom_site_label
 _atom_site_symmetry_multiplicity
 _atom_site_fract_x
 _atom_site_fract_y
 _atom_site_fract_z
 _atom_site_occupancy
  Ca  Ca0  1  0.183692  0.183692  0.500000  1
  Ca  Ca1  1  0.816308  0.000000  0.500000  1
  Ca  Ca2  1  0.000000  0.816308  0.500000  1
  Ca  Ca3  1  0.333333  0.666667  0.000000  1
  Ca  Ca4  1  0.666667  0.333333  0.000000  1
  Zr  Zr5  1  0.561696  0.561696  0.000000  1
  Zr  Zr6  1  0.438304  0.000000  0.000000  1
  Zr  Zr7  1  0.000000  0.438304  0.000000  1
  Ni  Ni8  1  0.726215  0.726215  0.500000  1
  Ni  Ni9  1  0.273785  0.000000  0.500000  1
  Ni  Ni10  1  0.000000  0.273785  0.500000  1
  Ni  Ni11  1  0.186072  0.377604  0.000000  1
  Ni  Ni12  1  0.622396  0.808468  0.000000  1
  Ni  Ni13  1  0.191532  0.813928  0.000000  1
  Ni  Ni14  1  0.808468  0.622396  0.000000  1
  Ni  Ni15  1  0.813928  0.191532  0.000000  1
  Ni  Ni16  1  0.377604  0.186072  0.000000  1
  Ni  Ni17  1  0.359279  0.483322  0.500000  1
  Ni  Ni18  1  0.516678  0.875958  0.500000  1
  Ni  Ni19  1  0.124042  0.640721  0.500000  1
  Ni  Ni20  1  0.875958  0.516678  0.500000  1
  Ni  Ni21  1  0.640721  0.124042  0.500000  1
  Ni  Ni22  1  0.483322  0.359279  0.500000  1
  Ni  Ni23  1  0.000000  0.000000  0.000000  1
  P  P24  1  0.821150  0.821150  0.000000  1
  P  P25  1  0.178850  0.000000  0.000000  1
  P  P26  1  0.000000  0.178850  0.000000  1
  P  P27  1  0.169495  0.474015  0.500000  1
  P  P28  1  0.525985  0.695480  0.500000  1
  P  P29  1  0.304520  0.830505  0.500000  1
  P  P30  1  0.695480  0.525985  0.500000  1
  P  P31  1  0.830505  0.304520  0.500000  1
  P  P32  1  0.474015  0.169495  0.500000  1
  P  P33  1  0.355816  0.355816  0.000000  1
  P  P34  1  0.644184  0.000000  0.000000  1
  P  P35  1  0.000000  0.644184  0.000000  1
