# generated using pymatgen
data_SrPrTh(As2Pd3)3
_symmetry_space_group_name_H-M   'P 1'
_cell_length_a   4.14684700
_cell_length_b   8.69762964
_cell_length_c   10.19028215
_cell_angle_alpha   106.99074039
_cell_angle_beta   90.00000000
_cell_angle_gamma   103.79150967
_symmetry_Int_Tables_number   1
_chemical_formula_structural   SrPrTh(As2Pd3)3
_chemical_formula_sum   'Sr1 Pr1 Th1 As6 Pd9'
_cell_volume   340.40268605
_cell_formula_units_Z   1
loop_
 _symmetry_equiv_pos_site_id
 _symmetry_equiv_pos_as_xyz
  1  'x, y, z'
loop_
 _atom_site_type_symbol
 _atom_site_label
 _atom_site_symmetry_multiplicity
 _atom_site_fract_x
 _atom_site_fract_y
 _atom_site_fract_z
 _atom_site_occupancy
  Sr  Sr0  1  0.845211  0.690421  0.296525  1
  Pr  Pr1  1  0.154291  0.308584  0.701704  1
  Th  Th2  1  0.000226  0.000452  0.999212  1
  As  As3  1  0.801255  0.602512  0.870933  1
  As  As4  1  0.197615  0.395227  0.129035  1
  As  As5  1  0.537803  0.075606  0.790384  1
  As  As6  1  0.463994  0.927988  0.204696  1
  As  As7  1  0.636132  0.272262  0.452964  1
  As  As8  1  0.364302  0.728605  0.547419  1
  Pd  Pd9  1  0.955326  0.910651  0.670567  1
  Pd  Pd10  1  0.044875  0.089750  0.331631  1
  Pd  Pd11  1  0.777975  0.555951  0.609778  1
  Pd  Pd12  1  0.220724  0.441446  0.394835  1
  Pd  Pd13  1  0.375213  0.750424  0.796551  1
  Pd  Pd14  1  0.623896  0.247792  0.201276  1
  Pd  Pd15  1  0.503344  0.006689  0.507518  1
  Pd  Pd16  1  0.677972  0.355945  0.967361  1
  Pd  Pd17  1  0.319847  0.639693  0.027610  1
