# generated using pymatgen
data_Nd2Mg3P12Ru19
_symmetry_space_group_name_H-M   'P 1'
_cell_length_a   12.45855900
_cell_length_b   12.45855924
_cell_length_c   3.99707400
_cell_angle_alpha   90.00000000
_cell_angle_beta   90.00000000
_cell_angle_gamma   120.00000733
_symmetry_Int_Tables_number   1
_chemical_formula_structural   Nd2Mg3P12Ru19
_chemical_formula_sum   'Nd2 Mg3 P12 Ru19'
_cell_volume   537.28958621
_cell_formula_units_Z   1
loop_
 _symmetry_equiv_pos_site_id
 _symmetry_equiv_pos_as_xyz
  1  'x, y, z'
loop_
 _atom_site_type_symbol
 _atom_site_label
 _atom_site_symmetry_multiplicity
 _atom_site_fract_x
 _atom_site_fract_y
 _atom_site_fract_z
 _atom_site_occupancy
  Nd  Nd0  1  0.666667  0.333333  0.000000  1
  Nd  Nd1  1  0.333333  0.666667  0.000000  1
  Mg  Mg2  1  0.000000  0.187231  0.500000  1
  Mg  Mg3  1  0.812769  0.812769  0.500000  1
  Mg  Mg4  1  0.187231  0.000000  0.500000  1
  P  P5  1  0.000000  0.820334  0.000000  1
  P  P6  1  0.179666  0.179666  0.000000  1
  P  P7  1  0.820334  0.000000  0.000000  1
  P  P8  1  0.700934  0.170107  0.500000  1
  P  P9  1  0.829893  0.530826  0.500000  1
  P  P10  1  0.469174  0.299066  0.500000  1
  P  P11  1  0.170107  0.700934  0.500000  1
  P  P12  1  0.530826  0.829893  0.500000  1
  P  P13  1  0.299066  0.469174  0.500000  1
  P  P14  1  0.000000  0.387620  0.000000  1
  P  P15  1  0.612380  0.612380  0.000000  1
  P  P16  1  0.387620  0.000000  0.000000  1
  Ru  Ru17  1  0.000000  0.567377  0.000000  1
  Ru  Ru18  1  0.432623  0.432623  0.000000  1
  Ru  Ru19  1  0.567377  0.000000  0.000000  1
  Ru  Ru20  1  0.000000  0.728069  0.500000  1
  Ru  Ru21  1  0.271931  0.271931  0.500000  1
  Ru  Ru22  1  0.728069  0.000000  0.500000  1
  Ru  Ru23  1  0.827580  0.188771  0.000000  1
  Ru  Ru24  1  0.811229  0.638809  0.000000  1
  Ru  Ru25  1  0.361191  0.172420  0.000000  1
  Ru  Ru26  1  0.188771  0.827580  0.000000  1
  Ru  Ru27  1  0.638809  0.811229  0.000000  1
  Ru  Ru28  1  0.172420  0.361191  0.000000  1
  Ru  Ru29  1  0.875654  0.370522  0.500000  1
  Ru  Ru30  1  0.629478  0.505132  0.500000  1
  Ru  Ru31  1  0.494868  0.124346  0.500000  1
  Ru  Ru32  1  0.370522  0.875654  0.500000  1
  Ru  Ru33  1  0.505132  0.629478  0.500000  1
  Ru  Ru34  1  0.124346  0.494868  0.500000  1
  Ru  Ru35  1  0.000000  0.000000  0.000000  1
