# generated using pymatgen
data_Hf5Ta(B2Ru5)2
_symmetry_space_group_name_H-M   'P 1'
_cell_length_a   9.48583500
_cell_length_b   9.48583500
_cell_length_c   3.11756300
_cell_angle_alpha   90.00000000
_cell_angle_beta   90.00000000
_cell_angle_gamma   90.00000000
_symmetry_Int_Tables_number   1
_chemical_formula_structural   Hf5Ta(B2Ru5)2
_chemical_formula_sum   'Hf5 Ta1 B4 Ru10'
_cell_volume   280.52164096
_cell_formula_units_Z   1
loop_
 _symmetry_equiv_pos_site_id
 _symmetry_equiv_pos_as_xyz
  1  'x, y, z'
loop_
 _atom_site_type_symbol
 _atom_site_label
 _atom_site_symmetry_multiplicity
 _atom_site_fract_x
 _atom_site_fract_y
 _atom_site_fract_z
 _atom_site_occupancy
  Hf  Hf0  1  0.823944  0.675832  0.000000  1
  Hf  Hf1  1  0.176056  0.324168  0.000000  1
  Hf  Hf2  1  0.324168  0.823944  0.000000  1
  Hf  Hf3  1  0.675832  0.176056  0.000000  1
  Hf  Hf4  1  0.500000  0.500000  0.000000  1
  Ta  Ta5  1  0.000000  0.000000  0.000000  1
  B  B6  1  0.620486  0.877838  0.000000  1
  B  B7  1  0.379514  0.122162  0.000000  1
  B  B8  1  0.122162  0.620486  0.000000  1
  B  B9  1  0.877838  0.379514  0.000000  1
  Ru  Ru10  1  0.572757  0.721185  0.500000  1
  Ru  Ru11  1  0.427243  0.278815  0.500000  1
  Ru  Ru12  1  0.070015  0.782666  0.500000  1
  Ru  Ru13  1  0.929985  0.217334  0.500000  1
  Ru  Ru14  1  0.278815  0.572757  0.500000  1
  Ru  Ru15  1  0.721185  0.427243  0.500000  1
  Ru  Ru16  1  0.217334  0.070015  0.500000  1
  Ru  Ru17  1  0.782666  0.929985  0.500000  1
  Ru  Ru18  1  0.500000  0.000000  0.500000  1
  Ru  Ru19  1  0.000000  0.500000  0.500000  1
