# generated using pymatgen
data_Sm2MnGe(Ru2C)2
_symmetry_space_group_name_H-M   'P 1'
_cell_length_a   5.87822804
_cell_length_b   5.87822674
_cell_length_c   7.33500500
_cell_angle_alpha   90.00000000
_cell_angle_beta   90.00000000
_cell_angle_gamma   141.19426594
_symmetry_Int_Tables_number   1
_chemical_formula_structural   Sm2MnGe(Ru2C)2
_chemical_formula_sum   'Sm2 Mn1 Ge1 Ru4 C2'
_cell_volume   158.83282580
_cell_formula_units_Z   1
loop_
 _symmetry_equiv_pos_site_id
 _symmetry_equiv_pos_as_xyz
  1  'x, y, z'
loop_
 _atom_site_type_symbol
 _atom_site_label
 _atom_site_symmetry_multiplicity
 _atom_site_fract_x
 _atom_site_fract_y
 _atom_site_fract_z
 _atom_site_occupancy
  Sm  Sm0  1  0.542991  0.457009  0.250000  1
  Sm  Sm1  1  0.453109  0.546891  0.750000  1
  Mn  Mn2  1  0.268011  0.731989  0.250000  1
  Ge  Ge3  1  0.728499  0.271501  0.750000  1
  Ru  Ru4  1  0.836036  0.163964  0.063411  1
  Ru  Ru5  1  0.167489  0.832511  0.951724  1
  Ru  Ru6  1  0.167489  0.832511  0.548276  1
  Ru  Ru7  1  0.836036  0.163964  0.436589  1
  C  C8  1  0.000168  0.999832  0.998273  1
  C  C9  1  0.000168  0.999832  0.501727  1
