# generated using pymatgen
data_Ce4Nd(TcB3)2
_symmetry_space_group_name_H-M   'P 1'
_cell_length_a   5.51974300
_cell_length_b   5.51974316
_cell_length_c   8.53876062
_cell_angle_alpha   71.14241788
_cell_angle_beta   71.14241430
_cell_angle_gamma   59.99999179
_symmetry_Int_Tables_number   1
_chemical_formula_structural   Ce4Nd(TcB3)2
_chemical_formula_sum   'Ce4 Nd1 Tc2 B6'
_cell_volume   209.02152902
_cell_formula_units_Z   1
loop_
 _symmetry_equiv_pos_site_id
 _symmetry_equiv_pos_as_xyz
  1  'x, y, z'
loop_
 _atom_site_type_symbol
 _atom_site_label
 _atom_site_symmetry_multiplicity
 _atom_site_fract_x
 _atom_site_fract_y
 _atom_site_fract_z
 _atom_site_occupancy
  Ce  Ce0  1  0.999838  0.999838  0.000486  1
  Ce  Ce1  1  0.251559  0.251559  0.245323  1
  Ce  Ce2  1  0.584768  0.584768  0.245694  1
  Ce  Ce3  1  0.415244  0.415244  0.754268  1
  Nd  Nd4  1  0.746956  0.746956  0.759130  1
  Tc  Tc5  1  0.891019  0.891019  0.326945  1
  Tc  Tc6  1  0.109559  0.109559  0.671323  1
  B  B7  1  0.499621  0.171714  0.499472  1
  B  B8  1  0.829192  0.499621  0.499472  1
  B  B9  1  0.171714  0.829192  0.499472  1
  B  B10  1  0.171714  0.499621  0.499472  1
  B  B11  1  0.829192  0.171714  0.499472  1
  B  B12  1  0.499621  0.829192  0.499472  1
