# generated using pymatgen
data_TbYb7(Ge4Mo3)4
_symmetry_space_group_name_H-M   'P 1'
_cell_length_a   6.84189918
_cell_length_b   7.02567510
_cell_length_c   13.23954500
_cell_angle_alpha   90.04098387
_cell_angle_beta   90.03795045
_cell_angle_gamma   90.05753704
_symmetry_Int_Tables_number   1
_chemical_formula_structural   TbYb7(Ge4Mo3)4
_chemical_formula_sum   'Tb1 Yb7 Ge16 Mo12'
_cell_volume   636.41054535
_cell_formula_units_Z   1
loop_
 _symmetry_equiv_pos_site_id
 _symmetry_equiv_pos_as_xyz
  1  'x, y, z'
loop_
 _atom_site_type_symbol
 _atom_site_label
 _atom_site_symmetry_multiplicity
 _atom_site_fract_x
 _atom_site_fract_y
 _atom_site_fract_z
 _atom_site_occupancy
  Tb  Tb0  1  0.992899  0.826685  0.591377  1
  Yb  Yb1  1  0.492604  0.670921  0.589537  1
  Yb  Yb2  1  0.992240  0.828846  0.910333  1
  Yb  Yb3  1  0.507509  0.328820  0.090073  1
  Yb  Yb4  1  0.007343  0.172994  0.408606  1
  Yb  Yb5  1  0.507003  0.328305  0.409513  1
  Yb  Yb6  1  0.007151  0.172046  0.089981  1
  Yb  Yb7  1  0.492558  0.670790  0.910970  1
  Ge  Ge8  1  0.670253  0.956683  0.453694  1
  Ge  Ge9  1  0.170416  0.544633  0.045635  1
  Ge  Ge10  1  0.329785  0.044908  0.954591  1
  Ge  Ge11  1  0.828103  0.451972  0.544520  1
  Ge  Ge12  1  0.330776  0.046060  0.544825  1
  Ge  Ge13  1  0.829591  0.455222  0.954450  1
  Ge  Ge14  1  0.670247  0.955367  0.045673  1
  Ge  Ge15  1  0.171852  0.542920  0.453972  1
  Ge  Ge16  1  0.467048  0.378231  0.749039  1
  Ge  Ge17  1  0.965616  0.122815  0.750904  1
  Ge  Ge18  1  0.533932  0.620208  0.250223  1
  Ge  Ge19  1  0.033662  0.881060  0.249629  1
  Ge  Ge20  1  0.687179  0.852785  0.751665  1
  Ge  Ge21  1  0.193392  0.644632  0.752401  1
  Ge  Ge22  1  0.309246  0.147073  0.249841  1
  Ge  Ge23  1  0.808653  0.354151  0.249898  1
  Mo  Mo24  1  0.663526  0.160729  0.628507  1
  Mo  Mo25  1  0.162374  0.336797  0.870653  1
  Mo  Mo26  1  0.338356  0.836963  0.129226  1
  Mo  Mo27  1  0.839530  0.664307  0.371731  1
  Mo  Mo28  1  0.337585  0.836772  0.370974  1
  Mo  Mo29  1  0.838763  0.663531  0.129337  1
  Mo  Mo30  1  0.661627  0.163552  0.870901  1
  Mo  Mo31  1  0.161612  0.337170  0.628279  1
  Mo  Mo32  1  0.837690  0.486919  0.748950  1
  Mo  Mo33  1  0.336658  0.014269  0.749626  1
  Mo  Mo34  1  0.161738  0.515623  0.250264  1
  Mo  Mo35  1  0.661479  0.985242  0.250202  1
