# generated using pymatgen
data_Tm9Lu7In4OsRh3
_symmetry_space_group_name_H-M   'P 1'
_cell_length_a   9.49460059
_cell_length_b   9.49899970
_cell_length_c   9.52736264
_cell_angle_alpha   60.05106410
_cell_angle_beta   59.98128684
_cell_angle_gamma   59.96593853
_symmetry_Int_Tables_number   1
_chemical_formula_structural   Tm9Lu7In4OsRh3
_chemical_formula_sum   'Tm9 Lu7 In4 Os1 Rh3'
_cell_volume   607.58369824
_cell_formula_units_Z   1
loop_
 _symmetry_equiv_pos_site_id
 _symmetry_equiv_pos_as_xyz
  1  'x, y, z'
loop_
 _atom_site_type_symbol
 _atom_site_label
 _atom_site_symmetry_multiplicity
 _atom_site_fract_x
 _atom_site_fract_y
 _atom_site_fract_z
 _atom_site_occupancy
  Tm  Tm0  1  0.192042  0.191440  0.808983  1
  Tm  Tm1  1  0.809951  0.808684  0.193212  1
  Tm  Tm2  1  0.437590  0.062821  0.062259  1
  Tm  Tm3  1  0.809540  0.189644  0.192816  1
  Tm  Tm4  1  0.060801  0.444046  0.434755  1
  Tm  Tm5  1  0.809110  0.192805  0.807502  1
  Tm  Tm6  1  0.192346  0.809139  0.808599  1
  Tm  Tm7  1  0.649330  0.649615  0.049531  1
  Tm  Tm8  1  0.652048  0.652469  0.650148  1
  Lu  Lu9  1  0.056479  0.056160  0.437504  1
  Lu  Lu10  1  0.444524  0.059381  0.436757  1
  Lu  Lu11  1  0.061572  0.438313  0.060718  1
  Lu  Lu12  1  0.047674  0.649154  0.649783  1
  Lu  Lu13  1  0.437644  0.439498  0.061049  1
  Lu  Lu14  1  0.649109  0.046856  0.650095  1
  Lu  Lu15  1  0.190716  0.808887  0.193352  1
  In  In16  1  0.417082  0.416110  0.416462  1
  In  In17  1  0.750101  0.416499  0.416463  1
  In  In18  1  0.415845  0.750729  0.416893  1
  In  In19  1  0.415819  0.417237  0.749825  1
  Os  Os20  1  0.860146  0.859253  0.424841  1
  Rh  Rh21  1  0.858722  0.859280  0.858203  1
  Rh  Rh22  1  0.423237  0.858094  0.860388  1
  Rh  Rh23  1  0.858575  0.423886  0.859867  1
