# generated using pymatgen
data_Ho5Fe17(NiP6)2
_symmetry_space_group_name_H-M   'P 1'
_cell_length_a   11.95958535
_cell_length_b   11.89573796
_cell_length_c   3.68685500
_cell_angle_alpha   90.00000000
_cell_angle_beta   90.00000000
_cell_angle_gamma   119.79204885
_symmetry_Int_Tables_number   1
_chemical_formula_structural   Ho5Fe17(NiP6)2
_chemical_formula_sum   'Ho5 Fe17 Ni2 P12'
_cell_volume   455.19809527
_cell_formula_units_Z   1
loop_
 _symmetry_equiv_pos_site_id
 _symmetry_equiv_pos_as_xyz
  1  'x, y, z'
loop_
 _atom_site_type_symbol
 _atom_site_label
 _atom_site_symmetry_multiplicity
 _atom_site_fract_x
 _atom_site_fract_y
 _atom_site_fract_z
 _atom_site_occupancy
  Ho  Ho0  1  0.999903  0.813024  0.500000  1
  Ho  Ho1  1  0.188145  0.188013  0.500000  1
  Ho  Ho2  1  0.814533  0.003394  0.500000  1
  Ho  Ho3  1  0.664764  0.333129  0.000000  1
  Ho  Ho4  1  0.336546  0.666814  0.000000  1
  Fe  Fe5  1  0.999767  0.285919  0.500000  1
  Fe  Fe6  1  0.378259  0.179042  0.000000  1
  Fe  Fe7  1  0.799078  0.621576  0.000000  1
  Fe  Fe8  1  0.819521  0.198260  0.000000  1
  Fe  Fe9  1  0.181309  0.379639  0.000000  1
  Fe  Fe10  1  0.197278  0.813699  0.000000  1
  Fe  Fe11  1  0.876953  0.516548  0.500000  1
  Fe  Fe12  1  0.637417  0.121330  0.500000  1
  Fe  Fe13  1  0.483052  0.361448  0.500000  1
  Fe  Fe14  1  0.359446  0.480251  0.500000  1
  Fe  Fe15  1  0.122926  0.643413  0.500000  1
  Fe  Fe16  1  0.520039  0.875006  0.500000  1
  Fe  Fe17  1  0.283580  0.997703  0.500000  1
  Fe  Fe18  1  0.999907  0.442255  0.000000  1
  Fe  Fe19  1  0.554686  0.558400  0.000000  1
  Fe  Fe20  1  0.440636  0.995492  0.000000  1
  Fe  Fe21  1  0.715379  0.718878  0.500000  1
  Ni  Ni22  1  0.001244  0.001794  0.000000  1
  Ni  Ni23  1  0.624366  0.805110  0.000000  1
  P  P24  1  0.686199  0.522046  0.500000  1
  P  P25  1  0.477213  0.165680  0.500000  1
  P  P26  1  0.831302  0.310646  0.500000  1
  P  P27  1  0.320562  0.837814  0.500000  1
  P  P28  1  0.167650  0.478489  0.500000  1
  P  P29  1  0.819785  0.816723  0.000000  1
  P  P30  1  0.185157  0.999942  0.000000  1
  P  P31  1  0.992298  0.626033  0.000000  1
  P  P32  1  0.371825  0.370330  0.000000  1
  P  P33  1  0.629660  0.005564  0.000000  1
  P  P34  1  0.518730  0.679598  0.500000  1
  P  P35  1  0.000884  0.187000  0.000000  1
