# generated using pymatgen
data_Ho5ThFeNi
_symmetry_space_group_name_H-M   'P 1'
_cell_length_a   6.27440700
_cell_length_b   6.93353400
_cell_length_c   9.50490600
_cell_angle_alpha   90.00000000
_cell_angle_beta   90.00000000
_cell_angle_gamma   90.00000000
_symmetry_Int_Tables_number   1
_chemical_formula_structural   Ho5ThFeNi
_chemical_formula_sum   'Ho10 Th2 Fe2 Ni2'
_cell_volume   413.49966522
_cell_formula_units_Z   2
loop_
 _symmetry_equiv_pos_site_id
 _symmetry_equiv_pos_as_xyz
  1  'x, y, z'
loop_
 _atom_site_type_symbol
 _atom_site_label
 _atom_site_symmetry_multiplicity
 _atom_site_fract_x
 _atom_site_fract_y
 _atom_site_fract_z
 _atom_site_occupancy
  Ho  Ho0  1  0.325274  0.674677  0.069622  1
  Ho  Ho1  1  0.174726  0.174677  0.430378  1
  Ho  Ho2  1  0.673125  0.325084  0.567753  1
  Ho  Ho3  1  0.826875  0.825084  0.932247  1
  Ho  Ho4  1  0.673125  0.325084  0.932247  1
  Ho  Ho5  1  0.826875  0.825084  0.567753  1
  Ho  Ho6  1  0.325274  0.674677  0.430378  1
  Ho  Ho7  1  0.174726  0.174677  0.069622  1
  Ho  Ho8  1  0.145225  0.462045  0.750000  1
  Ho  Ho9  1  0.354775  0.962045  0.750000  1
  Th  Th10  1  0.852250  0.557423  0.250000  1
  Th  Th11  1  0.647750  0.057423  0.250000  1
  Fe  Fe12  1  0.018835  0.867912  0.250000  1
  Fe  Fe13  1  0.481165  0.367912  0.250000  1
  Ni  Ni14  1  0.943996  0.113098  0.750000  1
  Ni  Ni15  1  0.556004  0.613098  0.750000  1
