# generated using pymatgen
data_Hf4Zr6Ga2Sn5Bi
_symmetry_space_group_name_H-M   'P 1'
_cell_length_a   8.73456139
_cell_length_b   8.73456164
_cell_length_c   5.86634800
_cell_angle_alpha   90.00000000
_cell_angle_beta   90.00000000
_cell_angle_gamma   119.95294162
_symmetry_Int_Tables_number   1
_chemical_formula_structural   Hf4Zr6Ga2Sn5Bi
_chemical_formula_sum   'Hf4 Zr6 Ga2 Sn5 Bi1'
_cell_volume   387.78089929
_cell_formula_units_Z   1
loop_
 _symmetry_equiv_pos_site_id
 _symmetry_equiv_pos_as_xyz
  1  'x, y, z'
loop_
 _atom_site_type_symbol
 _atom_site_label
 _atom_site_symmetry_multiplicity
 _atom_site_fract_x
 _atom_site_fract_y
 _atom_site_fract_z
 _atom_site_occupancy
  Hf  Hf0  1  0.669634  0.332398  0.001472  1
  Hf  Hf1  1  0.332398  0.669634  0.001472  1
  Hf  Hf2  1  0.332398  0.669634  0.498528  1
  Hf  Hf3  1  0.669634  0.332398  0.498528  1
  Zr  Zr4  1  0.735853  0.735853  0.750000  1
  Zr  Zr5  1  0.265191  0.994411  0.750000  1
  Zr  Zr6  1  0.994411  0.265191  0.750000  1
  Zr  Zr7  1  0.266869  0.266869  0.250000  1
  Zr  Zr8  1  0.732131  0.999919  0.250000  1
  Zr  Zr9  1  0.999919  0.732131  0.250000  1
  Ga  Ga10  1  0.000500  0.000500  0.001019  1
  Ga  Ga11  1  0.000500  0.000500  0.498981  1
  Sn  Sn12  1  0.610328  0.999070  0.750000  1
  Sn  Sn13  1  0.999070  0.610328  0.750000  1
  Sn  Sn14  1  0.611777  0.611777  0.250000  1
  Sn  Sn15  1  0.388942  0.001247  0.250000  1
  Sn  Sn16  1  0.001247  0.388942  0.250000  1
  Bi  Bi17  1  0.389199  0.389199  0.750000  1
