# generated using pymatgen
data_RbLa2NbO6
_symmetry_space_group_name_H-M   'P 1'
_cell_length_a   5.82752100
_cell_length_b   7.05021452
_cell_length_c   8.97336800
_cell_angle_alpha   104.50782570
_cell_angle_beta   90.00000000
_cell_angle_gamma   114.41146903
_symmetry_Int_Tables_number   1
_chemical_formula_structural   RbLa2NbO6
_chemical_formula_sum   'Rb2 La4 Nb2 O12'
_cell_volume   322.76028484
_cell_formula_units_Z   2
loop_
 _symmetry_equiv_pos_site_id
 _symmetry_equiv_pos_as_xyz
  1  'x, y, z'
loop_
 _atom_site_type_symbol
 _atom_site_label
 _atom_site_symmetry_multiplicity
 _atom_site_fract_x
 _atom_site_fract_y
 _atom_site_fract_z
 _atom_site_occupancy
  Rb  Rb0  1  0.118001  0.236001  0.478205  1
  Rb  Rb1  1  0.881999  0.763999  0.521795  1
  La  La2  1  0.130048  0.260096  0.930005  1
  La  La3  1  0.869952  0.739904  0.069995  1
  La  La4  1  0.587732  0.175466  0.203183  1
  La  La5  1  0.412268  0.824534  0.796817  1
  Nb  Nb6  1  0.340735  0.681470  0.293427  1
  Nb  Nb7  1  0.659265  0.318530  0.706573  1
  O  O8  1  0.779530  0.099065  0.713867  1
  O  O9  1  0.680466  0.900935  0.286133  1
  O  O10  1  0.748313  0.000000  0.000000  1
  O  O11  1  0.002528  0.470581  0.167501  1
  O  O12  1  0.220470  0.900935  0.286133  1
  O  O13  1  0.997472  0.529419  0.832499  1
  O  O14  1  0.531947  0.529419  0.832499  1
  O  O15  1  0.670741  0.341481  0.504414  1
  O  O16  1  0.329259  0.658519  0.495586  1
  O  O17  1  0.251687  0.000000  0.000000  1
  O  O18  1  0.468053  0.470581  0.167501  1
  O  O19  1  0.319534  0.099065  0.713867  1
