# generated using pymatgen
data_ErPaPt6
_symmetry_space_group_name_H-M   'P 1'
_cell_length_a   5.80886500
_cell_length_b   5.80886418
_cell_length_c   4.86532100
_cell_angle_alpha   90.00000000
_cell_angle_beta   90.00000000
_cell_angle_gamma   119.99999897
_symmetry_Int_Tables_number   1
_chemical_formula_structural   ErPaPt6
_chemical_formula_sum   'Er1 Pa1 Pt6'
_cell_volume   142.17545962
_cell_formula_units_Z   1
loop_
 _symmetry_equiv_pos_site_id
 _symmetry_equiv_pos_as_xyz
  1  'x, y, z'
loop_
 _atom_site_type_symbol
 _atom_site_label
 _atom_site_symmetry_multiplicity
 _atom_site_fract_x
 _atom_site_fract_y
 _atom_site_fract_z
 _atom_site_occupancy
  Er  Er0  1  0.666667  0.333333  0.250000  1
  Pa  Pa1  1  0.333333  0.666667  0.750000  1
  Pt  Pt2  1  0.837564  0.162436  0.750000  1
  Pt  Pt3  1  0.324872  0.162436  0.750000  1
  Pt  Pt4  1  0.837564  0.675128  0.750000  1
  Pt  Pt5  1  0.163916  0.836084  0.250000  1
  Pt  Pt6  1  0.672168  0.836084  0.250000  1
  Pt  Pt7  1  0.163916  0.327832  0.250000  1
