# generated using pymatgen
data_Sc4VTc4Os3
_symmetry_space_group_name_H-M   'P 1'
_cell_length_a   5.25302100
_cell_length_b   5.11361251
_cell_length_c   8.64370200
_cell_angle_alpha   90.00000000
_cell_angle_beta   90.00000000
_cell_angle_gamma   120.35128983
_symmetry_Int_Tables_number   1
_chemical_formula_structural   Sc4VTc4Os3
_chemical_formula_sum   'Sc4 V1 Tc4 Os3'
_cell_volume   200.36374113
_cell_formula_units_Z   1
loop_
 _symmetry_equiv_pos_site_id
 _symmetry_equiv_pos_as_xyz
  1  'x, y, z'
loop_
 _atom_site_type_symbol
 _atom_site_label
 _atom_site_symmetry_multiplicity
 _atom_site_fract_x
 _atom_site_fract_y
 _atom_site_fract_z
 _atom_site_occupancy
  Sc  Sc0  1  0.667826  0.336114  0.687283  1
  Sc  Sc1  1  0.331843  0.662857  0.812513  1
  Sc  Sc2  1  0.331843  0.662857  0.187487  1
  Sc  Sc3  1  0.667826  0.336114  0.312717  1
  V  V4  1  0.167986  0.339041  0.500000  1
  Tc  Tc5  1  0.171807  0.826566  0.500000  1
  Tc  Tc6  1  0.348032  0.173637  0.000000  1
  Tc  Tc7  1  0.831112  0.660594  0.000000  1
  Tc  Tc8  1  0.826640  0.171030  0.000000  1
  Os  Os9  1  0.004633  0.003536  0.253967  1
  Os  Os10  1  0.004633  0.003536  0.746033  1
  Os  Os11  1  0.646378  0.823557  0.500000  1
