# generated using pymatgen
data_ErU3(TcB4)4
_symmetry_space_group_name_H-M   'P 1'
_cell_length_a   3.60763300
_cell_length_b   5.92684360
_cell_length_c   11.47326114
_cell_angle_alpha   89.90539541
_cell_angle_beta   90.00000000
_cell_angle_gamma   90.00000000
_symmetry_Int_Tables_number   1
_chemical_formula_structural   ErU3(TcB4)4
_chemical_formula_sum   'Er1 U3 Tc4 B16'
_cell_volume   245.31951915
_cell_formula_units_Z   1
loop_
 _symmetry_equiv_pos_site_id
 _symmetry_equiv_pos_as_xyz
  1  'x, y, z'
loop_
 _atom_site_type_symbol
 _atom_site_label
 _atom_site_symmetry_multiplicity
 _atom_site_fract_x
 _atom_site_fract_y
 _atom_site_fract_z
 _atom_site_occupancy
  Er  Er0  1  0.500000  0.872965  0.350393  1
  U  U1  1  0.500000  0.373359  0.150472  1
  U  U2  1  0.500000  0.627567  0.849803  1
  U  U3  1  0.500000  0.127363  0.650056  1
  Tc  Tc4  1  0.500000  0.362138  0.409531  1
  Tc  Tc5  1  0.500000  0.637950  0.594941  1
  Tc  Tc6  1  0.500000  0.139441  0.905266  1
  Tc  Tc7  1  0.500000  0.860293  0.091076  1
  B  B8  1  0.000000  0.114105  0.047087  1
  B  B9  1  0.000000  0.884537  0.953473  1
  B  B10  1  0.000000  0.385475  0.546778  1
  B  B11  1  0.000000  0.614759  0.453093  1
  B  B12  1  0.000000  0.135707  0.468795  1
  B  B13  1  0.000000  0.866515  0.532715  1
  B  B14  1  0.000000  0.366569  0.967755  1
  B  B15  1  0.000000  0.630940  0.032414  1
  B  B16  1  0.000000  0.027888  0.191780  1
  B  B17  1  0.000000  0.972240  0.807003  1
  B  B18  1  0.000000  0.472405  0.692537  1
  B  B19  1  0.000000  0.524824  0.307440  1
  B  B20  1  0.000000  0.214366  0.311904  1
  B  B21  1  0.000000  0.789915  0.688168  1
  B  B22  1  0.000000  0.289186  0.811263  1
  B  B23  1  0.000000  0.709495  0.186263  1
