# generated using pymatgen
data_Ho5In4IrPt
_symmetry_space_group_name_H-M   'P 1'
_cell_length_a   3.61837700
_cell_length_b   8.10290251
_cell_length_c   18.21091917
_cell_angle_alpha   89.95907801
_cell_angle_beta   90.00000000
_cell_angle_gamma   90.00000000
_symmetry_Int_Tables_number   1
_chemical_formula_structural   Ho5In4IrPt
_chemical_formula_sum   'Ho10 In8 Ir2 Pt2'
_cell_volume   533.93228761
_cell_formula_units_Z   2
loop_
 _symmetry_equiv_pos_site_id
 _symmetry_equiv_pos_as_xyz
  1  'x, y, z'
loop_
 _atom_site_type_symbol
 _atom_site_label
 _atom_site_symmetry_multiplicity
 _atom_site_fract_x
 _atom_site_fract_y
 _atom_site_fract_z
 _atom_site_occupancy
  Ho  Ho0  1  0.000000  0.115217  0.411918  1
  Ho  Ho1  1  0.000000  0.884783  0.588082  1
  Ho  Ho2  1  0.000000  0.383053  0.914081  1
  Ho  Ho3  1  0.000000  0.616947  0.085919  1
  Ho  Ho4  1  0.000000  0.236851  0.221796  1
  Ho  Ho5  1  0.000000  0.763149  0.778204  1
  Ho  Ho6  1  0.000000  0.249125  0.719917  1
  Ho  Ho7  1  0.000000  0.750875  0.280083  1
  Ho  Ho8  1  0.000000  0.000000  0.000000  1
  Ho  Ho9  1  0.000000  0.500000  0.500000  1
  In  In10  1  0.500000  0.423543  0.350893  1
  In  In11  1  0.500000  0.576457  0.649107  1
  In  In12  1  0.500000  0.074848  0.850581  1
  In  In13  1  0.500000  0.925152  0.149419  1
  In  In14  1  0.500000  0.292464  0.066595  1
  In  In15  1  0.500000  0.707536  0.933405  1
  In  In16  1  0.500000  0.206737  0.567363  1
  In  In17  1  0.500000  0.793263  0.432637  1
  Ir  Ir18  1  0.500000  0.022155  0.303789  1
  Ir  Ir19  1  0.500000  0.977845  0.696211  1
  Pt  Pt20  1  0.500000  0.476567  0.803516  1
  Pt  Pt21  1  0.500000  0.523433  0.196484  1
