# generated using pymatgen
data_SrVBiO5
_symmetry_space_group_name_H-M   'P 1'
_cell_length_a   5.90270600
_cell_length_b   7.25818828
_cell_length_c   7.23313934
_cell_angle_alpha   104.91783659
_cell_angle_beta   99.37316294
_cell_angle_gamma   111.78629648
_symmetry_Int_Tables_number   1
_chemical_formula_structural   SrVBiO5
_chemical_formula_sum   'Sr2 V2 Bi2 O10'
_cell_volume   266.27608419
_cell_formula_units_Z   2
loop_
 _symmetry_equiv_pos_site_id
 _symmetry_equiv_pos_as_xyz
  1  'x, y, z'
loop_
 _atom_site_type_symbol
 _atom_site_label
 _atom_site_symmetry_multiplicity
 _atom_site_fract_x
 _atom_site_fract_y
 _atom_site_fract_z
 _atom_site_occupancy
  Sr  Sr0  1  0.765716  0.369492  0.386166  1
  Sr  Sr1  1  0.391133  0.718146  0.158924  1
  V  V2  1  0.405207  0.673335  0.614875  1
  V  V3  1  0.751570  0.414497  0.930542  1
  Bi  Bi4  1  0.988988  0.015682  0.024453  1
  Bi  Bi5  1  0.167792  0.072137  0.520596  1
  O  O6  1  0.321842  0.074703  0.273717  1
  O  O7  1  0.956225  0.344733  0.074687  1
  O  O8  1  0.950511  0.672608  0.951752  1
  O  O9  1  0.620209  0.251421  0.678990  1
  O  O10  1  0.834951  0.013242  0.271399  1
  O  O11  1  0.536402  0.836881  0.866317  1
  O  O12  1  0.637206  0.676887  0.498977  1
  O  O13  1  0.519912  0.410676  0.046851  1
  O  O14  1  0.200929  0.742984  0.470172  1
  O  O15  1  0.206102  0.415378  0.594083  1
