# generated using pymatgen
data_Dy4Bi3Sb3Rh7
_symmetry_space_group_name_H-M   'P 1'
_cell_length_a   7.70343076
_cell_length_b   7.74998876
_cell_length_c   7.70343060
_cell_angle_alpha   109.59369970
_cell_angle_beta   109.34847232
_cell_angle_gamma   109.59369826
_symmetry_Int_Tables_number   1
_chemical_formula_structural   Dy4Bi3Sb3Rh7
_chemical_formula_sum   'Dy4 Bi3 Sb3 Rh7'
_cell_volume   353.49950537
_cell_formula_units_Z   1
loop_
 _symmetry_equiv_pos_site_id
 _symmetry_equiv_pos_as_xyz
  1  'x, y, z'
loop_
 _atom_site_type_symbol
 _atom_site_label
 _atom_site_symmetry_multiplicity
 _atom_site_fract_x
 _atom_site_fract_y
 _atom_site_fract_z
 _atom_site_occupancy
  Dy  Dy0  1  0.514148  0.004690  0.000000  1
  Dy  Dy1  1  0.000000  0.464733  0.000000  1
  Dy  Dy2  1  0.000000  0.004690  0.514148  1
  Dy  Dy3  1  0.485852  0.490542  0.485852  1
  Bi  Bi4  1  0.297462  0.988380  0.297462  1
  Bi  Bi5  1  0.000000  0.690918  0.702538  1
  Bi  Bi6  1  0.702538  0.690918  0.000000  1
  Sb  Sb7  1  0.665163  0.988805  0.665163  1
  Sb  Sb8  1  0.000000  0.323642  0.334837  1
  Sb  Sb9  1  0.334837  0.323642  0.000000  1
  Rh  Rh10  1  0.253524  0.495931  0.752471  1
  Rh  Rh11  1  0.498947  0.242407  0.746476  1
  Rh  Rh12  1  0.746476  0.242407  0.498947  1
  Rh  Rh13  1  0.501053  0.743460  0.247529  1
  Rh  Rh14  1  0.000000  0.065442  0.000000  1
  Rh  Rh15  1  0.247529  0.743460  0.501053  1
  Rh  Rh16  1  0.752471  0.495931  0.253524  1
