# generated using pymatgen
data_La4Nd4AlPd24
_symmetry_space_group_name_H-M   'P 1'
_cell_length_a   8.52811210
_cell_length_b   8.52801510
_cell_length_c   8.52801500
_cell_angle_alpha   89.99789038
_cell_angle_beta   89.99137350
_cell_angle_gamma   89.99137308
_symmetry_Int_Tables_number   1
_chemical_formula_structural   La4Nd4AlPd24
_chemical_formula_sum   'La4 Nd4 Al1 Pd24'
_cell_volume   620.22434119
_cell_formula_units_Z   1
loop_
 _symmetry_equiv_pos_site_id
 _symmetry_equiv_pos_as_xyz
  1  'x, y, z'
loop_
 _atom_site_type_symbol
 _atom_site_label
 _atom_site_symmetry_multiplicity
 _atom_site_fract_x
 _atom_site_fract_y
 _atom_site_fract_z
 _atom_site_occupancy
  La  La0  1  0.252123  0.252392  0.252390  1
  La  La1  1  0.747557  0.747670  0.747673  1
  La  La2  1  0.747996  0.748069  0.251939  1
  La  La3  1  0.748026  0.251946  0.748061  1
  Nd  Nd4  1  0.251261  0.251528  0.748573  1
  Nd  Nd5  1  0.251261  0.748579  0.251532  1
  Nd  Nd6  1  0.251061  0.748777  0.748782  1
  Nd  Nd7  1  0.749044  0.250983  0.250983  1
  Al  Al8  1  0.000341  0.000187  0.000188  1
  Pd  Pd9  1  0.261102  0.500469  0.999507  1
  Pd  Pd10  1  0.739306  0.499624  0.000510  1
  Pd  Pd11  1  0.000125  0.260949  0.500091  1
  Pd  Pd12  1  0.499812  0.260965  0.999992  1
  Pd  Pd13  1  0.001121  0.739097  0.500014  1
  Pd  Pd14  1  0.498993  0.739132  0.999956  1
  Pd  Pd15  1  0.499816  0.999992  0.260961  1
  Pd  Pd16  1  0.261098  0.999506  0.500469  1
  Pd  Pd17  1  0.498995  0.999956  0.739134  1
  Pd  Pd18  1  0.739308  0.000510  0.499626  1
  Pd  Pd19  1  0.000125  0.500089  0.260947  1
  Pd  Pd20  1  0.001123  0.500015  0.739096  1
  Pd  Pd21  1  0.253623  0.500636  0.500639  1
  Pd  Pd22  1  0.746416  0.499325  0.499322  1
  Pd  Pd23  1  0.500019  0.253631  0.500015  1
  Pd  Pd24  1  0.498727  0.746327  0.499989  1
  Pd  Pd25  1  0.500019  0.500014  0.253626  1
  Pd  Pd26  1  0.498729  0.499986  0.746331  1
  Pd  Pd27  1  0.291801  0.999146  0.999144  1
  Pd  Pd28  1  0.707751  0.000668  0.000671  1
  Pd  Pd29  1  0.000077  0.292053  0.999889  1
  Pd  Pd30  1  0.001585  0.708009  0.999886  1
  Pd  Pd31  1  0.000076  0.999885  0.292052  1
  Pd  Pd32  1  0.001584  0.999884  0.708012  1
