# generated using pymatgen
data_YPu3(PaAl9)2
_symmetry_space_group_name_H-M   'P 1'
_cell_length_a   14.58820046
_cell_length_b   14.58820072
_cell_length_c   14.58820100
_cell_angle_alpha   24.56930805
_cell_angle_beta   24.56930585
_cell_angle_gamma   24.56930800
_symmetry_Int_Tables_number   1
_chemical_formula_structural   YPu3(PaAl9)2
_chemical_formula_sum   'Y1 Pu3 Pa2 Al18'
_cell_volume   471.94546053
_cell_formula_units_Z   1
loop_
 _symmetry_equiv_pos_site_id
 _symmetry_equiv_pos_as_xyz
  1  'x, y, z'
loop_
 _atom_site_type_symbol
 _atom_site_label
 _atom_site_symmetry_multiplicity
 _atom_site_fract_x
 _atom_site_fract_y
 _atom_site_fract_z
 _atom_site_occupancy
  Y  Y0  1  0.391232  0.391232  0.391232  1
  Pu  Pu1  1  0.000406  0.000406  0.000406  1
  Pu  Pu2  1  0.499678  0.499678  0.499678  1
  Pu  Pu3  1  0.608664  0.608664  0.608664  1
  Pa  Pa4  1  0.108592  0.108592  0.108592  1
  Pa  Pa5  1  0.891167  0.891167  0.891167  1
  Al  Al6  1  0.921362  0.372615  0.372615  1
  Al  Al7  1  0.421494  0.871034  0.871034  1
  Al  Al8  1  0.372615  0.372615  0.921362  1
  Al  Al9  1  0.871034  0.871034  0.421494  1
  Al  Al10  1  0.372615  0.921362  0.372615  1
  Al  Al11  1  0.871034  0.421494  0.871034  1
  Al  Al12  1  0.582020  0.127419  0.127419  1
  Al  Al13  1  0.076407  0.628593  0.628593  1
  Al  Al14  1  0.127419  0.127419  0.582020  1
  Al  Al15  1  0.628593  0.628593  0.076407  1
  Al  Al16  1  0.127419  0.582020  0.127419  1
  Al  Al17  1  0.628593  0.076407  0.628593  1
  Al  Al18  1  0.501682  0.501682  0.996078  1
  Al  Al19  1  0.000318  0.000318  0.499576  1
  Al  Al20  1  0.501682  0.996078  0.501682  1
  Al  Al21  1  0.000318  0.499576  0.000318  1
  Al  Al22  1  0.996078  0.501682  0.501682  1
  Al  Al23  1  0.499576  0.000318  0.000318  1
