# generated using pymatgen
data_Pr4NdMoRuO12
_symmetry_space_group_name_H-M   'P 1'
_cell_length_a   7.11409231
_cell_length_b   7.11134847
_cell_length_c   7.87670205
_cell_angle_alpha   73.75429182
_cell_angle_beta   73.64298824
_cell_angle_gamma   49.03690296
_symmetry_Int_Tables_number   1
_chemical_formula_structural   Pr4NdMoRuO12
_chemical_formula_sum   'Pr4 Nd1 Mo1 Ru1 O12'
_cell_volume   286.23270627
_cell_formula_units_Z   1
loop_
 _symmetry_equiv_pos_site_id
 _symmetry_equiv_pos_as_xyz
  1  'x, y, z'
loop_
 _atom_site_type_symbol
 _atom_site_label
 _atom_site_symmetry_multiplicity
 _atom_site_fract_x
 _atom_site_fract_y
 _atom_site_fract_z
 _atom_site_occupancy
  Pr  Pr0  1  0.680377  0.704698  0.643262  1
  Pr  Pr1  1  0.681559  0.692486  0.170202  1
  Pr  Pr2  1  0.307339  0.318287  0.829741  1
  Pr  Pr3  1  0.993442  0.007054  0.499560  1
  Nd  Nd4  1  0.295437  0.319766  0.355566  1
  Mo  Mo5  1  0.798966  0.200592  0.000439  1
  Ru  Ru6  1  0.236544  0.763142  0.000556  1
  O  O7  1  0.087905  0.597432  0.577793  1
  O  O8  1  0.002469  0.996364  0.194923  1
  O  O9  1  0.401861  0.914909  0.419739  1
  O  O10  1  0.507052  0.490589  0.168933  1
  O  O11  1  0.089554  0.580584  0.081696  1
  O  O12  1  0.896033  0.410821  0.425426  1
  O  O13  1  0.003300  0.996834  0.805775  1
  O  O14  1  0.588361  0.106468  0.572612  1
  O  O15  1  0.509176  0.491610  0.832348  1
  O  O16  1  0.597279  0.094958  0.078109  1
  O  O17  1  0.418381  0.911170  0.920031  1
  O  O18  1  0.904967  0.402235  0.923288  1
