# generated using pymatgen
data_Ho3Pa(Ni2Hg)2
_symmetry_space_group_name_H-M   'P 1'
_cell_length_a   7.41394723
_cell_length_b   7.41394744
_cell_length_c   3.55986600
_cell_angle_alpha   90.00000000
_cell_angle_beta   90.00000000
_cell_angle_gamma   92.28684790
_symmetry_Int_Tables_number   1
_chemical_formula_structural   Ho3Pa(Ni2Hg)2
_chemical_formula_sum   'Ho3 Pa1 Ni4 Hg2'
_cell_volume   195.51794575
_cell_formula_units_Z   1
loop_
 _symmetry_equiv_pos_site_id
 _symmetry_equiv_pos_as_xyz
  1  'x, y, z'
loop_
 _atom_site_type_symbol
 _atom_site_label
 _atom_site_symmetry_multiplicity
 _atom_site_fract_x
 _atom_site_fract_y
 _atom_site_fract_z
 _atom_site_occupancy
  Ho  Ho0  1  0.323259  0.823259  0.500000  1
  Ho  Ho1  1  0.175325  0.327828  0.500000  1
  Ho  Ho2  1  0.827828  0.675325  0.500000  1
  Pa  Pa3  1  0.673030  0.173030  0.500000  1
  Ni  Ni4  1  0.862303  0.362303  0.000000  1
  Ni  Ni5  1  0.109010  0.609010  0.000000  1
  Ni  Ni6  1  0.396945  0.128088  0.000000  1
  Ni  Ni7  1  0.628088  0.896945  0.000000  1
  Hg  Hg8  1  0.496218  0.507992  0.000000  1
  Hg  Hg9  1  0.007992  0.996218  0.000000  1
