# generated using pymatgen
data_Dy5InBi2Cl
_symmetry_space_group_name_H-M   'P 1'
_cell_length_a   9.29633800
_cell_length_b   9.20291660
_cell_length_c   6.54069800
_cell_angle_alpha   90.00000000
_cell_angle_beta   90.00000000
_cell_angle_gamma   120.33637370
_symmetry_Int_Tables_number   1
_chemical_formula_structural   Dy5InBi2Cl
_chemical_formula_sum   'Dy10 In2 Bi4 Cl2'
_cell_volume   482.95878170
_cell_formula_units_Z   2
loop_
 _symmetry_equiv_pos_site_id
 _symmetry_equiv_pos_as_xyz
  1  'x, y, z'
loop_
 _atom_site_type_symbol
 _atom_site_label
 _atom_site_symmetry_multiplicity
 _atom_site_fract_x
 _atom_site_fract_y
 _atom_site_fract_z
 _atom_site_occupancy
  Dy  Dy0  1  0.268213  0.000000  0.750000  1
  Dy  Dy1  1  0.731787  0.000000  0.250000  1
  Dy  Dy2  1  0.993916  0.258449  0.750000  1
  Dy  Dy3  1  0.006084  0.741551  0.250000  1
  Dy  Dy4  1  0.735468  0.741551  0.750000  1
  Dy  Dy5  1  0.264532  0.258449  0.250000  1
  Dy  Dy6  1  0.337249  0.674500  0.500000  1
  Dy  Dy7  1  0.662751  0.325500  0.500000  1
  Dy  Dy8  1  0.662751  0.325500  0.000000  1
  Dy  Dy9  1  0.337249  0.674500  0.000000  1
  In  In10  1  0.610094  0.000000  0.750000  1
  In  In11  1  0.389906  0.000000  0.250000  1
  Bi  Bi12  1  0.997420  0.612084  0.750000  1
  Bi  Bi13  1  0.002580  0.387916  0.250000  1
  Bi  Bi14  1  0.385335  0.387916  0.750000  1
  Bi  Bi15  1  0.614665  0.612084  0.250000  1
  Cl  Cl16  1  0.000000  0.000000  0.500000  1
  Cl  Cl17  1  0.000000  0.000000  0.000000  1
