# generated using pymatgen
data_Eu2Ga5GePdPt
_symmetry_space_group_name_H-M   'P 1'
_cell_length_a   6.17104213
_cell_length_b   6.17104255
_cell_length_c   5.93100500
_cell_angle_alpha   90.00000000
_cell_angle_beta   90.00000000
_cell_angle_gamma   116.39432199
_symmetry_Int_Tables_number   1
_chemical_formula_structural   Eu2Ga5GePdPt
_chemical_formula_sum   'Eu2 Ga5 Ge1 Pd1 Pt1'
_cell_volume   202.31821314
_cell_formula_units_Z   1
loop_
 _symmetry_equiv_pos_site_id
 _symmetry_equiv_pos_as_xyz
  1  'x, y, z'
loop_
 _atom_site_type_symbol
 _atom_site_label
 _atom_site_symmetry_multiplicity
 _atom_site_fract_x
 _atom_site_fract_y
 _atom_site_fract_z
 _atom_site_occupancy
  Eu  Eu0  1  0.231990  0.768010  0.750000  1
  Eu  Eu1  1  0.767632  0.232368  0.250000  1
  Ga  Ga2  1  0.335684  0.664316  0.250000  1
  Ga  Ga3  1  0.718975  0.719313  0.000778  1
  Ga  Ga4  1  0.718975  0.719313  0.499222  1
  Ga  Ga5  1  0.280687  0.281025  0.000778  1
  Ga  Ga6  1  0.280687  0.281025  0.499222  1
  Ge  Ge7  1  0.664568  0.335432  0.750000  1
  Pd  Pd8  1  0.902838  0.097162  0.750000  1
  Pt  Pt9  1  0.097966  0.902034  0.250000  1
