# generated using pymatgen
data_ThTcH5
_symmetry_space_group_name_H-M   'P 1'
_cell_length_a   4.57054700
_cell_length_b   4.76356000
_cell_length_c   12.02068400
_cell_angle_alpha   90.00000000
_cell_angle_beta   90.00000000
_cell_angle_gamma   90.00000000
_symmetry_Int_Tables_number   1
_chemical_formula_structural   ThTcH5
_chemical_formula_sum   'Th4 Tc4 H20'
_cell_volume   261.71523200
_cell_formula_units_Z   4
loop_
 _symmetry_equiv_pos_site_id
 _symmetry_equiv_pos_as_xyz
  1  'x, y, z'
loop_
 _atom_site_type_symbol
 _atom_site_label
 _atom_site_symmetry_multiplicity
 _atom_site_fract_x
 _atom_site_fract_y
 _atom_site_fract_z
 _atom_site_occupancy
  Th  Th0  1  0.270361  0.171968  0.647033  1
  Th  Th1  1  0.770361  0.328032  0.352967  1
  Th  Th2  1  0.229639  0.828032  0.147033  1
  Th  Th3  1  0.729639  0.671968  0.852967  1
  Tc  Tc4  1  0.312610  0.161764  0.906939  1
  Tc  Tc5  1  0.812610  0.338236  0.093061  1
  Tc  Tc6  1  0.187390  0.838236  0.406939  1
  Tc  Tc7  1  0.687390  0.661764  0.593061  1
  H  H8  1  0.536491  0.393544  0.515796  1
  H  H9  1  0.036491  0.106456  0.484204  1
  H  H10  1  0.963509  0.606456  0.015796  1
  H  H11  1  0.463509  0.893544  0.984204  1
  H  H12  1  0.167284  0.921116  0.813702  1
  H  H13  1  0.667284  0.578884  0.186298  1
  H  H14  1  0.332716  0.078884  0.313702  1
  H  H15  1  0.832716  0.421116  0.686298  1
  H  H16  1  0.199087  0.447907  0.822614  1
  H  H17  1  0.699087  0.052093  0.177386  1
  H  H18  1  0.300913  0.552093  0.322614  1
  H  H19  1  0.800913  0.947907  0.677386  1
  H  H20  1  0.619924  0.168343  0.822466  1
  H  H21  1  0.119924  0.331657  0.177534  1
  H  H22  1  0.880076  0.831657  0.322466  1
  H  H23  1  0.380076  0.668343  0.677534  1
  H  H24  1  0.983607  0.077344  0.995620  1
  H  H25  1  0.483607  0.422656  0.004380  1
  H  H26  1  0.516393  0.922656  0.495620  1
  H  H27  1  0.016393  0.577344  0.504380  1
