# generated using pymatgen
data_Sm3GaSiRh2
_symmetry_space_group_name_H-M   'P 1'
_cell_length_a   5.63810900
_cell_length_b   8.13021300
_cell_length_c   13.21836400
_cell_angle_alpha   90.00000000
_cell_angle_beta   90.00000000
_cell_angle_gamma   90.00000000
_symmetry_Int_Tables_number   1
_chemical_formula_structural   Sm3GaSiRh2
_chemical_formula_sum   'Sm12 Ga4 Si4 Rh8'
_cell_volume   605.91694544
_cell_formula_units_Z   4
loop_
 _symmetry_equiv_pos_site_id
 _symmetry_equiv_pos_as_xyz
  1  'x, y, z'
loop_
 _atom_site_type_symbol
 _atom_site_label
 _atom_site_symmetry_multiplicity
 _atom_site_fract_x
 _atom_site_fract_y
 _atom_site_fract_z
 _atom_site_occupancy
  Sm  Sm0  1  0.640736  0.248831  0.250000  1
  Sm  Sm1  1  0.359264  0.751169  0.750000  1
  Sm  Sm2  1  0.359264  0.748831  0.250000  1
  Sm  Sm3  1  0.640736  0.251169  0.750000  1
  Sm  Sm4  1  0.148645  0.393921  0.101270  1
  Sm  Sm5  1  0.851355  0.606079  0.898730  1
  Sm  Sm6  1  0.851355  0.606079  0.601270  1
  Sm  Sm7  1  0.851355  0.893921  0.398730  1
  Sm  Sm8  1  0.148645  0.393921  0.398730  1
  Sm  Sm9  1  0.148645  0.106079  0.601270  1
  Sm  Sm10  1  0.148645  0.106079  0.898730  1
  Sm  Sm11  1  0.851355  0.893921  0.101270  1
  Ga  Ga12  1  0.635025  0.250000  0.000000  1
  Ga  Ga13  1  0.364975  0.750000  0.000000  1
  Ga  Ga14  1  0.364975  0.750000  0.500000  1
  Ga  Ga15  1  0.635025  0.250000  0.500000  1
  Si  Si16  1  0.141757  0.104571  0.250000  1
  Si  Si17  1  0.858243  0.895429  0.750000  1
  Si  Si18  1  0.858243  0.604571  0.250000  1
  Si  Si19  1  0.141757  0.395429  0.750000  1
  Rh  Rh20  1  0.363437  0.029497  0.095960  1
  Rh  Rh21  1  0.636563  0.970503  0.904040  1
  Rh  Rh22  1  0.636563  0.970503  0.595960  1
  Rh  Rh23  1  0.636563  0.529497  0.404040  1
  Rh  Rh24  1  0.363437  0.029497  0.404040  1
  Rh  Rh25  1  0.363437  0.470503  0.595960  1
  Rh  Rh26  1  0.363437  0.470503  0.904040  1
  Rh  Rh27  1  0.636563  0.529497  0.095960  1
