# generated using pymatgen
data_Ta8Nb12Al9Au
_symmetry_space_group_name_H-M   'P 1'
_cell_length_a   9.99326034
_cell_length_b   9.99326034
_cell_length_c   5.20495500
_cell_angle_alpha   90.00000000
_cell_angle_beta   90.00000000
_cell_angle_gamma   89.58562030
_symmetry_Int_Tables_number   1
_chemical_formula_structural   Ta8Nb12Al9Au
_chemical_formula_sum   'Ta8 Nb12 Al9 Au1'
_cell_volume   519.78054959
_cell_formula_units_Z   1
loop_
 _symmetry_equiv_pos_site_id
 _symmetry_equiv_pos_as_xyz
  1  'x, y, z'
loop_
 _atom_site_type_symbol
 _atom_site_label
 _atom_site_symmetry_multiplicity
 _atom_site_fract_x
 _atom_site_fract_y
 _atom_site_fract_z
 _atom_site_occupancy
  Ta  Ta0  1  0.128790  0.463965  0.000000  1
  Ta  Ta1  1  0.965290  0.370510  0.500000  1
  Ta  Ta2  1  0.034710  0.629490  0.500000  1
  Ta  Ta3  1  0.871210  0.536035  0.000000  1
  Ta  Ta4  1  0.370510  0.965290  0.500000  1
  Ta  Ta5  1  0.629490  0.034710  0.500000  1
  Ta  Ta6  1  0.463965  0.128790  0.000000  1
  Ta  Ta7  1  0.536035  0.871210  0.000000  1
  Nb  Nb8  1  0.397856  0.397856  0.000000  1
  Nb  Nb9  1  0.897754  0.102246  0.500000  1
  Nb  Nb10  1  0.102246  0.897754  0.500000  1
  Nb  Nb11  1  0.602144  0.602144  0.000000  1
  Nb  Nb12  1  0.184192  0.184192  0.252315  1
  Nb  Nb13  1  0.682920  0.317080  0.751968  1
  Nb  Nb14  1  0.317080  0.682920  0.751968  1
  Nb  Nb15  1  0.815808  0.815808  0.252315  1
  Nb  Nb16  1  0.317080  0.682920  0.248032  1
  Nb  Nb17  1  0.682920  0.317080  0.248032  1
  Nb  Nb18  1  0.184192  0.184192  0.747685  1
  Nb  Nb19  1  0.815808  0.815808  0.747685  1
  Al  Al20  1  0.500000  0.500000  0.500000  1
  Al  Al21  1  0.260394  0.933880  0.000000  1
  Al  Al22  1  0.434222  0.238565  0.500000  1
  Al  Al23  1  0.565778  0.761435  0.500000  1
  Al  Al24  1  0.739606  0.066120  0.000000  1
  Al  Al25  1  0.238565  0.434222  0.500000  1
  Al  Al26  1  0.761435  0.565778  0.500000  1
  Al  Al27  1  0.933880  0.260394  0.000000  1
  Al  Al28  1  0.066120  0.739606  0.000000  1
  Au  Au29  1  0.000000  0.000000  0.000000  1
