# generated using pymatgen
data_K2CdSb3Au4
_symmetry_space_group_name_H-M   'P 1'
_cell_length_a   4.83077900
_cell_length_b   4.93579017
_cell_length_c   11.28476400
_cell_angle_alpha   88.46979556
_cell_angle_beta   90.00000000
_cell_angle_gamma   90.00000000
_symmetry_Int_Tables_number   1
_chemical_formula_structural   K2CdSb3Au4
_chemical_formula_sum   'K2 Cd1 Sb3 Au4'
_cell_volume   268.97470292
_cell_formula_units_Z   1
loop_
 _symmetry_equiv_pos_site_id
 _symmetry_equiv_pos_as_xyz
  1  'x, y, z'
loop_
 _atom_site_type_symbol
 _atom_site_label
 _atom_site_symmetry_multiplicity
 _atom_site_fract_x
 _atom_site_fract_y
 _atom_site_fract_z
 _atom_site_occupancy
  K  K0  1  0.250000  0.738666  0.756713  1
  K  K1  1  0.750000  0.261142  0.243619  1
  Cd  Cd2  1  0.750000  0.750004  0.502189  1
  Sb  Sb3  1  0.250000  0.249193  0.499064  1
  Sb  Sb4  1  0.250000  0.795401  0.123609  1
  Sb  Sb5  1  0.750000  0.203935  0.876435  1
  Au  Au6  1  0.750000  0.694522  0.002204  1
  Au  Au7  1  0.750000  0.243036  0.632745  1
  Au  Au8  1  0.250000  0.755718  0.366444  1
  Au  Au9  1  0.250000  0.308383  0.996977  1
