# generated using pymatgen
data_Sn4Sb8Pt5Au
_symmetry_space_group_name_H-M   'P 1'
_cell_length_a   4.02537900
_cell_length_b   8.54155364
_cell_length_c   13.01731505
_cell_angle_alpha   97.93382241
_cell_angle_beta   90.00000000
_cell_angle_gamma   90.00000000
_symmetry_Int_Tables_number   1
_chemical_formula_structural   Sn4Sb8Pt5Au
_chemical_formula_sum   'Sn4 Sb8 Pt5 Au1'
_cell_volume   443.29011051
_cell_formula_units_Z   1
loop_
 _symmetry_equiv_pos_site_id
 _symmetry_equiv_pos_as_xyz
  1  'x, y, z'
loop_
 _atom_site_type_symbol
 _atom_site_label
 _atom_site_symmetry_multiplicity
 _atom_site_fract_x
 _atom_site_fract_y
 _atom_site_fract_z
 _atom_site_occupancy
  Sn  Sn0  1  0.500000  0.327110  0.813334  1
  Sn  Sn1  1  0.500000  0.993185  0.141068  1
  Sn  Sn2  1  0.500000  0.664354  0.477111  1
  Sn  Sn3  1  0.500000  0.674709  0.192243  1
  Sb  Sb4  1  0.500000  0.342554  0.518283  1
  Sb  Sb5  1  0.500000  0.006869  0.858104  1
  Sb  Sb6  1  0.000000  0.315874  0.054858  1
  Sb  Sb7  1  0.000000  0.979089  0.382686  1
  Sb  Sb8  1  0.000000  0.653430  0.724424  1
  Sb  Sb9  1  0.000000  0.685430  0.950247  1
  Sb  Sb10  1  0.000000  0.352002  0.279021  1
  Sb  Sb11  1  0.000000  0.008117  0.609519  1
  Pt  Pt12  1  0.500000  0.832435  0.669407  1
  Pt  Pt13  1  0.500000  0.500768  0.001016  1
  Pt  Pt14  1  0.500000  0.166291  0.332470  1
  Pt  Pt15  1  0.000000  0.002096  0.997393  1
  Pt  Pt16  1  0.000000  0.665245  0.333914  1
  Au  Au17  1  0.000000  0.330439  0.664903  1
