# generated using pymatgen
data_Dy3Ho2RuPb3
_symmetry_space_group_name_H-M   'P 1'
_cell_length_a   9.32325400
_cell_length_b   9.32253451
_cell_length_c   6.57360000
_cell_angle_alpha   90.00000000
_cell_angle_beta   90.00000000
_cell_angle_gamma   120.00255306
_symmetry_Int_Tables_number   1
_chemical_formula_structural   Dy3Ho2RuPb3
_chemical_formula_sum   'Dy6 Ho4 Ru2 Pb6'
_cell_volume   494.79379880
_cell_formula_units_Z   2
loop_
 _symmetry_equiv_pos_site_id
 _symmetry_equiv_pos_as_xyz
  1  'x, y, z'
loop_
 _atom_site_type_symbol
 _atom_site_label
 _atom_site_symmetry_multiplicity
 _atom_site_fract_x
 _atom_site_fract_y
 _atom_site_fract_z
 _atom_site_occupancy
  Dy  Dy0  1  0.000017  0.763478  0.750000  1
  Dy  Dy1  1  0.333323  0.666647  0.500000  1
  Dy  Dy2  1  0.763460  0.763478  0.250000  1
  Dy  Dy3  1  0.666628  0.333255  0.500000  1
  Dy  Dy4  1  0.333323  0.666647  0.000000  1
  Dy  Dy5  1  0.666628  0.333255  0.000000  1
  Ho  Ho6  1  0.763669  0.000041  0.750000  1
  Ho  Ho7  1  0.236372  0.000041  0.250000  1
  Ho  Ho8  1  0.236337  0.236359  0.750000  1
  Ho  Ho9  1  0.000022  0.236359  0.250000  1
  Ru  Ru10  1  0.000218  0.000436  0.000000  1
  Ru  Ru11  1  0.000218  0.000436  0.500000  1
  Pb  Pb12  1  0.401939  0.401973  0.250000  1
  Pb  Pb13  1  0.597620  0.597699  0.750000  1
  Pb  Pb14  1  0.597770  0.000113  0.250000  1
  Pb  Pb15  1  0.402343  0.000113  0.750000  1
  Pb  Pb16  1  0.000078  0.597699  0.250000  1
  Pb  Pb17  1  0.000034  0.401973  0.750000  1
