# generated using pymatgen
data_Sm4PdRh3O14
_symmetry_space_group_name_H-M   'P 1'
_cell_length_a   7.34422352
_cell_length_b   7.34422422
_cell_length_c   7.32775426
_cell_angle_alpha   59.92562791
_cell_angle_beta   59.92562171
_cell_angle_gamma   59.99999910
_symmetry_Int_Tables_number   1
_chemical_formula_structural   Sm4PdRh3O14
_chemical_formula_sum   'Sm4 Pd1 Rh3 O14'
_cell_volume   279.16345725
_cell_formula_units_Z   1
loop_
 _symmetry_equiv_pos_site_id
 _symmetry_equiv_pos_as_xyz
  1  'x, y, z'
loop_
 _atom_site_type_symbol
 _atom_site_label
 _atom_site_symmetry_multiplicity
 _atom_site_fract_x
 _atom_site_fract_y
 _atom_site_fract_z
 _atom_site_occupancy
  Sm  Sm0  1  0.625000  0.125000  0.625000  1
  Sm  Sm1  1  0.625000  0.625000  0.625000  1
  Sm  Sm2  1  0.125000  0.625000  0.625000  1
  Sm  Sm3  1  0.625000  0.625000  0.125000  1
  Pd  Pd4  1  0.125000  0.125000  0.625000  1
  Rh  Rh5  1  0.125000  0.625000  0.125000  1
  Rh  Rh6  1  0.625000  0.125000  0.125000  1
  Rh  Rh7  1  0.125000  0.125000  0.125000  1
  O  O8  1  0.211674  0.211674  0.789969  1
  O  O9  1  0.209837  0.792287  0.205588  1
  O  O10  1  0.792287  0.792287  0.205588  1
  O  O11  1  0.040163  0.457713  0.044412  1
  O  O12  1  0.457713  0.040163  0.044412  1
  O  O13  1  0.211674  0.786683  0.789969  1
  O  O14  1  0.749882  0.749882  0.750353  1
  O  O15  1  0.792287  0.209837  0.205588  1
  O  O16  1  0.038326  0.463317  0.460031  1
  O  O17  1  0.500118  0.500118  0.499647  1
  O  O18  1  0.463317  0.038326  0.460031  1
  O  O19  1  0.038326  0.038326  0.460031  1
  O  O20  1  0.457713  0.457713  0.044412  1
  O  O21  1  0.786683  0.211674  0.789969  1
