# generated using pymatgen
data_Pr2NiP4Rh3
_symmetry_space_group_name_H-M   'P 1'
_cell_length_a   4.14289000
_cell_length_b   4.14289000
_cell_length_c   9.57279700
_cell_angle_alpha   90.00000000
_cell_angle_beta   90.00000000
_cell_angle_gamma   90.00000000
_symmetry_Int_Tables_number   1
_chemical_formula_structural   Pr2NiP4Rh3
_chemical_formula_sum   'Pr2 Ni1 P4 Rh3'
_cell_volume   164.30306079
_cell_formula_units_Z   1
loop_
 _symmetry_equiv_pos_site_id
 _symmetry_equiv_pos_as_xyz
  1  'x, y, z'
loop_
 _atom_site_type_symbol
 _atom_site_label
 _atom_site_symmetry_multiplicity
 _atom_site_fract_x
 _atom_site_fract_y
 _atom_site_fract_z
 _atom_site_occupancy
  Pr  Pr0  1  0.000000  0.500000  0.257546  1
  Pr  Pr1  1  0.500000  0.000000  0.737873  1
  Ni  Ni2  1  0.000000  0.500000  0.614027  1
  P  P3  1  0.000000  0.000000  0.506733  1
  P  P4  1  0.500000  0.500000  0.506733  1
  P  P5  1  0.000000  0.500000  0.857416  1
  P  P6  1  0.500000  0.000000  0.137418  1
  Rh  Rh7  1  0.000000  0.000000  0.995706  1
  Rh  Rh8  1  0.500000  0.500000  0.995706  1
  Rh  Rh9  1  0.500000  0.000000  0.390841  1
