# generated using pymatgen
data_Cs2Li3FeO4
_symmetry_space_group_name_H-M   'P 1'
_cell_length_a   8.27092031
_cell_length_b   8.27088487
_cell_length_c   8.27095590
_cell_angle_alpha   144.08451763
_cell_angle_beta   104.43028096
_cell_angle_gamma   86.61316985
_symmetry_Int_Tables_number   1
_chemical_formula_structural   Cs2Li3FeO4
_chemical_formula_sum   'Cs4 Li6 Fe2 O8'
_cell_volume   311.10871953
_cell_formula_units_Z   2
loop_
 _symmetry_equiv_pos_site_id
 _symmetry_equiv_pos_as_xyz
  1  'x, y, z'
loop_
 _atom_site_type_symbol
 _atom_site_label
 _atom_site_symmetry_multiplicity
 _atom_site_fract_x
 _atom_site_fract_y
 _atom_site_fract_z
 _atom_site_occupancy
  Cs  Cs0  1  0.372231  0.238615  0.610848  1
  Cs  Cs1  1  0.627769  0.761385  0.389152  1
  Cs  Cs2  1  0.872234  0.261387  0.133621  1
  Cs  Cs3  1  0.127766  0.738613  0.866379  1
  Li  Li4  1  0.490862  0.750000  0.740860  1
  Li  Li5  1  0.990862  0.249995  0.740860  1
  Li  Li6  1  0.009138  0.750005  0.259140  1
  Li  Li7  1  0.249999  0.749999  0.499998  1
  Li  Li8  1  0.509138  0.250000  0.259140  1
  Li  Li9  1  0.750001  0.250001  0.500002  1
  Fe  Fe10  1  0.749989  0.750001  0.999995  1
  Fe  Fe11  1  0.250011  0.249999  0.000005  1
  O  O12  1  0.057077  0.939967  0.644824  1
  O  O13  1  0.204858  0.560035  0.117114  1
  O  O14  1  0.795142  0.439965  0.882886  1
  O  O15  1  0.557071  0.912264  0.117117  1
  O  O16  1  0.942923  0.060033  0.355176  1
  O  O17  1  0.704854  0.587740  0.644815  1
  O  O18  1  0.442929  0.087736  0.882883  1
  O  O19  1  0.295146  0.412260  0.355185  1
