# generated using pymatgen
data_Ho8Al2NiIr
_symmetry_space_group_name_H-M   'P 1'
_cell_length_a   9.42527820
_cell_length_b   9.45095622
_cell_length_c   9.45095570
_cell_angle_alpha   60.36652266
_cell_angle_beta   60.08983160
_cell_angle_gamma   60.08984150
_symmetry_Int_Tables_number   1
_chemical_formula_structural   Ho8Al2NiIr
_chemical_formula_sum   'Ho16 Al4 Ni2 Ir2'
_cell_volume   597.73803888
_cell_formula_units_Z   2
loop_
 _symmetry_equiv_pos_site_id
 _symmetry_equiv_pos_as_xyz
  1  'x, y, z'
loop_
 _atom_site_type_symbol
 _atom_site_label
 _atom_site_symmetry_multiplicity
 _atom_site_fract_x
 _atom_site_fract_y
 _atom_site_fract_z
 _atom_site_occupancy
  Ho  Ho0  1  0.439904  0.434514  0.062557  1
  Ho  Ho1  1  0.647019  0.651065  0.054899  1
  Ho  Ho2  1  0.194307  0.805777  0.190870  1
  Ho  Ho3  1  0.063025  0.434514  0.062557  1
  Ho  Ho4  1  0.192677  0.807323  0.807323  1
  Ho  Ho5  1  0.061221  0.438779  0.438779  1
  Ho  Ho6  1  0.806505  0.193495  0.193495  1
  Ho  Ho7  1  0.646454  0.650222  0.650222  1
  Ho  Ho8  1  0.809046  0.190870  0.805777  1
  Ho  Ho9  1  0.194307  0.190870  0.805777  1
  Ho  Ho10  1  0.053102  0.650222  0.650222  1
  Ho  Ho11  1  0.435493  0.064507  0.064507  1
  Ho  Ho12  1  0.063025  0.062557  0.434514  1
  Ho  Ho13  1  0.647019  0.054899  0.651065  1
  Ho  Ho14  1  0.809046  0.805777  0.190870  1
  Ho  Ho15  1  0.439904  0.062557  0.434514  1
  Al  Al16  1  0.423589  0.422447  0.422447  1
  Al  Al17  1  0.422853  0.422609  0.731688  1
  Al  Al18  1  0.422853  0.731688  0.422609  1
  Al  Al19  1  0.731517  0.422447  0.422447  1
  Ni  Ni20  1  0.426192  0.858833  0.858833  1
  Ni  Ni21  1  0.856141  0.858833  0.858833  1
  Ir  Ir22  1  0.857403  0.426688  0.858505  1
  Ir  Ir23  1  0.857403  0.858505  0.426688  1
