# generated using pymatgen
data_Zr2Tc3(B2Ru)2
_symmetry_space_group_name_H-M   'P 1'
_cell_length_a   3.09089100
_cell_length_b   8.64221715
_cell_length_c   10.06294865
_cell_angle_alpha   89.77517983
_cell_angle_beta   90.00000000
_cell_angle_gamma   90.00000000
_symmetry_Int_Tables_number   1
_chemical_formula_structural   Zr2Tc3(B2Ru)2
_chemical_formula_sum   'Zr4 Tc6 B8 Ru4'
_cell_volume   268.80093639
_cell_formula_units_Z   2
loop_
 _symmetry_equiv_pos_site_id
 _symmetry_equiv_pos_as_xyz
  1  'x, y, z'
loop_
 _atom_site_type_symbol
 _atom_site_label
 _atom_site_symmetry_multiplicity
 _atom_site_fract_x
 _atom_site_fract_y
 _atom_site_fract_z
 _atom_site_occupancy
  Zr  Zr0  1  0.500000  0.835330  0.181985  1
  Zr  Zr1  1  0.500000  0.164670  0.818015  1
  Zr  Zr2  1  0.500000  0.660435  0.681878  1
  Zr  Zr3  1  0.500000  0.339565  0.318122  1
  Tc  Tc4  1  0.000000  0.661820  0.953363  1
  Tc  Tc5  1  0.000000  0.338180  0.046637  1
  Tc  Tc6  1  0.000000  0.839600  0.454678  1
  Tc  Tc7  1  0.000000  0.160400  0.545322  1
  Tc  Tc8  1  0.000000  0.409103  0.760702  1
  Tc  Tc9  1  0.000000  0.590897  0.239298  1
  B  B10  1  0.500000  0.967971  0.587105  1
  B  B11  1  0.500000  0.032029  0.412895  1
  B  B12  1  0.500000  0.849502  0.901336  1
  B  B13  1  0.500000  0.150498  0.098664  1
  B  B14  1  0.500000  0.650042  0.399175  1
  B  B15  1  0.500000  0.349958  0.600825  1
  B  B16  1  0.500000  0.467293  0.913042  1
  B  B17  1  0.500000  0.532707  0.086958  1
  Ru  Ru18  1  0.000000  0.000000  0.000000  1
  Ru  Ru19  1  0.000000  0.500000  0.500000  1
  Ru  Ru20  1  0.000000  0.909168  0.739823  1
  Ru  Ru21  1  0.000000  0.090832  0.260177  1
