# generated using pymatgen
data_Ho16Tm4Ir11Rh
_symmetry_space_group_name_H-M   'P 1'
_cell_length_a   10.80962200
_cell_length_b   10.80962200
_cell_length_c   6.33606500
_cell_angle_alpha   90.00000000
_cell_angle_beta   90.00000000
_cell_angle_gamma   90.00000000
_symmetry_Int_Tables_number   1
_chemical_formula_structural   Ho16Tm4Ir11Rh
_chemical_formula_sum   'Ho16 Tm4 Ir11 Rh1'
_cell_volume   740.35606555
_cell_formula_units_Z   1
loop_
 _symmetry_equiv_pos_site_id
 _symmetry_equiv_pos_as_xyz
  1  'x, y, z'
loop_
 _atom_site_type_symbol
 _atom_site_label
 _atom_site_symmetry_multiplicity
 _atom_site_fract_x
 _atom_site_fract_y
 _atom_site_fract_z
 _atom_site_occupancy
  Ho  Ho0  1  0.290622  0.087666  0.378673  1
  Ho  Ho1  1  0.290399  0.912154  0.876686  1
  Ho  Ho2  1  0.709601  0.087846  0.876686  1
  Ho  Ho3  1  0.709378  0.912334  0.378673  1
  Ho  Ho4  1  0.587846  0.790399  0.876686  1
  Ho  Ho5  1  0.587666  0.209378  0.378673  1
  Ho  Ho6  1  0.412334  0.790622  0.378673  1
  Ho  Ho7  1  0.412154  0.209601  0.876686  1
  Ho  Ho8  1  0.209063  0.412330  0.622472  1
  Ho  Ho9  1  0.209111  0.587811  0.122539  1
  Ho  Ho10  1  0.790889  0.412189  0.122539  1
  Ho  Ho11  1  0.790937  0.587670  0.622472  1
  Ho  Ho12  1  0.912189  0.709111  0.122539  1
  Ho  Ho13  1  0.912330  0.290937  0.622472  1
  Ho  Ho14  1  0.087670  0.709063  0.622472  1
  Ho  Ho15  1  0.087811  0.290889  0.122539  1
  Tm  Tm16  1  0.000000  0.000000  0.500080  1
  Tm  Tm17  1  0.000000  0.000000  0.000175  1
  Tm  Tm18  1  0.500000  0.500000  0.000175  1
  Tm  Tm19  1  0.500000  0.500000  0.500080  1
  Ir  Ir20  1  0.846948  0.152295  0.249699  1
  Ir  Ir21  1  0.847109  0.847606  0.749867  1
  Ir  Ir22  1  0.152891  0.152394  0.749867  1
  Ir  Ir23  1  0.153052  0.847705  0.249699  1
  Ir  Ir24  1  0.652394  0.347109  0.749867  1
  Ir  Ir25  1  0.652295  0.653052  0.249699  1
  Ir  Ir26  1  0.347705  0.346948  0.249699  1
  Ir  Ir27  1  0.347606  0.652891  0.749867  1
  Ir  Ir28  1  0.500000  0.000000  0.622702  1
  Ir  Ir29  1  0.000000  0.500000  0.877401  1
  Ir  Ir30  1  0.000000  0.500000  0.377343  1
  Rh  Rh31  1  0.500000  0.000000  0.122304  1
