# generated using pymatgen
data_Tb3LuZn2Ir3
_symmetry_space_group_name_H-M   'P 1'
_cell_length_a   7.30555900
_cell_length_b   7.30267412
_cell_length_c   4.02377200
_cell_angle_alpha   90.00000000
_cell_angle_beta   90.00000000
_cell_angle_gamma   120.01307336
_symmetry_Int_Tables_number   1
_chemical_formula_structural   Tb3LuZn2Ir3
_chemical_formula_sum   'Tb3 Lu1 Zn2 Ir3'
_cell_volume   185.88405669
_cell_formula_units_Z   1
loop_
 _symmetry_equiv_pos_site_id
 _symmetry_equiv_pos_as_xyz
  1  'x, y, z'
loop_
 _atom_site_type_symbol
 _atom_site_label
 _atom_site_symmetry_multiplicity
 _atom_site_fract_x
 _atom_site_fract_y
 _atom_site_fract_z
 _atom_site_occupancy
  Tb  Tb0  1  0.386497  0.000000  0.500000  1
  Tb  Tb1  1  0.016462  0.435649  0.500000  1
  Tb  Tb2  1  0.580814  0.564352  0.500000  1
  Lu  Lu3  1  0.759108  0.000000  0.000000  1
  Zn  Zn4  1  0.247434  0.251356  0.000000  1
  Zn  Zn5  1  0.996078  0.748643  0.000000  1
  Ir  Ir6  1  0.668890  0.330535  0.000000  1
  Ir  Ir7  1  0.338354  0.669465  0.000000  1
  Ir  Ir8  1  0.006366  0.000000  0.500000  1
