# generated using pymatgen
data_Ho6Zn22CuP
_symmetry_space_group_name_H-M   'P 1'
_cell_length_a   9.01979388
_cell_length_b   9.01947154
_cell_length_c   9.01880100
_cell_angle_alpha   59.99991764
_cell_angle_beta   59.99961080
_cell_angle_gamma   60.00008421
_symmetry_Int_Tables_number   1
_chemical_formula_structural   Ho6Zn22CuP
_chemical_formula_sum   'Ho6 Zn22 Cu1 P1'
_cell_volume   518.81227261
_cell_formula_units_Z   1
loop_
 _symmetry_equiv_pos_site_id
 _symmetry_equiv_pos_as_xyz
  1  'x, y, z'
loop_
 _atom_site_type_symbol
 _atom_site_label
 _atom_site_symmetry_multiplicity
 _atom_site_fract_x
 _atom_site_fract_y
 _atom_site_fract_z
 _atom_site_occupancy
  Ho  Ho0  1  0.711770  0.288263  0.288175  1
  Ho  Ho1  1  0.711754  0.288225  0.711828  1
  Ho  Ho2  1  0.711744  0.711725  0.288238  1
  Ho  Ho3  1  0.288230  0.711737  0.711825  1
  Ho  Ho4  1  0.288246  0.711775  0.288172  1
  Ho  Ho5  1  0.288256  0.288275  0.711762  1
  Zn  Zn6  1  0.635510  0.121448  0.121495  1
  Zn  Zn7  1  0.121405  0.635573  0.121511  1
  Zn  Zn8  1  0.121517  0.121575  0.635442  1
  Zn  Zn9  1  0.121522  0.121532  0.121422  1
  Zn  Zn10  1  0.364490  0.878552  0.878505  1
  Zn  Zn11  1  0.878595  0.364427  0.878489  1
  Zn  Zn12  1  0.878483  0.878425  0.364558  1
  Zn  Zn13  1  0.878478  0.878468  0.878578  1
  Zn  Zn14  1  0.500000  0.000000  0.000000  1
  Zn  Zn15  1  0.500000  0.000000  0.500000  1
  Zn  Zn16  1  0.500000  0.500000  0.000000  1
  Zn  Zn17  1  0.000000  0.500000  0.500000  1
  Zn  Zn18  1  0.000000  0.500000  0.000000  1
  Zn  Zn19  1  0.000000  0.000000  0.500000  1
  Zn  Zn20  1  0.012097  0.329184  0.329364  1
  Zn  Zn21  1  0.329215  0.012093  0.329376  1
  Zn  Zn22  1  0.329338  0.329320  0.012130  1
  Zn  Zn23  1  0.329364  0.329297  0.329247  1
  Zn  Zn24  1  0.987903  0.670816  0.670636  1
  Zn  Zn25  1  0.670785  0.987907  0.670624  1
  Zn  Zn26  1  0.670662  0.670680  0.987870  1
  Zn  Zn27  1  0.670636  0.670703  0.670753  1
  Cu  Cu28  1  0.000000  0.000000  0.000000  1
  P  P29  1  0.500000  0.500000  0.500000  1
