# generated using pymatgen
data_Er6Zn19Ag4S
_symmetry_space_group_name_H-M   'P 1'
_cell_length_a   9.09103006
_cell_length_b   9.09102998
_cell_length_c   9.09103000
_cell_angle_alpha   59.99999994
_cell_angle_beta   60.00000023
_cell_angle_gamma   60.00000196
_symmetry_Int_Tables_number   1
_chemical_formula_structural   Er6Zn19Ag4S
_chemical_formula_sum   'Er6 Zn19 Ag4 S1'
_cell_volume   531.28099932
_cell_formula_units_Z   1
loop_
 _symmetry_equiv_pos_site_id
 _symmetry_equiv_pos_as_xyz
  1  'x, y, z'
loop_
 _atom_site_type_symbol
 _atom_site_label
 _atom_site_symmetry_multiplicity
 _atom_site_fract_x
 _atom_site_fract_y
 _atom_site_fract_z
 _atom_site_occupancy
  Er  Er0  1  0.709851  0.290149  0.290149  1
  Er  Er1  1  0.709851  0.290149  0.709851  1
  Er  Er2  1  0.709851  0.709851  0.290149  1
  Er  Er3  1  0.290149  0.709851  0.709851  1
  Er  Er4  1  0.290149  0.709851  0.290149  1
  Er  Er5  1  0.290149  0.290149  0.709851  1
  Zn  Zn6  1  0.372045  0.875985  0.875985  1
  Zn  Zn7  1  0.875985  0.372045  0.875985  1
  Zn  Zn8  1  0.875985  0.875985  0.372045  1
  Zn  Zn9  1  0.875985  0.875985  0.875985  1
  Zn  Zn10  1  0.501875  0.998125  0.998125  1
  Zn  Zn11  1  0.501875  0.998125  0.501875  1
  Zn  Zn12  1  0.501875  0.501875  0.998125  1
  Zn  Zn13  1  0.998125  0.501875  0.501875  1
  Zn  Zn14  1  0.998125  0.501875  0.998125  1
  Zn  Zn15  1  0.998125  0.998125  0.501875  1
  Zn  Zn16  1  0.000000  0.000000  0.000000  1
  Zn  Zn17  1  0.006721  0.331093  0.331093  1
  Zn  Zn18  1  0.331093  0.006721  0.331093  1
  Zn  Zn19  1  0.331093  0.331093  0.006721  1
  Zn  Zn20  1  0.331093  0.331093  0.331093  1
  Zn  Zn21  1  0.991798  0.669401  0.669401  1
  Zn  Zn22  1  0.669401  0.991798  0.669401  1
  Zn  Zn23  1  0.669401  0.669401  0.991798  1
  Zn  Zn24  1  0.669401  0.669401  0.669401  1
  Ag  Ag25  1  0.637449  0.120851  0.120851  1
  Ag  Ag26  1  0.120851  0.637449  0.120851  1
  Ag  Ag27  1  0.120851  0.120851  0.637449  1
  Ag  Ag28  1  0.120851  0.120851  0.120851  1
  S  S29  1  0.500000  0.500000  0.500000  1
