# generated using pymatgen
data_DyMg2(Co3B2)3
_symmetry_space_group_name_H-M   'P 1'
_cell_length_a   5.71593227
_cell_length_b   5.71593306
_cell_length_c   5.71593271
_cell_angle_alpha   95.92348795
_cell_angle_beta   95.92350263
_cell_angle_gamma   95.92350085
_symmetry_Int_Tables_number   1
_chemical_formula_structural   DyMg2(Co3B2)3
_chemical_formula_sum   'Dy1 Mg2 Co9 B6'
_cell_volume   183.53391458
_cell_formula_units_Z   1
loop_
 _symmetry_equiv_pos_site_id
 _symmetry_equiv_pos_as_xyz
  1  'x, y, z'
loop_
 _atom_site_type_symbol
 _atom_site_label
 _atom_site_symmetry_multiplicity
 _atom_site_fract_x
 _atom_site_fract_y
 _atom_site_fract_z
 _atom_site_occupancy
  Dy  Dy0  1  0.328068  0.328068  0.328068  1
  Mg  Mg1  1  0.991607  0.991607  0.991607  1
  Mg  Mg2  1  0.676790  0.676790  0.676790  1
  Co  Co3  1  0.992983  0.992983  0.501433  1
  Co  Co4  1  0.501433  0.992983  0.992983  1
  Co  Co5  1  0.992983  0.501433  0.992983  1
  Co  Co6  1  0.703562  0.204541  0.703562  1
  Co  Co7  1  0.703562  0.703562  0.204541  1
  Co  Co8  1  0.204541  0.703562  0.703562  1
  Co  Co9  1  0.294630  0.804926  0.294630  1
  Co  Co10  1  0.294630  0.294630  0.804926  1
  Co  Co11  1  0.804926  0.294630  0.294630  1
  B  B12  1  0.619065  0.389293  0.996783  1
  B  B13  1  0.996783  0.619065  0.389293  1
  B  B14  1  0.389293  0.996783  0.619065  1
  B  B15  1  0.996783  0.389293  0.619065  1
  B  B16  1  0.619065  0.996783  0.389293  1
  B  B17  1  0.389293  0.619065  0.996783  1
