# generated using pymatgen
data_Nd5YTh2(Si3Rh)4
_symmetry_space_group_name_H-M   'P 1'
_cell_length_a   8.26978615
_cell_length_b   8.21581692
_cell_length_c   8.35114100
_cell_angle_alpha   90.00000000
_cell_angle_beta   90.00000000
_cell_angle_gamma   119.78436226
_symmetry_Int_Tables_number   1
_chemical_formula_structural   Nd5YTh2(Si3Rh)4
_chemical_formula_sum   'Nd5 Y1 Th2 Si12 Rh4'
_cell_volume   492.44878142
_cell_formula_units_Z   1
loop_
 _symmetry_equiv_pos_site_id
 _symmetry_equiv_pos_as_xyz
  1  'x, y, z'
loop_
 _atom_site_type_symbol
 _atom_site_label
 _atom_site_symmetry_multiplicity
 _atom_site_fract_x
 _atom_site_fract_y
 _atom_site_fract_z
 _atom_site_occupancy
  Nd  Nd0  1  0.000062  0.000031  0.250000  1
  Nd  Nd1  1  0.000099  0.000049  0.750000  1
  Nd  Nd2  1  0.001187  0.500594  0.250000  1
  Nd  Nd3  1  0.499268  0.500564  0.250000  1
  Nd  Nd4  1  0.499268  0.998703  0.250000  1
  Y  Y5  1  0.998896  0.499448  0.750000  1
  Th  Th6  1  0.500680  0.001367  0.750000  1
  Th  Th7  1  0.500680  0.499314  0.750000  1
  Si  Si8  1  0.165303  0.334699  0.998497  1
  Si  Si9  1  0.669993  0.834997  0.001449  1
  Si  Si10  1  0.165303  0.334699  0.501503  1
  Si  Si11  1  0.329779  0.164890  0.000262  1
  Si  Si12  1  0.165303  0.830603  0.998497  1
  Si  Si13  1  0.669993  0.834997  0.498551  1
  Si  Si14  1  0.834781  0.665367  0.997071  1
  Si  Si15  1  0.329779  0.164890  0.499738  1
  Si  Si16  1  0.165303  0.830603  0.501503  1
  Si  Si17  1  0.834781  0.665367  0.502929  1
  Si  Si18  1  0.834781  0.169415  0.997071  1
  Si  Si19  1  0.834781  0.169415  0.502929  1
  Rh  Rh20  1  0.337893  0.668948  0.985302  1
  Rh  Rh21  1  0.337893  0.668948  0.514698  1
  Rh  Rh22  1  0.662095  0.331047  0.990669  1
  Rh  Rh23  1  0.662095  0.331047  0.509331  1
