# generated using pymatgen
data_Ce2Ag2SnSb3
_symmetry_space_group_name_H-M   'P 1'
_cell_length_a   4.40298400
_cell_length_b   4.40298400
_cell_length_c   10.48559600
_cell_angle_alpha   90.00000000
_cell_angle_beta   90.00000000
_cell_angle_gamma   90.00000000
_symmetry_Int_Tables_number   1
_chemical_formula_structural   Ce2Ag2SnSb3
_chemical_formula_sum   'Ce2 Ag2 Sn1 Sb3'
_cell_volume   203.27657529
_cell_formula_units_Z   1
loop_
 _symmetry_equiv_pos_site_id
 _symmetry_equiv_pos_as_xyz
  1  'x, y, z'
loop_
 _atom_site_type_symbol
 _atom_site_label
 _atom_site_symmetry_multiplicity
 _atom_site_fract_x
 _atom_site_fract_y
 _atom_site_fract_z
 _atom_site_occupancy
  Ce  Ce0  1  0.500000  0.000000  0.237238  1
  Ce  Ce1  1  0.000000  0.500000  0.762762  1
  Ag  Ag2  1  0.000000  0.000000  0.500000  1
  Ag  Ag3  1  0.500000  0.500000  0.500000  1
  Sn  Sn4  1  0.000000  0.000000  0.000000  1
  Sb  Sb5  1  0.500000  0.500000  0.000000  1
  Sb  Sb6  1  0.500000  0.000000  0.683824  1
  Sb  Sb7  1  0.000000  0.500000  0.316176  1
