# generated using pymatgen
data_TaNb2Cr3GeP2
_symmetry_space_group_name_H-M   'P 1'
_cell_length_a   6.60860253
_cell_length_b   6.59092187
_cell_length_c   3.30809900
_cell_angle_alpha   90.00000000
_cell_angle_beta   90.00000000
_cell_angle_gamma   119.94029603
_symmetry_Int_Tables_number   1
_chemical_formula_structural   TaNb2Cr3GeP2
_chemical_formula_sum   'Ta1 Nb2 Cr3 Ge1 P2'
_cell_volume   124.86073585
_cell_formula_units_Z   1
loop_
 _symmetry_equiv_pos_site_id
 _symmetry_equiv_pos_as_xyz
  1  'x, y, z'
loop_
 _atom_site_type_symbol
 _atom_site_label
 _atom_site_symmetry_multiplicity
 _atom_site_fract_x
 _atom_site_fract_y
 _atom_site_fract_z
 _atom_site_occupancy
  Ta  Ta0  1  0.985029  0.593313  0.500000  1
  Nb  Nb1  1  0.607531  0.014751  0.500000  1
  Nb  Nb2  1  0.406946  0.392120  0.500000  1
  Cr  Cr3  1  0.249721  0.006150  0.000000  1
  Cr  Cr4  1  0.757148  0.749093  0.000000  1
  Cr  Cr5  1  0.993215  0.244329  0.000000  1
  Ge  Ge6  1  0.333274  0.666595  0.000000  1
  P  P7  1  0.667025  0.333675  0.000000  1
  P  P8  1  0.000110  0.999973  0.500000  1
