# generated using pymatgen
data_TmPa3(GeIr)4
_symmetry_space_group_name_H-M   'P 1'
_cell_length_a   4.33396700
_cell_length_b   6.91617342
_cell_length_c   7.67777486
_cell_angle_alpha   89.52644315
_cell_angle_beta   90.00000000
_cell_angle_gamma   90.00000000
_symmetry_Int_Tables_number   1
_chemical_formula_structural   TmPa3(GeIr)4
_chemical_formula_sum   'Tm1 Pa3 Ge4 Ir4'
_cell_volume   230.12935141
_cell_formula_units_Z   1
loop_
 _symmetry_equiv_pos_site_id
 _symmetry_equiv_pos_as_xyz
  1  'x, y, z'
loop_
 _atom_site_type_symbol
 _atom_site_label
 _atom_site_symmetry_multiplicity
 _atom_site_fract_x
 _atom_site_fract_y
 _atom_site_fract_z
 _atom_site_occupancy
  Tm  Tm0  1  0.750000  0.008602  0.201607  1
  Pa  Pa1  1  0.250000  0.492656  0.702238  1
  Pa  Pa2  1  0.250000  0.993794  0.797909  1
  Pa  Pa3  1  0.750000  0.509389  0.299623  1
  Ge  Ge4  1  0.250000  0.824858  0.409608  1
  Ge  Ge5  1  0.250000  0.314650  0.086302  1
  Ge  Ge6  1  0.750000  0.177479  0.579987  1
  Ge  Ge7  1  0.750000  0.683561  0.920666  1
  Ir  Ir8  1  0.250000  0.231713  0.416656  1
  Ir  Ir9  1  0.250000  0.717096  0.087710  1
  Ir  Ir10  1  0.750000  0.771859  0.590476  1
  Ir  Ir11  1  0.750000  0.274342  0.907218  1
