# generated using pymatgen
data_ScPa3(MnGe)4
_symmetry_space_group_name_H-M   'P 1'
_cell_length_a   4.45855000
_cell_length_b   6.91978892
_cell_length_c   6.71505701
_cell_angle_alpha   88.23153005
_cell_angle_beta   90.00000000
_cell_angle_gamma   90.00000000
_symmetry_Int_Tables_number   1
_chemical_formula_structural   ScPa3(MnGe)4
_chemical_formula_sum   'Sc1 Pa3 Mn4 Ge4'
_cell_volume   207.07577043
_cell_formula_units_Z   1
loop_
 _symmetry_equiv_pos_site_id
 _symmetry_equiv_pos_as_xyz
  1  'x, y, z'
loop_
 _atom_site_type_symbol
 _atom_site_label
 _atom_site_symmetry_multiplicity
 _atom_site_fract_x
 _atom_site_fract_y
 _atom_site_fract_z
 _atom_site_occupancy
  Sc  Sc0  1  0.250000  0.471598  0.197837  1
  Pa  Pa1  1  0.750000  0.527719  0.800949  1
  Pa  Pa2  1  0.250000  0.969288  0.303697  1
  Pa  Pa3  1  0.750000  0.020491  0.689931  1
  Mn  Mn4  1  0.250000  0.670511  0.542721  1
  Mn  Mn5  1  0.250000  0.136959  0.972869  1
  Mn  Mn6  1  0.750000  0.859773  0.034666  1
  Mn  Mn7  1  0.750000  0.348434  0.468600  1
  Ge  Ge8  1  0.250000  0.791182  0.890356  1
  Ge  Ge9  1  0.250000  0.301863  0.612547  1
  Ge  Ge10  1  0.750000  0.214723  0.120485  1
  Ge  Ge11  1  0.750000  0.687457  0.365342  1
