# generated using pymatgen
data_Dy5Tm(Fe7B2)2
_symmetry_space_group_name_H-M   'P 1'
_cell_length_a   5.11683800
_cell_length_b   5.11683826
_cell_length_c   14.50491900
_cell_angle_alpha   90.00000000
_cell_angle_beta   90.00000000
_cell_angle_gamma   119.99999829
_symmetry_Int_Tables_number   1
_chemical_formula_structural   Dy5Tm(Fe7B2)2
_chemical_formula_sum   'Dy5 Tm1 Fe14 B4'
_cell_volume   328.88896657
_cell_formula_units_Z   1
loop_
 _symmetry_equiv_pos_site_id
 _symmetry_equiv_pos_as_xyz
  1  'x, y, z'
loop_
 _atom_site_type_symbol
 _atom_site_label
 _atom_site_symmetry_multiplicity
 _atom_site_fract_x
 _atom_site_fract_y
 _atom_site_fract_z
 _atom_site_occupancy
  Dy  Dy0  1  0.666667  0.333333  0.965592  1
  Dy  Dy1  1  0.666667  0.333333  0.534104  1
  Dy  Dy2  1  0.333333  0.666667  0.034357  1
  Dy  Dy3  1  0.666667  0.333333  0.749793  1
  Dy  Dy4  1  0.333333  0.666667  0.250319  1
  Tm  Tm5  1  0.333333  0.666667  0.465565  1
  Fe  Fe6  1  0.834198  0.668398  0.354173  1
  Fe  Fe7  1  0.331602  0.165802  0.354173  1
  Fe  Fe8  1  0.000000  0.000000  0.999955  1
  Fe  Fe9  1  0.000000  0.000000  0.499930  1
  Fe  Fe10  1  0.834388  0.165612  0.146740  1
  Fe  Fe11  1  0.667753  0.833876  0.645979  1
  Fe  Fe12  1  0.166124  0.332247  0.645979  1
  Fe  Fe13  1  0.834388  0.668776  0.146740  1
  Fe  Fe14  1  0.331224  0.165612  0.146740  1
  Fe  Fe15  1  0.668770  0.834384  0.853200  1
  Fe  Fe16  1  0.165616  0.331230  0.853200  1
  Fe  Fe17  1  0.166124  0.833876  0.645979  1
  Fe  Fe18  1  0.165616  0.834384  0.853200  1
  Fe  Fe19  1  0.834198  0.165802  0.354173  1
  B  B20  1  0.666667  0.333333  0.250208  1
  B  B21  1  0.333333  0.666667  0.749964  1
  B  B22  1  0.000000  0.000000  0.749623  1
  B  B23  1  0.000000  0.000000  0.250314  1
