# generated using pymatgen
data_HoLu15Cd4(NiIr)2
_symmetry_space_group_name_H-M   'P 1'
_cell_length_a   9.40426240
_cell_length_b   9.40426184
_cell_length_c   9.46541700
_cell_angle_alpha   59.78465450
_cell_angle_beta   59.78465650
_cell_angle_gamma   59.65467805
_symmetry_Int_Tables_number   1
_chemical_formula_structural   HoLu15Cd4(NiIr)2
_chemical_formula_sum   'Ho1 Lu15 Cd4 Ni2 Ir2'
_cell_volume   588.45608979
_cell_formula_units_Z   1
loop_
 _symmetry_equiv_pos_site_id
 _symmetry_equiv_pos_as_xyz
  1  'x, y, z'
loop_
 _atom_site_type_symbol
 _atom_site_label
 _atom_site_symmetry_multiplicity
 _atom_site_fract_x
 _atom_site_fract_y
 _atom_site_fract_z
 _atom_site_occupancy
  Ho  Ho0  1  0.939303  0.939303  0.560697  1
  Lu  Lu1  1  0.349825  0.349825  0.343946  1
  Lu  Lu2  1  0.349825  0.349825  0.956403  1
  Lu  Lu3  1  0.355534  0.953405  0.345530  1
  Lu  Lu4  1  0.953405  0.355534  0.345530  1
  Lu  Lu5  1  0.808312  0.188249  0.189982  1
  Lu  Lu6  1  0.188249  0.808312  0.813456  1
  Lu  Lu7  1  0.188249  0.808312  0.189982  1
  Lu  Lu8  1  0.808312  0.188249  0.813456  1
  Lu  Lu9  1  0.188006  0.188006  0.811994  1
  Lu  Lu10  1  0.811624  0.811624  0.188376  1
  Lu  Lu11  1  0.937325  0.560204  0.565224  1
  Lu  Lu12  1  0.560204  0.937325  0.937247  1
  Lu  Lu13  1  0.560204  0.937325  0.565224  1
  Lu  Lu14  1  0.937325  0.560204  0.937247  1
  Lu  Lu15  1  0.565675  0.565675  0.934325  1
  Cd  Cd16  1  0.580921  0.580921  0.582665  1
  Cd  Cd17  1  0.580921  0.580921  0.255494  1
  Cd  Cd18  1  0.578424  0.255434  0.583071  1
  Cd  Cd19  1  0.255434  0.578424  0.583071  1
  Ni  Ni20  1  0.142619  0.576298  0.140542  1
  Ni  Ni21  1  0.576298  0.142619  0.140542  1
  Ir  Ir22  1  0.142002  0.142002  0.142430  1
  Ir  Ir23  1  0.142002  0.142002  0.573565  1
