# generated using pymatgen
data_Rb(PdO2)3
_symmetry_space_group_name_H-M   'P 1'
_cell_length_a   5.39390512
_cell_length_b   5.39453060
_cell_length_c   13.64029791
_cell_angle_alpha   80.01890197
_cell_angle_beta   99.95144158
_cell_angle_gamma   118.16542584
_symmetry_Int_Tables_number   1
_chemical_formula_structural   Rb(PdO2)3
_chemical_formula_sum   'Rb2 Pd6 O12'
_cell_volume   342.70841892
_cell_formula_units_Z   2
loop_
 _symmetry_equiv_pos_site_id
 _symmetry_equiv_pos_as_xyz
  1  'x, y, z'
loop_
 _atom_site_type_symbol
 _atom_site_label
 _atom_site_symmetry_multiplicity
 _atom_site_fract_x
 _atom_site_fract_y
 _atom_site_fract_z
 _atom_site_occupancy
  Rb  Rb0  1  0.401764  0.901466  0.250012  1
  Rb  Rb1  1  0.598819  0.098723  0.750003  1
  Pd  Pd2  1  0.166222  0.832145  0.500328  1
  Pd  Pd3  1  0.332233  0.666386  0.999670  1
  Pd  Pd4  1  0.667678  0.333817  0.000300  1
  Pd  Pd5  1  0.833724  0.167617  0.499689  1
  Pd  Pd6  1  0.499969  0.499872  0.500007  1
  Pd  Pd7  1  0.999966  0.000119  0.000003  1
  O  O8  1  0.528401  0.817356  0.574193  1
  O  O9  1  0.682468  0.971595  0.074163  1
  O  O10  1  0.317475  0.028580  0.925810  1
  O  O11  1  0.855939  0.481788  0.574159  1
  O  O12  1  0.471534  0.182407  0.425820  1
  O  O13  1  0.825956  0.873240  0.422822  1
  O  O14  1  0.017945  0.644035  0.074159  1
  O  O15  1  0.981997  0.356170  0.925824  1
  O  O16  1  0.626929  0.674267  0.922843  1
  O  O17  1  0.173966  0.126510  0.577198  1
  O  O18  1  0.372984  0.325912  0.077141  1
  O  O19  1  0.144027  0.517994  0.425853  1
