# generated using pymatgen
data_La9Ho11Pt16
_symmetry_space_group_name_H-M   'P 1'
_cell_length_a   7.61403525
_cell_length_b   7.71245032
_cell_length_c   14.89040900
_cell_angle_alpha   89.88545220
_cell_angle_beta   89.94703137
_cell_angle_gamma   90.10869923
_symmetry_Int_Tables_number   1
_chemical_formula_structural   La9Ho11Pt16
_chemical_formula_sum   'La9 Ho11 Pt16'
_cell_volume   874.40383369
_cell_formula_units_Z   1
loop_
 _symmetry_equiv_pos_site_id
 _symmetry_equiv_pos_as_xyz
  1  'x, y, z'
loop_
 _atom_site_type_symbol
 _atom_site_label
 _atom_site_symmetry_multiplicity
 _atom_site_fract_x
 _atom_site_fract_y
 _atom_site_fract_z
 _atom_site_occupancy
  La  La0  1  0.657965  0.833154  0.879456  1
  La  La1  1  0.998438  0.822353  0.404147  1
  La  La2  1  0.498139  0.675162  0.099460  1
  La  La3  1  0.501339  0.323187  0.594230  1
  La  La4  1  0.003761  0.181803  0.905026  1
  La  La5  1  0.000991  0.176546  0.594130  1
  La  La6  1  0.499541  0.322970  0.904118  1
  La  La7  1  0.498131  0.677126  0.403660  1
  La  La8  1  0.999957  0.821900  0.097039  1
  Ho  Ho9  1  0.679600  0.994373  0.250651  1
  Ho  Ho10  1  0.179526  0.505227  0.250852  1
  Ho  Ho11  1  0.822445  0.491108  0.747728  1
  Ho  Ho12  1  0.318632  0.008147  0.748124  1
  Ho  Ho13  1  0.656978  0.832893  0.622556  1
  Ho  Ho14  1  0.157749  0.666420  0.875060  1
  Ho  Ho15  1  0.843189  0.332930  0.376410  1
  Ho  Ho16  1  0.342295  0.168378  0.124752  1
  Ho  Ho17  1  0.342450  0.167008  0.376510  1
  Ho  Ho18  1  0.844414  0.334013  0.125164  1
  Ho  Ho19  1  0.158196  0.666993  0.622652  1
  Pt  Pt20  1  0.813163  0.636745  0.250723  1
  Pt  Pt21  1  0.311093  0.863230  0.250612  1
  Pt  Pt22  1  0.686227  0.139218  0.746801  1
  Pt  Pt23  1  0.184692  0.361780  0.748440  1
  Pt  Pt24  1  0.546471  0.372780  0.250895  1
  Pt  Pt25  1  0.046601  0.126787  0.250676  1
  Pt  Pt26  1  0.957242  0.875097  0.746996  1
  Pt  Pt27  1  0.452050  0.622278  0.747192  1
  Pt  Pt28  1  0.822270  0.536567  0.543223  1
  Pt  Pt29  1  0.313112  0.966594  0.958016  1
  Pt  Pt30  1  0.677666  0.035718  0.455629  1
  Pt  Pt31  1  0.180756  0.465060  0.044327  1
  Pt  Pt32  1  0.178019  0.464233  0.455710  1
  Pt  Pt33  1  0.677564  0.039723  0.048770  1
  Pt  Pt34  1  0.322257  0.964189  0.543405  1
  Pt  Pt35  1  0.827081  0.528315  0.956866  1
