# generated using pymatgen
data_Th3(AlPd2)2
_symmetry_space_group_name_H-M   'P 1'
_cell_length_a   7.18453384
_cell_length_b   7.49661515
_cell_length_c   4.18171900
_cell_angle_alpha   90.00000000
_cell_angle_beta   90.00000000
_cell_angle_gamma   121.49106614
_symmetry_Int_Tables_number   1
_chemical_formula_structural   Th3(AlPd2)2
_chemical_formula_sum   'Th3 Al2 Pd4'
_cell_volume   192.05513951
_cell_formula_units_Z   1
loop_
 _symmetry_equiv_pos_site_id
 _symmetry_equiv_pos_as_xyz
  1  'x, y, z'
loop_
 _atom_site_type_symbol
 _atom_site_label
 _atom_site_symmetry_multiplicity
 _atom_site_fract_x
 _atom_site_fract_y
 _atom_site_fract_z
 _atom_site_occupancy
  Th  Th0  1  0.000013  0.423781  0.500000  1
  Th  Th1  1  0.607424  0.592089  0.500000  1
  Th  Th2  1  0.392587  0.984729  0.500000  1
  Al  Al3  1  0.233418  0.232126  0.000000  1
  Al  Al4  1  0.766558  0.998671  0.000000  1
  Pd  Pd5  1  0.353291  0.660992  0.000000  1
  Pd  Pd6  1  0.646663  0.307693  0.000000  1
  Pd  Pd7  1  0.000013  0.036662  0.500000  1
  Pd  Pd8  1  0.000034  0.763257  0.000000  1
