# generated using pymatgen
data_Ta5Nb7Al7Ga(CoC)4
_symmetry_space_group_name_H-M   'P 1'
_cell_length_a   8.21417800
_cell_length_b   8.21384963
_cell_length_c   8.20783800
_cell_angle_alpha   119.97404484
_cell_angle_beta   89.99977679
_cell_angle_gamma   120.04889696
_symmetry_Int_Tables_number   1
_chemical_formula_structural   Ta5Nb7Al7Ga(CoC)4
_chemical_formula_sum   'Ta5 Nb7 Al7 Ga1 Co4 C4'
_cell_volume   391.44849685
_cell_formula_units_Z   1
loop_
 _symmetry_equiv_pos_site_id
 _symmetry_equiv_pos_as_xyz
  1  'x, y, z'
loop_
 _atom_site_type_symbol
 _atom_site_label
 _atom_site_symmetry_multiplicity
 _atom_site_fract_x
 _atom_site_fract_y
 _atom_site_fract_z
 _atom_site_occupancy
  Ta  Ta0  1  0.814559  0.749398  0.685002  1
  Ta  Ta1  1  0.435599  0.370446  0.684997  1
  Ta  Ta2  1  0.563909  0.249908  0.935859  1
  Ta  Ta3  1  0.185002  0.249492  0.934488  1
  Ta  Ta4  1  0.185943  0.871930  0.935843  1
  Nb  Nb5  1  0.435025  0.749608  0.064175  1
  Nb  Nb6  1  0.813962  0.749251  0.063209  1
  Nb  Nb7  1  0.814574  0.129161  0.064196  1
  Nb  Nb8  1  0.564196  0.249617  0.313775  1
  Nb  Nb9  1  0.564680  0.628767  0.314144  1
  Nb  Nb10  1  0.185373  0.249483  0.314160  1
  Nb  Nb11  1  0.435252  0.749603  0.684889  1
  Al  Al12  1  0.879889  0.586466  0.293127  1
  Al  Al13  1  0.206721  0.913280  0.293131  1
  Al  Al14  1  0.793206  0.086102  0.379375  1
  Al  Al15  1  0.207069  0.912720  0.619729  1
  Al  Al16  1  0.120403  0.413899  0.706566  1
  Al  Al17  1  0.792619  0.086115  0.706568  1
  Al  Al18  1  0.793444  0.413418  0.706927  1
  Ga  Ga19  1  0.208017  0.584645  0.292616  1
  Co  Co20  1  0.998601  0.499198  0.997797  1
  Co  Co21  1  0.003421  0.001789  0.505204  1
  Co  Co22  1  0.500935  0.006166  0.505210  1
  Co  Co23  1  0.999045  0.504297  0.505230  1
  C  C24  1  0.000811  0.999196  0.997163  1
  C  C25  1  0.498732  0.999489  0.998223  1
  C  C26  1  0.497975  0.496354  0.997157  1
  C  C27  1  0.501034  0.500208  0.501248  1
