# generated using pymatgen
data_Tm4LuRe2BC6
_symmetry_space_group_name_H-M   'P 1'
_cell_length_a   8.20678817
_cell_length_b   8.20689769
_cell_length_c   3.36359300
_cell_angle_alpha   90.00000000
_cell_angle_beta   90.00000000
_cell_angle_gamma   121.90530549
_symmetry_Int_Tables_number   1
_chemical_formula_structural   Tm4LuRe2BC6
_chemical_formula_sum   'Tm4 Lu1 Re2 B1 C6'
_cell_volume   192.31973689
_cell_formula_units_Z   1
loop_
 _symmetry_equiv_pos_site_id
 _symmetry_equiv_pos_as_xyz
  1  'x, y, z'
loop_
 _atom_site_type_symbol
 _atom_site_label
 _atom_site_symmetry_multiplicity
 _atom_site_fract_x
 _atom_site_fract_y
 _atom_site_fract_z
 _atom_site_occupancy
  Tm  Tm0  1  0.330709  0.079663  0.500000  1
  Tm  Tm1  1  0.669291  0.920337  0.500000  1
  Tm  Tm2  1  0.079667  0.330724  0.500000  1
  Tm  Tm3  1  0.920333  0.669276  0.500000  1
  Lu  Lu4  1  0.500000  0.500000  0.000000  1
  Re  Re5  1  0.285320  0.714687  0.000000  1
  Re  Re6  1  0.714680  0.285313  0.000000  1
  B  B7  1  0.000000  0.000000  0.000000  1
  C  C8  1  0.184102  0.184105  0.000000  1
  C  C9  1  0.815898  0.815895  0.000000  1
  C  C10  1  0.375368  0.624646  0.500000  1
  C  C11  1  0.624632  0.375354  0.500000  1
  C  C12  1  0.500000  0.000000  0.000000  1
  C  C13  1  0.000000  0.500000  0.000000  1
