# generated using pymatgen
data_Ho6Al(Ga3Pd8)2
_symmetry_space_group_name_H-M   'P 1'
_cell_length_a   8.98162575
_cell_length_b   8.98162604
_cell_length_c   8.98162500
_cell_angle_alpha   60.00000014
_cell_angle_beta   59.99999910
_cell_angle_gamma   60.00000044
_symmetry_Int_Tables_number   1
_chemical_formula_structural   Ho6Al(Ga3Pd8)2
_chemical_formula_sum   'Ho6 Al1 Ga6 Pd16'
_cell_volume   512.33006613
_cell_formula_units_Z   1
loop_
 _symmetry_equiv_pos_site_id
 _symmetry_equiv_pos_as_xyz
  1  'x, y, z'
loop_
 _atom_site_type_symbol
 _atom_site_label
 _atom_site_symmetry_multiplicity
 _atom_site_fract_x
 _atom_site_fract_y
 _atom_site_fract_z
 _atom_site_occupancy
  Ho  Ho0  1  0.715695  0.284305  0.284305  1
  Ho  Ho1  1  0.715695  0.284305  0.715695  1
  Ho  Ho2  1  0.715695  0.715695  0.284305  1
  Ho  Ho3  1  0.284305  0.715695  0.715695  1
  Ho  Ho4  1  0.284305  0.715695  0.284305  1
  Ho  Ho5  1  0.284305  0.284305  0.715695  1
  Al  Al6  1  0.000000  0.000000  0.000000  1
  Ga  Ga7  1  0.500000  0.000000  0.000000  1
  Ga  Ga8  1  0.500000  0.000000  0.500000  1
  Ga  Ga9  1  0.500000  0.500000  0.000000  1
  Ga  Ga10  1  0.000000  0.500000  0.500000  1
  Ga  Ga11  1  0.000000  0.500000  0.000000  1
  Ga  Ga12  1  0.000000  0.000000  0.500000  1
  Pd  Pd13  1  0.644780  0.118406  0.118406  1
  Pd  Pd14  1  0.118406  0.644780  0.118406  1
  Pd  Pd15  1  0.118406  0.118406  0.644780  1
  Pd  Pd16  1  0.118406  0.118406  0.118406  1
  Pd  Pd17  1  0.355220  0.881594  0.881594  1
  Pd  Pd18  1  0.881594  0.355220  0.881594  1
  Pd  Pd19  1  0.881594  0.881594  0.355220  1
  Pd  Pd20  1  0.881594  0.881594  0.881594  1
  Pd  Pd21  1  0.992061  0.335980  0.335980  1
  Pd  Pd22  1  0.335980  0.992061  0.335980  1
  Pd  Pd23  1  0.335980  0.335980  0.992061  1
  Pd  Pd24  1  0.335980  0.335980  0.335980  1
  Pd  Pd25  1  0.007939  0.664020  0.664020  1
  Pd  Pd26  1  0.664020  0.007939  0.664020  1
  Pd  Pd27  1  0.664020  0.664020  0.007939  1
  Pd  Pd28  1  0.664020  0.664020  0.664020  1
