# generated using pymatgen
data_Ce5Hg3Os
_symmetry_space_group_name_H-M   'P 1'
_cell_length_a   9.65259200
_cell_length_b   9.65259260
_cell_length_c   6.05230600
_cell_angle_alpha   90.00000000
_cell_angle_beta   90.00000000
_cell_angle_gamma   120.00000480
_symmetry_Int_Tables_number   1
_chemical_formula_structural   Ce5Hg3Os
_chemical_formula_sum   'Ce10 Hg6 Os2'
_cell_volume   488.35924592
_cell_formula_units_Z   2
loop_
 _symmetry_equiv_pos_site_id
 _symmetry_equiv_pos_as_xyz
  1  'x, y, z'
loop_
 _atom_site_type_symbol
 _atom_site_label
 _atom_site_symmetry_multiplicity
 _atom_site_fract_x
 _atom_site_fract_y
 _atom_site_fract_z
 _atom_site_occupancy
  Ce  Ce0  1  0.246725  0.246725  0.750000  1
  Ce  Ce1  1  0.753275  0.753275  0.250000  1
  Ce  Ce2  1  0.246725  0.000000  0.250000  1
  Ce  Ce3  1  0.753275  0.000000  0.750000  1
  Ce  Ce4  1  0.333333  0.666667  0.500000  1
  Ce  Ce5  1  0.666667  0.333333  0.500000  1
  Ce  Ce6  1  0.000000  0.246725  0.250000  1
  Ce  Ce7  1  0.000000  0.753275  0.750000  1
  Ce  Ce8  1  0.333333  0.666667  0.000000  1
  Ce  Ce9  1  0.666667  0.333333  0.000000  1
  Hg  Hg10  1  0.402656  0.402656  0.250000  1
  Hg  Hg11  1  0.597344  0.597344  0.750000  1
  Hg  Hg12  1  0.000000  0.402656  0.750000  1
  Hg  Hg13  1  0.597344  0.000000  0.250000  1
  Hg  Hg14  1  0.402656  0.000000  0.750000  1
  Hg  Hg15  1  0.000000  0.597344  0.250000  1
  Os  Os16  1  0.000000  0.000000  0.000000  1
  Os  Os17  1  0.000000  0.000000  0.500000  1
