# generated using pymatgen
data_Li2Co7Ni2P7W3
_symmetry_space_group_name_H-M   'P 1'
_cell_length_a   8.99514867
_cell_length_b   8.99792021
_cell_length_c   3.65295700
_cell_angle_alpha   90.00000000
_cell_angle_beta   90.00000000
_cell_angle_gamma   119.82202327
_symmetry_Int_Tables_number   1
_chemical_formula_structural   Li2Co7Ni2P7W3
_chemical_formula_sum   'Li2 Co7 Ni2 P7 W3'
_cell_volume   256.50849569
_cell_formula_units_Z   1
loop_
 _symmetry_equiv_pos_site_id
 _symmetry_equiv_pos_as_xyz
  1  'x, y, z'
loop_
 _atom_site_type_symbol
 _atom_site_label
 _atom_site_symmetry_multiplicity
 _atom_site_fract_x
 _atom_site_fract_y
 _atom_site_fract_z
 _atom_site_occupancy
  Li  Li0  1  0.334336  0.666258  0.000000  1
  Li  Li1  1  0.666094  0.336491  0.500000  1
  Co  Co2  1  0.720145  0.882776  0.000000  1
  Co  Co3  1  0.164123  0.282575  0.000000  1
  Co  Co4  1  0.118579  0.834746  0.000000  1
  Co  Co5  1  0.629529  0.569040  0.000000  1
  Co  Co6  1  0.559881  0.951237  0.500000  1
  Co  Co7  1  0.391139  0.438213  0.500000  1
  Co  Co8  1  0.044465  0.606059  0.500000  1
  Ni  Ni9  1  0.936569  0.370555  0.000000  1
  Ni  Ni10  1  0.432821  0.062335  0.000000  1
  P  P11  1  0.579770  0.711140  0.500000  1
  P  P12  1  0.136012  0.421830  0.500000  1
  P  P13  1  0.284592  0.861647  0.500000  1
  P  P14  1  0.002190  0.001044  0.000000  1
  P  P15  1  0.878526  0.580744  0.000000  1
  P  P16  1  0.697023  0.114894  0.000000  1
  P  P17  1  0.422207  0.306028  0.000000  1
  W  W18  1  0.873687  0.779759  0.500000  1
  W  W19  1  0.905611  0.128040  0.500000  1
  W  W20  1  0.222699  0.094593  0.500000  1
