# generated using pymatgen
data_Tb2Ta3P7Ir4Rh5
_symmetry_space_group_name_H-M   'P 1'
_cell_length_a   3.95702500
_cell_length_b   9.63837008
_cell_length_c   9.64392401
_cell_angle_alpha   120.02759964
_cell_angle_beta   89.99969839
_cell_angle_gamma   90.00031316
_symmetry_Int_Tables_number   1
_chemical_formula_structural   Tb2Ta3P7Ir4Rh5
_chemical_formula_sum   'Tb2 Ta3 P7 Ir4 Rh5'
_cell_volume   318.44611390
_cell_formula_units_Z   1
loop_
 _symmetry_equiv_pos_site_id
 _symmetry_equiv_pos_as_xyz
  1  'x, y, z'
loop_
 _atom_site_type_symbol
 _atom_site_label
 _atom_site_symmetry_multiplicity
 _atom_site_fract_x
 _atom_site_fract_y
 _atom_site_fract_z
 _atom_site_occupancy
  Tb  Tb0  1  0.261525  0.666738  0.333557  1
  Tb  Tb1  1  0.762088  0.333433  0.666860  1
  Ta  Ta2  1  0.761947  0.095045  0.871903  1
  Ta  Ta3  1  0.761971  0.129393  0.223120  1
  Ta  Ta4  1  0.761956  0.777037  0.905012  1
  P  P5  1  0.262126  0.999430  0.999555  1
  P  P6  1  0.761766  0.876967  0.588602  1
  P  P7  1  0.761732  0.411407  0.287636  1
  P  P8  1  0.761775  0.712572  0.123532  1
  P  P9  1  0.261980  0.117323  0.417027  1
  P  P10  1  0.261988  0.583168  0.702034  1
  P  P11  1  0.261980  0.298627  0.881665  1
  Ir  Ir12  1  0.261879  0.887315  0.160689  1
  Ir  Ir13  1  0.261864  0.838773  0.725749  1
  Ir  Ir14  1  0.261869  0.273297  0.112646  1
  Ir  Ir15  1  0.261983  0.366089  0.439830  1
  Rh  Rh16  1  0.761885  0.611537  0.555376  1
  Rh  Rh17  1  0.761883  0.443710  0.055318  1
  Rh  Rh18  1  0.761877  0.945772  0.388743  1
  Rh  Rh19  1  0.261964  0.561156  0.928869  1
  Rh  Rh20  1  0.261962  0.071212  0.632277  1
