# generated using pymatgen
data_U2TaTcC4
_symmetry_space_group_name_H-M   'P 1'
_cell_length_a   3.24187400
_cell_length_b   5.65636100
_cell_length_c   11.09535000
_cell_angle_alpha   90.00000000
_cell_angle_beta   90.00000000
_cell_angle_gamma   90.00000000
_symmetry_Int_Tables_number   1
_chemical_formula_structural   U2TaTcC4
_chemical_formula_sum   'U4 Ta2 Tc2 C8'
_cell_volume   203.45775921
_cell_formula_units_Z   2
loop_
 _symmetry_equiv_pos_site_id
 _symmetry_equiv_pos_as_xyz
  1  'x, y, z'
loop_
 _atom_site_type_symbol
 _atom_site_label
 _atom_site_symmetry_multiplicity
 _atom_site_fract_x
 _atom_site_fract_y
 _atom_site_fract_z
 _atom_site_occupancy
  U  U0  1  0.250000  0.079071  0.855595  1
  U  U1  1  0.250000  0.579071  0.644405  1
  U  U2  1  0.750000  0.918697  0.140626  1
  U  U3  1  0.750000  0.418697  0.359374  1
  Ta  Ta4  1  0.250000  0.420271  0.098873  1
  Ta  Ta5  1  0.250000  0.920271  0.401127  1
  Tc  Tc6  1  0.750000  0.579263  0.896213  1
  Tc  Tc7  1  0.750000  0.079263  0.603787  1
  C  C8  1  0.250000  0.160832  0.243091  1
  C  C9  1  0.250000  0.660832  0.256909  1
  C  C10  1  0.750000  0.843968  0.754312  1
  C  C11  1  0.750000  0.343968  0.745688  1
  C  C12  1  0.250000  0.752331  0.990740  1
  C  C13  1  0.250000  0.252331  0.509260  1
  C  C14  1  0.750000  0.245566  0.002523  1
  C  C15  1  0.750000  0.745566  0.497477  1
