# generated using pymatgen
data_CeHoEr6(CdRu)2
_symmetry_space_group_name_H-M   'P 1'
_cell_length_a   9.66956380
_cell_length_b   9.55796287
_cell_length_c   9.55744758
_cell_angle_alpha   59.61841490
_cell_angle_beta   59.61119010
_cell_angle_gamma   59.61300166
_symmetry_Int_Tables_number   1
_chemical_formula_structural   CeHoEr6(CdRu)2
_chemical_formula_sum   'Ce2 Ho2 Er12 Cd4 Ru4'
_cell_volume   619.11948314
_cell_formula_units_Z   2
loop_
 _symmetry_equiv_pos_site_id
 _symmetry_equiv_pos_as_xyz
  1  'x, y, z'
loop_
 _atom_site_type_symbol
 _atom_site_label
 _atom_site_symmetry_multiplicity
 _atom_site_fract_x
 _atom_site_fract_y
 _atom_site_fract_z
 _atom_site_occupancy
  Ce  Ce0  1  0.970071  0.341144  0.341357  1
  Ce  Ce1  1  0.347428  0.341144  0.341357  1
  Ho  Ho2  1  0.563312  0.562187  0.937128  1
  Ho  Ho3  1  0.937373  0.562187  0.937128  1
  Er  Er4  1  0.561567  0.938694  0.938172  1
  Er  Er5  1  0.937166  0.937546  0.561739  1
  Er  Er6  1  0.563548  0.937546  0.561739  1
  Er  Er7  1  0.939514  0.560680  0.560293  1
  Er  Er8  1  0.190389  0.187588  0.812591  1
  Er  Er9  1  0.809431  0.187588  0.812591  1
  Er  Er10  1  0.188119  0.812011  0.811751  1
  Er  Er11  1  0.809264  0.812604  0.187956  1
  Er  Er12  1  0.190176  0.812603  0.187955  1
  Er  Er13  1  0.811635  0.188073  0.188657  1
  Er  Er14  1  0.348397  0.349997  0.953211  1
  Er  Er15  1  0.348432  0.952834  0.350303  1
  Cd  Cd16  1  0.582213  0.579213  0.256358  1
  Cd  Cd17  1  0.582465  0.255789  0.579278  1
  Cd  Cd18  1  0.259873  0.579684  0.579510  1
  Cd  Cd19  1  0.580931  0.579684  0.579510  1
  Ru  Ru20  1  0.136915  0.152722  0.573447  1
  Ru  Ru21  1  0.136906  0.573756  0.152430  1
  Ru  Ru22  1  0.572633  0.147362  0.147767  1
  Ru  Ru23  1  0.132238  0.147362  0.147767  1
