# generated using pymatgen
data_YbAg5IrO6
_symmetry_space_group_name_H-M   'P 1'
_cell_length_a   5.81985600
_cell_length_b   5.81985538
_cell_length_c   12.74764900
_cell_angle_alpha   90.00000000
_cell_angle_beta   90.00000000
_cell_angle_gamma   119.99999217
_symmetry_Int_Tables_number   1
_chemical_formula_structural   YbAg5IrO6
_chemical_formula_sum   'Yb2 Ag10 Ir2 O12'
_cell_volume   373.92559595
_cell_formula_units_Z   2
loop_
 _symmetry_equiv_pos_site_id
 _symmetry_equiv_pos_as_xyz
  1  'x, y, z'
loop_
 _atom_site_type_symbol
 _atom_site_label
 _atom_site_symmetry_multiplicity
 _atom_site_fract_x
 _atom_site_fract_y
 _atom_site_fract_z
 _atom_site_occupancy
  Yb  Yb0  1  0.666667  0.333333  0.750000  1
  Yb  Yb1  1  0.333333  0.666667  0.250000  1
  Ag  Ag2  1  0.000000  0.000000  0.887456  1
  Ag  Ag3  1  0.000000  0.000000  0.387456  1
  Ag  Ag4  1  0.000000  0.000000  0.112544  1
  Ag  Ag5  1  0.000000  0.000000  0.612544  1
  Ag  Ag6  1  0.500000  0.500000  0.000000  1
  Ag  Ag7  1  0.000000  0.500000  0.000000  1
  Ag  Ag8  1  0.500000  0.000000  0.000000  1
  Ag  Ag9  1  0.000000  0.500000  0.500000  1
  Ag  Ag10  1  0.500000  0.000000  0.500000  1
  Ag  Ag11  1  0.500000  0.500000  0.500000  1
  Ir  Ir12  1  0.333333  0.666667  0.750000  1
  Ir  Ir13  1  0.666667  0.333333  0.250000  1
  O  O14  1  0.595723  0.638694  0.839676  1
  O  O15  1  0.042971  0.404277  0.839676  1
  O  O16  1  0.361306  0.957029  0.839676  1
  O  O17  1  0.957029  0.361306  0.339676  1
  O  O18  1  0.404277  0.042971  0.339676  1
  O  O19  1  0.638694  0.595723  0.339676  1
  O  O20  1  0.404277  0.361306  0.160324  1
  O  O21  1  0.957029  0.595723  0.160324  1
  O  O22  1  0.638694  0.042971  0.160324  1
  O  O23  1  0.042971  0.638694  0.660324  1
  O  O24  1  0.595723  0.957029  0.660324  1
  O  O25  1  0.361306  0.404277  0.660324  1
