# generated using pymatgen
data_Th4Ge3Pd4Pb
_symmetry_space_group_name_H-M   'P 1'
_cell_length_a   4.45594700
_cell_length_b   7.75928062
_cell_length_c   7.86361300
_cell_angle_alpha   90.13526319
_cell_angle_beta   90.00000000
_cell_angle_gamma   90.00000000
_symmetry_Int_Tables_number   1
_chemical_formula_structural   Th4Ge3Pd4Pb
_chemical_formula_sum   'Th4 Ge3 Pd4 Pb1'
_cell_volume   271.88321527
_cell_formula_units_Z   1
loop_
 _symmetry_equiv_pos_site_id
 _symmetry_equiv_pos_as_xyz
  1  'x, y, z'
loop_
 _atom_site_type_symbol
 _atom_site_label
 _atom_site_symmetry_multiplicity
 _atom_site_fract_x
 _atom_site_fract_y
 _atom_site_fract_z
 _atom_site_occupancy
  Th  Th0  1  0.750000  0.001959  0.752827  1
  Th  Th1  1  0.750000  0.492426  0.767655  1
  Th  Th2  1  0.250000  0.996153  0.251628  1
  Th  Th3  1  0.250000  0.483159  0.222911  1
  Ge  Ge4  1  0.250000  0.728653  0.919627  1
  Ge  Ge5  1  0.250000  0.225418  0.575982  1
  Ge  Ge6  1  0.750000  0.219114  0.088755  1
  Pd  Pd7  1  0.750000  0.786221  0.070686  1
  Pd  Pd8  1  0.250000  0.797894  0.605765  1
  Pd  Pd9  1  0.250000  0.259686  0.910215  1
  Pd  Pd10  1  0.750000  0.297842  0.416946  1
  Pb  Pb11  1  0.750000  0.711473  0.417001  1
