# generated using pymatgen
data_Sr4TbSi12Ir19
_symmetry_space_group_name_H-M   'P 1'
_cell_length_a   12.93380600
_cell_length_b   12.93380688
_cell_length_c   4.05675700
_cell_angle_alpha   90.00000000
_cell_angle_beta   90.00000000
_cell_angle_gamma   120.00000287
_symmetry_Int_Tables_number   1
_chemical_formula_structural   Sr4TbSi12Ir19
_chemical_formula_sum   'Sr4 Tb1 Si12 Ir19'
_cell_volume   587.70898156
_cell_formula_units_Z   1
loop_
 _symmetry_equiv_pos_site_id
 _symmetry_equiv_pos_as_xyz
  1  'x, y, z'
loop_
 _atom_site_type_symbol
 _atom_site_label
 _atom_site_symmetry_multiplicity
 _atom_site_fract_x
 _atom_site_fract_y
 _atom_site_fract_z
 _atom_site_occupancy
  Sr  Sr0  1  0.000082  0.817416  0.500000  1
  Sr  Sr1  1  0.182584  0.182666  0.500000  1
  Sr  Sr2  1  0.817334  0.999918  0.500000  1
  Sr  Sr3  1  0.666667  0.333333  0.000000  1
  Tb  Tb4  1  0.333333  0.666667  0.000000  1
  Si  Si5  1  0.000753  0.186820  0.000000  1
  Si  Si6  1  0.813180  0.813933  0.000000  1
  Si  Si7  1  0.186067  0.999247  0.000000  1
  Si  Si8  1  0.519386  0.689507  0.500000  1
  Si  Si9  1  0.310493  0.829878  0.500000  1
  Si  Si10  1  0.170122  0.480614  0.500000  1
  Si  Si11  1  0.478799  0.167313  0.500000  1
  Si  Si12  1  0.688514  0.521201  0.500000  1
  Si  Si13  1  0.832687  0.311486  0.500000  1
  Si  Si14  1  0.999350  0.628848  0.000000  1
  Si  Si15  1  0.371152  0.370502  0.000000  1
  Si  Si16  1  0.629498  0.000650  0.000000  1
  Ir  Ir17  1  0.001402  0.287677  0.500000  1
  Ir  Ir18  1  0.712323  0.713725  0.500000  1
  Ir  Ir19  1  0.286275  0.998598  0.500000  1
  Ir  Ir20  1  0.617132  0.802805  0.000000  1
  Ir  Ir21  1  0.197195  0.814327  0.000000  1
  Ir  Ir22  1  0.185673  0.382868  0.000000  1
  Ir  Ir23  1  0.379858  0.182746  0.000000  1
  Ir  Ir24  1  0.802888  0.620142  0.000000  1
  Ir  Ir25  1  0.817254  0.197112  0.000000  1
  Ir  Ir26  1  0.509228  0.872052  0.500000  1
  Ir  Ir27  1  0.127948  0.637176  0.500000  1
  Ir  Ir28  1  0.362824  0.490772  0.500000  1
  Ir  Ir29  1  0.484800  0.362306  0.500000  1
  Ir  Ir30  1  0.877505  0.515200  0.500000  1
  Ir  Ir31  1  0.637694  0.122495  0.500000  1
  Ir  Ir32  1  0.000000  0.000000  0.000000  1
  Ir  Ir33  1  0.001944  0.448676  0.000000  1
  Ir  Ir34  1  0.551324  0.553268  0.000000  1
  Ir  Ir35  1  0.446732  0.998056  0.000000  1
