# generated using pymatgen
data_Tb2Ce2SmSn3Au
_symmetry_space_group_name_H-M   'P 1'
_cell_length_a   9.48318200
_cell_length_b   9.48192707
_cell_length_c   6.49974000
_cell_angle_alpha   90.00119695
_cell_angle_beta   89.99689312
_cell_angle_gamma   120.00437121
_symmetry_Int_Tables_number   1
_chemical_formula_structural   Tb2Ce2SmSn3Au
_chemical_formula_sum   'Tb4 Ce4 Sm2 Sn6 Au2'
_cell_volume   506.12545599
_cell_formula_units_Z   2
loop_
 _symmetry_equiv_pos_site_id
 _symmetry_equiv_pos_as_xyz
  1  'x, y, z'
loop_
 _atom_site_type_symbol
 _atom_site_label
 _atom_site_symmetry_multiplicity
 _atom_site_fract_x
 _atom_site_fract_y
 _atom_site_fract_z
 _atom_site_occupancy
  Tb  Tb0  1  0.000799  0.271629  0.750051  1
  Tb  Tb1  1  0.998883  0.728194  0.249959  1
  Tb  Tb2  1  0.729310  0.728205  0.750042  1
  Tb  Tb3  1  0.270833  0.271627  0.249942  1
  Ce  Ce4  1  0.333061  0.666126  0.500004  1
  Ce  Ce5  1  0.666944  0.333881  0.499989  1
  Ce  Ce6  1  0.666942  0.333883  0.000006  1
  Ce  Ce7  1  0.333055  0.666106  0.999989  1
  Sm  Sm8  1  0.273165  0.000191  0.750002  1
  Sm  Sm9  1  0.727024  0.000194  0.249985  1
  Sn  Sn10  1  0.622676  0.000216  0.750113  1
  Sn  Sn11  1  0.377470  0.000191  0.249830  1
  Sn  Sn12  1  0.998795  0.618487  0.750079  1
  Sn  Sn13  1  0.000828  0.381308  0.249943  1
  Sn  Sn14  1  0.380535  0.381300  0.750125  1
  Sn  Sn15  1  0.619688  0.618482  0.249953  1
  Au  Au16  1  0.999996  0.999984  0.499994  1
  Au  Au17  1  0.999997  0.999997  0.999994  1
