# generated using pymatgen
data_Ho8Ti11Si16W
_symmetry_space_group_name_H-M   'P 1'
_cell_length_a   7.02747186
_cell_length_b   7.02747186
_cell_length_c   12.91621476
_cell_angle_alpha   89.95776434
_cell_angle_beta   90.04223566
_cell_angle_gamma   90.03762624
_symmetry_Int_Tables_number   1
_chemical_formula_structural   Ho8Ti11Si16W
_chemical_formula_sum   'Ho8 Ti11 Si16 W1'
_cell_volume   637.87144038
_cell_formula_units_Z   1
loop_
 _symmetry_equiv_pos_site_id
 _symmetry_equiv_pos_as_xyz
  1  'x, y, z'
loop_
 _atom_site_type_symbol
 _atom_site_label
 _atom_site_symmetry_multiplicity
 _atom_site_fract_x
 _atom_site_fract_y
 _atom_site_fract_z
 _atom_site_occupancy
  Ho  Ho0  1  0.340990  0.003006  0.466862  1
  Ho  Ho1  1  0.497116  0.840641  0.717067  1
  Ho  Ho2  1  0.501718  0.159282  0.215756  1
  Ho  Ho3  1  0.840641  0.497116  0.282933  1
  Ho  Ho4  1  0.159282  0.501718  0.784244  1
  Ho  Ho5  1  0.657921  0.998204  0.966953  1
  Ho  Ho6  1  0.003006  0.340990  0.533138  1
  Ho  Ho7  1  0.998204  0.657921  0.033047  1
  Ti  Ti8  1  0.173711  0.827273  0.249725  1
  Ti  Ti9  1  0.827273  0.173711  0.750275  1
  Ti  Ti10  1  0.672986  0.672986  0.500000  1
  Ti  Ti11  1  0.153143  0.008717  0.876362  1
  Ti  Ti12  1  0.492044  0.650811  0.124609  1
  Ti  Ti13  1  0.507130  0.348899  0.626103  1
  Ti  Ti14  1  0.650811  0.492044  0.875391  1
  Ti  Ti15  1  0.348899  0.507130  0.373897  1
  Ti  Ti16  1  0.848506  0.992611  0.375782  1
  Ti  Ti17  1  0.008717  0.153143  0.123638  1
  Ti  Ti18  1  0.992611  0.848506  0.624218  1
  Si  Si19  1  0.202482  0.131105  0.684257  1
  Si  Si20  1  0.369147  0.701171  0.934250  1
  Si  Si21  1  0.631000  0.297249  0.434221  1
  Si  Si22  1  0.701171  0.369147  0.065750  1
  Si  Si23  1  0.297249  0.631000  0.565779  1
  Si  Si24  1  0.797222  0.868825  0.184373  1
  Si  Si25  1  0.131105  0.202482  0.315743  1
  Si  Si26  1  0.868825  0.797222  0.815627  1
  Si  Si27  1  0.291129  0.954126  0.064823  1
  Si  Si28  1  0.546751  0.791410  0.315022  1
  Si  Si29  1  0.452478  0.208493  0.815424  1
  Si  Si30  1  0.791410  0.546751  0.684978  1
  Si  Si31  1  0.208493  0.452478  0.184576  1
  Si  Si32  1  0.708814  0.047272  0.564834  1
  Si  Si33  1  0.954126  0.291129  0.935177  1
  Si  Si34  1  0.047272  0.708814  0.435166  1
  W  W35  1  0.326617  0.326617  0.000000  1
