# generated using pymatgen
data_Dy2Er3Bi2Pt
_symmetry_space_group_name_H-M   'P 1'
_cell_length_a   8.03596100
_cell_length_b   8.99105700
_cell_length_c   12.41261700
_cell_angle_alpha   90.00000000
_cell_angle_beta   90.00000000
_cell_angle_gamma   90.00000000
_symmetry_Int_Tables_number   1
_chemical_formula_structural   Dy2Er3Bi2Pt
_chemical_formula_sum   'Dy8 Er12 Bi8 Pt4'
_cell_volume   896.83371492
_cell_formula_units_Z   4
loop_
 _symmetry_equiv_pos_site_id
 _symmetry_equiv_pos_as_xyz
  1  'x, y, z'
loop_
 _atom_site_type_symbol
 _atom_site_label
 _atom_site_symmetry_multiplicity
 _atom_site_fract_x
 _atom_site_fract_y
 _atom_site_fract_z
 _atom_site_occupancy
  Dy  Dy0  1  0.664695  0.750000  0.710383  1
  Dy  Dy1  1  0.335305  0.250000  0.289617  1
  Dy  Dy2  1  0.164695  0.250000  0.789617  1
  Dy  Dy3  1  0.835305  0.750000  0.210383  1
  Dy  Dy4  1  0.131984  0.750000  0.806728  1
  Dy  Dy5  1  0.868016  0.250000  0.193272  1
  Dy  Dy6  1  0.631984  0.250000  0.693272  1
  Dy  Dy7  1  0.368016  0.750000  0.306728  1
  Er  Er8  1  0.551284  0.750000  0.999237  1
  Er  Er9  1  0.448716  0.250000  0.000763  1
  Er  Er10  1  0.051284  0.250000  0.500763  1
  Er  Er11  1  0.948716  0.750000  0.499237  1
  Er  Er12  1  0.823650  0.454001  0.931283  1
  Er  Er13  1  0.176350  0.545999  0.068717  1
  Er  Er14  1  0.323650  0.545999  0.568717  1
  Er  Er15  1  0.176350  0.954001  0.068717  1
  Er  Er16  1  0.676350  0.454001  0.431283  1
  Er  Er17  1  0.823650  0.045999  0.931283  1
  Er  Er18  1  0.676350  0.045999  0.431283  1
  Er  Er19  1  0.323650  0.954001  0.568717  1
  Bi  Bi20  1  0.936126  0.007451  0.672177  1
  Bi  Bi21  1  0.063874  0.992549  0.327823  1
  Bi  Bi22  1  0.436126  0.992549  0.827823  1
  Bi  Bi23  1  0.063874  0.507451  0.327823  1
  Bi  Bi24  1  0.563874  0.007451  0.172177  1
  Bi  Bi25  1  0.936126  0.492549  0.672177  1
  Bi  Bi26  1  0.563874  0.492549  0.172177  1
  Bi  Bi27  1  0.436126  0.507451  0.827823  1
  Pt  Pt28  1  0.923755  0.750000  0.989878  1
  Pt  Pt29  1  0.076245  0.250000  0.010122  1
  Pt  Pt30  1  0.423755  0.250000  0.510122  1
  Pt  Pt31  1  0.576245  0.750000  0.489878  1
