# generated using pymatgen
data_Pr4Si4Ir3Pt
_symmetry_space_group_name_H-M   'P 1'
_cell_length_a   6.39525154
_cell_length_b   6.39525154
_cell_length_c   6.39525154
_cell_angle_alpha   89.80474047
_cell_angle_beta   89.80474047
_cell_angle_gamma   89.80474047
_symmetry_Int_Tables_number   1
_chemical_formula_structural   Pr4Si4Ir3Pt
_chemical_formula_sum   'Pr4 Si4 Ir3 Pt1'
_cell_volume   261.55639538
_cell_formula_units_Z   1
loop_
 _symmetry_equiv_pos_site_id
 _symmetry_equiv_pos_as_xyz
  1  'x, y, z'
loop_
 _atom_site_type_symbol
 _atom_site_label
 _atom_site_symmetry_multiplicity
 _atom_site_fract_x
 _atom_site_fract_y
 _atom_site_fract_z
 _atom_site_occupancy
  Pr  Pr0  1  0.383317  0.383317  0.383317  1
  Pr  Pr1  1  0.120117  0.614756  0.879512  1
  Pr  Pr2  1  0.614756  0.879512  0.120117  1
  Pr  Pr3  1  0.879512  0.120117  0.614756  1
  Si  Si4  1  0.665613  0.665613  0.665613  1
  Si  Si5  1  0.831070  0.338150  0.165287  1
  Si  Si6  1  0.338150  0.165287  0.831070  1
  Si  Si7  1  0.165287  0.831070  0.338150  1
  Ir  Ir8  1  0.429933  0.929817  0.568524  1
  Ir  Ir9  1  0.929817  0.568524  0.429933  1
  Ir  Ir10  1  0.568524  0.429933  0.929817  1
  Pt  Pt11  1  0.073903  0.073903  0.073903  1
