# generated using pymatgen
data_Zr12Zn11GaN4
_symmetry_space_group_name_H-M   'P 1'
_cell_length_a   8.60692774
_cell_length_b   8.61212961
_cell_length_c   8.60692800
_cell_angle_alpha   60.01997769
_cell_angle_beta   59.99999901
_cell_angle_gamma   60.01997802
_symmetry_Int_Tables_number   1
_chemical_formula_structural   Zr12Zn11GaN4
_chemical_formula_sum   'Zr12 Zn11 Ga1 N4'
_cell_volume   451.25596819
_cell_formula_units_Z   1
loop_
 _symmetry_equiv_pos_site_id
 _symmetry_equiv_pos_as_xyz
  1  'x, y, z'
loop_
 _atom_site_type_symbol
 _atom_site_label
 _atom_site_symmetry_multiplicity
 _atom_site_fract_x
 _atom_site_fract_y
 _atom_site_fract_z
 _atom_site_occupancy
  Zr  Zr0  1  0.812966  0.186782  0.187285  1
  Zr  Zr1  1  0.186448  0.813670  0.186448  1
  Zr  Zr2  1  0.813435  0.813670  0.186448  1
  Zr  Zr3  1  0.186448  0.813670  0.813435  1
  Zr  Zr4  1  0.812966  0.186782  0.812966  1
  Zr  Zr5  1  0.187285  0.186782  0.812966  1
  Zr  Zr6  1  0.437034  0.063218  0.062715  1
  Zr  Zr7  1  0.063552  0.436330  0.063552  1
  Zr  Zr8  1  0.436565  0.436330  0.063552  1
  Zr  Zr9  1  0.063552  0.436330  0.436565  1
  Zr  Zr10  1  0.437034  0.063218  0.437034  1
  Zr  Zr11  1  0.062715  0.063218  0.437034  1
  Zn  Zn12  1  0.416567  0.423367  0.743498  1
  Zn  Zn13  1  0.416567  0.423367  0.416567  1
  Zn  Zn14  1  0.743498  0.423367  0.416567  1
  Zn  Zn15  1  0.418536  0.744391  0.418536  1
  Zn  Zn16  1  0.833433  0.826633  0.506502  1
  Zn  Zn17  1  0.833433  0.826633  0.833433  1
  Zn  Zn18  1  0.506502  0.826633  0.833433  1
  Zn  Zn19  1  0.831464  0.505609  0.831464  1
  Zn  Zn20  1  0.625000  0.625000  0.125000  1
  Zn  Zn21  1  0.625000  0.625000  0.625000  1
  Zn  Zn22  1  0.125000  0.625000  0.625000  1
  Ga  Ga23  1  0.625000  0.125000  0.625000  1
  N  N24  1  0.125000  0.125000  0.625000  1
  N  N25  1  0.125000  0.125000  0.125000  1
  N  N26  1  0.625000  0.125000  0.125000  1
  N  N27  1  0.125000  0.625000  0.125000  1
