# generated using pymatgen
data_NdSm5RuBr10
_symmetry_space_group_name_H-M   'P 1'
_cell_length_a   7.58385619
_cell_length_b   9.29907760
_cell_length_c   9.59064111
_cell_angle_alpha   108.76058630
_cell_angle_beta   96.83552230
_cell_angle_gamma   105.84253069
_symmetry_Int_Tables_number   1
_chemical_formula_structural   NdSm5RuBr10
_chemical_formula_sum   'Nd1 Sm5 Ru1 Br10'
_cell_volume   600.00864530
_cell_formula_units_Z   1
loop_
 _symmetry_equiv_pos_site_id
 _symmetry_equiv_pos_as_xyz
  1  'x, y, z'
loop_
 _atom_site_type_symbol
 _atom_site_label
 _atom_site_symmetry_multiplicity
 _atom_site_fract_x
 _atom_site_fract_y
 _atom_site_fract_z
 _atom_site_occupancy
  Nd  Nd0  1  0.972183  0.289035  0.089875  1
  Sm  Sm1  1  0.130068  0.051088  0.750688  1
  Sm  Sm2  1  0.629218  0.855076  0.812645  1
  Sm  Sm3  1  0.868818  0.949244  0.249133  1
  Sm  Sm4  1  0.028736  0.714861  0.911690  1
  Sm  Sm5  1  0.370214  0.143145  0.186868  1
  Ru  Ru6  1  0.999484  0.001068  0.000263  1
  Br  Br7  1  0.202877  0.742640  0.652450  1
  Br  Br8  1  0.647767  0.540545  0.727027  1
  Br  Br9  1  0.248861  0.081780  0.453096  1
  Br  Br10  1  0.793543  0.255468  0.349321  1
  Br  Br11  1  0.550958  0.174639  0.919105  1
  Br  Br12  1  0.749790  0.916479  0.546482  1
  Br  Br13  1  0.910499  0.631487  0.168421  1
  Br  Br14  1  0.359397  0.459977  0.274760  1
  Br  Br15  1  0.090993  0.370539  0.829012  1
  Br  Br16  1  0.446594  0.822929  0.079162  1
