# generated using pymatgen
data_Yb3MnZnO6
_symmetry_space_group_name_H-M   'P 1'
_cell_length_a   6.29341859
_cell_length_b   6.29341888
_cell_length_c   6.29341902
_cell_angle_alpha   91.39543467
_cell_angle_beta   91.39543659
_cell_angle_gamma   91.39544290
_symmetry_Int_Tables_number   1
_chemical_formula_structural   Yb3MnZnO6
_chemical_formula_sum   'Yb6 Mn2 Zn2 O12'
_cell_volume   249.03875833
_cell_formula_units_Z   2
loop_
 _symmetry_equiv_pos_site_id
 _symmetry_equiv_pos_as_xyz
  1  'x, y, z'
loop_
 _atom_site_type_symbol
 _atom_site_label
 _atom_site_symmetry_multiplicity
 _atom_site_fract_x
 _atom_site_fract_y
 _atom_site_fract_z
 _atom_site_occupancy
  Yb  Yb0  1  0.250000  0.613526  0.886474  1
  Yb  Yb1  1  0.386474  0.113526  0.750000  1
  Yb  Yb2  1  0.113526  0.750000  0.386474  1
  Yb  Yb3  1  0.750000  0.386474  0.113526  1
  Yb  Yb4  1  0.613526  0.886474  0.250000  1
  Yb  Yb5  1  0.886474  0.250000  0.613526  1
  Mn  Mn6  1  0.500000  0.500000  0.500000  1
  Mn  Mn7  1  0.000000  0.000000  0.000000  1
  Zn  Zn8  1  0.750000  0.750000  0.750000  1
  Zn  Zn9  1  0.250000  0.250000  0.250000  1
  O  O10  1  0.550395  0.209664  0.417472  1
  O  O11  1  0.449605  0.790336  0.582528  1
  O  O12  1  0.790336  0.582528  0.449605  1
  O  O13  1  0.582528  0.449605  0.790336  1
  O  O14  1  0.709664  0.050395  0.917472  1
  O  O15  1  0.050395  0.917472  0.709664  1
  O  O16  1  0.082528  0.290336  0.949605  1
  O  O17  1  0.949605  0.082528  0.290336  1
  O  O18  1  0.290336  0.949605  0.082528  1
  O  O19  1  0.417472  0.550395  0.209664  1
  O  O20  1  0.209664  0.417472  0.550395  1
  O  O21  1  0.917472  0.709664  0.050395  1
