# generated using pymatgen
data_Cs(IrS2)2
_symmetry_space_group_name_H-M   'P 1'
_cell_length_a   6.26143400
_cell_length_b   7.28080300
_cell_length_c   15.74130800
_cell_angle_alpha   90.00000000
_cell_angle_beta   90.00000000
_cell_angle_gamma   90.00000000
_symmetry_Int_Tables_number   1
_chemical_formula_structural   Cs(IrS2)2
_chemical_formula_sum   'Cs4 Ir8 S16'
_cell_volume   717.61895914
_cell_formula_units_Z   4
loop_
 _symmetry_equiv_pos_site_id
 _symmetry_equiv_pos_as_xyz
  1  'x, y, z'
loop_
 _atom_site_type_symbol
 _atom_site_label
 _atom_site_symmetry_multiplicity
 _atom_site_fract_x
 _atom_site_fract_y
 _atom_site_fract_z
 _atom_site_occupancy
  Cs  Cs0  1  0.351291  0.000000  0.000000  1
  Cs  Cs1  1  0.648709  0.500000  0.500000  1
  Cs  Cs2  1  0.033634  0.000000  0.500000  1
  Cs  Cs3  1  0.966366  0.500000  0.000000  1
  Ir  Ir4  1  0.001802  0.000000  0.249714  1
  Ir  Ir5  1  0.001802  0.000000  0.750286  1
  Ir  Ir6  1  0.998198  0.500000  0.250286  1
  Ir  Ir7  1  0.998198  0.500000  0.749714  1
  Ir  Ir8  1  0.500000  0.250000  0.250000  1
  Ir  Ir9  1  0.500000  0.750000  0.750000  1
  Ir  Ir10  1  0.500000  0.750000  0.250000  1
  Ir  Ir11  1  0.500000  0.250000  0.750000  1
  S  S12  1  0.835019  0.249225  0.323947  1
  S  S13  1  0.835019  0.750775  0.676053  1
  S  S14  1  0.164981  0.749225  0.176053  1
  S  S15  1  0.164981  0.250775  0.823947  1
  S  S16  1  0.164981  0.250775  0.176053  1
  S  S17  1  0.164981  0.749225  0.823947  1
  S  S18  1  0.835019  0.750775  0.323947  1
  S  S19  1  0.835019  0.249225  0.676053  1
  S  S20  1  0.668048  0.000000  0.176400  1
  S  S21  1  0.668048  0.000000  0.823600  1
  S  S22  1  0.331952  0.500000  0.323600  1
  S  S23  1  0.331952  0.500000  0.676400  1
  S  S24  1  0.337906  0.000000  0.323086  1
  S  S25  1  0.337906  0.000000  0.676914  1
  S  S26  1  0.662094  0.500000  0.176914  1
  S  S27  1  0.662094  0.500000  0.823086  1
