# generated using pymatgen
data_GeSe14
_symmetry_space_group_name_H-M   'P 1'
_cell_length_a   10.20986540
_cell_length_b   10.20986640
_cell_length_c   17.31723747
_cell_angle_alpha   81.17929768
_cell_angle_beta   81.17929958
_cell_angle_gamma   128.72328589
_symmetry_Int_Tables_number   1
_chemical_formula_structural   GeSe14
_chemical_formula_sum   'Ge2 Se28'
_cell_volume   1316.94473225
_cell_formula_units_Z   2
loop_
 _symmetry_equiv_pos_site_id
 _symmetry_equiv_pos_as_xyz
  1  'x, y, z'
loop_
 _atom_site_type_symbol
 _atom_site_label
 _atom_site_symmetry_multiplicity
 _atom_site_fract_x
 _atom_site_fract_y
 _atom_site_fract_z
 _atom_site_occupancy
  Ge  Ge0  1  0.029045  0.962588  0.317546  1
  Ge  Ge1  1  0.962588  0.029045  0.817546  1
  Se  Se2  1  0.924104  0.395246  0.032872  1
  Se  Se3  1  0.799786  0.639399  0.950518  1
  Se  Se4  1  0.425068  0.082333  0.058274  1
  Se  Se5  1  0.395246  0.924104  0.532872  1
  Se  Se6  1  0.082333  0.425068  0.558274  1
  Se  Se7  1  0.639399  0.799786  0.450518  1
  Se  Se8  1  0.610456  0.454593  0.416482  1
  Se  Se9  1  0.613006  0.013970  0.412411  1
  Se  Se10  1  0.454593  0.610456  0.916482  1
  Se  Se11  1  0.013970  0.613006  0.912411  1
  Se  Se12  1  0.430082  0.589346  0.134276  1
  Se  Se13  1  0.294670  0.917566  0.200390  1
  Se  Se14  1  0.150006  0.392588  0.236476  1
  Se  Se15  1  0.589346  0.430082  0.634276  1
  Se  Se16  1  0.392588  0.150006  0.736476  1
  Se  Se17  1  0.917566  0.294670  0.700390  1
  Se  Se18  1  0.382532  0.701318  0.021646  1
  Se  Se19  1  0.701318  0.382532  0.521646  1
  Se  Se20  1  0.929764  0.947801  0.456333  1
  Se  Se21  1  0.947801  0.929764  0.956333  1
  Se  Se22  1  0.127668  0.686432  0.516078  1
  Se  Se23  1  0.686432  0.127668  0.016078  1
  Se  Se24  1  0.967675  0.105275  0.223585  1
  Se  Se25  1  0.876444  0.665661  0.304142  1
  Se  Se26  1  0.339186  0.106397  0.278971  1
  Se  Se27  1  0.105275  0.967675  0.723585  1
  Se  Se28  1  0.106397  0.339186  0.778971  1
  Se  Se29  1  0.665661  0.876444  0.804142  1
