# generated using pymatgen
data_Sc4MnAl6Ir
_symmetry_space_group_name_H-M   'P 1'
_cell_length_a   5.31768000
_cell_length_b   5.31768189
_cell_length_c   8.49047200
_cell_angle_alpha   90.00000000
_cell_angle_beta   90.00000000
_cell_angle_gamma   120.00001311
_symmetry_Int_Tables_number   1
_chemical_formula_structural   Sc4MnAl6Ir
_chemical_formula_sum   'Sc4 Mn1 Al6 Ir1'
_cell_volume   207.92512049
_cell_formula_units_Z   1
loop_
 _symmetry_equiv_pos_site_id
 _symmetry_equiv_pos_as_xyz
  1  'x, y, z'
loop_
 _atom_site_type_symbol
 _atom_site_label
 _atom_site_symmetry_multiplicity
 _atom_site_fract_x
 _atom_site_fract_y
 _atom_site_fract_z
 _atom_site_occupancy
  Sc  Sc0  1  0.333333  0.666667  0.056002  1
  Sc  Sc1  1  0.666667  0.333333  0.554270  1
  Sc  Sc2  1  0.333333  0.666667  0.445730  1
  Sc  Sc3  1  0.666667  0.333333  0.943998  1
  Mn  Mn4  1  0.000000  0.000000  0.500000  1
  Al  Al5  1  0.834138  0.668276  0.250649  1
  Al  Al6  1  0.165862  0.834138  0.749351  1
  Al  Al7  1  0.668276  0.834138  0.749351  1
  Al  Al8  1  0.331724  0.165862  0.250649  1
  Al  Al9  1  0.834138  0.165862  0.250649  1
  Al  Al10  1  0.165862  0.331724  0.749351  1
  Ir  Ir11  1  0.000000  0.000000  0.000000  1
