# generated using pymatgen
data_K6VIO5
_symmetry_space_group_name_H-M   'P 1'
_cell_length_a   7.75145530
_cell_length_b   7.75145556
_cell_length_c   7.75145600
_cell_angle_alpha   59.99999814
_cell_angle_beta   59.99999700
_cell_angle_gamma   60.00000160
_symmetry_Int_Tables_number   1
_chemical_formula_structural   K6VIO5
_chemical_formula_sum   'K6 V1 I1 O5'
_cell_volume   329.33264797
_cell_formula_units_Z   1
loop_
 _symmetry_equiv_pos_site_id
 _symmetry_equiv_pos_as_xyz
  1  'x, y, z'
loop_
 _atom_site_type_symbol
 _atom_site_label
 _atom_site_symmetry_multiplicity
 _atom_site_fract_x
 _atom_site_fract_y
 _atom_site_fract_z
 _atom_site_occupancy
  K  K0  1  0.486755  0.486755  0.013245  1
  K  K1  1  0.486756  0.013244  0.013244  1
  K  K2  1  0.013244  0.486756  0.013244  1
  K  K3  1  0.486755  0.013245  0.486755  1
  K  K4  1  0.013244  0.013244  0.486756  1
  K  K5  1  0.013245  0.486755  0.486755  1
  V  V6  1  0.500000  0.500000  0.500000  1
  I  I7  1  0.000000  0.000000  0.000000  1
  O  O8  1  0.592563  0.592563  0.222310  1
  O  O9  1  0.250000  0.250000  0.250000  1
  O  O10  1  0.592563  0.222310  0.592563  1
  O  O11  1  0.222310  0.592563  0.592563  1
  O  O12  1  0.592563  0.592563  0.592563  1
