# generated using pymatgen
data_Li2TbThSb4
_symmetry_space_group_name_H-M   'P 1'
_cell_length_a   4.34819300
_cell_length_b   4.34819300
_cell_length_c   10.67839000
_cell_angle_alpha   90.00000000
_cell_angle_beta   90.00000000
_cell_angle_gamma   90.00000000
_symmetry_Int_Tables_number   1
_chemical_formula_structural   Li2TbThSb4
_chemical_formula_sum   'Li2 Tb1 Th1 Sb4'
_cell_volume   201.89399574
_cell_formula_units_Z   1
loop_
 _symmetry_equiv_pos_site_id
 _symmetry_equiv_pos_as_xyz
  1  'x, y, z'
loop_
 _atom_site_type_symbol
 _atom_site_label
 _atom_site_symmetry_multiplicity
 _atom_site_fract_x
 _atom_site_fract_y
 _atom_site_fract_z
 _atom_site_occupancy
  Li  Li0  1  0.500000  0.500000  0.494819  1
  Li  Li1  1  0.000000  0.000000  0.494819  1
  Tb  Tb2  1  0.500000  0.000000  0.229674  1
  Th  Th3  1  0.000000  0.500000  0.772327  1
  Sb  Sb4  1  0.500000  0.500000  0.003649  1
  Sb  Sb5  1  0.000000  0.000000  0.003649  1
  Sb  Sb6  1  0.000000  0.500000  0.332335  1
  Sb  Sb7  1  0.500000  0.000000  0.668729  1
