# generated using pymatgen
data_PrSeBrO3
_symmetry_space_group_name_H-M   'P 1'
_cell_length_a   6.01273204
_cell_length_b   6.01273330
_cell_length_c   8.05058500
_cell_angle_alpha   102.50617184
_cell_angle_beta   102.50617452
_cell_angle_gamma   91.63140928
_symmetry_Int_Tables_number   1
_chemical_formula_structural   PrSeBrO3
_chemical_formula_sum   'Pr2 Se2 Br2 O6'
_cell_volume   276.53598980
_cell_formula_units_Z   2
loop_
 _symmetry_equiv_pos_site_id
 _symmetry_equiv_pos_as_xyz
  1  'x, y, z'
loop_
 _atom_site_type_symbol
 _atom_site_label
 _atom_site_symmetry_multiplicity
 _atom_site_fract_x
 _atom_site_fract_y
 _atom_site_fract_z
 _atom_site_occupancy
  Pr  Pr0  1  0.758640  0.241362  0.500001  1
  Pr  Pr1  1  0.241362  0.758640  0.500001  1
  Se  Se2  1  0.714098  0.714098  0.237863  1
  Se  Se3  1  0.285897  0.285897  0.762140  1
  Br  Br4  1  0.332185  0.332185  0.235417  1
  Br  Br5  1  0.667811  0.667811  0.764585  1
  O  O6  1  0.859122  0.539744  0.363787  1
  O  O7  1  0.539744  0.859122  0.363787  1
  O  O8  1  0.933805  0.933805  0.306161  1
  O  O9  1  0.066205  0.066205  0.693842  1
  O  O10  1  0.460258  0.140871  0.636206  1
  O  O11  1  0.140871  0.460258  0.636206  1
