# generated using pymatgen
data_Sc2Al2GaAu
_symmetry_space_group_name_H-M   'P 1'
_cell_length_a   6.78714800
_cell_length_b   6.78714786
_cell_length_c   8.33327400
_cell_angle_alpha   90.00000000
_cell_angle_beta   90.00000000
_cell_angle_gamma   119.99999095
_symmetry_Int_Tables_number   1
_chemical_formula_structural   Sc2Al2GaAu
_chemical_formula_sum   'Sc6 Al6 Ga3 Au3'
_cell_volume   332.44588598
_cell_formula_units_Z   3
loop_
 _symmetry_equiv_pos_site_id
 _symmetry_equiv_pos_as_xyz
  1  'x, y, z'
loop_
 _atom_site_type_symbol
 _atom_site_label
 _atom_site_symmetry_multiplicity
 _atom_site_fract_x
 _atom_site_fract_y
 _atom_site_fract_z
 _atom_site_occupancy
  Sc  Sc0  1  0.574040  0.000812  0.751105  1
  Sc  Sc1  1  0.999188  0.573227  0.751105  1
  Sc  Sc2  1  0.426773  0.425960  0.751105  1
  Sc  Sc3  1  0.998322  0.573347  0.248704  1
  Sc  Sc4  1  0.575025  0.001678  0.248704  1
  Sc  Sc5  1  0.426653  0.424975  0.248704  1
  Al  Al6  1  0.751180  0.756633  0.999718  1
  Al  Al7  1  0.243367  0.994547  0.999718  1
  Al  Al8  1  0.005453  0.248820  0.999718  1
  Al  Al9  1  0.753185  0.753790  0.499398  1
  Al  Al10  1  0.246210  0.999396  0.499398  1
  Al  Al11  1  0.000604  0.246815  0.499398  1
  Ga  Ga12  1  0.666667  0.333333  0.999282  1
  Ga  Ga13  1  0.666667  0.333333  0.500984  1
  Ga  Ga14  1  0.333333  0.666667  0.501376  1
  Au  Au15  1  0.000000  0.000000  0.747950  1
  Au  Au16  1  0.000000  0.000000  0.250695  1
  Au  Au17  1  0.333333  0.666667  0.002935  1
