# generated using pymatgen
data_Zr2AlRh5
_symmetry_space_group_name_H-M   'P 1'
_cell_length_a   5.58099569
_cell_length_b   5.58099568
_cell_length_c   8.18381900
_cell_angle_alpha   90.00000000
_cell_angle_beta   90.00000000
_cell_angle_gamma   97.60625783
_symmetry_Int_Tables_number   1
_chemical_formula_structural   Zr2AlRh5
_chemical_formula_sum   'Zr4 Al2 Rh10'
_cell_volume   252.66271588
_cell_formula_units_Z   2
loop_
 _symmetry_equiv_pos_site_id
 _symmetry_equiv_pos_as_xyz
  1  'x, y, z'
loop_
 _atom_site_type_symbol
 _atom_site_label
 _atom_site_symmetry_multiplicity
 _atom_site_fract_x
 _atom_site_fract_y
 _atom_site_fract_z
 _atom_site_occupancy
  Zr  Zr0  1  0.779651  0.220349  0.500000  1
  Zr  Zr1  1  0.220349  0.779651  0.000000  1
  Zr  Zr2  1  0.220349  0.779651  0.500000  1
  Zr  Zr3  1  0.779651  0.220349  0.000000  1
  Al  Al4  1  0.500626  0.500626  0.750000  1
  Al  Al5  1  0.499374  0.499374  0.250000  1
  Rh  Rh6  1  0.714783  0.714783  0.999994  1
  Rh  Rh7  1  0.714783  0.714783  0.500006  1
  Rh  Rh8  1  0.285217  0.285217  0.000006  1
  Rh  Rh9  1  0.285217  0.285217  0.499994  1
  Rh  Rh10  1  0.499806  0.999962  0.750000  1
  Rh  Rh11  1  0.500194  0.000038  0.250000  1
  Rh  Rh12  1  0.000038  0.000038  0.250000  1
  Rh  Rh13  1  0.999962  0.999962  0.750000  1
  Rh  Rh14  1  0.999962  0.499806  0.750000  1
  Rh  Rh15  1  0.000038  0.500194  0.250000  1
