# generated using pymatgen
data_Dy7Ho2Lu11Sn16
_symmetry_space_group_name_H-M   'P 1'
_cell_length_a   7.94780005
_cell_length_b   8.07395884
_cell_length_c   15.26099704
_cell_angle_alpha   90.03232586
_cell_angle_beta   90.00870549
_cell_angle_gamma   90.06893663
_symmetry_Int_Tables_number   1
_chemical_formula_structural   Dy7Ho2Lu11Sn16
_chemical_formula_sum   'Dy7 Ho2 Lu11 Sn16'
_cell_volume   979.30051566
_cell_formula_units_Z   1
loop_
 _symmetry_equiv_pos_site_id
 _symmetry_equiv_pos_as_xyz
  1  'x, y, z'
loop_
 _atom_site_type_symbol
 _atom_site_label
 _atom_site_symmetry_multiplicity
 _atom_site_fract_x
 _atom_site_fract_y
 _atom_site_fract_z
 _atom_site_occupancy
  Dy  Dy0  1  0.020658  0.178687  0.595623  1
  Dy  Dy1  1  0.479205  0.678438  0.403881  1
  Dy  Dy2  1  0.978778  0.822485  0.097452  1
  Dy  Dy3  1  0.480675  0.677869  0.096210  1
  Dy  Dy4  1  0.979445  0.821775  0.403452  1
  Dy  Dy5  1  0.519736  0.321150  0.595399  1
  Dy  Dy6  1  0.020411  0.178368  0.903705  1
  Ho  Ho7  1  0.866190  0.663519  0.877733  1
  Ho  Ho8  1  0.520460  0.321207  0.904168  1
  Lu  Lu9  1  0.364584  0.837484  0.876201  1
  Lu  Lu10  1  0.865233  0.661958  0.623056  1
  Lu  Lu11  1  0.634942  0.161581  0.376674  1
  Lu  Lu12  1  0.135001  0.337921  0.123641  1
  Lu  Lu13  1  0.633813  0.161969  0.124601  1
  Lu  Lu14  1  0.134678  0.337459  0.376604  1
  Lu  Lu15  1  0.365986  0.838139  0.622743  1
  Lu  Lu16  1  0.196953  0.504772  0.749695  1
  Lu  Lu17  1  0.696192  0.995734  0.749276  1
  Lu  Lu18  1  0.803567  0.494984  0.250392  1
  Lu  Lu19  1  0.303171  0.004738  0.250006  1
  Sn  Sn20  1  0.296500  0.039447  0.041501  1
  Sn  Sn21  1  0.796924  0.460656  0.458150  1
  Sn  Sn22  1  0.704197  0.960264  0.541232  1
  Sn  Sn23  1  0.206817  0.538103  0.958974  1
  Sn  Sn24  1  0.700934  0.963700  0.958647  1
  Sn  Sn25  1  0.202530  0.539606  0.541450  1
  Sn  Sn26  1  0.296525  0.039115  0.458334  1
  Sn  Sn27  1  0.796577  0.458928  0.043053  1
  Sn  Sn28  1  0.561819  0.620027  0.748980  1
  Sn  Sn29  1  0.063089  0.880968  0.748965  1
  Sn  Sn30  1  0.437617  0.379834  0.250719  1
  Sn  Sn31  1  0.937559  0.120291  0.250054  1
  Sn  Sn32  1  0.330663  0.149441  0.749618  1
  Sn  Sn33  1  0.830071  0.350429  0.749375  1
  Sn  Sn34  1  0.669057  0.849909  0.250246  1
  Sn  Sn35  1  0.169441  0.649045  0.250189  1
