# generated using pymatgen
data_Sc6Co18Si11As
_symmetry_space_group_name_H-M   'P 1'
_cell_length_a   10.65415600
_cell_length_b   3.71880800
_cell_length_c   12.23817100
_cell_angle_alpha   90.00000000
_cell_angle_beta   90.00000000
_cell_angle_gamma   90.00000000
_symmetry_Int_Tables_number   1
_chemical_formula_structural   Sc6Co18Si11As
_chemical_formula_sum   'Sc6 Co18 Si11 As1'
_cell_volume   484.88564296
_cell_formula_units_Z   1
loop_
 _symmetry_equiv_pos_site_id
 _symmetry_equiv_pos_as_xyz
  1  'x, y, z'
loop_
 _atom_site_type_symbol
 _atom_site_label
 _atom_site_symmetry_multiplicity
 _atom_site_fract_x
 _atom_site_fract_y
 _atom_site_fract_z
 _atom_site_occupancy
  Sc  Sc0  1  0.067797  0.750001  0.204706  1
  Sc  Sc1  1  0.432203  0.750001  0.204706  1
  Sc  Sc2  1  0.250000  0.750001  0.472161  1
  Sc  Sc3  1  0.750000  0.250001  0.528764  1
  Sc  Sc4  1  0.561809  0.250001  0.793642  1
  Sc  Sc5  1  0.938191  0.250001  0.793642  1
  Co  Co6  1  0.082030  0.250001  0.008130  1
  Co  Co7  1  0.417970  0.250001  0.008130  1
  Co  Co8  1  0.250000  0.750001  0.020166  1
  Co  Co9  1  0.750000  0.750001  0.152924  1
  Co  Co10  1  0.631731  0.250001  0.292317  1
  Co  Co11  1  0.868270  0.250001  0.292317  1
  Co  Co12  1  0.250000  0.250001  0.306320  1
  Co  Co13  1  0.551010  0.750001  0.429942  1
  Co  Co14  1  0.948990  0.750001  0.429942  1
  Co  Co15  1  0.052441  0.250001  0.569105  1
  Co  Co16  1  0.447559  0.250001  0.569105  1
  Co  Co17  1  0.750000  0.750001  0.689309  1
  Co  Co18  1  0.131608  0.750001  0.708741  1
  Co  Co19  1  0.368392  0.750001  0.708741  1
  Co  Co20  1  0.250000  0.250001  0.848230  1
  Co  Co21  1  0.750000  0.250001  0.982835  1
  Co  Co22  1  0.581235  0.750001  0.993626  1
  Co  Co23  1  0.918766  0.750001  0.993626  1
  Si  Si24  1  0.599817  0.250001  0.108520  1
  Si  Si25  1  0.900183  0.250001  0.108520  1
  Si  Si26  1  0.250000  0.250001  0.122798  1
  Si  Si27  1  0.750000  0.750001  0.343101  1
  Si  Si28  1  0.057087  0.250001  0.382797  1
  Si  Si29  1  0.442913  0.250001  0.382797  1
  Si  Si30  1  0.556300  0.750001  0.616038  1
  Si  Si31  1  0.943699  0.750001  0.616038  1
  Si  Si32  1  0.250000  0.250001  0.657428  1
  Si  Si33  1  0.101231  0.750001  0.893554  1
  Si  Si34  1  0.398769  0.750001  0.893554  1
  As  As35  1  0.750000  0.750001  0.873731  1
