# generated using pymatgen
data_Tm(Th2Ir)3
_symmetry_space_group_name_H-M   'P 1'
_cell_length_a   10.00172500
_cell_length_b   10.01736314
_cell_length_c   6.33300448
_cell_angle_alpha   90.25212036
_cell_angle_beta   90.00000000
_cell_angle_gamma   119.94836924
_symmetry_Int_Tables_number   1
_chemical_formula_structural   Tm(Th2Ir)3
_chemical_formula_sum   'Tm2 Th12 Ir6'
_cell_volume   549.77991182
_cell_formula_units_Z   2
loop_
 _symmetry_equiv_pos_site_id
 _symmetry_equiv_pos_as_xyz
  1  'x, y, z'
loop_
 _atom_site_type_symbol
 _atom_site_label
 _atom_site_symmetry_multiplicity
 _atom_site_fract_x
 _atom_site_fract_y
 _atom_site_fract_z
 _atom_site_occupancy
  Tm  Tm0  1  0.458875  0.539245  0.298780  1
  Tm  Tm1  1  0.080373  0.539247  0.298780  1
  Th  Th2  1  0.921409  0.460417  0.797576  1
  Th  Th3  1  0.257014  0.131421  0.498968  1
  Th  Th4  1  0.539189  0.078379  0.791899  1
  Th  Th5  1  0.745225  0.872477  0.000566  1
  Th  Th6  1  0.666053  0.332109  0.310200  1
  Th  Th7  1  0.127254  0.872480  0.000562  1
  Th  Th8  1  0.456271  0.912543  0.291454  1
  Th  Th9  1  0.539011  0.460420  0.797578  1
  Th  Th10  1  0.874408  0.131424  0.498965  1
  Th  Th11  1  0.128513  0.257030  0.003327  1
  Th  Th12  1  0.868468  0.736938  0.497229  1
  Th  Th13  1  0.333585  0.667164  0.779850  1
  Ir  Ir14  1  0.811524  0.623050  0.055273  1
  Ir  Ir15  1  0.814260  0.190057  0.055106  1
  Ir  Ir16  1  0.627418  0.815775  0.549876  1
  Ir  Ir17  1  0.375798  0.190058  0.055106  1
  Ir  Ir18  1  0.186996  0.373990  0.553028  1
  Ir  Ir19  1  0.188358  0.815776  0.549875  1
