# generated using pymatgen
data_Lu2GaB2IrRu4
_symmetry_space_group_name_H-M   'P 1'
_cell_length_a   9.53587801
_cell_length_b   9.52647101
_cell_length_c   3.07754500
_cell_angle_alpha   90.00000000
_cell_angle_beta   90.00000000
_cell_angle_gamma   89.99549150
_symmetry_Int_Tables_number   1
_chemical_formula_structural   Lu2GaB2IrRu4
_chemical_formula_sum   'Lu4 Ga2 B4 Ir2 Ru8'
_cell_volume   279.57423625
_cell_formula_units_Z   2
loop_
 _symmetry_equiv_pos_site_id
 _symmetry_equiv_pos_as_xyz
  1  'x, y, z'
loop_
 _atom_site_type_symbol
 _atom_site_label
 _atom_site_symmetry_multiplicity
 _atom_site_fract_x
 _atom_site_fract_y
 _atom_site_fract_z
 _atom_site_occupancy
  Lu  Lu0  1  0.678094  0.175525  0.000000  1
  Lu  Lu1  1  0.321906  0.824475  0.000000  1
  Lu  Lu2  1  0.173782  0.325527  0.000000  1
  Lu  Lu3  1  0.826218  0.674473  0.000000  1
  Ga  Ga4  1  0.000000  0.000000  0.000000  1
  Ga  Ga5  1  0.500000  0.500000  0.000000  1
  B  B6  1  0.122918  0.623042  0.000000  1
  B  B7  1  0.877082  0.376958  0.000000  1
  B  B8  1  0.624681  0.879996  0.000000  1
  B  B9  1  0.375319  0.120004  0.000000  1
  Ir  Ir10  1  0.569606  0.716660  0.500000  1
  Ir  Ir11  1  0.430394  0.283340  0.500000  1
  Ru  Ru12  1  0.216681  0.069773  0.500000  1
  Ru  Ru13  1  0.783319  0.930227  0.500000  1
  Ru  Ru14  1  0.069557  0.783324  0.500000  1
  Ru  Ru15  1  0.715625  0.430654  0.500000  1
  Ru  Ru16  1  0.930443  0.216676  0.500000  1
  Ru  Ru17  1  0.284375  0.569346  0.500000  1
  Ru  Ru18  1  0.500000  0.000000  0.500000  1
  Ru  Ru19  1  0.000000  0.500000  0.500000  1
