# generated using pymatgen
data_DyHo3Lu(In2Ni)2
_symmetry_space_group_name_H-M   'P 1'
_cell_length_a   3.58882300
_cell_length_b   7.98686100
_cell_length_c   17.85898700
_cell_angle_alpha   90.00000000
_cell_angle_beta   90.00000000
_cell_angle_gamma   90.00000000
_symmetry_Int_Tables_number   1
_chemical_formula_structural   DyHo3Lu(In2Ni)2
_chemical_formula_sum   'Dy2 Ho6 Lu2 In8 Ni4'
_cell_volume   511.89983186
_cell_formula_units_Z   2
loop_
 _symmetry_equiv_pos_site_id
 _symmetry_equiv_pos_as_xyz
  1  'x, y, z'
loop_
 _atom_site_type_symbol
 _atom_site_label
 _atom_site_symmetry_multiplicity
 _atom_site_fract_x
 _atom_site_fract_y
 _atom_site_fract_z
 _atom_site_occupancy
  Dy  Dy0  1  0.500000  0.499580  0.999201  1
  Dy  Dy1  1  0.500000  0.999580  0.500799  1
  Ho  Ho2  1  0.500000  0.116718  0.088041  1
  Ho  Ho3  1  0.500000  0.755257  0.720820  1
  Ho  Ho4  1  0.500000  0.255257  0.779180  1
  Ho  Ho5  1  0.500000  0.745732  0.221167  1
  Ho  Ho6  1  0.500000  0.245732  0.278833  1
  Ho  Ho7  1  0.500000  0.616718  0.411959  1
  Lu  Lu8  1  0.500000  0.383485  0.590316  1
  Lu  Lu9  1  0.500000  0.883485  0.909684  1
  In  In10  1  0.000000  0.795485  0.067054  1
  In  In11  1  0.000000  0.926278  0.347839  1
  In  In12  1  0.000000  0.076276  0.652531  1
  In  In13  1  0.000000  0.576276  0.847469  1
  In  In14  1  0.000000  0.701095  0.568730  1
  In  In15  1  0.000000  0.201095  0.931270  1
  In  In16  1  0.000000  0.295485  0.432946  1
  In  In17  1  0.000000  0.426278  0.152161  1
  Ni  Ni18  1  0.000000  0.974949  0.805176  1
  Ni  Ni19  1  0.000000  0.525144  0.304377  1
  Ni  Ni20  1  0.000000  0.474949  0.694824  1
  Ni  Ni21  1  0.000000  0.025144  0.195623  1
