# generated using pymatgen
data_Tb2Dy14MgAg3Rh4
_symmetry_space_group_name_H-M   'P 1'
_cell_length_a   9.56336579
_cell_length_b   9.58546779
_cell_length_c   9.58181933
_cell_angle_alpha   60.17007888
_cell_angle_beta   60.13918426
_cell_angle_gamma   60.16326409
_symmetry_Int_Tables_number   1
_chemical_formula_structural   Tb2Dy14MgAg3Rh4
_chemical_formula_sum   'Tb2 Dy14 Mg1 Ag3 Rh4'
_cell_volume   623.30929821
_cell_formula_units_Z   1
loop_
 _symmetry_equiv_pos_site_id
 _symmetry_equiv_pos_as_xyz
  1  'x, y, z'
loop_
 _atom_site_type_symbol
 _atom_site_label
 _atom_site_symmetry_multiplicity
 _atom_site_fract_x
 _atom_site_fract_y
 _atom_site_fract_z
 _atom_site_occupancy
  Tb  Tb0  1  0.066238  0.435507  0.435023  1
  Tb  Tb1  1  0.649985  0.047930  0.651062  1
  Dy  Dy2  1  0.814074  0.813465  0.186456  1
  Dy  Dy3  1  0.434995  0.064850  0.065046  1
  Dy  Dy4  1  0.436612  0.434922  0.064039  1
  Dy  Dy5  1  0.189927  0.188952  0.810852  1
  Dy  Dy6  1  0.814450  0.186905  0.186399  1
  Dy  Dy7  1  0.066371  0.435572  0.062528  1
  Dy  Dy8  1  0.435813  0.064416  0.434832  1
  Dy  Dy9  1  0.062176  0.646170  0.645725  1
  Dy  Dy10  1  0.189821  0.811555  0.810774  1
  Dy  Dy11  1  0.649247  0.650972  0.048936  1
  Dy  Dy12  1  0.189735  0.811736  0.188288  1
  Dy  Dy13  1  0.066080  0.063367  0.435028  1
  Dy  Dy14  1  0.814424  0.186791  0.812904  1
  Dy  Dy15  1  0.649253  0.651178  0.651032  1
  Mg  Mg16  1  0.713162  0.428813  0.428931  1
  Ag  Ag17  1  0.417022  0.415144  0.751762  1
  Ag  Ag18  1  0.417525  0.415237  0.415778  1
  Ag  Ag19  1  0.417040  0.751440  0.415593  1
  Rh  Rh20  1  0.858523  0.428870  0.856147  1
  Rh  Rh21  1  0.427433  0.856390  0.857659  1
  Rh  Rh22  1  0.859659  0.854964  0.428113  1
  Rh  Rh23  1  0.860440  0.854851  0.857093  1
