# generated using pymatgen
data_DyErAl9Ir2Pt
_symmetry_space_group_name_H-M   'P 1'
_cell_length_a   7.56632124
_cell_length_b   7.56489678
_cell_length_c   9.44644311
_cell_angle_alpha   89.94188419
_cell_angle_beta   89.95581946
_cell_angle_gamma   119.63762675
_symmetry_Int_Tables_number   1
_chemical_formula_structural   DyErAl9Ir2Pt
_chemical_formula_sum   'Dy2 Er2 Al18 Ir4 Pt2'
_cell_volume   469.95937483
_cell_formula_units_Z   2
loop_
 _symmetry_equiv_pos_site_id
 _symmetry_equiv_pos_as_xyz
  1  'x, y, z'
loop_
 _atom_site_type_symbol
 _atom_site_label
 _atom_site_symmetry_multiplicity
 _atom_site_fract_x
 _atom_site_fract_y
 _atom_site_fract_z
 _atom_site_occupancy
  Dy  Dy0  1  0.670185  0.995178  0.751041  1
  Dy  Dy1  1  0.329815  0.004822  0.248959  1
  Er  Er2  1  0.995132  0.670140  0.751052  1
  Er  Er3  1  0.004868  0.329860  0.248948  1
  Al  Al4  1  0.127357  0.127276  0.750702  1
  Al  Al5  1  0.872643  0.872724  0.249298  1
  Al  Al6  1  0.000698  0.331469  0.577253  1
  Al  Al7  1  0.999302  0.668531  0.422747  1
  Al  Al8  1  0.999949  0.665101  0.074290  1
  Al  Al9  1  0.334673  0.999947  0.925616  1
  Al  Al10  1  0.000051  0.334899  0.925710  1
  Al  Al11  1  0.665327  0.000053  0.074384  1
  Al  Al12  1  0.668769  0.999399  0.422656  1
  Al  Al13  1  0.331231  0.000601  0.577344  1
  Al  Al14  1  0.332492  0.332592  0.052105  1
  Al  Al15  1  0.667508  0.667408  0.947895  1
  Al  Al16  1  0.669138  0.669045  0.557770  1
  Al  Al17  1  0.330862  0.330955  0.442230  1
  Al  Al18  1  0.339982  0.546860  0.752998  1
  Al  Al19  1  0.660018  0.453140  0.247002  1
  Al  Al20  1  0.546952  0.340150  0.753000  1
  Al  Al21  1  0.453048  0.659850  0.247000  1
  Ir  Ir22  1  0.327992  0.671829  0.000000  1
  Ir  Ir23  1  0.672008  0.328171  0.000000  1
  Ir  Ir24  1  0.000000  0.000000  0.500000  1
  Ir  Ir25  1  0.000000  0.000000  0.000000  1
  Pt  Pt26  1  0.672258  0.327881  0.499996  1
  Pt  Pt27  1  0.327742  0.672119  0.500004  1
