# generated using pymatgen
data_Tb7HoCd3SnAu8
_symmetry_space_group_name_H-M   'P 1'
_cell_length_a   8.05545019
_cell_length_b   8.05573839
_cell_length_c   7.37081529
_cell_angle_alpha   90.02904269
_cell_angle_beta   90.01415443
_cell_angle_gamma   89.93922148
_symmetry_Int_Tables_number   1
_chemical_formula_structural   Tb7HoCd3SnAu8
_chemical_formula_sum   'Tb7 Ho1 Cd3 Sn1 Au8'
_cell_volume   478.31101891
_cell_formula_units_Z   1
loop_
 _symmetry_equiv_pos_site_id
 _symmetry_equiv_pos_as_xyz
  1  'x, y, z'
loop_
 _atom_site_type_symbol
 _atom_site_label
 _atom_site_symmetry_multiplicity
 _atom_site_fract_x
 _atom_site_fract_y
 _atom_site_fract_z
 _atom_site_occupancy
  Tb  Tb0  1  0.843751  0.170394  0.500713  1
  Tb  Tb1  1  0.155535  0.830727  0.500841  1
  Tb  Tb2  1  0.329909  0.344589  0.999212  1
  Tb  Tb3  1  0.670457  0.654880  0.999261  1
  Tb  Tb4  1  0.686230  0.671834  0.500457  1
  Tb  Tb5  1  0.315192  0.327285  0.500484  1
  Tb  Tb6  1  0.172139  0.814212  0.999602  1
  Ho  Ho7  1  0.828268  0.184984  0.999145  1
  Cd  Cd8  1  0.499882  0.000021  0.250014  1
  Cd  Cd9  1  0.999812  0.499482  0.750525  1
  Cd  Cd10  1  0.499957  0.000030  0.749914  1
  Sn  Sn11  1  0.000293  0.500088  0.250565  1
  Au  Au12  1  0.620594  0.363463  0.264708  1
  Au  Au13  1  0.380635  0.635537  0.267576  1
  Au  Au14  1  0.131680  0.124517  0.767003  1
  Au  Au15  1  0.866559  0.876922  0.766957  1
  Au  Au16  1  0.376307  0.632829  0.733526  1
  Au  Au17  1  0.624892  0.366278  0.735749  1
  Au  Au18  1  0.863679  0.881494  0.232060  1
  Au  Au19  1  0.134232  0.120435  0.231687  1
