# generated using pymatgen
data_Dy5Y5Sn5Sb
_symmetry_space_group_name_H-M   'P 1'
_cell_length_a   8.98194501
_cell_length_b   8.97600880
_cell_length_c   6.50795000
_cell_angle_alpha   90.00000000
_cell_angle_beta   90.00000000
_cell_angle_gamma   120.02605441
_symmetry_Int_Tables_number   1
_chemical_formula_structural   Dy5Y5Sn5Sb
_chemical_formula_sum   'Dy5 Y5 Sn5 Sb1'
_cell_volume   454.27038005
_cell_formula_units_Z   1
loop_
 _symmetry_equiv_pos_site_id
 _symmetry_equiv_pos_as_xyz
  1  'x, y, z'
loop_
 _atom_site_type_symbol
 _atom_site_label
 _atom_site_symmetry_multiplicity
 _atom_site_fract_x
 _atom_site_fract_y
 _atom_site_fract_z
 _atom_site_occupancy
  Dy  Dy0  1  0.238369  0.240368  0.750000  1
  Dy  Dy1  1  0.333199  0.665707  0.500439  1
  Dy  Dy2  1  0.667458  0.334289  0.999586  1
  Dy  Dy3  1  0.667458  0.334289  0.500414  1
  Dy  Dy4  1  0.333199  0.665707  0.999561  1
  Y  Y5  1  0.998094  0.759687  0.750000  1
  Y  Y6  1  0.000804  0.239540  0.250000  1
  Y  Y7  1  0.761161  0.760427  0.250000  1
  Y  Y8  1  0.761265  0.999974  0.750000  1
  Y  Y9  1  0.239449  0.000011  0.250000  1
  Sn  Sn10  1  0.395309  0.394647  0.250000  1
  Sn  Sn11  1  0.000639  0.605315  0.250000  1
  Sn  Sn12  1  0.000023  0.395432  0.750000  1
  Sn  Sn13  1  0.604494  0.604532  0.750000  1
  Sn  Sn14  1  0.605393  0.000003  0.250000  1
  Sb  Sb15  1  0.393685  0.000072  0.750000  1
