# generated using pymatgen
data_Hf5Fe12Co7P12
_symmetry_space_group_name_H-M   'P 1'
_cell_length_a   11.74621800
_cell_length_b   11.74621970
_cell_length_c   3.60880900
_cell_angle_alpha   90.00000000
_cell_angle_beta   90.00000000
_cell_angle_gamma   120.00000646
_symmetry_Int_Tables_number   1
_chemical_formula_structural   Hf5Fe12Co7P12
_chemical_formula_sum   'Hf5 Fe12 Co7 P12'
_cell_volume   431.21184007
_cell_formula_units_Z   1
loop_
 _symmetry_equiv_pos_site_id
 _symmetry_equiv_pos_as_xyz
  1  'x, y, z'
loop_
 _atom_site_type_symbol
 _atom_site_label
 _atom_site_symmetry_multiplicity
 _atom_site_fract_x
 _atom_site_fract_y
 _atom_site_fract_z
 _atom_site_occupancy
  Hf  Hf0  1  0.333333  0.666667  0.500000  1
  Hf  Hf1  1  0.666667  0.333333  0.500000  1
  Hf  Hf2  1  0.813300  0.000000  0.000000  1
  Hf  Hf3  1  0.000000  0.813300  0.000000  1
  Hf  Hf4  1  0.186700  0.186700  0.000000  1
  Fe  Fe5  1  0.621759  0.802359  0.500000  1
  Fe  Fe6  1  0.197641  0.819400  0.500000  1
  Fe  Fe7  1  0.180600  0.378241  0.500000  1
  Fe  Fe8  1  0.378241  0.180600  0.500000  1
  Fe  Fe9  1  0.802359  0.621759  0.500000  1
  Fe  Fe10  1  0.819400  0.197641  0.500000  1
  Fe  Fe11  1  0.283888  0.000000  0.000000  1
  Fe  Fe12  1  0.000000  0.283888  0.000000  1
  Fe  Fe13  1  0.716112  0.716112  0.000000  1
  Fe  Fe14  1  0.446428  0.000000  0.500000  1
  Fe  Fe15  1  0.000000  0.446428  0.500000  1
  Fe  Fe16  1  0.553572  0.553572  0.500000  1
  Co  Co17  1  0.513242  0.873698  0.000000  1
  Co  Co18  1  0.126302  0.639545  0.000000  1
  Co  Co19  1  0.360455  0.486758  0.000000  1
  Co  Co20  1  0.486758  0.360455  0.000000  1
  Co  Co21  1  0.873698  0.513242  0.000000  1
  Co  Co22  1  0.639545  0.126302  0.000000  1
  Co  Co23  1  0.000000  0.000000  0.500000  1
  P  P24  1  0.179549  0.000000  0.500000  1
  P  P25  1  0.000000  0.179549  0.500000  1
  P  P26  1  0.820451  0.820451  0.500000  1
  P  P27  1  0.519411  0.687062  0.000000  1
  P  P28  1  0.312938  0.832351  0.000000  1
  P  P29  1  0.167649  0.480589  0.000000  1
  P  P30  1  0.480589  0.167649  0.000000  1
  P  P31  1  0.687062  0.519411  0.000000  1
  P  P32  1  0.832351  0.312938  0.000000  1
  P  P33  1  0.636107  0.000000  0.500000  1
  P  P34  1  0.000000  0.636107  0.500000  1
  P  P35  1  0.363893  0.363893  0.500000  1
