# generated using pymatgen
data_Ba2Ga5SnAu6
_symmetry_space_group_name_H-M   'P 1'
_cell_length_a   4.71857600
_cell_length_b   7.42156800
_cell_length_c   8.90987400
_cell_angle_alpha   90.00000000
_cell_angle_beta   90.00000000
_cell_angle_gamma   90.00000000
_symmetry_Int_Tables_number   1
_chemical_formula_structural   Ba2Ga5SnAu6
_chemical_formula_sum   'Ba2 Ga5 Sn1 Au6'
_cell_volume   312.01695046
_cell_formula_units_Z   1
loop_
 _symmetry_equiv_pos_site_id
 _symmetry_equiv_pos_as_xyz
  1  'x, y, z'
loop_
 _atom_site_type_symbol
 _atom_site_label
 _atom_site_symmetry_multiplicity
 _atom_site_fract_x
 _atom_site_fract_y
 _atom_site_fract_z
 _atom_site_occupancy
  Ba  Ba0  1  0.500000  0.000000  0.748399  1
  Ba  Ba1  1  0.000000  0.500000  0.246945  1
  Ga  Ga2  1  0.000000  0.313114  0.890787  1
  Ga  Ga3  1  0.500000  0.189971  0.110304  1
  Ga  Ga4  1  0.000000  0.686886  0.890787  1
  Ga  Ga5  1  0.500000  0.810029  0.110304  1
  Ga  Ga6  1  0.500000  0.500000  0.624391  1
  Sn  Sn7  1  0.000000  0.000000  0.375214  1
  Au  Au8  1  0.000000  0.709486  0.600243  1
  Au  Au9  1  0.500000  0.768201  0.406009  1
  Au  Au10  1  0.500000  0.500000  0.938491  1
  Au  Au11  1  0.000000  0.000000  0.051874  1
  Au  Au12  1  0.500000  0.231799  0.406009  1
  Au  Au13  1  0.000000  0.290514  0.600243  1
