# generated using pymatgen
data_Dy2SiP4O15
_symmetry_space_group_name_H-M   'P 1'
_cell_length_a   5.59328700
_cell_length_b   7.08857100
_cell_length_c   16.56410000
_cell_angle_alpha   90.00000000
_cell_angle_beta   90.00000000
_cell_angle_gamma   90.00000000
_symmetry_Int_Tables_number   1
_chemical_formula_structural   Dy2SiP4O15
_chemical_formula_sum   'Dy4 Si2 P8 O30'
_cell_volume   656.74026159
_cell_formula_units_Z   2
loop_
 _symmetry_equiv_pos_site_id
 _symmetry_equiv_pos_as_xyz
  1  'x, y, z'
loop_
 _atom_site_type_symbol
 _atom_site_label
 _atom_site_symmetry_multiplicity
 _atom_site_fract_x
 _atom_site_fract_y
 _atom_site_fract_z
 _atom_site_occupancy
  Dy  Dy0  1  0.864912  0.405704  0.782405  1
  Dy  Dy1  1  0.864912  0.594296  0.217595  1
  Dy  Dy2  1  0.135088  0.094296  0.282405  1
  Dy  Dy3  1  0.135088  0.905704  0.717595  1
  Si  Si4  1  0.458692  0.500000  0.500000  1
  Si  Si5  1  0.541308  0.000000  0.000000  1
  P  P6  1  0.692560  0.910720  0.830548  1
  P  P7  1  0.692560  0.089280  0.169452  1
  P  P8  1  0.307440  0.589280  0.330548  1
  P  P9  1  0.307440  0.410720  0.669452  1
  P  P10  1  0.642486  0.137178  0.425699  1
  P  P11  1  0.642486  0.862822  0.574301  1
  P  P12  1  0.357514  0.362822  0.925699  1
  P  P13  1  0.357514  0.637178  0.074301  1
  O  O14  1  0.642824  0.336812  0.468729  1
  O  O15  1  0.642824  0.663188  0.531271  1
  O  O16  1  0.357176  0.163188  0.968729  1
  O  O17  1  0.357176  0.836812  0.031271  1
  O  O18  1  0.716536  0.073779  0.072727  1
  O  O19  1  0.716536  0.926221  0.927273  1
  O  O20  1  0.283464  0.426221  0.572727  1
  O  O21  1  0.283464  0.573779  0.427273  1
  O  O22  1  0.835620  0.076848  0.793442  1
  O  O23  1  0.835620  0.923152  0.206558  1
  O  O24  1  0.164380  0.423152  0.293442  1
  O  O25  1  0.164380  0.576848  0.706558  1
  O  O26  1  0.427809  0.909799  0.810829  1
  O  O27  1  0.427809  0.090201  0.189171  1
  O  O28  1  0.572191  0.590201  0.310829  1
  O  O29  1  0.572191  0.409799  0.689171  1
  O  O30  1  0.834275  0.735162  0.803050  1
  O  O31  1  0.834275  0.264838  0.196950  1
  O  O32  1  0.165725  0.764838  0.303050  1
  O  O33  1  0.165725  0.235162  0.696950  1
  O  O34  1  0.425072  0.114981  0.373549  1
  O  O35  1  0.425072  0.885019  0.626451  1
  O  O36  1  0.574928  0.385019  0.873549  1
  O  O37  1  0.574928  0.614981  0.126451  1
  O  O38  1  0.881359  0.107582  0.386781  1
  O  O39  1  0.881359  0.892418  0.613219  1
  O  O40  1  0.118641  0.392418  0.886781  1
  O  O41  1  0.118641  0.607582  0.113219  1
  O  O42  1  0.609019  0.000000  0.500000  1
  O  O43  1  0.390981  0.500000  0.000000  1
