# generated using pymatgen
data_Li8PrTm7Pb8
_symmetry_space_group_name_H-M   'P 1'
_cell_length_a   9.22142900
_cell_length_b   9.22142858
_cell_length_c   7.66424800
_cell_angle_alpha   90.00000000
_cell_angle_beta   90.00000000
_cell_angle_gamma   120.00000509
_symmetry_Int_Tables_number   1
_chemical_formula_structural   Li8PrTm7Pb8
_chemical_formula_sum   'Li8 Pr1 Tm7 Pb8'
_cell_volume   564.41245962
_cell_formula_units_Z   1
loop_
 _symmetry_equiv_pos_site_id
 _symmetry_equiv_pos_as_xyz
  1  'x, y, z'
loop_
 _atom_site_type_symbol
 _atom_site_label
 _atom_site_symmetry_multiplicity
 _atom_site_fract_x
 _atom_site_fract_y
 _atom_site_fract_z
 _atom_site_occupancy
  Li  Li0  1  0.833207  0.166793  0.708944  1
  Li  Li1  1  0.833207  0.666414  0.708944  1
  Li  Li2  1  0.333586  0.166793  0.708944  1
  Li  Li3  1  0.167914  0.832086  0.209414  1
  Li  Li4  1  0.167914  0.335829  0.209414  1
  Li  Li5  1  0.664171  0.832086  0.209414  1
  Li  Li6  1  0.666667  0.333333  0.334558  1
  Li  Li7  1  0.333333  0.666667  0.834549  1
  Pr  Pr8  1  0.000000  0.000000  0.998491  1
  Tm  Tm9  1  0.485189  0.514811  0.505473  1
  Tm  Tm10  1  0.485189  0.970378  0.505473  1
  Tm  Tm11  1  0.029622  0.514811  0.505473  1
  Tm  Tm12  1  0.515461  0.484539  0.006287  1
  Tm  Tm13  1  0.515461  0.030921  0.006287  1
  Tm  Tm14  1  0.969079  0.484539  0.006287  1
  Tm  Tm15  1  0.000000  0.000000  0.497942  1
  Pb  Pb16  1  0.831871  0.168129  0.276599  1
  Pb  Pb17  1  0.831871  0.663743  0.276599  1
  Pb  Pb18  1  0.336257  0.168129  0.276599  1
  Pb  Pb19  1  0.169100  0.830900  0.768699  1
  Pb  Pb20  1  0.169100  0.338200  0.768699  1
  Pb  Pb21  1  0.661800  0.830900  0.768699  1
  Pb  Pb22  1  0.666667  0.333333  0.732924  1
  Pb  Pb23  1  0.333333  0.666667  0.233297  1
