# generated using pymatgen
data_HfZr3P4(IrRu)2
_symmetry_space_group_name_H-M   'P 1'
_cell_length_a   3.85604700
_cell_length_b   6.52309136
_cell_length_c   7.37895240
_cell_angle_alpha   90.03783570
_cell_angle_beta   90.00000000
_cell_angle_gamma   90.00000000
_symmetry_Int_Tables_number   1
_chemical_formula_structural   HfZr3P4(IrRu)2
_chemical_formula_sum   'Hf1 Zr3 P4 Ir2 Ru2'
_cell_volume   185.60530871
_cell_formula_units_Z   1
loop_
 _symmetry_equiv_pos_site_id
 _symmetry_equiv_pos_as_xyz
  1  'x, y, z'
loop_
 _atom_site_type_symbol
 _atom_site_label
 _atom_site_symmetry_multiplicity
 _atom_site_fract_x
 _atom_site_fract_y
 _atom_site_fract_z
 _atom_site_occupancy
  Hf  Hf0  1  0.750000  0.524124  0.321520  1
  Zr  Zr1  1  0.250000  0.978348  0.821314  1
  Zr  Zr2  1  0.750000  0.023826  0.177700  1
  Zr  Zr3  1  0.250000  0.478464  0.678317  1
  P  P4  1  0.250000  0.731495  0.117047  1
  P  P5  1  0.250000  0.234589  0.383156  1
  P  P6  1  0.750000  0.271328  0.873274  1
  P  P7  1  0.750000  0.770478  0.625859  1
  Ir  Ir8  1  0.250000  0.350605  0.065615  1
  Ir  Ir9  1  0.250000  0.846202  0.436432  1
  Ru  Ru10  1  0.750000  0.145937  0.556084  1
  Ru  Ru11  1  0.750000  0.644602  0.943681  1
