# generated using pymatgen
data_Th4AlSi5Pd2
_symmetry_space_group_name_H-M   'P 1'
_cell_length_a   8.34069129
_cell_length_b   8.34069203
_cell_length_c   8.47505500
_cell_angle_alpha   90.00076447
_cell_angle_beta   89.99923697
_cell_angle_gamma   119.81143965
_symmetry_Int_Tables_number   1
_chemical_formula_structural   Th4AlSi5Pd2
_chemical_formula_sum   'Th8 Al2 Si10 Pd4'
_cell_volume   511.56325632
_cell_formula_units_Z   2
loop_
 _symmetry_equiv_pos_site_id
 _symmetry_equiv_pos_as_xyz
  1  'x, y, z'
loop_
 _atom_site_type_symbol
 _atom_site_label
 _atom_site_symmetry_multiplicity
 _atom_site_fract_x
 _atom_site_fract_y
 _atom_site_fract_z
 _atom_site_occupancy
  Th  Th0  1  0.499929  0.500071  0.750383  1
  Th  Th1  1  0.500071  0.499929  0.249617  1
  Th  Th2  1  0.000155  0.500104  0.747636  1
  Th  Th3  1  0.999845  0.499896  0.252364  1
  Th  Th4  1  0.499896  0.999845  0.747636  1
  Th  Th5  1  0.500104  0.000155  0.252364  1
  Th  Th6  1  0.000029  0.999971  0.747269  1
  Th  Th7  1  0.999971  0.000029  0.252731  1
  Al  Al8  1  0.832652  0.167348  0.999858  1
  Al  Al9  1  0.167348  0.832652  0.000142  1
  Si  Si10  1  0.331886  0.168337  0.999870  1
  Si  Si11  1  0.165863  0.834137  0.499836  1
  Si  Si12  1  0.668114  0.831663  0.000130  1
  Si  Si13  1  0.834137  0.165863  0.500164  1
  Si  Si14  1  0.831663  0.668114  0.999870  1
  Si  Si15  1  0.668003  0.833793  0.499901  1
  Si  Si16  1  0.168337  0.331886  0.000130  1
  Si  Si17  1  0.331997  0.166207  0.500099  1
  Si  Si18  1  0.166207  0.331997  0.499901  1
  Si  Si19  1  0.833793  0.668003  0.500099  1
  Pd  Pd20  1  0.663812  0.336188  0.999763  1
  Pd  Pd21  1  0.336188  0.663812  0.000237  1
  Pd  Pd22  1  0.333538  0.666462  0.499749  1
  Pd  Pd23  1  0.666462  0.333538  0.500251  1
