# generated using pymatgen
data_Lu3CuSn3Ir2
_symmetry_space_group_name_H-M   'P 1'
_cell_length_a   7.48215200
_cell_length_b   7.48215175
_cell_length_c   3.83074000
_cell_angle_alpha   90.00000000
_cell_angle_beta   90.00000000
_cell_angle_gamma   119.99999990
_symmetry_Int_Tables_number   1
_chemical_formula_structural   Lu3CuSn3Ir2
_chemical_formula_sum   'Lu3 Cu1 Sn3 Ir2'
_cell_volume   185.72328114
_cell_formula_units_Z   1
loop_
 _symmetry_equiv_pos_site_id
 _symmetry_equiv_pos_as_xyz
  1  'x, y, z'
loop_
 _atom_site_type_symbol
 _atom_site_label
 _atom_site_symmetry_multiplicity
 _atom_site_fract_x
 _atom_site_fract_y
 _atom_site_fract_z
 _atom_site_occupancy
  Lu  Lu0  1  0.982579  0.388515  0.500000  1
  Lu  Lu1  1  0.611485  0.594064  0.500000  1
  Lu  Lu2  1  0.405936  0.017421  0.500000  1
  Cu  Cu3  1  0.333333  0.666667  0.000000  1
  Sn  Sn4  1  0.009915  0.738471  0.000000  1
  Sn  Sn5  1  0.261529  0.271444  0.000000  1
  Sn  Sn6  1  0.728556  0.990085  0.000000  1
  Ir  Ir7  1  0.666667  0.333333  0.000000  1
  Ir  Ir8  1  0.000000  0.000000  0.500000  1
