# generated using pymatgen
data_LiTb2Nd2Al17Pd6
_symmetry_space_group_name_H-M   'P 1'
_cell_length_a   7.66070401
_cell_length_b   7.66070316
_cell_length_c   9.55912500
_cell_angle_alpha   90.00000000
_cell_angle_beta   90.00000000
_cell_angle_gamma   119.34228993
_symmetry_Int_Tables_number   1
_chemical_formula_structural   LiTb2Nd2Al17Pd6
_chemical_formula_sum   'Li1 Tb2 Nd2 Al17 Pd6'
_cell_volume   489.01975252
_cell_formula_units_Z   1
loop_
 _symmetry_equiv_pos_site_id
 _symmetry_equiv_pos_as_xyz
  1  'x, y, z'
loop_
 _atom_site_type_symbol
 _atom_site_label
 _atom_site_symmetry_multiplicity
 _atom_site_fract_x
 _atom_site_fract_y
 _atom_site_fract_z
 _atom_site_occupancy
  Li  Li0  1  0.129264  0.129264  0.250000  1
  Tb  Tb1  1  0.994636  0.664524  0.250000  1
  Tb  Tb2  1  0.664524  0.994636  0.250000  1
  Nd  Nd3  1  0.007978  0.331526  0.750000  1
  Nd  Nd4  1  0.331526  0.007978  0.750000  1
  Al  Al5  1  0.864483  0.864483  0.750000  1
  Al  Al6  1  0.001490  0.328584  0.081750  1
  Al  Al7  1  0.998294  0.665354  0.929089  1
  Al  Al8  1  0.998294  0.665354  0.570911  1
  Al  Al9  1  0.328584  0.001490  0.418250  1
  Al  Al10  1  0.001490  0.328584  0.418250  1
  Al  Al11  1  0.665354  0.998294  0.570911  1
  Al  Al12  1  0.665354  0.998294  0.929089  1
  Al  Al13  1  0.328584  0.001490  0.081750  1
  Al  Al14  1  0.336158  0.336158  0.541413  1
  Al  Al15  1  0.670909  0.670909  0.438941  1
  Al  Al16  1  0.670909  0.670909  0.061059  1
  Al  Al17  1  0.336158  0.336158  0.958587  1
  Al  Al18  1  0.340741  0.542610  0.250000  1
  Al  Al19  1  0.659567  0.454898  0.750000  1
  Al  Al20  1  0.542610  0.340741  0.250000  1
  Al  Al21  1  0.454898  0.659567  0.750000  1
  Pd  Pd22  1  0.674922  0.330494  0.002017  1
  Pd  Pd23  1  0.330494  0.674922  0.002017  1
  Pd  Pd24  1  0.330494  0.674922  0.497983  1
  Pd  Pd25  1  0.674922  0.330494  0.497983  1
  Pd  Pd26  1  0.998681  0.998681  0.995298  1
  Pd  Pd27  1  0.998681  0.998681  0.504702  1
