# generated using pymatgen
data_BeSn5BRh6
_symmetry_space_group_name_H-M   'P 1'
_cell_length_a   6.65800700
_cell_length_b   6.65800621
_cell_length_c   5.68674500
_cell_angle_alpha   90.00000000
_cell_angle_beta   90.00000000
_cell_angle_gamma   120.00000889
_symmetry_Int_Tables_number   1
_chemical_formula_structural   BeSn5BRh6
_chemical_formula_sum   'Be1 Sn5 B1 Rh6'
_cell_volume   218.31460503
_cell_formula_units_Z   1
loop_
 _symmetry_equiv_pos_site_id
 _symmetry_equiv_pos_as_xyz
  1  'x, y, z'
loop_
 _atom_site_type_symbol
 _atom_site_label
 _atom_site_symmetry_multiplicity
 _atom_site_fract_x
 _atom_site_fract_y
 _atom_site_fract_z
 _atom_site_occupancy
  Be  Be0  1  0.000000  0.000000  0.000000  1
  Sn  Sn1  1  0.396220  0.396220  0.000000  1
  Sn  Sn2  1  0.603780  0.000000  0.000000  1
  Sn  Sn3  1  0.000000  0.603780  0.000000  1
  Sn  Sn4  1  0.666667  0.333333  0.500000  1
  Sn  Sn5  1  0.333333  0.666667  0.500000  1
  B  B6  1  0.000000  0.000000  0.500000  1
  Rh  Rh7  1  0.260672  0.000000  0.740544  1
  Rh  Rh8  1  0.739328  0.739328  0.259456  1
  Rh  Rh9  1  0.000000  0.260672  0.259456  1
  Rh  Rh10  1  0.260672  0.000000  0.259456  1
  Rh  Rh11  1  0.739328  0.739328  0.740544  1
  Rh  Rh12  1  0.000000  0.260672  0.740544  1
