# generated using pymatgen
data_Dy11TmRu4
_symmetry_space_group_name_H-M   'P 1'
_cell_length_a   6.31019489
_cell_length_b   7.29779747
_cell_length_c   9.17334238
_cell_angle_alpha   89.98381596
_cell_angle_beta   90.15406169
_cell_angle_gamma   89.92958142
_symmetry_Int_Tables_number   1
_chemical_formula_structural   Dy11TmRu4
_chemical_formula_sum   'Dy11 Tm1 Ru4'
_cell_volume   422.43536221
_cell_formula_units_Z   1
loop_
 _symmetry_equiv_pos_site_id
 _symmetry_equiv_pos_as_xyz
  1  'x, y, z'
loop_
 _atom_site_type_symbol
 _atom_site_label
 _atom_site_symmetry_multiplicity
 _atom_site_fract_x
 _atom_site_fract_y
 _atom_site_fract_z
 _atom_site_occupancy
  Dy  Dy0  1  0.633473  0.040576  0.250398  1
  Dy  Dy1  1  0.367247  0.960006  0.749648  1
  Dy  Dy2  1  0.132823  0.459239  0.749392  1
  Dy  Dy3  1  0.866275  0.539843  0.250538  1
  Dy  Dy4  1  0.169753  0.176712  0.064456  1
  Dy  Dy5  1  0.830184  0.823594  0.935383  1
  Dy  Dy6  1  0.669423  0.323320  0.934721  1
  Dy  Dy7  1  0.829888  0.823360  0.564436  1
  Dy  Dy8  1  0.330638  0.676524  0.064401  1
  Dy  Dy9  1  0.169719  0.176877  0.435949  1
  Dy  Dy10  1  0.331007  0.675881  0.436002  1
  Tm  Tm11  1  0.669304  0.324134  0.565019  1
  Ru  Ru12  1  0.461752  0.385056  0.250893  1
  Ru  Ru13  1  0.539187  0.614057  0.749464  1
  Ru  Ru14  1  0.960294  0.115432  0.749446  1
  Ru  Ru15  1  0.039033  0.885388  0.249853  1
