# generated using pymatgen
data_TmTh3MgCdNi4
_symmetry_space_group_name_H-M   'P 1'
_cell_length_a   7.58255519
_cell_length_b   7.56405551
_cell_length_c   3.66544500
_cell_angle_alpha   90.00000000
_cell_angle_beta   90.00000000
_cell_angle_gamma   90.91098823
_symmetry_Int_Tables_number   1
_chemical_formula_structural   TmTh3MgCdNi4
_chemical_formula_sum   'Tm1 Th3 Mg1 Cd1 Ni4'
_cell_volume   210.20454263
_cell_formula_units_Z   1
loop_
 _symmetry_equiv_pos_site_id
 _symmetry_equiv_pos_as_xyz
  1  'x, y, z'
loop_
 _atom_site_type_symbol
 _atom_site_label
 _atom_site_symmetry_multiplicity
 _atom_site_fract_x
 _atom_site_fract_y
 _atom_site_fract_z
 _atom_site_occupancy
  Tm  Tm0  1  0.829457  0.672567  0.500000  1
  Th  Th1  1  0.673432  0.170515  0.500000  1
  Th  Th2  1  0.329697  0.825002  0.500000  1
  Th  Th3  1  0.168875  0.332925  0.500000  1
  Mg  Mg4  1  0.509282  0.502756  0.000000  1
  Cd  Cd5  1  0.996282  0.990055  0.000000  1
  Ni  Ni6  1  0.127821  0.622585  0.000000  1
  Ni  Ni7  1  0.873463  0.375590  0.000000  1
  Ni  Ni8  1  0.617721  0.878966  0.000000  1
  Ni  Ni9  1  0.373968  0.129040  0.000000  1
