# generated using pymatgen
data_DyHoPa(InPt)3
_symmetry_space_group_name_H-M   'P 1'
_cell_length_a   7.64926129
_cell_length_b   7.62275193
_cell_length_c   3.93187800
_cell_angle_alpha   90.00000000
_cell_angle_beta   90.00000000
_cell_angle_gamma   120.08350081
_symmetry_Int_Tables_number   1
_chemical_formula_structural   DyHoPa(InPt)3
_chemical_formula_sum   'Dy1 Ho1 Pa1 In3 Pt3'
_cell_volume   198.37909909
_cell_formula_units_Z   1
loop_
 _symmetry_equiv_pos_site_id
 _symmetry_equiv_pos_as_xyz
  1  'x, y, z'
loop_
 _atom_site_type_symbol
 _atom_site_label
 _atom_site_symmetry_multiplicity
 _atom_site_fract_x
 _atom_site_fract_y
 _atom_site_fract_z
 _atom_site_occupancy
  Dy  Dy0  1  0.002463  0.595984  0.500000  1
  Ho  Ho1  1  0.406382  0.403906  0.500000  1
  Pa  Pa2  1  0.590149  0.000023  0.500000  1
  In  In3  1  0.742147  0.729966  0.000000  1
  In  In4  1  0.012411  0.269909  0.000000  1
  In  In5  1  0.246752  0.000234  0.000000  1
  Pt  Pt6  1  0.350808  0.686542  0.000000  1
  Pt  Pt7  1  0.663587  0.313222  0.000000  1
  Pt  Pt8  1  0.985303  0.000215  0.500000  1
