# generated using pymatgen
data_Nd3Gd3TcTe2
_symmetry_space_group_name_H-M   'P 1'
_cell_length_a   8.46747400
_cell_length_b   8.46747299
_cell_length_c   4.14327700
_cell_angle_alpha   90.00000000
_cell_angle_beta   90.00000000
_cell_angle_gamma   119.99999614
_symmetry_Int_Tables_number   1
_chemical_formula_structural   Nd3Gd3TcTe2
_chemical_formula_sum   'Nd3 Gd3 Tc1 Te2'
_cell_volume   257.26594987
_cell_formula_units_Z   1
loop_
 _symmetry_equiv_pos_site_id
 _symmetry_equiv_pos_as_xyz
  1  'x, y, z'
loop_
 _atom_site_type_symbol
 _atom_site_label
 _atom_site_symmetry_multiplicity
 _atom_site_fract_x
 _atom_site_fract_y
 _atom_site_fract_z
 _atom_site_occupancy
  Nd  Nd0  1  0.000000  0.400229  0.500000  1
  Nd  Nd1  1  0.599771  0.599771  0.500000  1
  Nd  Nd2  1  0.400229  0.000000  0.500000  1
  Gd  Gd3  1  0.000000  0.764274  0.000000  1
  Gd  Gd4  1  0.235726  0.235726  0.000000  1
  Gd  Gd5  1  0.764274  0.000000  0.000000  1
  Tc  Tc6  1  0.000000  0.000000  0.500000  1
  Te  Te7  1  0.333333  0.666667  0.000000  1
  Te  Te8  1  0.666667  0.333333  0.000000  1
