# generated using pymatgen
data_Ba6TbYIn2O12
_symmetry_space_group_name_H-M   'P 1'
_cell_length_a   7.31338753
_cell_length_b   7.31338613
_cell_length_c   7.31338820
_cell_angle_alpha   92.85840496
_cell_angle_beta   92.85840089
_cell_angle_gamma   92.85840652
_symmetry_Int_Tables_number   1
_chemical_formula_structural   Ba6TbYIn2O12
_chemical_formula_sum   'Ba6 Tb1 Y1 In2 O12'
_cell_volume   389.65061549
_cell_formula_units_Z   1
loop_
 _symmetry_equiv_pos_site_id
 _symmetry_equiv_pos_as_xyz
  1  'x, y, z'
loop_
 _atom_site_type_symbol
 _atom_site_label
 _atom_site_symmetry_multiplicity
 _atom_site_fract_x
 _atom_site_fract_y
 _atom_site_fract_z
 _atom_site_occupancy
  Ba  Ba0  1  0.250000  0.888437  0.611563  1
  Ba  Ba1  1  0.888437  0.611563  0.250000  1
  Ba  Ba2  1  0.750000  0.111633  0.388367  1
  Ba  Ba3  1  0.388367  0.750000  0.111633  1
  Ba  Ba4  1  0.111633  0.388367  0.750000  1
  Ba  Ba5  1  0.611563  0.250000  0.888437  1
  Tb  Tb6  1  0.750000  0.750000  0.750000  1
  Y  Y7  1  0.250000  0.250000  0.250000  1
  In  In8  1  0.499942  0.499942  0.499942  1
  In  In9  1  0.000058  0.000058  0.000058  1
  O  O10  1  0.597959  0.790572  0.466696  1
  O  O11  1  0.466696  0.597959  0.790572  1
  O  O12  1  0.790572  0.466696  0.597959  1
  O  O13  1  0.902041  0.033304  0.709428  1
  O  O14  1  0.709428  0.902041  0.033304  1
  O  O15  1  0.033304  0.709428  0.902041  1
  O  O16  1  0.401809  0.209656  0.532610  1
  O  O17  1  0.532610  0.401809  0.209656  1
  O  O18  1  0.209656  0.532610  0.401809  1
  O  O19  1  0.098191  0.967390  0.290344  1
  O  O20  1  0.967390  0.290344  0.098191  1
  O  O21  1  0.290344  0.098191  0.967390  1
