# generated using pymatgen
data_HoTm3B12MoRh
_symmetry_space_group_name_H-M   'P 1'
_cell_length_a   3.63566900
_cell_length_b   9.12912952
_cell_length_c   11.53134189
_cell_angle_alpha   90.41153024
_cell_angle_beta   90.00000000
_cell_angle_gamma   90.00000000
_symmetry_Int_Tables_number   1
_chemical_formula_structural   HoTm3B12MoRh
_chemical_formula_sum   'Ho2 Tm6 B24 Mo2 Rh2'
_cell_volume   382.72105217
_cell_formula_units_Z   2
loop_
 _symmetry_equiv_pos_site_id
 _symmetry_equiv_pos_as_xyz
  1  'x, y, z'
loop_
 _atom_site_type_symbol
 _atom_site_label
 _atom_site_symmetry_multiplicity
 _atom_site_fract_x
 _atom_site_fract_y
 _atom_site_fract_z
 _atom_site_occupancy
  Ho  Ho0  1  0.500000  0.319476  0.411852  1
  Ho  Ho1  1  0.500000  0.680524  0.588148  1
  Tm  Tm2  1  0.500000  0.174602  0.917046  1
  Tm  Tm3  1  0.500000  0.825398  0.082954  1
  Tm  Tm4  1  0.500000  0.443416  0.126359  1
  Tm  Tm5  1  0.500000  0.556584  0.873641  1
  Tm  Tm6  1  0.500000  0.054635  0.628366  1
  Tm  Tm7  1  0.500000  0.945365  0.371634  1
  B  B8  1  0.000000  0.105645  0.472200  1
  B  B9  1  0.000000  0.894355  0.527800  1
  B  B10  1  0.000000  0.394861  0.970228  1
  B  B11  1  0.000000  0.605139  0.029772  1
  B  B12  1  0.000000  0.132403  0.317438  1
  B  B13  1  0.000000  0.867597  0.682562  1
  B  B14  1  0.000000  0.367999  0.816358  1
  B  B15  1  0.000000  0.632001  0.183642  1
  B  B16  1  0.000000  0.051813  0.065693  1
  B  B17  1  0.000000  0.948187  0.934307  1
  B  B18  1  0.000000  0.445839  0.565696  1
  B  B19  1  0.000000  0.554161  0.434304  1
  B  B20  1  0.000000  0.483746  0.287755  1
  B  B21  1  0.000000  0.516254  0.712245  1
  B  B22  1  0.000000  0.020506  0.786403  1
  B  B23  1  0.000000  0.979494  0.213597  1
  B  B24  1  0.000000  0.250603  0.078892  1
  B  B25  1  0.000000  0.749397  0.921108  1
  B  B26  1  0.000000  0.250127  0.579510  1
  B  B27  1  0.000000  0.749873  0.420490  1
  B  B28  1  0.000000  0.296143  0.236069  1
  B  B29  1  0.000000  0.703857  0.763931  1
  B  B30  1  0.000000  0.208174  0.734700  1
  B  B31  1  0.000000  0.791826  0.265300  1
  Mo  Mo32  1  0.500000  0.139456  0.180898  1
  Mo  Mo33  1  0.500000  0.860544  0.819102  1
  Rh  Rh34  1  0.500000  0.361246  0.678786  1
  Rh  Rh35  1  0.500000  0.638754  0.321214  1
