# generated using pymatgen
data_Ti8Co7Si14Pt
_symmetry_space_group_name_H-M   'P 1'
_cell_length_a   9.22533303
_cell_length_b   9.23922217
_cell_length_c   9.20998822
_cell_angle_alpha   94.24875151
_cell_angle_beta   94.17011697
_cell_angle_gamma   148.59970058
_symmetry_Int_Tables_number   1
_chemical_formula_structural   Ti8Co7Si14Pt
_chemical_formula_sum   'Ti8 Co7 Si14 Pt1'
_cell_volume   393.66792070
_cell_formula_units_Z   1
loop_
 _symmetry_equiv_pos_site_id
 _symmetry_equiv_pos_as_xyz
  1  'x, y, z'
loop_
 _atom_site_type_symbol
 _atom_site_label
 _atom_site_symmetry_multiplicity
 _atom_site_fract_x
 _atom_site_fract_y
 _atom_site_fract_z
 _atom_site_occupancy
  Ti  Ti0  1  0.135537  0.135545  0.271082  1
  Ti  Ti1  1  0.865189  0.865185  0.730375  1
  Ti  Ti2  1  0.865027  0.133010  0.001362  1
  Ti  Ti3  1  0.136331  0.868349  0.001351  1
  Ti  Ti4  1  0.501591  0.691197  0.193228  1
  Ti  Ti5  1  0.496716  0.307298  0.808491  1
  Ti  Ti6  1  0.311778  0.501191  0.808486  1
  Ti  Ti7  1  0.691633  0.502024  0.193223  1
  Co  Co8  1  0.103794  0.603792  0.207572  1
  Co  Co9  1  0.102232  0.899916  0.501637  1
  Co  Co10  1  0.399413  0.601723  0.501631  1
  Co  Co11  1  0.596337  0.399336  0.495325  1
  Co  Co12  1  0.898976  0.095979  0.495318  1
  Co  Co13  1  0.898638  0.398644  0.797299  1
  Co  Co14  1  0.598897  0.098896  0.197813  1
  Si  Si15  1  0.293971  0.293961  0.587949  1
  Si  Si16  1  0.705627  0.705636  0.411247  1
  Si  Si17  1  0.728055  0.321525  0.007311  1
  Si  Si18  1  0.279265  0.685799  0.007333  1
  Si  Si19  1  0.998603  0.291045  0.292116  1
  Si  Si20  1  0.979427  0.695529  0.705730  1
  Si  Si21  1  0.726300  0.010203  0.705724  1
  Si  Si22  1  0.293514  0.001068  0.292118  1
  Si  Si23  1  0.501494  0.906022  0.406359  1
  Si  Si24  1  0.518025  0.116546  0.585577  1
  Si  Si25  1  0.067541  0.469028  0.585572  1
  Si  Si26  1  0.904873  0.500341  0.406366  1
  Si  Si27  1  0.749497  0.749776  0.000906  1
  Si  Si28  1  0.251411  0.251127  0.000907  1
  Pt  Pt29  1  0.400308  0.900310  0.800591  1
