# generated using pymatgen
data_Tm6Mn5Al12(Si4Ru)3
_symmetry_space_group_name_H-M   'P 1'
_cell_length_a   8.54423200
_cell_length_b   8.54423166
_cell_length_c   9.14086300
_cell_angle_alpha   90.00000000
_cell_angle_beta   90.00000000
_cell_angle_gamma   120.00000905
_symmetry_Int_Tables_number   1
_chemical_formula_structural   Tm6Mn5Al12(Si4Ru)3
_chemical_formula_sum   'Tm6 Mn5 Al12 Si12 Ru3'
_cell_volume   577.91483003
_cell_formula_units_Z   1
loop_
 _symmetry_equiv_pos_site_id
 _symmetry_equiv_pos_as_xyz
  1  'x, y, z'
loop_
 _atom_site_type_symbol
 _atom_site_label
 _atom_site_symmetry_multiplicity
 _atom_site_fract_x
 _atom_site_fract_y
 _atom_site_fract_z
 _atom_site_occupancy
  Tm  Tm0  1  0.806741  0.193259  0.753901  1
  Tm  Tm1  1  0.193259  0.806741  0.246099  1
  Tm  Tm2  1  0.386518  0.193259  0.753901  1
  Tm  Tm3  1  0.613482  0.806741  0.246099  1
  Tm  Tm4  1  0.806741  0.613482  0.753901  1
  Tm  Tm5  1  0.193259  0.386518  0.246099  1
  Mn  Mn6  1  0.500000  0.500000  0.000000  1
  Mn  Mn7  1  0.000000  0.500000  0.000000  1
  Mn  Mn8  1  0.500000  0.000000  0.000000  1
  Mn  Mn9  1  0.000000  0.000000  0.000000  1
  Mn  Mn10  1  0.000000  0.000000  0.500000  1
  Al  Al11  1  0.836647  0.163353  0.419014  1
  Al  Al12  1  0.163353  0.836647  0.580986  1
  Al  Al13  1  0.326705  0.163353  0.419014  1
  Al  Al14  1  0.165140  0.834860  0.923241  1
  Al  Al15  1  0.673295  0.836647  0.580986  1
  Al  Al16  1  0.834860  0.165140  0.076759  1
  Al  Al17  1  0.836647  0.673295  0.419014  1
  Al  Al18  1  0.669720  0.834860  0.923241  1
  Al  Al19  1  0.163353  0.326705  0.580986  1
  Al  Al20  1  0.330280  0.165140  0.076759  1
  Al  Al21  1  0.165140  0.330280  0.923241  1
  Al  Al22  1  0.834860  0.669720  0.076759  1
  Si  Si23  1  0.666667  0.333333  0.964255  1
  Si  Si24  1  0.333333  0.666667  0.035745  1
  Si  Si25  1  0.333333  0.666667  0.456639  1
  Si  Si26  1  0.666667  0.333333  0.543361  1
  Si  Si27  1  0.440301  0.559699  0.756712  1
  Si  Si28  1  0.559699  0.440301  0.243288  1
  Si  Si29  1  0.119397  0.559699  0.756712  1
  Si  Si30  1  0.880603  0.440301  0.243288  1
  Si  Si31  1  0.440301  0.880603  0.756712  1
  Si  Si32  1  0.559699  0.119397  0.243288  1
  Si  Si33  1  0.000000  0.000000  0.750997  1
  Si  Si34  1  0.000000  0.000000  0.249003  1
  Ru  Ru35  1  0.500000  0.500000  0.500000  1
  Ru  Ru36  1  0.000000  0.500000  0.500000  1
  Ru  Ru37  1  0.500000  0.000000  0.500000  1
