# generated using pymatgen
data_Tb14Th2Cd3Ni4Hg
_symmetry_space_group_name_H-M   'P 1'
_cell_length_a   9.61147932
_cell_length_b   9.61147854
_cell_length_c   9.63476569
_cell_angle_alpha   59.95527363
_cell_angle_beta   59.95527320
_cell_angle_gamma   59.92112757
_symmetry_Int_Tables_number   1
_chemical_formula_structural   Tb14Th2Cd3Ni4Hg
_chemical_formula_sum   'Tb14 Th2 Cd3 Ni4 Hg1'
_cell_volume   628.56974246
_cell_formula_units_Z   1
loop_
 _symmetry_equiv_pos_site_id
 _symmetry_equiv_pos_as_xyz
  1  'x, y, z'
loop_
 _atom_site_type_symbol
 _atom_site_label
 _atom_site_symmetry_multiplicity
 _atom_site_fract_x
 _atom_site_fract_y
 _atom_site_fract_z
 _atom_site_occupancy
  Tb  Tb0  1  0.349055  0.949578  0.351232  1
  Tb  Tb1  1  0.949578  0.349055  0.351232  1
  Tb  Tb2  1  0.810999  0.189667  0.189479  1
  Tb  Tb3  1  0.189767  0.812004  0.810744  1
  Tb  Tb4  1  0.189667  0.810999  0.189479  1
  Tb  Tb5  1  0.812004  0.189767  0.810744  1
  Tb  Tb6  1  0.189279  0.189279  0.812003  1
  Tb  Tb7  1  0.811009  0.811009  0.188819  1
  Tb  Tb8  1  0.937538  0.564929  0.565090  1
  Tb  Tb9  1  0.563130  0.936346  0.933932  1
  Tb  Tb10  1  0.564929  0.937538  0.565090  1
  Tb  Tb11  1  0.936346  0.563130  0.933932  1
  Tb  Tb12  1  0.563810  0.563810  0.937278  1
  Tb  Tb13  1  0.935349  0.935349  0.562961  1
  Th  Th14  1  0.343344  0.343344  0.347813  1
  Th  Th15  1  0.343989  0.343989  0.959542  1
  Cd  Cd16  1  0.581626  0.581626  0.255399  1
  Cd  Cd17  1  0.582352  0.256572  0.580140  1
  Cd  Cd18  1  0.256572  0.582352  0.580140  1
  Ni  Ni19  1  0.144148  0.144148  0.139484  1
  Ni  Ni20  1  0.143178  0.143178  0.570865  1
  Ni  Ni21  1  0.146780  0.569130  0.140962  1
  Ni  Ni22  1  0.569130  0.146780  0.140962  1
  Hg  Hg23  1  0.586422  0.586422  0.582675  1
