# generated using pymatgen
data_Lu12Fe4CoBi
_symmetry_space_group_name_H-M   'P 1'
_cell_length_a   8.14908019
_cell_length_b   8.14907936
_cell_length_c   8.14907920
_cell_angle_alpha   110.91260011
_cell_angle_beta   111.38415362
_cell_angle_gamma   106.16696476
_symmetry_Int_Tables_number   1
_chemical_formula_structural   Lu12Fe4CoBi
_chemical_formula_sum   'Lu12 Fe4 Co1 Bi1'
_cell_volume   415.54618292
_cell_formula_units_Z   1
loop_
 _symmetry_equiv_pos_site_id
 _symmetry_equiv_pos_as_xyz
  1  'x, y, z'
loop_
 _atom_site_type_symbol
 _atom_site_label
 _atom_site_symmetry_multiplicity
 _atom_site_fract_x
 _atom_site_fract_y
 _atom_site_fract_z
 _atom_site_occupancy
  Lu  Lu0  1  0.815964  0.717974  0.533938  1
  Lu  Lu1  1  0.184036  0.282026  0.466062  1
  Lu  Lu2  1  0.184036  0.717974  0.902011  1
  Lu  Lu3  1  0.815964  0.282026  0.097989  1
  Lu  Lu4  1  0.689984  0.384413  0.694429  1
  Lu  Lu5  1  0.310016  0.615587  0.305571  1
  Lu  Lu6  1  0.689984  0.995554  0.305571  1
  Lu  Lu7  1  0.310016  0.004446  0.694429  1
  Lu  Lu8  1  0.591876  0.788977  0.802900  1
  Lu  Lu9  1  0.408124  0.211023  0.197100  1
  Lu  Lu10  1  0.986077  0.788977  0.197100  1
  Lu  Lu11  1  0.013923  0.211023  0.802900  1
  Fe  Fe12  1  0.618630  0.000000  0.618630  1
  Fe  Fe13  1  0.381370  0.000000  0.381370  1
  Fe  Fe14  1  0.108412  0.608412  0.500000  1
  Fe  Fe15  1  0.891588  0.391588  0.500000  1
  Co  Co16  1  0.000000  0.000000  0.000000  1
  Bi  Bi17  1  0.500000  0.500000  0.000000  1
