# generated using pymatgen
data_Nd2FeSi8Ni17
_symmetry_space_group_name_H-M   'P 1'
_cell_length_a   7.94229228
_cell_length_b   7.94229277
_cell_length_c   7.96823626
_cell_angle_alpha   120.97389628
_cell_angle_beta   120.97389235
_cell_angle_gamma   88.12855673
_symmetry_Int_Tables_number   1
_chemical_formula_structural   Nd2FeSi8Ni17
_chemical_formula_sum   'Nd2 Fe1 Si8 Ni17'
_cell_volume   350.58979058
_cell_formula_units_Z   1
loop_
 _symmetry_equiv_pos_site_id
 _symmetry_equiv_pos_as_xyz
  1  'x, y, z'
loop_
 _atom_site_type_symbol
 _atom_site_label
 _atom_site_symmetry_multiplicity
 _atom_site_fract_x
 _atom_site_fract_y
 _atom_site_fract_z
 _atom_site_occupancy
  Nd  Nd0  1  0.750000  0.750000  0.000000  1
  Nd  Nd1  1  0.250000  0.250000  0.000000  1
  Fe  Fe2  1  0.500000  0.000000  0.500000  1
  Si  Si3  1  0.287098  0.787098  0.839302  1
  Si  Si4  1  0.052204  0.552204  0.839302  1
  Si  Si5  1  0.553070  0.712293  0.500000  1
  Si  Si6  1  0.787707  0.946930  0.500000  1
  Si  Si7  1  0.446930  0.287707  0.500000  1
  Si  Si8  1  0.947796  0.447796  0.160698  1
  Si  Si9  1  0.712902  0.212902  0.160698  1
  Si  Si10  1  0.212293  0.053070  0.500000  1
  Ni  Ni11  1  0.682312  0.447054  0.500000  1
  Ni  Ni12  1  0.447625  0.947625  0.764077  1
  Ni  Ni13  1  0.183549  0.683549  0.235923  1
  Ni  Ni14  1  0.552375  0.052375  0.235923  1
  Ni  Ni15  1  0.947054  0.182312  0.500000  1
  Ni  Ni16  1  0.203764  0.929933  0.133697  1
  Ni  Ni17  1  0.796236  0.070067  0.866303  1
  Ni  Ni18  1  0.429933  0.703764  0.133697  1
  Ni  Ni19  1  0.570067  0.296236  0.866303  1
  Ni  Ni20  1  0.702802  0.568806  0.271608  1
  Ni  Ni21  1  0.297198  0.431194  0.728392  1
  Ni  Ni22  1  0.931194  0.797198  0.728392  1
  Ni  Ni23  1  0.317688  0.552946  0.500000  1
  Ni  Ni24  1  0.816451  0.316451  0.764077  1
  Ni  Ni25  1  0.000000  0.500000  0.500000  1
  Ni  Ni26  1  0.068806  0.202802  0.271608  1
  Ni  Ni27  1  0.052946  0.817688  0.500000  1
