# generated using pymatgen
data_Th3Sn3IrOsRh
_symmetry_space_group_name_H-M   'P 1'
_cell_length_a   7.60122200
_cell_length_b   7.60122306
_cell_length_c   4.11582200
_cell_angle_alpha   90.00000000
_cell_angle_beta   90.00000000
_cell_angle_gamma   120.00000408
_symmetry_Int_Tables_number   1
_chemical_formula_structural   Th3Sn3IrOsRh
_chemical_formula_sum   'Th3 Sn3 Ir1 Os1 Rh1'
_cell_volume   205.94634652
_cell_formula_units_Z   1
loop_
 _symmetry_equiv_pos_site_id
 _symmetry_equiv_pos_as_xyz
  1  'x, y, z'
loop_
 _atom_site_type_symbol
 _atom_site_label
 _atom_site_symmetry_multiplicity
 _atom_site_fract_x
 _atom_site_fract_y
 _atom_site_fract_z
 _atom_site_occupancy
  Th  Th0  1  0.415427  0.412022  0.500000  1
  Th  Th1  1  0.587978  0.003405  0.500000  1
  Th  Th2  1  0.996595  0.584573  0.500000  1
  Sn  Sn3  1  0.749348  0.748715  0.000000  1
  Sn  Sn4  1  0.251285  0.000633  0.000000  1
  Sn  Sn5  1  0.999367  0.250652  0.000000  1
  Ir  Ir6  1  0.333333  0.666667  0.000000  1
  Os  Os7  1  0.666667  0.333333  0.000000  1
  Rh  Rh8  1  0.000000  0.000000  0.500000  1
