# generated using pymatgen
data_Li4AlSb3Rh8
_symmetry_space_group_name_H-M   'P 1'
_cell_length_a   6.13594503
_cell_length_b   6.13548204
_cell_length_c   6.13606702
_cell_angle_alpha   90.00766661
_cell_angle_beta   89.99721705
_cell_angle_gamma   90.01010390
_symmetry_Int_Tables_number   1
_chemical_formula_structural   Li4AlSb3Rh8
_chemical_formula_sum   'Li4 Al1 Sb3 Rh8'
_cell_volume   231.00438928
_cell_formula_units_Z   1
loop_
 _symmetry_equiv_pos_site_id
 _symmetry_equiv_pos_as_xyz
  1  'x, y, z'
loop_
 _atom_site_type_symbol
 _atom_site_label
 _atom_site_symmetry_multiplicity
 _atom_site_fract_x
 _atom_site_fract_y
 _atom_site_fract_z
 _atom_site_occupancy
  Li  Li0  1  0.500012  0.749984  0.249921  1
  Li  Li1  1  0.999991  0.250011  0.249929  1
  Li  Li2  1  0.999992  0.749991  0.750084  1
  Li  Li3  1  0.500005  0.250013  0.750098  1
  Al  Al4  1  0.500003  0.250006  0.249977  1
  Sb  Sb5  1  0.000010  0.750007  0.250045  1
  Sb  Sb6  1  0.000012  0.249988  0.749966  1
  Sb  Sb7  1  0.499986  0.750005  0.749972  1
  Rh  Rh8  1  0.254168  0.004160  0.004170  1
  Rh  Rh9  1  0.745822  0.004161  0.004186  1
  Rh  Rh10  1  0.745818  0.495830  0.004188  1
  Rh  Rh11  1  0.254181  0.495827  0.004190  1
  Rh  Rh12  1  0.254187  0.495826  0.495806  1
  Rh  Rh13  1  0.254181  0.004161  0.495825  1
  Rh  Rh14  1  0.745837  0.495842  0.495840  1
  Rh  Rh15  1  0.745795  0.004188  0.495803  1
