# generated using pymatgen
data_YTm7In3Co
_symmetry_space_group_name_H-M   'P 1'
_cell_length_a   10.16496100
_cell_length_b   10.16496222
_cell_length_c   6.91239000
_cell_angle_alpha   90.00000000
_cell_angle_beta   90.00000000
_cell_angle_gamma   120.00000578
_symmetry_Int_Tables_number   1
_chemical_formula_structural   YTm7In3Co
_chemical_formula_sum   'Y2 Tm14 In6 Co2'
_cell_volume   618.54361085
_cell_formula_units_Z   2
loop_
 _symmetry_equiv_pos_site_id
 _symmetry_equiv_pos_as_xyz
  1  'x, y, z'
loop_
 _atom_site_type_symbol
 _atom_site_label
 _atom_site_symmetry_multiplicity
 _atom_site_fract_x
 _atom_site_fract_y
 _atom_site_fract_z
 _atom_site_occupancy
  Y  Y0  1  0.000000  0.000000  0.495973  1
  Y  Y1  1  0.000000  0.000000  0.995973  1
  Tm  Tm2  1  0.465263  0.534737  0.482056  1
  Tm  Tm3  1  0.069475  0.534737  0.482056  1
  Tm  Tm4  1  0.465263  0.930525  0.482056  1
  Tm  Tm5  1  0.534737  0.465263  0.982056  1
  Tm  Tm6  1  0.930525  0.465263  0.982056  1
  Tm  Tm7  1  0.534737  0.069475  0.982056  1
  Tm  Tm8  1  0.820825  0.179175  0.276114  1
  Tm  Tm9  1  0.358350  0.179175  0.276114  1
  Tm  Tm10  1  0.820825  0.641650  0.276114  1
  Tm  Tm11  1  0.179175  0.820825  0.776114  1
  Tm  Tm12  1  0.641650  0.820825  0.776114  1
  Tm  Tm13  1  0.179175  0.358350  0.776114  1
  Tm  Tm14  1  0.333333  0.666667  0.092237  1
  Tm  Tm15  1  0.666667  0.333333  0.592237  1
  In  In16  1  0.163831  0.836169  0.234418  1
  In  In17  1  0.672337  0.836169  0.234418  1
  In  In18  1  0.163831  0.327663  0.234418  1
  In  In19  1  0.836169  0.163831  0.734418  1
  In  In20  1  0.327663  0.163831  0.734418  1
  In  In21  1  0.836169  0.672337  0.734418  1
  Co  Co22  1  0.333333  0.666667  0.706301  1
  Co  Co23  1  0.666667  0.333333  0.206301  1
