# generated using pymatgen
data_Tm10Co(RuO8)3
_symmetry_space_group_name_H-M   'P 1'
_cell_length_a   5.74142201
_cell_length_b   7.29174413
_cell_length_c   12.24764000
_cell_angle_alpha   107.09428797
_cell_angle_beta   90.00322334
_cell_angle_gamma   89.97244660
_symmetry_Int_Tables_number   1
_chemical_formula_structural   Tm10Co(RuO8)3
_chemical_formula_sum   'Tm10 Co1 Ru3 O24'
_cell_volume   490.09516808
_cell_formula_units_Z   1
loop_
 _symmetry_equiv_pos_site_id
 _symmetry_equiv_pos_as_xyz
  1  'x, y, z'
loop_
 _atom_site_type_symbol
 _atom_site_label
 _atom_site_symmetry_multiplicity
 _atom_site_fract_x
 _atom_site_fract_y
 _atom_site_fract_z
 _atom_site_occupancy
  Tm  Tm0  1  0.255665  0.615121  0.445084  1
  Tm  Tm1  1  0.742315  0.394755  0.565443  1
  Tm  Tm2  1  0.245554  0.087269  0.450415  1
  Tm  Tm3  1  0.743430  0.909385  0.554104  1
  Tm  Tm4  1  0.255599  0.884881  0.054931  1
  Tm  Tm5  1  0.742313  0.105198  0.934546  1
  Tm  Tm6  1  0.245566  0.412730  0.049551  1
  Tm  Tm7  1  0.743422  0.590561  0.945918  1
  Tm  Tm8  1  0.248529  0.249947  0.749995  1
  Tm  Tm9  1  0.752224  0.750055  0.250013  1
  Co  Co10  1  0.501887  0.750000  0.750025  1
  Ru  Ru11  1  0.978598  0.250061  0.249976  1
  Ru  Ru12  1  0.520803  0.250030  0.249964  1
  Ru  Ru13  1  0.020339  0.750007  0.750023  1
  O  O14  1  0.258377  0.936138  0.750336  1
  O  O15  1  0.749628  0.048855  0.248195  1
  O  O16  1  0.497140  0.329524  0.903268  1
  O  O17  1  0.000571  0.670423  0.096121  1
  O  O18  1  0.497635  0.669901  0.097928  1
  O  O19  1  0.998430  0.328070  0.901669  1
  O  O20  1  0.258509  0.563880  0.749731  1
  O  O21  1  0.749368  0.451195  0.251777  1
  O  O22  1  0.249739  0.071026  0.249526  1
  O  O23  1  0.751063  0.931433  0.748722  1
  O  O24  1  0.513241  0.831476  0.915753  1
  O  O25  1  0.004398  0.170476  0.084257  1
  O  O26  1  0.491115  0.171058  0.084743  1
  O  O27  1  0.990531  0.832498  0.916629  1
  O  O28  1  0.497123  0.170448  0.596705  1
  O  O29  1  0.000570  0.829617  0.403892  1
  O  O30  1  0.497663  0.830108  0.402103  1
  O  O31  1  0.998442  0.171823  0.598323  1
  O  O32  1  0.513288  0.668525  0.584280  1
  O  O33  1  0.004350  0.329581  0.415695  1
  O  O34  1  0.491125  0.328929  0.415193  1
  O  O35  1  0.990626  0.667435  0.583416  1
  O  O36  1  0.249554  0.429043  0.250453  1
  O  O37  1  0.751272  0.568536  0.751294  1
