# generated using pymatgen
data_LiCaYRuO6
_symmetry_space_group_name_H-M   'P 1'
_cell_length_a   5.71218000
_cell_length_b   5.36694510
_cell_length_c   9.36924934
_cell_angle_alpha   54.07707862
_cell_angle_beta   90.00000000
_cell_angle_gamma   90.00000000
_symmetry_Int_Tables_number   1
_chemical_formula_structural   LiCaYRuO6
_chemical_formula_sum   'Li2 Ca2 Y2 Ru2 O12'
_cell_volume   232.60302486
_cell_formula_units_Z   2
loop_
 _symmetry_equiv_pos_site_id
 _symmetry_equiv_pos_as_xyz
  1  'x, y, z'
loop_
 _atom_site_type_symbol
 _atom_site_label
 _atom_site_symmetry_multiplicity
 _atom_site_fract_x
 _atom_site_fract_y
 _atom_site_fract_z
 _atom_site_occupancy
  Li  Li0  1  0.757564  0.503034  0.999738  1
  Li  Li1  1  0.242436  0.503034  0.499738  1
  Ca  Ca2  1  0.182540  0.234746  0.247530  1
  Ca  Ca3  1  0.817460  0.234746  0.747530  1
  Y  Y4  1  0.331199  0.767408  0.755148  1
  Y  Y5  1  0.668801  0.767408  0.255148  1
  Ru  Ru6  1  0.756216  0.000010  0.499876  1
  Ru  Ru7  1  0.243784  0.000010  0.999876  1
  O  O8  1  0.044898  0.105498  0.561169  1
  O  O9  1  0.955102  0.105498  0.061169  1
  O  O10  1  0.471825  0.873452  0.441820  1
  O  O11  1  0.528175  0.873452  0.941820  1
  O  O12  1  0.786445  0.361507  0.258470  1
  O  O13  1  0.213555  0.361507  0.758470  1
  O  O14  1  0.715285  0.657356  0.743259  1
  O  O15  1  0.284715  0.657356  0.243259  1
  O  O16  1  0.930797  0.755641  0.443519  1
  O  O17  1  0.069203  0.755641  0.943519  1
  O  O18  1  0.559432  0.241347  0.549473  1
  O  O19  1  0.440568  0.241347  0.049473  1
