# generated using pymatgen
data_TbAlCr3(CuO4)3
_symmetry_space_group_name_H-M   'P 1'
_cell_length_a   6.36984751
_cell_length_b   6.35071834
_cell_length_c   6.35071760
_cell_angle_alpha   109.41011186
_cell_angle_beta   109.53224927
_cell_angle_gamma   109.53225477
_symmetry_Int_Tables_number   1
_chemical_formula_structural   TbAlCr3(CuO4)3
_chemical_formula_sum   'Tb1 Al1 Cr3 Cu3 O12'
_cell_volume   197.61739689
_cell_formula_units_Z   1
loop_
 _symmetry_equiv_pos_site_id
 _symmetry_equiv_pos_as_xyz
  1  'x, y, z'
loop_
 _atom_site_type_symbol
 _atom_site_label
 _atom_site_symmetry_multiplicity
 _atom_site_fract_x
 _atom_site_fract_y
 _atom_site_fract_z
 _atom_site_occupancy
  Tb  Tb0  1  0.000000  0.000000  0.000000  1
  Al  Al1  1  0.500000  0.000000  0.000000  1
  Cr  Cr2  1  0.000000  0.000000  0.500000  1
  Cr  Cr3  1  0.000000  0.500000  0.000000  1
  Cr  Cr4  1  0.500000  0.500000  0.500000  1
  Cu  Cu5  1  0.000000  0.500000  0.500000  1
  Cu  Cu6  1  0.500000  0.000000  0.500000  1
  Cu  Cu7  1  0.500000  0.500000  0.000000  1
  O  O8  1  0.312590  0.135464  0.836869  1
  O  O9  1  0.687410  0.864536  0.163131  1
  O  O10  1  0.694140  0.526947  0.833729  1
  O  O11  1  0.475721  0.163131  0.298595  1
  O  O12  1  0.167192  0.306781  0.473053  1
  O  O13  1  0.822874  0.298595  0.135464  1
  O  O14  1  0.860411  0.166271  0.693219  1
  O  O15  1  0.832808  0.693219  0.526947  1
  O  O16  1  0.305860  0.473053  0.166271  1
  O  O17  1  0.524279  0.836869  0.701405  1
  O  O18  1  0.177126  0.701405  0.864536  1
  O  O19  1  0.139589  0.833729  0.306781  1
