# generated using pymatgen
data_CsBa3(CrN3)2
_symmetry_space_group_name_H-M   'P 1'
_cell_length_a   6.73435482
_cell_length_b   6.73435343
_cell_length_c   13.01110375
_cell_angle_alpha   90.44702962
_cell_angle_beta   89.55298918
_cell_angle_gamma   128.41508322
_symmetry_Int_Tables_number   1
_chemical_formula_structural   CsBa3(CrN3)2
_chemical_formula_sum   'Cs2 Ba6 Cr4 N12'
_cell_volume   462.32280404
_cell_formula_units_Z   2
loop_
 _symmetry_equiv_pos_site_id
 _symmetry_equiv_pos_as_xyz
  1  'x, y, z'
loop_
 _atom_site_type_symbol
 _atom_site_label
 _atom_site_symmetry_multiplicity
 _atom_site_fract_x
 _atom_site_fract_y
 _atom_site_fract_z
 _atom_site_occupancy
  Cs  Cs0  1  0.541685  0.458315  0.640756  1
  Cs  Cs1  1  0.458315  0.541685  0.359244  1
  Ba  Ba2  1  0.938330  0.061671  0.138582  1
  Ba  Ba3  1  0.061670  0.938329  0.861418  1
  Ba  Ba4  1  0.846714  0.153287  0.584121  1
  Ba  Ba5  1  0.153286  0.846713  0.415879  1
  Ba  Ba6  1  0.645173  0.354828  0.086664  1
  Ba  Ba7  1  0.354827  0.645172  0.913336  1
  Cr  Cr8  1  0.732312  0.267688  0.835907  1
  Cr  Cr9  1  0.267688  0.732312  0.164093  1
  Cr  Cr10  1  0.775374  0.224625  0.328267  1
  Cr  Cr11  1  0.224626  0.775375  0.671733  1
  N  N12  1  0.828258  0.171743  0.937995  1
  N  N13  1  0.171742  0.828257  0.062005  1
  N  N14  1  0.693554  0.306447  0.434557  1
  N  N15  1  0.306446  0.693553  0.565443  1
  N  N16  1  0.597931  0.402069  0.881383  1
  N  N17  1  0.402069  0.597931  0.118617  1
  N  N18  1  0.910824  0.089176  0.362819  1
  N  N19  1  0.089176  0.910824  0.637181  1
  N  N20  1  0.503000  0.995760  0.755596  1
  N  N21  1  0.995760  0.503000  0.244403  1
  N  N22  1  0.497000  0.004240  0.244404  1
  N  N23  1  0.004240  0.497000  0.755597  1
