# generated using pymatgen
data_Sm2Y4RhI10
_symmetry_space_group_name_H-M   'P 1'
_cell_length_a   7.78809869
_cell_length_b   9.74918717
_cell_length_c   9.84099047
_cell_angle_alpha   107.45220128
_cell_angle_beta   97.14420647
_cell_angle_gamma   104.38300458
_symmetry_Int_Tables_number   1
_chemical_formula_structural   Sm2Y4RhI10
_chemical_formula_sum   'Sm2 Y4 Rh1 I10'
_cell_volume   674.28720976
_cell_formula_units_Z   1
loop_
 _symmetry_equiv_pos_site_id
 _symmetry_equiv_pos_as_xyz
  1  'x, y, z'
loop_
 _atom_site_type_symbol
 _atom_site_label
 _atom_site_symmetry_multiplicity
 _atom_site_fract_x
 _atom_site_fract_y
 _atom_site_fract_z
 _atom_site_occupancy
  Sm  Sm0  1  0.530911  0.219836  0.416625  1
  Sm  Sm1  1  0.469089  0.780164  0.583375  1
  Y  Y2  1  0.148121  0.373083  0.331746  1
  Y  Y3  1  0.851879  0.626917  0.668254  1
  Y  Y4  1  0.613430  0.540920  0.256851  1
  Y  Y5  1  0.386570  0.459080  0.743149  1
  Rh  Rh6  1  0.500000  0.500000  0.500000  1
  I  I7  1  0.143035  0.047202  0.225431  1
  I  I8  1  0.856965  0.952798  0.774569  1
  I  I9  1  0.241420  0.411839  0.037266  1
  I  I10  1  0.758580  0.588161  0.962734  1
  I  I11  1  0.721437  0.243561  0.151539  1
  I  I12  1  0.278563  0.756439  0.848461  1
  I  I13  1  0.043030  0.681628  0.407792  1
  I  I14  1  0.956970  0.318372  0.592208  1
  I  I15  1  0.411991  0.130219  0.682267  1
  I  I16  1  0.588009  0.869781  0.317733  1
