# generated using pymatgen
data_ErTm19Ir7Rh5
_symmetry_space_group_name_H-M   'P 1'
_cell_length_a   10.74050105
_cell_length_b   10.73977024
_cell_length_c   6.31575303
_cell_angle_alpha   89.98809265
_cell_angle_beta   89.99495413
_cell_angle_gamma   89.92052563
_symmetry_Int_Tables_number   1
_chemical_formula_structural   ErTm19Ir7Rh5
_chemical_formula_sum   'Er1 Tm19 Ir7 Rh5'
_cell_volume   728.52463609
_cell_formula_units_Z   1
loop_
 _symmetry_equiv_pos_site_id
 _symmetry_equiv_pos_as_xyz
  1  'x, y, z'
loop_
 _atom_site_type_symbol
 _atom_site_label
 _atom_site_symmetry_multiplicity
 _atom_site_fract_x
 _atom_site_fract_y
 _atom_site_fract_z
 _atom_site_occupancy
  Er  Er0  1  0.290140  0.088186  0.378489  1
  Tm  Tm1  1  0.290631  0.911587  0.877933  1
  Tm  Tm2  1  0.708801  0.087942  0.877574  1
  Tm  Tm3  1  0.708848  0.909974  0.378854  1
  Tm  Tm4  1  0.588229  0.790400  0.878486  1
  Tm  Tm5  1  0.587026  0.209680  0.378124  1
  Tm  Tm6  1  0.411455  0.790405  0.378321  1
  Tm  Tm7  1  0.411628  0.209434  0.878147  1
  Tm  Tm8  1  0.209584  0.411809  0.621531  1
  Tm  Tm9  1  0.209457  0.588593  0.121696  1
  Tm  Tm10  1  0.790378  0.413142  0.121867  1
  Tm  Tm11  1  0.790627  0.588460  0.621837  1
  Tm  Tm12  1  0.911849  0.709676  0.121349  1
  Tm  Tm13  1  0.912059  0.291186  0.622398  1
  Tm  Tm14  1  0.088298  0.709358  0.622048  1
  Tm  Tm15  1  0.089909  0.291243  0.121047  1
  Tm  Tm16  1  0.999824  0.999734  0.499992  1
  Tm  Tm17  1  0.000183  0.000002  0.000065  1
  Tm  Tm18  1  0.499910  0.499755  0.999885  1
  Tm  Tm19  1  0.500266  0.500104  0.500168  1
  Ir  Ir20  1  0.845913  0.846813  0.750075  1
  Ir  Ir21  1  0.153058  0.154175  0.750346  1
  Ir  Ir22  1  0.153885  0.845836  0.249882  1
  Ir  Ir23  1  0.654729  0.345270  0.749995  1
  Ir  Ir24  1  0.654142  0.653743  0.249755  1
  Ir  Ir25  1  0.346340  0.346106  0.250101  1
  Ir  Ir26  1  0.346003  0.654014  0.749993  1
  Rh  Rh27  1  0.845892  0.154117  0.250000  1
  Rh  Rh28  1  0.500745  0.000131  0.123841  1
  Rh  Rh29  1  0.500689  0.000151  0.623625  1
  Rh  Rh30  1  0.999744  0.499521  0.876620  1
  Rh  Rh31  1  0.999755  0.499454  0.375954  1
