# generated using pymatgen
data_Y6Er(TmPb2)3
_symmetry_space_group_name_H-M   'P 1'
_cell_length_a   6.57939900
_cell_length_b   9.04873671
_cell_length_c   9.05011501
_cell_angle_alpha   119.99621709
_cell_angle_beta   89.99971505
_cell_angle_gamma   90.00012543
_symmetry_Int_Tables_number   1
_chemical_formula_structural   Y6Er(TmPb2)3
_chemical_formula_sum   'Y6 Er1 Tm3 Pb6'
_cell_volume   466.63301237
_cell_formula_units_Z   1
loop_
 _symmetry_equiv_pos_site_id
 _symmetry_equiv_pos_as_xyz
  1  'x, y, z'
loop_
 _atom_site_type_symbol
 _atom_site_label
 _atom_site_symmetry_multiplicity
 _atom_site_fract_x
 _atom_site_fract_y
 _atom_site_fract_z
 _atom_site_occupancy
  Y  Y0  1  0.750019  0.238850  0.000012  1
  Y  Y1  1  0.750016  0.760981  0.761051  1
  Y  Y2  1  0.750014  0.999905  0.238936  1
  Y  Y3  1  0.249988  0.761162  0.000014  1
  Y  Y4  1  0.249982  0.239026  0.238938  1
  Y  Y5  1  0.249985  0.000065  0.761053  1
  Er  Er6  1  0.499990  0.333323  0.666619  1
  Tm  Tm7  1  0.499998  0.666670  0.333383  1
  Tm  Tm8  1  0.000000  0.666710  0.333385  1
  Tm  Tm9  1  0.999998  0.333325  0.666615  1
  Pb  Pb10  1  0.750034  0.605109  0.000041  1
  Pb  Pb11  1  0.750047  0.395011  0.395015  1
  Pb  Pb12  1  0.750049  0.999903  0.604944  1
  Pb  Pb13  1  0.249953  0.394928  0.000046  1
  Pb  Pb14  1  0.249962  0.605029  0.604936  1
  Pb  Pb15  1  0.249965  0.000003  0.395011  1
