# generated using pymatgen
data_UZnCu(PO5)2
_symmetry_space_group_name_H-M   'P 1'
_cell_length_a   5.15985953
_cell_length_b   5.84397671
_cell_length_c   7.50102772
_cell_angle_alpha   109.20876249
_cell_angle_beta   108.80404674
_cell_angle_gamma   88.10267734
_symmetry_Int_Tables_number   1
_chemical_formula_structural   UZnCu(PO5)2
_chemical_formula_sum   'U1 Zn1 Cu1 P2 O10'
_cell_volume   201.51951204
_cell_formula_units_Z   1
loop_
 _symmetry_equiv_pos_site_id
 _symmetry_equiv_pos_as_xyz
  1  'x, y, z'
loop_
 _atom_site_type_symbol
 _atom_site_label
 _atom_site_symmetry_multiplicity
 _atom_site_fract_x
 _atom_site_fract_y
 _atom_site_fract_z
 _atom_site_occupancy
  U  U0  1  0.999925  0.000042  0.000046  1
  Zn  Zn1  1  0.500055  0.000104  0.500142  1
  Cu  Cu2  1  0.499752  0.499659  0.499547  1
  P  P3  1  0.907763  0.634014  0.285220  1
  P  P4  1  0.092291  0.366034  0.714822  1
  O  O5  1  0.878276  0.360969  0.166946  1
  O  O6  1  0.838113  0.787605  0.145880  1
  O  O7  1  0.328202  0.052092  0.211504  1
  O  O8  1  0.705673  0.691887  0.407589  1
  O  O9  1  0.209848  0.712471  0.431927  1
  O  O10  1  0.790113  0.287621  0.568060  1
  O  O11  1  0.294431  0.308274  0.592432  1
  O  O12  1  0.671780  0.947931  0.788573  1
  O  O13  1  0.161910  0.212337  0.854087  1
  O  O14  1  0.121861  0.638957  0.833226  1
