# generated using pymatgen
data_Tb18Gd2Si15Pd
_symmetry_space_group_name_H-M   'P 1'
_cell_length_a   7.45982401
_cell_length_b   7.80574754
_cell_length_c   14.77918000
_cell_angle_alpha   89.76554589
_cell_angle_beta   90.00265748
_cell_angle_gamma   89.86034867
_symmetry_Int_Tables_number   1
_chemical_formula_structural   Tb18Gd2Si15Pd
_chemical_formula_sum   'Tb18 Gd2 Si15 Pd1'
_cell_volume   860.57454219
_cell_formula_units_Z   1
loop_
 _symmetry_equiv_pos_site_id
 _symmetry_equiv_pos_as_xyz
  1  'x, y, z'
loop_
 _atom_site_type_symbol
 _atom_site_label
 _atom_site_symmetry_multiplicity
 _atom_site_fract_x
 _atom_site_fract_y
 _atom_site_fract_z
 _atom_site_occupancy
  Tb  Tb0  1  0.811886  0.574905  0.874177  1
  Tb  Tb1  1  0.316099  0.425024  0.126877  1
  Tb  Tb2  1  0.182515  0.928124  0.373563  1
  Tb  Tb3  1  0.683094  0.069959  0.626739  1
  Tb  Tb4  1  0.182277  0.928614  0.627092  1
  Tb  Tb5  1  0.682768  0.070275  0.372781  1
  Tb  Tb6  1  0.813628  0.573047  0.126766  1
  Tb  Tb7  1  0.316399  0.426625  0.872131  1
  Tb  Tb8  1  0.643742  0.230126  0.999511  1
  Tb  Tb9  1  0.156658  0.759807  0.000258  1
  Tb  Tb10  1  0.352698  0.265161  0.500011  1
  Tb  Tb11  1  0.851862  0.733101  0.500144  1
  Tb  Tb12  1  0.474035  0.934130  0.843658  1
  Tb  Tb13  1  0.973055  0.066050  0.153411  1
  Tb  Tb14  1  0.473781  0.934165  0.155955  1
  Tb  Tb15  1  0.972433  0.066824  0.846702  1
  Tb  Tb16  1  0.527826  0.564565  0.652848  1
  Tb  Tb17  1  0.028519  0.435308  0.347332  1
  Gd  Gd18  1  0.525607  0.566557  0.345943  1
  Gd  Gd19  1  0.025780  0.433221  0.654032  1
  Si  Si20  1  0.018663  0.352179  0.999882  1
  Si  Si21  1  0.477973  0.853222  0.500394  1
  Si  Si22  1  0.978547  0.147030  0.499701  1
  Si  Si23  1  0.647327  0.277449  0.789559  1
  Si  Si24  1  0.149411  0.721491  0.210311  1
  Si  Si25  1  0.353540  0.220946  0.290385  1
  Si  Si26  1  0.852999  0.778544  0.710521  1
  Si  Si27  1  0.356838  0.221957  0.709033  1
  Si  Si28  1  0.855799  0.777716  0.290219  1
  Si  Si29  1  0.645482  0.274324  0.208913  1
  Si  Si30  1  0.146868  0.724358  0.791011  1
  Si  Si31  1  0.772545  0.880774  0.000458  1
  Si  Si32  1  0.258095  0.125316  0.999549  1
  Si  Si33  1  0.236193  0.626067  0.500869  1
  Si  Si34  1  0.735681  0.374109  0.499043  1
  Pd  Pd35  1  0.519375  0.658927  0.000228  1
