# generated using pymatgen
data_Er4Zn2As4Rh7
_symmetry_space_group_name_H-M   'P 1'
_cell_length_a   7.26053306
_cell_length_b   7.23337417
_cell_length_c   7.23337403
_cell_angle_alpha   109.93417946
_cell_angle_beta   109.16544043
_cell_angle_gamma   109.16545735
_symmetry_Int_Tables_number   1
_chemical_formula_structural   Er4Zn2As4Rh7
_chemical_formula_sum   'Er4 Zn2 As4 Rh7'
_cell_volume   292.95620715
_cell_formula_units_Z   1
loop_
 _symmetry_equiv_pos_site_id
 _symmetry_equiv_pos_as_xyz
  1  'x, y, z'
loop_
 _atom_site_type_symbol
 _atom_site_label
 _atom_site_symmetry_multiplicity
 _atom_site_fract_x
 _atom_site_fract_y
 _atom_site_fract_z
 _atom_site_occupancy
  Er  Er0  1  0.480167  0.482911  0.482911  1
  Er  Er1  1  0.993537  0.496769  0.996769  1
  Er  Er2  1  0.480167  0.997256  0.997256  1
  Er  Er3  1  0.993537  0.996769  0.496769  1
  Zn  Zn4  1  0.691726  0.991206  0.700520  1
  Zn  Zn5  1  0.691726  0.700520  0.991206  1
  As  As6  1  0.330641  0.335698  0.994943  1
  As  As7  1  0.986677  0.680779  0.680779  1
  As  As8  1  0.986677  0.305898  0.305898  1
  As  As9  1  0.330641  0.994943  0.335698  1
  Rh  Rh10  1  0.502211  0.751106  0.251106  1
  Rh  Rh11  1  0.750196  0.247297  0.502898  1
  Rh  Rh12  1  0.244746  0.743468  0.501278  1
  Rh  Rh13  1  0.244746  0.501278  0.743468  1
  Rh  Rh14  1  0.040199  0.020099  0.020099  1
  Rh  Rh15  1  0.502211  0.251106  0.751106  1
  Rh  Rh16  1  0.750196  0.502898  0.247297  1
