# generated using pymatgen
data_La6PtRhAu6
_symmetry_space_group_name_H-M   'P 1'
_cell_length_a   8.48053655
_cell_length_b   8.48053591
_cell_length_c   8.48053674
_cell_angle_alpha   114.54762864
_cell_angle_beta   114.54761517
_cell_angle_gamma   114.54761779
_symmetry_Int_Tables_number   1
_chemical_formula_structural   La6PtRhAu6
_chemical_formula_sum   'La6 Pt1 Rh1 Au6'
_cell_volume   355.00760844
_cell_formula_units_Z   1
loop_
 _symmetry_equiv_pos_site_id
 _symmetry_equiv_pos_as_xyz
  1  'x, y, z'
loop_
 _atom_site_type_symbol
 _atom_site_label
 _atom_site_symmetry_multiplicity
 _atom_site_fract_x
 _atom_site_fract_y
 _atom_site_fract_z
 _atom_site_occupancy
  La  La0  1  0.398502  0.039399  0.280781  1
  La  La1  1  0.039399  0.280781  0.398502  1
  La  La2  1  0.280781  0.398502  0.039399  1
  La  La3  1  0.601498  0.960601  0.719219  1
  La  La4  1  0.960601  0.719219  0.601498  1
  La  La5  1  0.719219  0.601498  0.960601  1
  Pt  Pt6  1  0.000000  0.000000  0.000000  1
  Rh  Rh7  1  0.500000  0.500000  0.500000  1
  Au  Au8  1  0.225596  0.060282  0.564681  1
  Au  Au9  1  0.060282  0.564681  0.225596  1
  Au  Au10  1  0.564681  0.225596  0.060282  1
  Au  Au11  1  0.774404  0.939718  0.435319  1
  Au  Au12  1  0.939718  0.435319  0.774404  1
  Au  Au13  1  0.435319  0.774404  0.939718  1
