# generated using pymatgen
data_Ho16In4Ir3Os
_symmetry_space_group_name_H-M   'P 1'
_cell_length_a   9.62750590
_cell_length_b   9.61651887
_cell_length_c   9.61652000
_cell_angle_alpha   60.00000299
_cell_angle_beta   60.03774682
_cell_angle_gamma   60.03774472
_symmetry_Int_Tables_number   1
_chemical_formula_structural   Ho16In4Ir3Os
_chemical_formula_sum   'Ho16 In4 Ir3 Os1'
_cell_volume   629.91532454
_cell_formula_units_Z   1
loop_
 _symmetry_equiv_pos_site_id
 _symmetry_equiv_pos_as_xyz
  1  'x, y, z'
loop_
 _atom_site_type_symbol
 _atom_site_label
 _atom_site_symmetry_multiplicity
 _atom_site_fract_x
 _atom_site_fract_y
 _atom_site_fract_z
 _atom_site_occupancy
  Ho  Ho0  1  0.439245  0.442056  0.059350  1
  Ho  Ho1  1  0.650033  0.651357  0.047253  1
  Ho  Ho2  1  0.192493  0.808886  0.189735  1
  Ho  Ho3  1  0.060182  0.439615  0.060588  1
  Ho  Ho4  1  0.192493  0.808886  0.808886  1
  Ho  Ho5  1  0.060182  0.439615  0.439615  1
  Ho  Ho6  1  0.809002  0.191182  0.191182  1
  Ho  Ho7  1  0.650033  0.651357  0.651357  1
  Ho  Ho8  1  0.809002  0.191182  0.808634  1
  Ho  Ho9  1  0.192493  0.189735  0.808886  1
  Ho  Ho10  1  0.048235  0.650589  0.650589  1
  Ho  Ho11  1  0.439245  0.059350  0.059350  1
  Ho  Ho12  1  0.060182  0.060588  0.439615  1
  Ho  Ho13  1  0.650033  0.047253  0.651357  1
  Ho  Ho14  1  0.809002  0.808634  0.191182  1
  Ho  Ho15  1  0.439245  0.059350  0.442056  1
  In  In16  1  0.416620  0.416782  0.416782  1
  In  In17  1  0.416620  0.416782  0.749818  1
  In  In18  1  0.416620  0.749818  0.416782  1
  In  In19  1  0.749478  0.416841  0.416841  1
  Ir  Ir20  1  0.858885  0.858974  0.858974  1
  Ir  Ir21  1  0.858885  0.423166  0.858974  1
  Ir  Ir22  1  0.858885  0.858974  0.423166  1
  Os  Os23  1  0.422907  0.859031  0.859031  1
