# generated using pymatgen
data_Nd4P3Se
_symmetry_space_group_name_H-M   'P 1'
_cell_length_a   4.18272056
_cell_length_b   9.37487892
_cell_length_c   11.08364145
_cell_angle_alpha   40.40314024
_cell_angle_beta   124.47499026
_cell_angle_gamma   132.04184150
_symmetry_Int_Tables_number   1
_chemical_formula_structural   Nd4P3Se
_chemical_formula_sum   'Nd4 P3 Se1'
_cell_volume   207.78279069
_cell_formula_units_Z   1
loop_
 _symmetry_equiv_pos_site_id
 _symmetry_equiv_pos_as_xyz
  1  'x, y, z'
loop_
 _atom_site_type_symbol
 _atom_site_label
 _atom_site_symmetry_multiplicity
 _atom_site_fract_x
 _atom_site_fract_y
 _atom_site_fract_z
 _atom_site_occupancy
  Nd  Nd0  1  0.501214  0.396973  0.284234  1
  Nd  Nd1  1  0.743429  0.659688  0.516702  1
  Nd  Nd2  1  0.228758  0.133372  0.032674  1
  Nd  Nd3  1  0.017137  0.923427  0.768350  1
  P  P4  1  0.879485  0.281476  0.652019  1
  P  P5  1  0.365780  0.775334  0.148892  1
  P  P6  1  0.622266  0.028249  0.400578  1
  Se  Se7  1  0.122999  0.528373  0.900511  1
