# generated using pymatgen
data_Ho12ZnInFe4
_symmetry_space_group_name_H-M   'P 1'
_cell_length_a   8.34138554
_cell_length_b   8.34148767
_cell_length_c   8.34138667
_cell_angle_alpha   111.15810572
_cell_angle_beta   110.75915010
_cell_angle_gamma   106.53547628
_symmetry_Int_Tables_number   1
_chemical_formula_structural   Ho12ZnInFe4
_chemical_formula_sum   'Ho12 Zn1 In1 Fe4'
_cell_volume   445.90748522
_cell_formula_units_Z   1
loop_
 _symmetry_equiv_pos_site_id
 _symmetry_equiv_pos_as_xyz
  1  'x, y, z'
loop_
 _atom_site_type_symbol
 _atom_site_label
 _atom_site_symmetry_multiplicity
 _atom_site_fract_x
 _atom_site_fract_y
 _atom_site_fract_z
 _atom_site_occupancy
  Ho  Ho0  1  0.313048  0.613530  0.300482  1
  Ho  Ho1  1  0.686952  0.386470  0.699518  1
  Ho  Ho2  1  0.313034  0.012534  0.699500  1
  Ho  Ho3  1  0.686966  0.987466  0.300500  1
  Ho  Ho4  1  0.186411  0.286687  0.473105  1
  Ho  Ho5  1  0.813589  0.713313  0.526895  1
  Ho  Ho6  1  0.186420  0.713313  0.899725  1
  Ho  Ho7  1  0.813580  0.286687  0.100275  1
  Ho  Ho8  1  0.428704  0.224207  0.204502  1
  Ho  Ho9  1  0.571296  0.775793  0.795498  1
  Ho  Ho10  1  0.019707  0.224207  0.795503  1
  Ho  Ho11  1  0.980293  0.775793  0.204497  1
  Zn  Zn12  1  0.000000  0.000000  0.000000  1
  In  In13  1  0.500000  0.500000  0.000000  1
  Fe  Fe14  1  0.108347  0.608260  0.499914  1
  Fe  Fe15  1  0.891653  0.391740  0.500086  1
  Fe  Fe16  1  0.383556  0.000000  0.383556  1
  Fe  Fe17  1  0.616444  0.000000  0.616444  1
