# generated using pymatgen
data_ScMn2(Ga3Fe2)2
_symmetry_space_group_name_H-M   'P 1'
_cell_length_a   6.54422189
_cell_length_b   6.54422250
_cell_length_c   6.54422164
_cell_angle_alpha   135.27774748
_cell_angle_beta   100.20590603
_cell_angle_gamma   96.44720405
_symmetry_Int_Tables_number   1
_chemical_formula_structural   ScMn2(Ga3Fe2)2
_chemical_formula_sum   'Sc1 Mn2 Ga6 Fe4'
_cell_volume   182.25548113
_cell_formula_units_Z   1
loop_
 _symmetry_equiv_pos_site_id
 _symmetry_equiv_pos_as_xyz
  1  'x, y, z'
loop_
 _atom_site_type_symbol
 _atom_site_label
 _atom_site_symmetry_multiplicity
 _atom_site_fract_x
 _atom_site_fract_y
 _atom_site_fract_z
 _atom_site_occupancy
  Sc  Sc0  1  0.000000  0.000000  0.000000  1
  Mn  Mn1  1  0.758713  0.500000  0.258713  1
  Mn  Mn2  1  0.241287  0.500000  0.741287  1
  Ga  Ga3  1  0.326357  0.000000  0.326357  1
  Ga  Ga4  1  0.340547  0.340547  0.000000  1
  Ga  Ga5  1  0.659453  0.659453  0.000000  1
  Ga  Ga6  1  0.822025  0.322025  0.500000  1
  Ga  Ga7  1  0.177975  0.677975  0.500000  1
  Ga  Ga8  1  0.673643  0.000000  0.673643  1
  Fe  Fe9  1  0.000000  0.000000  0.500000  1
  Fe  Fe10  1  0.000000  0.500000  0.000000  1
  Fe  Fe11  1  0.500000  0.000000  0.000000  1
  Fe  Fe12  1  0.500000  0.500000  0.500000  1
