# generated using pymatgen
data_Zr8Ti7Si16Mo5
_symmetry_space_group_name_H-M   'P 1'
_cell_length_a   6.79024742
_cell_length_b   6.79072579
_cell_length_c   12.52025412
_cell_angle_alpha   89.87123879
_cell_angle_beta   89.96332302
_cell_angle_gamma   89.97711597
_symmetry_Int_Tables_number   1
_chemical_formula_structural   Zr8Ti7Si16Mo5
_chemical_formula_sum   'Zr8 Ti7 Si16 Mo5'
_cell_volume   577.31616336
_cell_formula_units_Z   1
loop_
 _symmetry_equiv_pos_site_id
 _symmetry_equiv_pos_as_xyz
  1  'x, y, z'
loop_
 _atom_site_type_symbol
 _atom_site_label
 _atom_site_symmetry_multiplicity
 _atom_site_fract_x
 _atom_site_fract_y
 _atom_site_fract_z
 _atom_site_occupancy
  Zr  Zr0  1  0.339542  0.999726  0.470949  1
  Zr  Zr1  1  0.500420  0.838271  0.720083  1
  Zr  Zr2  1  0.498791  0.160504  0.220457  1
  Zr  Zr3  1  0.839639  0.500926  0.279006  1
  Zr  Zr4  1  0.160869  0.497898  0.780173  1
  Zr  Zr5  1  0.659993  0.000054  0.970219  1
  Zr  Zr6  1  0.998758  0.340212  0.529693  1
  Zr  Zr7  1  0.999125  0.659156  0.029276  1
  Ti  Ti8  1  0.495546  0.654841  0.123486  1
  Ti  Ti9  1  0.502440  0.346191  0.623276  1
  Ti  Ti10  1  0.654539  0.495683  0.876821  1
  Ti  Ti11  1  0.346550  0.504717  0.376435  1
  Ti  Ti12  1  0.846258  0.996730  0.372908  1
  Ti  Ti13  1  0.003919  0.153607  0.127729  1
  Ti  Ti14  1  0.996732  0.847371  0.626622  1
  Si  Si15  1  0.206237  0.133051  0.677974  1
  Si  Si16  1  0.368969  0.706804  0.928662  1
  Si  Si17  1  0.632730  0.293635  0.427521  1
  Si  Si18  1  0.707022  0.367089  0.072605  1
  Si  Si19  1  0.292774  0.633149  0.572141  1
  Si  Si20  1  0.792632  0.867354  0.177245  1
  Si  Si21  1  0.133236  0.207434  0.322902  1
  Si  Si22  1  0.867755  0.794406  0.821764  1
  Si  Si23  1  0.294712  0.957251  0.064078  1
  Si  Si24  1  0.543478  0.794924  0.314786  1
  Si  Si25  1  0.454883  0.205915  0.814607  1
  Si  Si26  1  0.793857  0.543648  0.685205  1
  Si  Si27  1  0.205359  0.455935  0.185104  1
  Si  Si28  1  0.705789  0.043820  0.564786  1
  Si  Si29  1  0.959254  0.290846  0.935413  1
  Si  Si30  1  0.043054  0.706279  0.435101  1
  Mo  Mo31  1  0.332950  0.332132  0.000617  1
  Mo  Mo32  1  0.168740  0.831426  0.249619  1
  Mo  Mo33  1  0.828154  0.171124  0.749852  1
  Mo  Mo34  1  0.668840  0.669164  0.500231  1
  Mo  Mo35  1  0.156451  0.998728  0.872654  1
