# generated using pymatgen
data_TbNd6Gd(SiBr6)2
_symmetry_space_group_name_H-M   'P 1'
_cell_length_a   4.24356400
_cell_length_b   13.88215855
_cell_length_c   14.67305430
_cell_angle_alpha   90.24542716
_cell_angle_beta   90.00000000
_cell_angle_gamma   90.00000000
_symmetry_Int_Tables_number   1
_chemical_formula_structural   TbNd6Gd(SiBr6)2
_chemical_formula_sum   'Tb1 Nd6 Gd1 Si2 Br12'
_cell_volume   864.37917882
_cell_formula_units_Z   1
loop_
 _symmetry_equiv_pos_site_id
 _symmetry_equiv_pos_as_xyz
  1  'x, y, z'
loop_
 _atom_site_type_symbol
 _atom_site_label
 _atom_site_symmetry_multiplicity
 _atom_site_fract_x
 _atom_site_fract_y
 _atom_site_fract_z
 _atom_site_occupancy
  Tb  Tb0  1  0.500000  0.382150  0.841599  1
  Nd  Nd1  1  0.500000  0.881303  0.659922  1
  Nd  Nd2  1  0.500000  0.617974  0.158415  1
  Nd  Nd3  1  0.000000  0.121440  0.580961  1
  Nd  Nd4  1  0.000000  0.880161  0.420295  1
  Nd  Nd5  1  0.000000  0.619101  0.920497  1
  Nd  Nd6  1  0.000000  0.380302  0.078720  1
  Gd  Gd7  1  0.500000  0.119082  0.340274  1
  Si  Si8  1  0.500000  0.000826  0.500564  1
  Si  Si9  1  0.500000  0.498387  0.997842  1
  Br  Br10  1  0.500000  0.243101  0.161641  1
  Br  Br11  1  0.500000  0.756220  0.837487  1
  Br  Br12  1  0.500000  0.742844  0.337448  1
  Br  Br13  1  0.500000  0.259420  0.667690  1
  Br  Br14  1  0.000000  0.255270  0.412098  1
  Br  Br15  1  0.000000  0.744874  0.588264  1
  Br  Br16  1  0.000000  0.754656  0.088527  1
  Br  Br17  1  0.000000  0.251247  0.904574  1
  Br  Br18  1  0.000000  0.001161  0.243462  1
  Br  Br19  1  0.000000  0.999063  0.756965  1
  Br  Br20  1  0.000000  0.501529  0.256035  1
  Br  Br21  1  0.000000  0.489889  0.746723  1
