# generated using pymatgen
data_Cs3Na(NO3)8
_symmetry_space_group_name_H-M   'P 1'
_cell_length_a   8.61420791
_cell_length_b   8.61420779
_cell_length_c   8.61420700
_cell_angle_alpha   89.90470662
_cell_angle_beta   89.90470662
_cell_angle_gamma   89.90470789
_symmetry_Int_Tables_number   1
_chemical_formula_structural   Cs3Na(NO3)8
_chemical_formula_sum   'Cs3 Na1 N8 O24'
_cell_volume   639.21093652
_cell_formula_units_Z   1
loop_
 _symmetry_equiv_pos_site_id
 _symmetry_equiv_pos_as_xyz
  1  'x, y, z'
loop_
 _atom_site_type_symbol
 _atom_site_label
 _atom_site_symmetry_multiplicity
 _atom_site_fract_x
 _atom_site_fract_y
 _atom_site_fract_z
 _atom_site_occupancy
  Cs  Cs0  1  0.500000  0.000000  0.000000  1
  Cs  Cs1  1  0.000000  0.000000  0.500000  1
  Cs  Cs2  1  0.000000  0.500000  0.000000  1
  Na  Na3  1  0.500000  0.500000  0.500000  1
  N  N4  1  0.623417  0.821449  0.370580  1
  N  N5  1  0.376583  0.178551  0.629420  1
  N  N6  1  0.139051  0.139051  0.139051  1
  N  N7  1  0.821449  0.370580  0.623417  1
  N  N8  1  0.370580  0.623417  0.821449  1
  N  N9  1  0.860949  0.860949  0.860949  1
  N  N10  1  0.178551  0.629420  0.376583  1
  N  N11  1  0.629420  0.376583  0.178551  1
  O  O12  1  0.019352  0.200001  0.197653  1
  O  O13  1  0.749919  0.483141  0.683759  1
  O  O14  1  0.325859  0.680279  0.948539  1
  O  O15  1  0.980648  0.799999  0.802347  1
  O  O16  1  0.250081  0.516859  0.316241  1
  O  O17  1  0.674141  0.319721  0.051461  1
  O  O18  1  0.197653  0.019352  0.200001  1
  O  O19  1  0.765599  0.303409  0.506910  1
  O  O20  1  0.483141  0.683759  0.749919  1
  O  O21  1  0.802347  0.980648  0.799999  1
  O  O22  1  0.234401  0.696591  0.493090  1
  O  O23  1  0.516859  0.316241  0.250081  1
  O  O24  1  0.200001  0.197653  0.019352  1
  O  O25  1  0.948539  0.325859  0.680279  1
  O  O26  1  0.303409  0.506910  0.765599  1
  O  O27  1  0.799999  0.802347  0.980648  1
  O  O28  1  0.051461  0.674141  0.319721  1
  O  O29  1  0.696591  0.493090  0.234401  1
  O  O30  1  0.680279  0.948539  0.325859  1
  O  O31  1  0.683759  0.749919  0.483141  1
  O  O32  1  0.506910  0.765599  0.303409  1
  O  O33  1  0.319721  0.051461  0.674141  1
  O  O34  1  0.316241  0.250081  0.516859  1
  O  O35  1  0.493090  0.234401  0.696591  1
