# generated using pymatgen
data_Tb5Pr5(Co2Sn5)4
_symmetry_space_group_name_H-M   'P 1'
_cell_length_a   13.91092800
_cell_length_b   13.91092800
_cell_length_c   4.51805000
_cell_angle_alpha   90.00000000
_cell_angle_beta   90.00000000
_cell_angle_gamma   90.00000000
_symmetry_Int_Tables_number   1
_chemical_formula_structural   Tb5Pr5(Co2Sn5)4
_chemical_formula_sum   'Tb5 Pr5 Co8 Sn20'
_cell_volume   874.30555641
_cell_formula_units_Z   1
loop_
 _symmetry_equiv_pos_site_id
 _symmetry_equiv_pos_as_xyz
  1  'x, y, z'
loop_
 _atom_site_type_symbol
 _atom_site_label
 _atom_site_symmetry_multiplicity
 _atom_site_fract_x
 _atom_site_fract_y
 _atom_site_fract_z
 _atom_site_occupancy
  Tb  Tb0  1  0.500000  0.500000  0.000000  1
  Tb  Tb1  1  0.678029  0.179136  0.500000  1
  Tb  Tb2  1  0.321971  0.820864  0.500000  1
  Tb  Tb3  1  0.179136  0.321971  0.500000  1
  Tb  Tb4  1  0.820864  0.678029  0.500000  1
  Pr  Pr5  1  0.000000  0.000000  0.000000  1
  Pr  Pr6  1  0.888806  0.389748  0.500000  1
  Pr  Pr7  1  0.111194  0.610252  0.500000  1
  Pr  Pr8  1  0.389748  0.111194  0.500000  1
  Pr  Pr9  1  0.610252  0.888806  0.500000  1
  Co  Co10  1  0.743827  0.532095  0.000000  1
  Co  Co11  1  0.256173  0.467905  0.000000  1
  Co  Co12  1  0.246042  0.967668  0.000000  1
  Co  Co13  1  0.753958  0.032332  0.000000  1
  Co  Co14  1  0.467905  0.743827  0.000000  1
  Co  Co15  1  0.532095  0.256173  0.000000  1
  Co  Co16  1  0.032332  0.246042  0.000000  1
  Co  Co17  1  0.967668  0.753958  0.000000  1
  Sn  Sn18  1  0.572189  0.072924  0.000000  1
  Sn  Sn19  1  0.427811  0.927076  0.000000  1
  Sn  Sn20  1  0.072924  0.427811  0.000000  1
  Sn  Sn21  1  0.927076  0.572189  0.000000  1
  Sn  Sn22  1  0.650149  0.697111  0.000000  1
  Sn  Sn23  1  0.349851  0.302889  0.000000  1
  Sn  Sn24  1  0.150849  0.802169  0.000000  1
  Sn  Sn25  1  0.849151  0.197831  0.000000  1
  Sn  Sn26  1  0.302889  0.650149  0.000000  1
  Sn  Sn27  1  0.697111  0.349851  0.000000  1
  Sn  Sn28  1  0.197831  0.150849  0.000000  1
  Sn  Sn29  1  0.802169  0.849151  0.000000  1
  Sn  Sn30  1  0.666783  0.509064  0.500000  1
  Sn  Sn31  1  0.333217  0.490936  0.500000  1
  Sn  Sn32  1  0.170302  0.991359  0.500000  1
  Sn  Sn33  1  0.829698  0.008641  0.500000  1
  Sn  Sn34  1  0.490936  0.666783  0.500000  1
  Sn  Sn35  1  0.509064  0.333217  0.500000  1
  Sn  Sn36  1  0.008641  0.170302  0.500000  1
  Sn  Sn37  1  0.991359  0.829698  0.500000  1
