# generated using pymatgen
data_Y11Ho5(TlRh)4
_symmetry_space_group_name_H-M   'P 1'
_cell_length_a   9.77045584
_cell_length_b   9.78315568
_cell_length_c   9.78316300
_cell_angle_alpha   60.08600886
_cell_angle_beta   60.13424618
_cell_angle_gamma   60.13417753
_symmetry_Int_Tables_number   1
_chemical_formula_structural   Y11Ho5(TlRh)4
_chemical_formula_sum   'Y11 Ho5 Tl4 Rh4'
_cell_volume   663.00799798
_cell_formula_units_Z   1
loop_
 _symmetry_equiv_pos_site_id
 _symmetry_equiv_pos_as_xyz
  1  'x, y, z'
loop_
 _atom_site_type_symbol
 _atom_site_label
 _atom_site_symmetry_multiplicity
 _atom_site_fract_x
 _atom_site_fract_y
 _atom_site_fract_z
 _atom_site_occupancy
  Y  Y0  1  0.438335  0.061670  0.061825  1
  Y  Y1  1  0.438368  0.060590  0.438614  1
  Y  Y2  1  0.062016  0.438237  0.061903  1
  Y  Y3  1  0.438359  0.438610  0.060736  1
  Y  Y4  1  0.061976  0.061775  0.438339  1
  Y  Y5  1  0.189491  0.811362  0.811297  1
  Y  Y6  1  0.811408  0.190114  0.190151  1
  Y  Y7  1  0.811854  0.189926  0.810539  1
  Y  Y8  1  0.190417  0.810331  0.190905  1
  Y  Y9  1  0.811828  0.810612  0.189941  1
  Y  Y10  1  0.190477  0.190953  0.810212  1
  Ho  Ho11  1  0.597652  0.597136  0.596987  1
  Ho  Ho12  1  0.600801  0.600100  0.202356  1
  Ho  Ho13  1  0.600838  0.202361  0.600039  1
  Ho  Ho14  1  0.200964  0.600893  0.600807  1
  Ho  Ho15  1  0.061277  0.438001  0.437995  1
  Tl  Tl16  1  0.836004  0.836284  0.836255  1
  Tl  Tl17  1  0.834864  0.835434  0.492237  1
  Tl  Tl18  1  0.834862  0.492245  0.835429  1
  Tl  Tl19  1  0.491983  0.835219  0.835220  1
  Rh  Rh20  1  0.391072  0.394670  0.394710  1
  Rh  Rh21  1  0.392265  0.392006  0.818665  1
  Rh  Rh22  1  0.392190  0.818721  0.392008  1
  Rh  Rh23  1  0.820702  0.392756  0.392830  1
