# generated using pymatgen
data_K6SiWSe8
_symmetry_space_group_name_H-M   'P 1'
_cell_length_a   9.66429700
_cell_length_b   9.74970000
_cell_length_c   11.45604800
_cell_angle_alpha   90.00000000
_cell_angle_beta   90.00000000
_cell_angle_gamma   90.00000000
_symmetry_Int_Tables_number   1
_chemical_formula_structural   K6SiWSe8
_chemical_formula_sum   'K12 Si2 W2 Se16'
_cell_volume   1079.43462621
_cell_formula_units_Z   2
loop_
 _symmetry_equiv_pos_site_id
 _symmetry_equiv_pos_as_xyz
  1  'x, y, z'
loop_
 _atom_site_type_symbol
 _atom_site_label
 _atom_site_symmetry_multiplicity
 _atom_site_fract_x
 _atom_site_fract_y
 _atom_site_fract_z
 _atom_site_occupancy
  K  K0  1  0.027000  0.802067  0.446397  1
  K  K1  1  0.473000  0.302067  0.553603  1
  K  K2  1  0.571895  0.709600  0.042312  1
  K  K3  1  0.928105  0.209600  0.957688  1
  K  K4  1  0.928105  0.209600  0.542312  1
  K  K5  1  0.571895  0.709600  0.457688  1
  K  K6  1  0.473000  0.302067  0.946397  1
  K  K7  1  0.027000  0.802067  0.053603  1
  K  K8  1  0.126512  0.585587  0.750000  1
  K  K9  1  0.373488  0.085587  0.250000  1
  K  K10  1  0.641572  0.908335  0.750000  1
  K  K11  1  0.858428  0.408335  0.250000  1
  Si  Si12  1  0.775745  0.982642  0.250000  1
  Si  Si13  1  0.724255  0.482642  0.750000  1
  W  W14  1  0.283286  0.515218  0.250000  1
  W  W15  1  0.216714  0.015218  0.750000  1
  Se  Se16  1  0.796720  0.746317  0.250000  1
  Se  Se17  1  0.703280  0.246317  0.750000  1
  Se  Se18  1  0.302399  0.754890  0.250000  1
  Se  Se19  1  0.197601  0.254890  0.750000  1
  Se  Se20  1  0.994442  0.919273  0.750000  1
  Se  Se21  1  0.505558  0.419273  0.250000  1
  Se  Se22  1  0.506106  0.581400  0.750000  1
  Se  Se23  1  0.993894  0.081400  0.250000  1
  Se  Se24  1  0.333952  0.945667  0.581739  1
  Se  Se25  1  0.166048  0.445667  0.418261  1
  Se  Se26  1  0.839476  0.545835  0.917489  1
  Se  Se27  1  0.660524  0.045835  0.082511  1
  Se  Se28  1  0.660524  0.045835  0.417489  1
  Se  Se29  1  0.839476  0.545835  0.582511  1
  Se  Se30  1  0.166048  0.445667  0.081739  1
  Se  Se31  1  0.333952  0.945667  0.918261  1
