# generated using pymatgen
data_Tb16Y3TmSn16
_symmetry_space_group_name_H-M   'P 1'
_cell_length_a   8.05748110
_cell_length_b   8.20920010
_cell_length_c   15.52853300
_cell_angle_alpha   90.00000000
_cell_angle_beta   90.00000000
_cell_angle_gamma   90.01769576
_symmetry_Int_Tables_number   1
_chemical_formula_structural   Tb16Y3TmSn16
_chemical_formula_sum   'Tb16 Y3 Tm1 Sn16'
_cell_volume   1027.14213618
_cell_formula_units_Z   1
loop_
 _symmetry_equiv_pos_site_id
 _symmetry_equiv_pos_as_xyz
  1  'x, y, z'
loop_
 _atom_site_type_symbol
 _atom_site_label
 _atom_site_symmetry_multiplicity
 _atom_site_fract_x
 _atom_site_fract_y
 _atom_site_fract_z
 _atom_site_occupancy
  Tb  Tb0  1  0.366680  0.837275  0.878090  1
  Tb  Tb1  1  0.866687  0.662724  0.621954  1
  Tb  Tb2  1  0.632998  0.162557  0.377966  1
  Tb  Tb3  1  0.133487  0.337049  0.122012  1
  Tb  Tb4  1  0.632998  0.162557  0.122034  1
  Tb  Tb5  1  0.133487  0.337049  0.377988  1
  Tb  Tb6  1  0.366680  0.837275  0.621910  1
  Tb  Tb7  1  0.866687  0.662724  0.878046  1
  Tb  Tb8  1  0.519871  0.320508  0.902679  1
  Tb  Tb9  1  0.019841  0.179508  0.597299  1
  Tb  Tb10  1  0.480051  0.679621  0.402644  1
  Tb  Tb11  1  0.980312  0.820598  0.097373  1
  Tb  Tb12  1  0.480051  0.679621  0.097356  1
  Tb  Tb13  1  0.980312  0.820598  0.402627  1
  Tb  Tb14  1  0.519871  0.320508  0.597321  1
  Tb  Tb15  1  0.019841  0.179508  0.902701  1
  Y  Y16  1  0.198148  0.502585  0.750000  1
  Y  Y17  1  0.698156  0.997440  0.750000  1
  Y  Y18  1  0.801894  0.497508  0.250000  1
  Tm  Tm19  1  0.301613  0.002689  0.250000  1
  Sn  Sn20  1  0.293137  0.035968  0.042554  1
  Sn  Sn21  1  0.793133  0.463970  0.457736  1
  Sn  Sn22  1  0.706877  0.963949  0.542270  1
  Sn  Sn23  1  0.206859  0.536020  0.957732  1
  Sn  Sn24  1  0.706877  0.963949  0.957730  1
  Sn  Sn25  1  0.206859  0.536020  0.542268  1
  Sn  Sn26  1  0.293137  0.035968  0.457446  1
  Sn  Sn27  1  0.793133  0.463970  0.042264  1
  Sn  Sn28  1  0.564285  0.618064  0.750000  1
  Sn  Sn29  1  0.064341  0.881969  0.750000  1
  Sn  Sn30  1  0.435537  0.381607  0.250000  1
  Sn  Sn31  1  0.936402  0.117821  0.250000  1
  Sn  Sn32  1  0.328650  0.147824  0.750000  1
  Sn  Sn33  1  0.828709  0.352080  0.750000  1
  Sn  Sn34  1  0.670934  0.852248  0.250000  1
  Sn  Sn35  1  0.171466  0.648675  0.250000  1
