# generated using pymatgen
data_La7Pr(GePd)8
_symmetry_space_group_name_H-M   'P 1'
_cell_length_a   4.55927300
_cell_length_b   7.81741549
_cell_length_c   14.93304486
_cell_angle_alpha   89.92570401
_cell_angle_beta   90.00000000
_cell_angle_gamma   90.00000000
_symmetry_Int_Tables_number   1
_chemical_formula_structural   La7Pr(GePd)8
_chemical_formula_sum   'La7 Pr1 Ge8 Pd8'
_cell_volume   532.23912588
_cell_formula_units_Z   1
loop_
 _symmetry_equiv_pos_site_id
 _symmetry_equiv_pos_as_xyz
  1  'x, y, z'
loop_
 _atom_site_type_symbol
 _atom_site_label
 _atom_site_symmetry_multiplicity
 _atom_site_fract_x
 _atom_site_fract_y
 _atom_site_fract_z
 _atom_site_occupancy
  La  La0  1  0.000000  0.218012  0.753325  1
  La  La1  1  0.000000  0.214652  0.247414  1
  La  La2  1  0.500000  0.783116  0.746604  1
  La  La3  1  0.000000  0.282828  0.499525  1
  La  La4  1  0.500000  0.716188  0.000277  1
  La  La5  1  0.000000  0.292621  0.000858  1
  La  La6  1  0.500000  0.709488  0.499451  1
  Pr  Pr7  1  0.500000  0.783148  0.252314  1
  Ge  Ge8  1  0.000000  0.588414  0.855760  1
  Ge  Ge9  1  0.000000  0.589127  0.146885  1
  Ge  Ge10  1  0.500000  0.412023  0.642306  1
  Ge  Ge11  1  0.500000  0.413863  0.356071  1
  Ge  Ge12  1  0.000000  0.913219  0.402991  1
  Ge  Ge13  1  0.000000  0.914432  0.594548  1
  Ge  Ge14  1  0.500000  0.084971  0.095912  1
  Ge  Ge15  1  0.500000  0.084799  0.905586  1
  Pd  Pd16  1  0.000000  0.921294  0.887704  1
  Pd  Pd17  1  0.000000  0.920927  0.113631  1
  Pd  Pd18  1  0.500000  0.079442  0.612635  1
  Pd  Pd19  1  0.500000  0.079687  0.386114  1
  Pd  Pd20  1  0.000000  0.579411  0.347025  1
  Pd  Pd21  1  0.000000  0.580899  0.650247  1
  Pd  Pd22  1  0.500000  0.418735  0.151327  1
  Pd  Pd23  1  0.500000  0.418702  0.851489  1
