# generated using pymatgen
data_Pr10Si16Ge
_symmetry_space_group_name_H-M   'P 1'
_cell_length_a   11.52313872
_cell_length_b   11.50662642
_cell_length_c   11.52313821
_cell_angle_alpha   145.19769836
_cell_angle_beta   135.83083478
_cell_angle_gamma   57.45197131
_symmetry_Int_Tables_number   1
_chemical_formula_structural   Pr10Si16Ge
_chemical_formula_sum   'Pr10 Si16 Ge1'
_cell_volume   602.60200403
_cell_formula_units_Z   1
loop_
 _symmetry_equiv_pos_site_id
 _symmetry_equiv_pos_as_xyz
  1  'x, y, z'
loop_
 _atom_site_type_symbol
 _atom_site_label
 _atom_site_symmetry_multiplicity
 _atom_site_fract_x
 _atom_site_fract_y
 _atom_site_fract_z
 _atom_site_occupancy
  Pr  Pr0  1  0.751918  0.762007  0.514116  1
  Pr  Pr1  1  0.447391  0.964775  0.012742  1
  Pr  Pr2  1  0.848758  0.365566  0.014765  1
  Pr  Pr3  1  0.952033  0.964775  0.517383  1
  Pr  Pr4  1  0.150733  0.164843  0.516139  1
  Pr  Pr5  1  0.350802  0.365566  0.516808  1
  Pr  Pr6  1  0.247892  0.762007  0.010089  1
  Pr  Pr7  1  0.549964  0.561923  0.511201  1
  Pr  Pr8  1  0.050722  0.561923  0.011960  1
  Pr  Pr9  1  0.648704  0.164843  0.014110  1
  Si  Si10  1  0.198378  0.599700  0.401321  1
  Si  Si11  1  0.000003  0.088535  0.088532  1
  Si  Si12  1  0.699950  0.290905  0.590954  1
  Si  Si13  1  0.801795  0.202097  0.400303  1
  Si  Si14  1  0.897238  0.501268  0.604030  1
  Si  Si15  1  0.410584  0.857035  0.446450  1
  Si  Si16  1  0.102753  0.706570  0.603816  1
  Si  Si17  1  0.300116  0.895318  0.595203  1
  Si  Si18  1  0.588627  0.036752  0.448125  1
  Si  Si19  1  0.999930  0.434244  0.434315  1
  Si  Si20  1  0.887959  0.837134  0.949175  1
  Si  Si21  1  0.400169  0.500342  0.100172  1
  Si  Si22  1  0.111998  0.062257  0.950259  1
  Si  Si23  1  0.292812  0.239412  0.946601  1
  Si  Si24  1  0.499501  0.406820  0.907319  1
  Si  Si25  1  0.598445  0.700729  0.102284  1
  Ge  Ge26  1  0.710824  0.664153  0.953329  1
