# generated using pymatgen
data_Y2Tm4Al24NiOs7
_symmetry_space_group_name_H-M   'P 1'
_cell_length_a   8.76846261
_cell_length_b   8.75767178
_cell_length_c   9.56093201
_cell_angle_alpha   89.62721760
_cell_angle_beta   90.35942215
_cell_angle_gamma   119.65948219
_symmetry_Int_Tables_number   1
_chemical_formula_structural   Y2Tm4Al24NiOs7
_chemical_formula_sum   'Y2 Tm4 Al24 Ni1 Os7'
_cell_volume   637.98591546
_cell_formula_units_Z   1
loop_
 _symmetry_equiv_pos_site_id
 _symmetry_equiv_pos_as_xyz
  1  'x, y, z'
loop_
 _atom_site_type_symbol
 _atom_site_label
 _atom_site_symmetry_multiplicity
 _atom_site_fract_x
 _atom_site_fract_y
 _atom_site_fract_z
 _atom_site_occupancy
  Y  Y0  1  0.187827  0.384229  0.250578  1
  Y  Y1  1  0.812173  0.615771  0.749422  1
  Tm  Tm2  1  0.611760  0.811049  0.251487  1
  Tm  Tm3  1  0.388240  0.188951  0.748513  1
  Tm  Tm4  1  0.195666  0.804433  0.249414  1
  Tm  Tm5  1  0.804334  0.195567  0.750586  1
  Al  Al6  1  0.335164  0.664849  0.021435  1
  Al  Al7  1  0.664836  0.335151  0.978565  1
  Al  Al8  1  0.666550  0.333706  0.520194  1
  Al  Al9  1  0.333450  0.666294  0.479806  1
  Al  Al10  1  0.165102  0.326693  0.577334  1
  Al  Al11  1  0.834898  0.673307  0.422666  1
  Al  Al12  1  0.672966  0.835256  0.576334  1
  Al  Al13  1  0.836518  0.673407  0.077332  1
  Al  Al14  1  0.327034  0.164744  0.423666  1
  Al  Al15  1  0.163482  0.326593  0.922668  1
  Al  Al16  1  0.164491  0.836192  0.575199  1
  Al  Al17  1  0.326886  0.163304  0.076164  1
  Al  Al18  1  0.835509  0.163808  0.424801  1
  Al  Al19  1  0.673114  0.836696  0.923836  1
  Al  Al20  1  0.835072  0.163881  0.075370  1
  Al  Al21  1  0.164928  0.836119  0.924630  1
  Al  Al22  1  0.561356  0.125486  0.249113  1
  Al  Al23  1  0.438644  0.874514  0.750887  1
  Al  Al24  1  0.873903  0.438644  0.249148  1
  Al  Al25  1  0.126097  0.561356  0.750852  1
  Al  Al26  1  0.559753  0.441183  0.246554  1
  Al  Al27  1  0.440247  0.558817  0.753446  1
  Al  Al28  1  0.997649  0.997217  0.250032  1
  Al  Al29  1  0.002351  0.002783  0.749968  1
  Ni  Ni30  1  0.500000  0.500000  0.000000  1
  Os  Os31  1  0.500000  0.000000  0.000000  1
  Os  Os32  1  0.000000  0.500000  0.000000  1
  Os  Os33  1  0.500000  0.000000  0.500000  1
  Os  Os34  1  0.000000  0.500000  0.500000  1
  Os  Os35  1  0.500000  0.500000  0.500000  1
  Os  Os36  1  0.000000  0.000000  0.000000  1
  Os  Os37  1  0.000000  0.000000  0.500000  1
