# generated using pymatgen
data_Dy2ZrSn3Rh10
_symmetry_space_group_name_H-M   'P 1'
_cell_length_a   5.67332425
_cell_length_b   5.67325859
_cell_length_c   8.51397502
_cell_angle_alpha   89.99959774
_cell_angle_beta   90.00057892
_cell_angle_gamma   97.94002349
_symmetry_Int_Tables_number   1
_chemical_formula_structural   Dy2ZrSn3Rh10
_chemical_formula_sum   'Dy2 Zr1 Sn3 Rh10'
_cell_volume   271.40571066
_cell_formula_units_Z   1
loop_
 _symmetry_equiv_pos_site_id
 _symmetry_equiv_pos_as_xyz
  1  'x, y, z'
loop_
 _atom_site_type_symbol
 _atom_site_label
 _atom_site_symmetry_multiplicity
 _atom_site_fract_x
 _atom_site_fract_y
 _atom_site_fract_z
 _atom_site_occupancy
  Dy  Dy0  1  0.783159  0.216840  0.499891  1
  Dy  Dy1  1  0.217817  0.782181  0.000086  1
  Zr  Zr2  1  0.783953  0.216048  0.000029  1
  Sn  Sn3  1  0.506632  0.491588  0.751714  1
  Sn  Sn4  1  0.508426  0.493361  0.248236  1
  Sn  Sn5  1  0.207516  0.792483  0.499996  1
  Rh  Rh6  1  0.721687  0.726055  0.999488  1
  Rh  Rh7  1  0.720431  0.720169  0.500511  1
  Rh  Rh8  1  0.273943  0.278313  0.000368  1
  Rh  Rh9  1  0.279831  0.279570  0.499628  1
  Rh  Rh10  1  0.496071  0.990084  0.749128  1
  Rh  Rh11  1  0.495997  0.990758  0.250785  1
  Rh  Rh12  1  0.992611  0.007157  0.244019  1
  Rh  Rh13  1  0.992769  0.007461  0.755980  1
  Rh  Rh14  1  0.009236  0.503983  0.749241  1
  Rh  Rh15  1  0.009919  0.503949  0.250899  1
