# generated using pymatgen
data_Tl2Co3(P2O7)2
_symmetry_space_group_name_H-M   'P 1'
_cell_length_a   7.34317400
_cell_length_b   7.30905576
_cell_length_c   13.43130600
_cell_angle_alpha   87.77010818
_cell_angle_beta   90.00000000
_cell_angle_gamma   90.00000000
_symmetry_Int_Tables_number   1
_chemical_formula_structural   Tl2Co3(P2O7)2
_chemical_formula_sum   'Tl4 Co6 P8 O28'
_cell_volume   720.33471479
_cell_formula_units_Z   2
loop_
 _symmetry_equiv_pos_site_id
 _symmetry_equiv_pos_as_xyz
  1  'x, y, z'
loop_
 _atom_site_type_symbol
 _atom_site_label
 _atom_site_symmetry_multiplicity
 _atom_site_fract_x
 _atom_site_fract_y
 _atom_site_fract_z
 _atom_site_occupancy
  Tl  Tl0  1  0.747241  0.054272  0.417041  1
  Tl  Tl1  1  0.247241  0.945728  0.582959  1
  Tl  Tl2  1  0.992144  0.610540  0.091043  1
  Tl  Tl3  1  0.492144  0.389460  0.908957  1
  Co  Co4  1  0.617340  0.790743  0.735813  1
  Co  Co5  1  0.998256  0.210395  0.901915  1
  Co  Co6  1  0.092586  0.452289  0.614133  1
  Co  Co7  1  0.117340  0.209257  0.264187  1
  Co  Co8  1  0.498256  0.789605  0.098085  1
  Co  Co9  1  0.592586  0.547711  0.385867  1
  P  P10  1  0.512522  0.430080  0.611344  1
  P  P11  1  0.986365  0.636498  0.817018  1
  P  P12  1  0.486365  0.363502  0.182982  1
  P  P13  1  0.288867  0.836142  0.310209  1
  P  P14  1  0.788867  0.163858  0.689791  1
  P  P15  1  0.275330  0.889103  0.891602  1
  P  P16  1  0.012522  0.569920  0.388656  1
  P  P17  1  0.775330  0.110897  0.108398  1
  O  O18  1  0.346282  0.766384  0.978658  1
  O  O19  1  0.280035  0.342198  0.167931  1
  O  O20  1  0.780035  0.657802  0.832069  1
  O  O21  1  0.150273  0.662871  0.306433  1
  O  O22  1  0.650273  0.337129  0.693567  1
  O  O23  1  0.067389  0.471515  0.876091  1
  O  O24  1  0.448959  0.776743  0.377181  1
  O  O25  1  0.890219  0.123977  0.202005  1
  O  O26  1  0.688802  0.000716  0.646109  1
  O  O27  1  0.040830  0.648113  0.706889  1
  O  O28  1  0.829733  0.665831  0.367885  1
  O  O29  1  0.010524  0.366898  0.365548  1
  O  O30  1  0.571153  0.185111  0.131459  1
  O  O31  1  0.737298  0.912286  0.080499  1
  O  O32  1  0.540830  0.351887  0.293111  1
  O  O33  1  0.567389  0.528485  0.123909  1
  O  O34  1  0.390219  0.876023  0.797995  1
  O  O35  1  0.329733  0.334169  0.632115  1
  O  O36  1  0.237298  0.087714  0.919501  1
  O  O37  1  0.088191  0.608795  0.491759  1
  O  O38  1  0.510524  0.633102  0.634452  1
  O  O39  1  0.948959  0.223257  0.622819  1
  O  O40  1  0.188802  0.999284  0.353891  1
  O  O41  1  0.333860  0.873420  0.200380  1
  O  O42  1  0.588191  0.391205  0.508241  1
  O  O43  1  0.071153  0.814889  0.868541  1
  O  O44  1  0.846282  0.233616  0.021342  1
  O  O45  1  0.833860  0.126580  0.799620  1
