# generated using pymatgen
data_TbAl2(Ga2Cu3)2
_symmetry_space_group_name_H-M   'P 1'
_cell_length_a   6.59753787
_cell_length_b   6.59753703
_cell_length_c   6.59753751
_cell_angle_alpha   133.75451272
_cell_angle_beta   99.34953658
_cell_angle_gamma   98.39363121
_symmetry_Int_Tables_number   1
_chemical_formula_structural   TbAl2(Ga2Cu3)2
_chemical_formula_sum   'Tb1 Al2 Ga4 Cu6'
_cell_volume   190.75603464
_cell_formula_units_Z   1
loop_
 _symmetry_equiv_pos_site_id
 _symmetry_equiv_pos_as_xyz
  1  'x, y, z'
loop_
 _atom_site_type_symbol
 _atom_site_label
 _atom_site_symmetry_multiplicity
 _atom_site_fract_x
 _atom_site_fract_y
 _atom_site_fract_z
 _atom_site_occupancy
  Tb  Tb0  1  0.000000  0.000000  0.000000  1
  Al  Al1  1  0.796682  0.296682  0.500000  1
  Al  Al2  1  0.203318  0.703318  0.500000  1
  Ga  Ga3  1  0.348905  0.348905  0.000000  1
  Ga  Ga4  1  0.651095  0.651095  0.000000  1
  Ga  Ga5  1  0.653074  0.000000  0.653074  1
  Ga  Ga6  1  0.346926  0.000000  0.346926  1
  Cu  Cu7  1  0.500000  0.000000  0.000000  1
  Cu  Cu8  1  0.500000  0.500000  0.500000  1
  Cu  Cu9  1  0.000000  0.000000  0.500000  1
  Cu  Cu10  1  0.000000  0.500000  0.000000  1
  Cu  Cu11  1  0.224754  0.500000  0.724754  1
  Cu  Cu12  1  0.775246  0.500000  0.275246  1
