# generated using pymatgen
data_Tb4CdHgPt4
_symmetry_space_group_name_H-M   'P 1'
_cell_length_a   3.73794900
_cell_length_b   7.75858800
_cell_length_c   7.75858800
_cell_angle_alpha   90.00000000
_cell_angle_beta   90.00000000
_cell_angle_gamma   90.00000000
_symmetry_Int_Tables_number   1
_chemical_formula_structural   Tb4CdHgPt4
_chemical_formula_sum   'Tb4 Cd1 Hg1 Pt4'
_cell_volume   225.00841084
_cell_formula_units_Z   1
loop_
 _symmetry_equiv_pos_site_id
 _symmetry_equiv_pos_as_xyz
  1  'x, y, z'
loop_
 _atom_site_type_symbol
 _atom_site_label
 _atom_site_symmetry_multiplicity
 _atom_site_fract_x
 _atom_site_fract_y
 _atom_site_fract_z
 _atom_site_occupancy
  Tb  Tb0  1  0.500000  0.157886  0.681200  1
  Tb  Tb1  1  0.500000  0.842114  0.318800  1
  Tb  Tb2  1  0.500000  0.318800  0.157886  1
  Tb  Tb3  1  0.500000  0.681200  0.842114  1
  Cd  Cd4  1  0.000000  0.500000  0.500000  1
  Hg  Hg5  1  0.000000  0.000000  0.000000  1
  Pt  Pt6  1  0.000000  0.618873  0.141128  1
  Pt  Pt7  1  0.000000  0.381127  0.858872  1
  Pt  Pt8  1  0.000000  0.858872  0.618873  1
  Pt  Pt9  1  0.000000  0.141128  0.381127  1
