# generated using pymatgen
data_Th3Al7Ag2
_symmetry_space_group_name_H-M   'P 1'
_cell_length_a   9.45784888
_cell_length_b   9.45784921
_cell_length_c   9.45784994
_cell_angle_alpha   35.01228326
_cell_angle_beta   35.01228042
_cell_angle_gamma   35.01228012
_symmetry_Int_Tables_number   1
_chemical_formula_structural   Th3Al7Ag2
_chemical_formula_sum   'Th3 Al7 Ag2'
_cell_volume   248.67272438
_cell_formula_units_Z   1
loop_
 _symmetry_equiv_pos_site_id
 _symmetry_equiv_pos_as_xyz
  1  'x, y, z'
loop_
 _atom_site_type_symbol
 _atom_site_label
 _atom_site_symmetry_multiplicity
 _atom_site_fract_x
 _atom_site_fract_y
 _atom_site_fract_z
 _atom_site_occupancy
  Th  Th0  1  0.141136  0.141136  0.141136  1
  Th  Th1  1  0.858864  0.858864  0.858864  1
  Th  Th2  1  0.000000  0.000000  0.000000  1
  Al  Al3  1  0.586454  0.586454  0.074309  1
  Al  Al4  1  0.413546  0.925691  0.413546  1
  Al  Al5  1  0.586454  0.074309  0.586454  1
  Al  Al6  1  0.074309  0.586454  0.586454  1
  Al  Al7  1  0.413546  0.413546  0.925691  1
  Al  Al8  1  0.500000  0.500000  0.500000  1
  Al  Al9  1  0.925691  0.413546  0.413546  1
  Ag  Ag10  1  0.335833  0.335833  0.335833  1
  Ag  Ag11  1  0.664167  0.664167  0.664167  1
