# generated using pymatgen
data_YbY2Lu(CrB4)4
_symmetry_space_group_name_H-M   'P 1'
_cell_length_a   3.41585200
_cell_length_b   5.92444639
_cell_length_c   11.46336188
_cell_angle_alpha   90.01194310
_cell_angle_beta   90.00000000
_cell_angle_gamma   90.00000000
_symmetry_Int_Tables_number   1
_chemical_formula_structural   YbY2Lu(CrB4)4
_chemical_formula_sum   'Yb1 Y2 Lu1 Cr4 B16'
_cell_volume   231.98441688
_cell_formula_units_Z   1
loop_
 _symmetry_equiv_pos_site_id
 _symmetry_equiv_pos_as_xyz
  1  'x, y, z'
loop_
 _atom_site_type_symbol
 _atom_site_label
 _atom_site_symmetry_multiplicity
 _atom_site_fract_x
 _atom_site_fract_y
 _atom_site_fract_z
 _atom_site_occupancy
  Yb  Yb0  1  0.000000  0.624324  0.348523  1
  Y  Y1  1  0.000000  0.375391  0.651326  1
  Y  Y2  1  0.000000  0.124705  0.151324  1
  Lu  Lu3  1  0.000000  0.875117  0.849398  1
  Cr  Cr4  1  0.000000  0.624957  0.080072  1
  Cr  Cr5  1  0.000000  0.376286  0.918092  1
  Cr  Cr6  1  0.000000  0.123502  0.420048  1
  Cr  Cr7  1  0.000000  0.875468  0.581492  1
  B  B8  1  0.500000  0.780866  0.183719  1
  B  B9  1  0.500000  0.215876  0.816197  1
  B  B10  1  0.500000  0.282645  0.316019  1
  B  B11  1  0.500000  0.718101  0.685241  1
  B  B12  1  0.500000  0.862795  0.031296  1
  B  B13  1  0.500000  0.136613  0.966685  1
  B  B14  1  0.500000  0.362662  0.467144  1
  B  B15  1  0.500000  0.637332  0.533086  1
  B  B16  1  0.500000  0.885777  0.453192  1
  B  B17  1  0.500000  0.113075  0.547541  1
  B  B18  1  0.500000  0.387585  0.046108  1
  B  B19  1  0.500000  0.614891  0.952015  1
  B  B20  1  0.500000  0.977139  0.308786  1
  B  B21  1  0.500000  0.022652  0.692971  1
  B  B22  1  0.500000  0.476764  0.191142  1
  B  B23  1  0.500000  0.525481  0.808584  1
