# generated using pymatgen
data_Cs12Ti(FeSe4)3
_symmetry_space_group_name_H-M   'P 1'
_cell_length_a   10.87301761
_cell_length_b   10.87301710
_cell_length_c   14.15073453
_cell_angle_alpha   89.86780536
_cell_angle_beta   89.86780617
_cell_angle_gamma   137.20142883
_symmetry_Int_Tables_number   1
_chemical_formula_structural   Cs12Ti(FeSe4)3
_chemical_formula_sum   'Cs12 Ti1 Fe3 Se12'
_cell_volume   1136.60800719
_cell_formula_units_Z   1
loop_
 _symmetry_equiv_pos_site_id
 _symmetry_equiv_pos_as_xyz
  1  'x, y, z'
loop_
 _atom_site_type_symbol
 _atom_site_label
 _atom_site_symmetry_multiplicity
 _atom_site_fract_x
 _atom_site_fract_y
 _atom_site_fract_z
 _atom_site_occupancy
  Cs  Cs0  1  0.874219  0.874295  0.677716  1
  Cs  Cs1  1  0.125705  0.125781  0.322284  1
  Cs  Cs2  1  0.624359  0.617997  0.185813  1
  Cs  Cs3  1  0.382003  0.375641  0.814187  1
  Cs  Cs4  1  0.166988  0.523947  0.131371  1
  Cs  Cs5  1  0.476053  0.833012  0.868629  1
  Cs  Cs6  1  0.994958  0.350637  0.620508  1
  Cs  Cs7  1  0.649363  0.005042  0.379492  1
  Cs  Cs8  1  0.846418  0.495243  0.875320  1
  Cs  Cs9  1  0.504757  0.153582  0.124680  1
  Cs  Cs10  1  0.004565  0.651863  0.376820  1
  Cs  Cs11  1  0.348137  0.995435  0.623180  1
  Ti  Ti12  1  0.925553  0.074447  0.000000  1
  Fe  Fe13  1  0.427669  0.572331  0.500000  1
  Fe  Fe14  1  0.078011  0.921989  0.000000  1
  Fe  Fe15  1  0.572161  0.427839  0.500000  1
  Se  Se16  1  0.285497  0.285954  0.565013  1
  Se  Se17  1  0.714046  0.714503  0.434987  1
  Se  Se18  1  0.209978  0.211723  0.065669  1
  Se  Se19  1  0.788277  0.790022  0.934331  1
  Se  Se20  1  0.728184  0.013868  0.120229  1
  Se  Se21  1  0.986132  0.271816  0.879771  1
  Se  Se22  1  0.485286  0.766718  0.620070  1
  Se  Se23  1  0.233282  0.514714  0.379930  1
  Se  Se24  1  0.277333  0.988806  0.880238  1
  Se  Se25  1  0.011194  0.722667  0.119762  1
  Se  Se26  1  0.514638  0.234765  0.379213  1
  Se  Se27  1  0.765235  0.485362  0.620787  1
