# generated using pymatgen
data_YbTmTa6(Co4P3)4
_symmetry_space_group_name_H-M   'P 1'
_cell_length_a   11.98900100
_cell_length_b   11.98900174
_cell_length_c   3.65158800
_cell_angle_alpha   90.00000000
_cell_angle_beta   90.00000000
_cell_angle_gamma   120.00000071
_symmetry_Int_Tables_number   1
_chemical_formula_structural   YbTmTa6(Co4P3)4
_chemical_formula_sum   'Yb1 Tm1 Ta6 Co16 P12'
_cell_volume   454.54660619
_cell_formula_units_Z   1
loop_
 _symmetry_equiv_pos_site_id
 _symmetry_equiv_pos_as_xyz
  1  'x, y, z'
loop_
 _atom_site_type_symbol
 _atom_site_label
 _atom_site_symmetry_multiplicity
 _atom_site_fract_x
 _atom_site_fract_y
 _atom_site_fract_z
 _atom_site_occupancy
  Yb  Yb0  1  0.333333  0.666667  0.000000  1
  Tm  Tm1  1  0.666667  0.333333  0.000000  1
  Ta  Ta2  1  0.820974  0.999801  0.500000  1
  Ta  Ta3  1  0.000199  0.821172  0.500000  1
  Ta  Ta4  1  0.178828  0.179026  0.500000  1
  Ta  Ta5  1  0.443974  0.999992  0.000000  1
  Ta  Ta6  1  0.000008  0.443983  0.000000  1
  Ta  Ta7  1  0.556017  0.556026  0.000000  1
  Co  Co8  1  0.272389  0.000629  0.500000  1
  Co  Co9  1  0.999371  0.271760  0.500000  1
  Co  Co10  1  0.728240  0.727611  0.500000  1
  Co  Co11  1  0.635967  0.810625  0.000000  1
  Co  Co12  1  0.189375  0.825343  0.000000  1
  Co  Co13  1  0.174657  0.364033  0.000000  1
  Co  Co14  1  0.365445  0.176618  0.000000  1
  Co  Co15  1  0.811174  0.634555  0.000000  1
  Co  Co16  1  0.823382  0.188826  0.000000  1
  Co  Co17  1  0.522520  0.876580  0.500000  1
  Co  Co18  1  0.123420  0.645938  0.500000  1
  Co  Co19  1  0.354062  0.477480  0.500000  1
  Co  Co20  1  0.480622  0.354360  0.500000  1
  Co  Co21  1  0.873738  0.519378  0.500000  1
  Co  Co22  1  0.645640  0.126262  0.500000  1
  Co  Co23  1  0.000000  0.000000  0.000000  1
  P  P24  1  0.172341  0.000503  0.000000  1
  P  P25  1  0.999497  0.171839  0.000000  1
  P  P26  1  0.828161  0.827659  0.000000  1
  P  P27  1  0.521747  0.690147  0.500000  1
  P  P28  1  0.309853  0.831599  0.500000  1
  P  P29  1  0.168401  0.478253  0.500000  1
  P  P30  1  0.478213  0.168299  0.500000  1
  P  P31  1  0.690084  0.521787  0.500000  1
  P  P32  1  0.831701  0.309916  0.500000  1
  P  P33  1  0.648164  0.999221  0.000000  1
  P  P34  1  0.000779  0.648944  0.000000  1
  P  P35  1  0.351056  0.351836  0.000000  1
