# generated using pymatgen
data_CeHo(Si2Pd)2
_symmetry_space_group_name_H-M   'P 1'
_cell_length_a   3.91659600
_cell_length_b   7.22504061
_cell_length_c   10.05029100
_cell_angle_alpha   90.07138738
_cell_angle_beta   90.00000000
_cell_angle_gamma   90.00000000
_symmetry_Int_Tables_number   1
_chemical_formula_structural   CeHo(Si2Pd)2
_chemical_formula_sum   'Ce2 Ho2 Si8 Pd4'
_cell_volume   284.39854355
_cell_formula_units_Z   2
loop_
 _symmetry_equiv_pos_site_id
 _symmetry_equiv_pos_as_xyz
  1  'x, y, z'
loop_
 _atom_site_type_symbol
 _atom_site_label
 _atom_site_symmetry_multiplicity
 _atom_site_fract_x
 _atom_site_fract_y
 _atom_site_fract_z
 _atom_site_occupancy
  Ce  Ce0  1  0.250000  0.639026  0.632767  1
  Ce  Ce1  1  0.750000  0.360974  0.367233  1
  Ho  Ho2  1  0.250000  0.138806  0.870046  1
  Ho  Ho3  1  0.750000  0.861194  0.129954  1
  Si  Si4  1  0.750000  0.275249  0.068224  1
  Si  Si5  1  0.250000  0.724751  0.931776  1
  Si  Si6  1  0.750000  0.778926  0.429899  1
  Si  Si7  1  0.250000  0.221074  0.570101  1
  Si  Si8  1  0.750000  0.839768  0.824866  1
  Si  Si9  1  0.250000  0.160232  0.175134  1
  Si  Si10  1  0.750000  0.338137  0.680052  1
  Si  Si11  1  0.250000  0.661863  0.319948  1
  Pd  Pd12  1  0.250000  0.995831  0.382620  1
  Pd  Pd13  1  0.750000  0.004169  0.617380  1
  Pd  Pd14  1  0.250000  0.500138  0.112585  1
  Pd  Pd15  1  0.750000  0.499862  0.887415  1
