# generated using pymatgen
data_Ba2Na(SnSb)6
_symmetry_space_group_name_H-M   'P 1'
_cell_length_a   7.76146549
_cell_length_b   7.76146544
_cell_length_c   10.23522565
_cell_angle_alpha   82.68385947
_cell_angle_beta   82.68385823
_cell_angle_gamma   119.98645602
_symmetry_Int_Tables_number   1
_chemical_formula_structural   Ba2Na(SnSb)6
_chemical_formula_sum   'Ba2 Na1 Sn6 Sb6'
_cell_volume   516.43759875
_cell_formula_units_Z   1
loop_
 _symmetry_equiv_pos_site_id
 _symmetry_equiv_pos_as_xyz
  1  'x, y, z'
loop_
 _atom_site_type_symbol
 _atom_site_label
 _atom_site_symmetry_multiplicity
 _atom_site_fract_x
 _atom_site_fract_y
 _atom_site_fract_z
 _atom_site_occupancy
  Ba  Ba0  1  0.666337  0.333663  0.000000  1
  Ba  Ba1  1  0.333663  0.666337  0.000000  1
  Na  Na2  1  0.000000  0.000000  0.000000  1
  Sn  Sn3  1  0.533827  0.873235  0.380945  1
  Sn  Sn4  1  0.211306  0.211306  0.380986  1
  Sn  Sn5  1  0.873235  0.533827  0.380945  1
  Sn  Sn6  1  0.466173  0.126765  0.619055  1
  Sn  Sn7  1  0.126765  0.466173  0.619055  1
  Sn  Sn8  1  0.788694  0.788694  0.619014  1
  Sb  Sb9  1  0.403170  0.403170  0.766498  1
  Sb  Sb10  1  0.077574  0.752447  0.767476  1
  Sb  Sb11  1  0.752447  0.077574  0.767476  1
  Sb  Sb12  1  0.596830  0.596830  0.233502  1
  Sb  Sb13  1  0.247553  0.922426  0.232524  1
  Sb  Sb14  1  0.922426  0.247553  0.232524  1
