# generated using pymatgen
data_Ti10Al12Co7
_symmetry_space_group_name_H-M   'P 1'
_cell_length_a   8.39774173
_cell_length_b   8.39826340
_cell_length_c   8.39711800
_cell_angle_alpha   60.00351877
_cell_angle_beta   60.00727135
_cell_angle_gamma   60.00118185
_symmetry_Int_Tables_number   1
_chemical_formula_structural   Ti10Al12Co7
_chemical_formula_sum   'Ti10 Al12 Co7'
_cell_volume   418.79988380
_cell_formula_units_Z   1
loop_
 _symmetry_equiv_pos_site_id
 _symmetry_equiv_pos_as_xyz
  1  'x, y, z'
loop_
 _atom_site_type_symbol
 _atom_site_label
 _atom_site_symmetry_multiplicity
 _atom_site_fract_x
 _atom_site_fract_y
 _atom_site_fract_z
 _atom_site_occupancy
  Ti  Ti0  1  0.688036  0.688064  0.311937  1
  Ti  Ti1  1  0.312159  0.687902  0.312087  1
  Ti  Ti2  1  0.687940  0.312117  0.312039  1
  Ti  Ti3  1  0.311961  0.311970  0.688037  1
  Ti  Ti4  1  0.687884  0.312160  0.687853  1
  Ti  Ti5  1  0.312112  0.687937  0.687884  1
  Ti  Ti6  1  0.881291  0.881304  0.356087  1
  Ti  Ti7  1  0.881221  0.356078  0.881365  1
  Ti  Ti8  1  0.356102  0.881223  0.881353  1
  Ti  Ti9  1  0.881274  0.881289  0.881332  1
  Al  Al10  1  0.119653  0.119599  0.641029  1
  Al  Al11  1  0.119661  0.641034  0.119641  1
  Al  Al12  1  0.641032  0.119633  0.119656  1
  Al  Al13  1  0.119666  0.119616  0.119710  1
  Al  Al14  1  0.660777  0.660792  0.017729  1
  Al  Al15  1  0.660790  0.017643  0.660791  1
  Al  Al16  1  0.017609  0.660830  0.660812  1
  Al  Al17  1  0.660731  0.660806  0.660743  1
  Al  Al18  1  0.338439  0.338415  0.984768  1
  Al  Al19  1  0.338464  0.984699  0.338398  1
  Al  Al20  1  0.984732  0.338430  0.338379  1
  Al  Al21  1  0.338460  0.338404  0.338323  1
  Co  Co22  1  0.999991  0.999977  0.000024  1
  Co  Co23  1  0.997466  0.997469  0.502537  1
  Co  Co24  1  0.502514  0.997501  0.502514  1
  Co  Co25  1  0.997463  0.502545  0.502562  1
  Co  Co26  1  0.502559  0.502546  0.997447  1
  Co  Co27  1  0.997508  0.502504  0.997480  1
  Co  Co28  1  0.502507  0.997513  0.997481  1
