# generated using pymatgen
data_Sm2Y(ErSn2)2
_symmetry_space_group_name_H-M   'P 1'
_cell_length_a   8.06848500
_cell_length_b   8.22281600
_cell_length_c   15.53815400
_cell_angle_alpha   90.00000000
_cell_angle_beta   90.00000000
_cell_angle_gamma   90.00000000
_symmetry_Int_Tables_number   1
_chemical_formula_structural   Sm2Y(ErSn2)2
_chemical_formula_sum   'Sm8 Y4 Er8 Sn16'
_cell_volume   1030.88919968
_cell_formula_units_Z   4
loop_
 _symmetry_equiv_pos_site_id
 _symmetry_equiv_pos_as_xyz
  1  'x, y, z'
loop_
 _atom_site_type_symbol
 _atom_site_label
 _atom_site_symmetry_multiplicity
 _atom_site_fract_x
 _atom_site_fract_y
 _atom_site_fract_z
 _atom_site_occupancy
  Sm  Sm0  1  0.519061  0.320896  0.902440  1
  Sm  Sm1  1  0.019061  0.179104  0.597560  1
  Sm  Sm2  1  0.480939  0.679104  0.402440  1
  Sm  Sm3  1  0.980939  0.820896  0.097560  1
  Sm  Sm4  1  0.481056  0.679143  0.097709  1
  Sm  Sm5  1  0.981056  0.820857  0.402291  1
  Sm  Sm6  1  0.518944  0.320857  0.597709  1
  Sm  Sm7  1  0.018944  0.179143  0.902291  1
  Y  Y8  1  0.365769  0.835628  0.877666  1
  Y  Y9  1  0.865769  0.664372  0.622334  1
  Y  Y10  1  0.634231  0.164372  0.377666  1
  Y  Y11  1  0.134231  0.335628  0.122334  1
  Er  Er12  1  0.634164  0.164319  0.122341  1
  Er  Er13  1  0.134164  0.335681  0.377659  1
  Er  Er14  1  0.365836  0.835681  0.622341  1
  Er  Er15  1  0.865836  0.664319  0.877659  1
  Er  Er16  1  0.197931  0.503337  0.749995  1
  Er  Er17  1  0.697931  0.996663  0.750005  1
  Er  Er18  1  0.802069  0.496663  0.249995  1
  Er  Er19  1  0.302069  0.003337  0.250005  1
  Sn  Sn20  1  0.297313  0.037692  0.042087  1
  Sn  Sn21  1  0.797313  0.462308  0.457913  1
  Sn  Sn22  1  0.702687  0.962308  0.542087  1
  Sn  Sn23  1  0.202687  0.537692  0.957913  1
  Sn  Sn24  1  0.703478  0.962215  0.958189  1
  Sn  Sn25  1  0.203478  0.537785  0.541811  1
  Sn  Sn26  1  0.296522  0.037785  0.458189  1
  Sn  Sn27  1  0.796522  0.462215  0.041811  1
  Sn  Sn28  1  0.564073  0.622210  0.749965  1
  Sn  Sn29  1  0.064073  0.877790  0.750035  1
  Sn  Sn30  1  0.435927  0.377790  0.249965  1
  Sn  Sn31  1  0.935927  0.122210  0.250035  1
  Sn  Sn32  1  0.327460  0.144428  0.749847  1
  Sn  Sn33  1  0.827460  0.355572  0.750153  1
  Sn  Sn34  1  0.672540  0.855572  0.249847  1
  Sn  Sn35  1  0.172540  0.644428  0.250153  1
