# generated using pymatgen
data_Hf16Ni4IrOs3
_symmetry_space_group_name_H-M   'P 1'
_cell_length_a   8.61085829
_cell_length_b   8.61085753
_cell_length_c   8.61085917
_cell_angle_alpha   60.03470120
_cell_angle_beta   60.03470560
_cell_angle_gamma   60.03469895
_symmetry_Int_Tables_number   1
_chemical_formula_structural   Hf16Ni4IrOs3
_chemical_formula_sum   'Hf16 Ni4 Ir1 Os3'
_cell_volume   451.82038279
_cell_formula_units_Z   1
loop_
 _symmetry_equiv_pos_site_id
 _symmetry_equiv_pos_as_xyz
  1  'x, y, z'
loop_
 _atom_site_type_symbol
 _atom_site_label
 _atom_site_symmetry_multiplicity
 _atom_site_fract_x
 _atom_site_fract_y
 _atom_site_fract_z
 _atom_site_occupancy
  Hf  Hf0  1  0.681969  0.105952  0.105952  1
  Hf  Hf1  1  0.105952  0.681969  0.105952  1
  Hf  Hf2  1  0.105952  0.105952  0.681969  1
  Hf  Hf3  1  0.104642  0.104642  0.104642  1
  Hf  Hf4  1  0.315486  0.315486  0.687883  1
  Hf  Hf5  1  0.685219  0.685219  0.315168  1
  Hf  Hf6  1  0.315486  0.687883  0.315486  1
  Hf  Hf7  1  0.685219  0.315168  0.685219  1
  Hf  Hf8  1  0.687883  0.315486  0.315486  1
  Hf  Hf9  1  0.315168  0.685219  0.685219  1
  Hf  Hf10  1  0.951547  0.951547  0.548383  1
  Hf  Hf11  1  0.549032  0.549032  0.950134  1
  Hf  Hf12  1  0.951547  0.548383  0.951547  1
  Hf  Hf13  1  0.549032  0.950134  0.549032  1
  Hf  Hf14  1  0.548383  0.951547  0.951547  1
  Hf  Hf15  1  0.950134  0.549032  0.549032  1
  Ni  Ni16  1  0.323541  0.891404  0.891404  1
  Ni  Ni17  1  0.891404  0.323541  0.891404  1
  Ni  Ni18  1  0.891404  0.891404  0.323541  1
  Ni  Ni19  1  0.892609  0.892609  0.892609  1
  Ir  Ir20  1  0.333794  0.333794  0.333794  1
  Os  Os21  1  0.998046  0.333275  0.333275  1
  Os  Os22  1  0.333275  0.998046  0.333275  1
  Os  Os23  1  0.333275  0.333275  0.998046  1
