# generated using pymatgen
data_Tb24ZnTc7
_symmetry_space_group_name_H-M   'P 1'
_cell_length_a   6.31768994
_cell_length_b   9.24727500
_cell_length_c   14.78751700
_cell_angle_alpha   90.00000000
_cell_angle_beta   90.27719821
_cell_angle_gamma   90.00000000
_symmetry_Int_Tables_number   1
_chemical_formula_structural   Tb24ZnTc7
_chemical_formula_sum   'Tb24 Zn1 Tc7'
_cell_volume   863.89757494
_cell_formula_units_Z   1
loop_
 _symmetry_equiv_pos_site_id
 _symmetry_equiv_pos_as_xyz
  1  'x, y, z'
loop_
 _atom_site_type_symbol
 _atom_site_label
 _atom_site_symmetry_multiplicity
 _atom_site_fract_x
 _atom_site_fract_y
 _atom_site_fract_z
 _atom_site_occupancy
  Tb  Tb0  1  0.537711  0.750000  0.356011  1
  Tb  Tb1  1  0.033716  0.250000  0.145424  1
  Tb  Tb2  1  0.463072  0.250000  0.644837  1
  Tb  Tb3  1  0.956826  0.750000  0.856728  1
  Tb  Tb4  1  0.779914  0.750000  0.105058  1
  Tb  Tb5  1  0.276151  0.250000  0.393325  1
  Tb  Tb6  1  0.224814  0.250000  0.892968  1
  Tb  Tb7  1  0.713890  0.750000  0.605387  1
  Tb  Tb8  1  0.440245  0.937739  0.790114  1
  Tb  Tb9  1  0.921991  0.070315  0.711333  1
  Tb  Tb10  1  0.566657  0.435512  0.211970  1
  Tb  Tb11  1  0.066606  0.566477  0.286994  1
  Tb  Tb12  1  0.566657  0.064488  0.211970  1
  Tb  Tb13  1  0.066606  0.933523  0.286994  1
  Tb  Tb14  1  0.440245  0.562261  0.790114  1
  Tb  Tb15  1  0.921991  0.429685  0.711333  1
  Tb  Tb16  1  0.243563  0.942391  0.530851  1
  Tb  Tb17  1  0.738223  0.066435  0.966563  1
  Tb  Tb18  1  0.760223  0.433977  0.464588  1
  Tb  Tb19  1  0.258209  0.565494  0.036072  1
  Tb  Tb20  1  0.760223  0.066023  0.464588  1
  Tb  Tb21  1  0.258209  0.934506  0.036072  1
  Tb  Tb22  1  0.243563  0.557609  0.530851  1
  Tb  Tb23  1  0.738223  0.433565  0.966563  1
  Zn  Zn24  1  0.148957  0.750000  0.679779  1
  Tc  Tc25  1  0.941371  0.750000  0.445384  1
  Tc  Tc26  1  0.429482  0.250000  0.062875  1
  Tc  Tc27  1  0.068173  0.250000  0.564196  1
  Tc  Tc28  1  0.565272  0.750000  0.936112  1
  Tc  Tc29  1  0.368918  0.750000  0.184457  1
  Tc  Tc30  1  0.867305  0.250000  0.315588  1
  Tc  Tc31  1  0.632992  0.250000  0.814898  1
