# generated using pymatgen
data_Ce3Sm6Ho(Al2Ru3)2
_symmetry_space_group_name_H-M   'P 1'
_cell_length_a   8.54649521
_cell_length_b   8.54649468
_cell_length_c   8.54649418
_cell_angle_alpha   110.21376693
_cell_angle_beta   110.21376163
_cell_angle_gamma   110.21376433
_symmetry_Int_Tables_number   1
_chemical_formula_structural   Ce3Sm6Ho(Al2Ru3)2
_chemical_formula_sum   'Ce3 Sm6 Ho1 Al4 Ru6'
_cell_volume   466.87586067
_cell_formula_units_Z   1
loop_
 _symmetry_equiv_pos_site_id
 _symmetry_equiv_pos_as_xyz
  1  'x, y, z'
loop_
 _atom_site_type_symbol
 _atom_site_label
 _atom_site_symmetry_multiplicity
 _atom_site_fract_x
 _atom_site_fract_y
 _atom_site_fract_z
 _atom_site_occupancy
  Ce  Ce0  1  0.251946  0.199993  0.943892  1
  Ce  Ce1  1  0.943892  0.251946  0.199993  1
  Ce  Ce2  1  0.199993  0.943892  0.251946  1
  Sm  Sm3  1  0.313467  0.565014  0.753084  1
  Sm  Sm4  1  0.753084  0.313467  0.565014  1
  Sm  Sm5  1  0.565014  0.753084  0.313467  1
  Sm  Sm6  1  0.721228  0.506090  0.992444  1
  Sm  Sm7  1  0.992444  0.721228  0.506090  1
  Sm  Sm8  1  0.506090  0.992444  0.721228  1
  Ho  Ho9  1  0.784902  0.784902  0.784902  1
  Al  Al10  1  0.412011  0.412011  0.412011  1
  Al  Al11  1  0.093626  0.496465  0.005167  1
  Al  Al12  1  0.005167  0.093626  0.496465  1
  Al  Al13  1  0.496465  0.005167  0.093626  1
  Ru  Ru14  1  0.911439  0.120285  0.755394  1
  Ru  Ru15  1  0.755394  0.911439  0.120285  1
  Ru  Ru16  1  0.120285  0.755394  0.911439  1
  Ru  Ru17  1  0.220244  0.589092  0.364219  1
  Ru  Ru18  1  0.364219  0.220244  0.589092  1
  Ru  Ru19  1  0.589092  0.364219  0.220244  1
