# generated using pymatgen
data_La3PrAl18Ir5Pt
_symmetry_space_group_name_H-M   'P 1'
_cell_length_a   7.66596431
_cell_length_b   7.66760621
_cell_length_c   9.64598037
_cell_angle_alpha   89.98971519
_cell_angle_beta   89.98587882
_cell_angle_gamma   119.44083538
_symmetry_Int_Tables_number   1
_chemical_formula_structural   La3PrAl18Ir5Pt
_chemical_formula_sum   'La3 Pr1 Al18 Ir5 Pt1'
_cell_volume   493.76820911
_cell_formula_units_Z   1
loop_
 _symmetry_equiv_pos_site_id
 _symmetry_equiv_pos_as_xyz
  1  'x, y, z'
loop_
 _atom_site_type_symbol
 _atom_site_label
 _atom_site_symmetry_multiplicity
 _atom_site_fract_x
 _atom_site_fract_y
 _atom_site_fract_z
 _atom_site_occupancy
  La  La0  1  0.994647  0.669443  0.250255  1
  La  La1  1  0.003931  0.329865  0.750047  1
  La  La2  1  0.670771  0.995776  0.250001  1
  Pr  Pr3  1  0.330703  0.005049  0.749865  1
  Al  Al4  1  0.132329  0.131110  0.250338  1
  Al  Al5  1  0.870591  0.868964  0.749647  1
  Al  Al6  1  0.007714  0.335330  0.074596  1
  Al  Al7  1  0.000623  0.669727  0.925211  1
  Al  Al8  1  0.998108  0.665932  0.573119  1
  Al  Al9  1  0.334938  0.002572  0.428352  1
  Al  Al10  1  0.003826  0.334946  0.427101  1
  Al  Al11  1  0.664213  0.996336  0.573562  1
  Al  Al12  1  0.663863  0.992483  0.924779  1
  Al  Al13  1  0.331134  0.000037  0.073386  1
  Al  Al14  1  0.334120  0.333533  0.545884  1
  Al  Al15  1  0.665507  0.665624  0.455678  1
  Al  Al16  1  0.664610  0.667888  0.047302  1
  Al  Al17  1  0.331909  0.334464  0.951149  1
  Al  Al18  1  0.340858  0.545806  0.250248  1
  Al  Al19  1  0.658769  0.455850  0.747010  1
  Al  Al20  1  0.542571  0.339939  0.252972  1
  Al  Al21  1  0.454179  0.660410  0.749721  1
  Ir  Ir22  1  0.329244  0.670553  0.999982  1
  Ir  Ir23  1  0.329419  0.670422  0.499970  1
  Ir  Ir24  1  0.670729  0.329109  0.499860  1
  Ir  Ir25  1  0.999904  0.000072  0.000138  1
  Ir  Ir26  1  0.000129  0.999855  0.499818  1
  Pt  Pt27  1  0.670660  0.328902  0.000008  1
