# generated using pymatgen
data_Dy2HoHfSn2Ir3
_symmetry_space_group_name_H-M   'P 1'
_cell_length_a   7.35458641
_cell_length_b   7.35951702
_cell_length_c   4.19259200
_cell_angle_alpha   90.00000000
_cell_angle_beta   90.00000000
_cell_angle_gamma   120.93197807
_symmetry_Int_Tables_number   1
_chemical_formula_structural   Dy2HoHfSn2Ir3
_chemical_formula_sum   'Dy2 Ho1 Hf1 Sn2 Ir3'
_cell_volume   194.65481515
_cell_formula_units_Z   1
loop_
 _symmetry_equiv_pos_site_id
 _symmetry_equiv_pos_as_xyz
  1  'x, y, z'
loop_
 _atom_site_type_symbol
 _atom_site_label
 _atom_site_symmetry_multiplicity
 _atom_site_fract_x
 _atom_site_fract_y
 _atom_site_fract_z
 _atom_site_occupancy
  Dy  Dy0  1  0.396102  0.396272  0.500000  1
  Dy  Dy1  1  0.589489  0.004923  0.500000  1
  Ho  Ho2  1  0.004341  0.589727  0.500000  1
  Hf  Hf3  1  0.750784  0.750286  0.000000  1
  Sn  Sn4  1  0.252861  0.997685  0.000000  1
  Sn  Sn5  1  0.998118  0.253404  0.000000  1
  Ir  Ir6  1  0.673836  0.353216  0.000000  1
  Ir  Ir7  1  0.351829  0.672614  0.000000  1
  Ir  Ir8  1  0.982641  0.981873  0.500000  1
