# generated using pymatgen
data_Tm4Al2B4IrRh9
_symmetry_space_group_name_H-M   'P 1'
_cell_length_a   9.48614928
_cell_length_b   9.48614928
_cell_length_c   3.15908200
_cell_angle_alpha   90.00000000
_cell_angle_beta   90.00000000
_cell_angle_gamma   90.21232820
_symmetry_Int_Tables_number   1
_chemical_formula_structural   Tm4Al2B4IrRh9
_chemical_formula_sum   'Tm4 Al2 B4 Ir1 Rh9'
_cell_volume   284.27444916
_cell_formula_units_Z   1
loop_
 _symmetry_equiv_pos_site_id
 _symmetry_equiv_pos_as_xyz
  1  'x, y, z'
loop_
 _atom_site_type_symbol
 _atom_site_label
 _atom_site_symmetry_multiplicity
 _atom_site_fract_x
 _atom_site_fract_y
 _atom_site_fract_z
 _atom_site_occupancy
  Tm  Tm0  1  0.175007  0.675007  0.000000  1
  Tm  Tm1  1  0.322722  0.177278  0.000000  1
  Tm  Tm2  1  0.677278  0.822722  0.000000  1
  Tm  Tm3  1  0.824993  0.324993  0.000000  1
  Al  Al4  1  0.000000  0.000000  0.000000  1
  Al  Al5  1  0.500000  0.500000  0.000000  1
  B  B6  1  0.121715  0.378285  0.000000  1
  B  B7  1  0.377860  0.877860  0.000000  1
  B  B8  1  0.622140  0.122140  0.000000  1
  B  B9  1  0.878285  0.621715  0.000000  1
  Ir  Ir10  1  0.500000  0.000000  0.500000  1
  Rh  Rh11  1  0.000000  0.500000  0.500000  1
  Rh  Rh12  1  0.069325  0.218816  0.500000  1
  Rh  Rh13  1  0.218126  0.929716  0.500000  1
  Rh  Rh14  1  0.281184  0.430675  0.500000  1
  Rh  Rh15  1  0.429716  0.718126  0.500000  1
  Rh  Rh16  1  0.570284  0.281874  0.500000  1
  Rh  Rh17  1  0.718816  0.569325  0.500000  1
  Rh  Rh18  1  0.781874  0.070284  0.500000  1
  Rh  Rh19  1  0.930675  0.781184  0.500000  1
