# generated using pymatgen
data_ErTm10In9Co4
_symmetry_space_group_name_H-M   'P 1'
_cell_length_a   12.79722160
_cell_length_b   12.79722203
_cell_length_c   3.61706100
_cell_angle_alpha   90.00000000
_cell_angle_beta   90.00000000
_cell_angle_gamma   110.77183070
_symmetry_Int_Tables_number   1
_chemical_formula_structural   ErTm10In9Co4
_chemical_formula_sum   'Er1 Tm10 In9 Co4'
_cell_volume   553.85860725
_cell_formula_units_Z   1
loop_
 _symmetry_equiv_pos_site_id
 _symmetry_equiv_pos_as_xyz
  1  'x, y, z'
loop_
 _atom_site_type_symbol
 _atom_site_label
 _atom_site_symmetry_multiplicity
 _atom_site_fract_x
 _atom_site_fract_y
 _atom_site_fract_z
 _atom_site_occupancy
  Er  Er0  1  0.000000  0.000000  0.000000  1
  Tm  Tm1  1  0.419106  0.082320  0.000000  1
  Tm  Tm2  1  0.580894  0.917680  0.000000  1
  Tm  Tm3  1  0.082320  0.419106  0.000000  1
  Tm  Tm4  1  0.917680  0.580894  0.000000  1
  Tm  Tm5  1  0.160486  0.839514  0.000000  1
  Tm  Tm6  1  0.839514  0.160486  0.000000  1
  Tm  Tm7  1  0.376062  0.623938  0.000000  1
  Tm  Tm8  1  0.623938  0.376062  0.000000  1
  Tm  Tm9  1  0.315298  0.315298  0.000000  1
  Tm  Tm10  1  0.684702  0.684702  0.000000  1
  In  In11  1  0.369868  0.840948  0.500000  1
  In  In12  1  0.630132  0.159052  0.500000  1
  In  In13  1  0.840948  0.369868  0.500000  1
  In  In14  1  0.159052  0.630132  0.500000  1
  In  In15  1  0.221117  0.078433  0.500000  1
  In  In16  1  0.778883  0.921567  0.500000  1
  In  In17  1  0.078433  0.221117  0.500000  1
  In  In18  1  0.921567  0.778883  0.500000  1
  In  In19  1  0.500000  0.500000  0.500000  1
  Co  Co20  1  0.449550  0.246768  0.500000  1
  Co  Co21  1  0.550450  0.753232  0.500000  1
  Co  Co22  1  0.246768  0.449550  0.500000  1
  Co  Co23  1  0.753232  0.550450  0.500000  1
