# generated using pymatgen
data_Dy15Th(InNi)4
_symmetry_space_group_name_H-M   'P 1'
_cell_length_a   9.60623454
_cell_length_b   9.60623512
_cell_length_c   9.60623444
_cell_angle_alpha   59.68777985
_cell_angle_beta   59.68777766
_cell_angle_gamma   59.68777534
_symmetry_Int_Tables_number   1
_chemical_formula_structural   Dy15Th(InNi)4
_chemical_formula_sum   'Dy15 Th1 In4 Ni4'
_cell_volume   622.37668493
_cell_formula_units_Z   1
loop_
 _symmetry_equiv_pos_site_id
 _symmetry_equiv_pos_as_xyz
  1  'x, y, z'
loop_
 _atom_site_type_symbol
 _atom_site_label
 _atom_site_symmetry_multiplicity
 _atom_site_fract_x
 _atom_site_fract_y
 _atom_site_fract_z
 _atom_site_occupancy
  Dy  Dy0  1  0.596954  0.596954  0.203380  1
  Dy  Dy1  1  0.596954  0.203380  0.596954  1
  Dy  Dy2  1  0.203380  0.596954  0.596954  1
  Dy  Dy3  1  0.063427  0.438459  0.438459  1
  Dy  Dy4  1  0.440088  0.062201  0.062201  1
  Dy  Dy5  1  0.438459  0.063427  0.438459  1
  Dy  Dy6  1  0.062201  0.440088  0.062201  1
  Dy  Dy7  1  0.438459  0.438459  0.063427  1
  Dy  Dy8  1  0.062201  0.062201  0.440088  1
  Dy  Dy9  1  0.186774  0.812690  0.812690  1
  Dy  Dy10  1  0.813847  0.186853  0.186853  1
  Dy  Dy11  1  0.812690  0.186774  0.812690  1
  Dy  Dy12  1  0.186853  0.813847  0.186853  1
  Dy  Dy13  1  0.812690  0.812690  0.186774  1
  Dy  Dy14  1  0.186853  0.186853  0.813847  1
  Th  Th15  1  0.594236  0.594236  0.594236  1
  In  In16  1  0.834334  0.834334  0.834334  1
  In  In17  1  0.832824  0.832824  0.503542  1
  In  In18  1  0.832824  0.503542  0.832824  1
  In  In19  1  0.503542  0.832824  0.832824  1
  Ni  Ni20  1  0.392705  0.392705  0.392705  1
  Ni  Ni21  1  0.393114  0.393114  0.821478  1
  Ni  Ni22  1  0.393114  0.821478  0.393114  1
  Ni  Ni23  1  0.821478  0.393114  0.393114  1
