# generated using pymatgen
data_Ba6Ti2Si8W10O51
_symmetry_space_group_name_H-M   'P 1'
_cell_length_a   9.10603600
_cell_length_b   11.99642277
_cell_length_c   12.00481193
_cell_angle_alpha   81.92629877
_cell_angle_beta   112.27263128
_cell_angle_gamma   111.89939040
_symmetry_Int_Tables_number   1
_chemical_formula_structural   Ba6Ti2Si8W10O51
_chemical_formula_sum   'Ba6 Ti2 Si8 W10 O51'
_cell_volume   1125.99028681
_cell_formula_units_Z   1
loop_
 _symmetry_equiv_pos_site_id
 _symmetry_equiv_pos_as_xyz
  1  'x, y, z'
loop_
 _atom_site_type_symbol
 _atom_site_label
 _atom_site_symmetry_multiplicity
 _atom_site_fract_x
 _atom_site_fract_y
 _atom_site_fract_z
 _atom_site_occupancy
  Ba  Ba0  1  0.999582  0.945190  0.444805  1
  Ba  Ba1  1  0.594925  0.546596  0.052857  1
  Ba  Ba2  1  0.405897  0.751824  0.250577  1
  Ba  Ba3  1  0.000870  0.449472  0.950388  1
  Ba  Ba4  1  0.594426  0.049679  0.547174  1
  Ba  Ba5  1  0.405941  0.253428  0.751154  1
  Ti  Ti6  1  0.995111  0.482189  0.269447  1
  Ti  Ti7  1  0.005405  0.771646  0.985334  1
  Si  Si8  1  0.674945  0.275392  0.065836  1
  Si  Si9  1  0.325490  0.440843  0.230806  1
  Si  Si10  1  0.671115  0.768424  0.569744  1
  Si  Si11  1  0.669293  0.065563  0.266368  1
  Si  Si12  1  0.330555  0.932576  0.730070  1
  Si  Si13  1  0.328438  0.233430  0.433176  1
  Si  Si14  1  0.675177  0.567792  0.779912  1
  Si  Si15  1  0.326483  0.728971  0.937923  1
  W  W16  1  0.761473  0.873217  0.119111  1
  W  W17  1  0.766217  0.623084  0.376735  1
  W  W18  1  0.238662  0.243477  0.996811  1
  W  W19  1  0.003403  0.008266  0.754720  1
  W  W20  1  0.997016  0.253115  0.506950  1
  W  W21  1  0.761461  0.378235  0.624665  1
  W  W22  1  0.759980  0.120015  0.877054  1
  W  W23  1  0.239334  0.738391  0.493008  1
  W  W24  1  0.234197  0.993155  0.239433  1
  W  W25  1  0.240152  0.497625  0.741221  1
  O  O26  1  0.827365  0.405551  0.114037  1
  O  O27  1  0.998155  0.974837  0.208410  1
  O  O28  1  0.822155  0.786268  0.037462  1
  O  O29  1  0.834659  0.536239  0.284860  1
  O  O30  1  0.002957  0.709912  0.476131  1
  O  O31  1  0.494922  0.298329  0.018950  1
  O  O32  1  0.771319  0.749182  0.256618  1
  O  O33  1  0.002463  0.360971  0.364837  1
  O  O34  1  0.000610  0.139501  0.639536  1
  O  O35  1  0.694051  0.951093  0.224149  1
  O  O36  1  0.507326  0.767657  0.051780  1
  O  O37  1  0.693466  0.727914  0.455085  1
  O  O38  1  0.509922  0.548852  0.268708  1
  O  O39  1  0.823289  0.898338  0.616556  1
  O  O40  1  0.298772  0.385426  0.104288  1
  O  O41  1  0.816648  0.106844  0.399216  1
  O  O42  1  0.682857  0.174649  0.170856  1
  O  O43  1  0.816683  0.028655  0.785883  1
  O  O44  1  0.000075  0.469933  0.717292  1
  O  O45  1  0.821879  0.291193  0.524637  1
  O  O46  1  0.999532  0.216074  0.969168  1
  O  O47  1  0.488698  0.012904  0.286884  1
  O  O48  1  0.179347  0.501085  0.204640  1
  O  O49  1  0.493655  0.796198  0.515333  1
  O  O50  1  0.764971  0.248892  0.743986  1
  O  O51  1  0.734981  0.496814  0.498285  1
  O  O52  1  0.165306  0.865462  0.120590  1
  O  O53  1  0.178034  0.625469  0.376430  1
  O  O54  1  0.264993  0.130069  0.128266  1
  O  O55  1  0.997513  0.864576  0.861461  1
  O  O56  1  0.231984  0.871201  0.364064  1
  O  O57  1  0.698203  0.454121  0.735599  1
  O  O58  1  0.505206  0.272471  0.548770  1
  O  O59  1  0.506525  0.048030  0.765419  1
  O  O60  1  0.693405  0.235651  0.948241  1
  O  O61  1  0.309013  0.107973  0.381788  1
  O  O62  1  0.308837  0.877913  0.604285  1
  O  O63  1  0.824929  0.615282  0.911541  1
  O  O64  1  0.318320  0.337525  0.332802  1
  O  O65  1  0.676707  0.672679  0.678754  1
  O  O66  1  0.494830  0.513647  0.801827  1
  O  O67  1  0.174343  0.202536  0.485816  1
  O  O68  1  0.178763  0.987180  0.696949  1
  O  O69  1  0.733384  0.002574  0.995830  1
  O  O70  1  0.183144  0.378872  0.619884  1
  O  O71  1  0.180607  0.113656  0.879536  1
  O  O72  1  0.266439  0.629519  0.636888  1
  O  O73  1  0.232509  0.360961  0.865762  1
  O  O74  1  0.305373  0.601381  0.889303  1
  O  O75  1  0.323535  0.831581  0.834427  1
  O  O76  1  0.176015  0.702592  0.992724  1
