# generated using pymatgen
data_Na6LaPr7Au20
_symmetry_space_group_name_H-M   'P 1'
_cell_length_a   8.90082477
_cell_length_b   8.90082647
_cell_length_c   10.43738014
_cell_angle_alpha   89.98917611
_cell_angle_beta   89.98917144
_cell_angle_gamma   108.70065681
_symmetry_Int_Tables_number   1
_chemical_formula_structural   Na6LaPr7Au20
_chemical_formula_sum   'Na6 La1 Pr7 Au20'
_cell_volume   783.24346544
_cell_formula_units_Z   1
loop_
 _symmetry_equiv_pos_site_id
 _symmetry_equiv_pos_as_xyz
  1  'x, y, z'
loop_
 _atom_site_type_symbol
 _atom_site_label
 _atom_site_symmetry_multiplicity
 _atom_site_fract_x
 _atom_site_fract_y
 _atom_site_fract_z
 _atom_site_occupancy
  Na  Na0  1  0.513668  0.013479  0.249993  1
  Na  Na1  1  0.986028  0.486719  0.750016  1
  Na  Na2  1  0.999766  0.999766  0.000295  1
  Na  Na3  1  0.013479  0.513668  0.249993  1
  Na  Na4  1  0.486719  0.986028  0.750016  1
  Na  Na5  1  0.500325  0.500325  0.499851  1
  La  La6  1  0.200047  0.200047  0.700459  1
  Pr  Pr7  1  0.700536  0.298839  0.999953  1
  Pr  Pr8  1  0.200755  0.799177  0.499451  1
  Pr  Pr9  1  0.800811  0.800811  0.300897  1
  Pr  Pr10  1  0.300743  0.300743  0.198968  1
  Pr  Pr11  1  0.799177  0.200755  0.499451  1
  Pr  Pr12  1  0.298839  0.700536  0.999953  1
  Pr  Pr13  1  0.699730  0.699730  0.801123  1
  Au  Au14  1  0.150492  0.431019  0.487212  1
  Au  Au15  1  0.901969  0.901969  0.593736  1
  Au  Au16  1  0.568955  0.849075  0.512117  1
  Au  Au17  1  0.880355  0.161158  0.209584  1
  Au  Au18  1  0.380374  0.660962  0.289948  1
  Au  Au19  1  0.660962  0.380374  0.289948  1
  Au  Au20  1  0.402810  0.402810  0.906483  1
  Au  Au21  1  0.930647  0.650324  0.012519  1
  Au  Au22  1  0.339067  0.620471  0.709927  1
  Au  Au23  1  0.349820  0.068882  0.988349  1
  Au  Au24  1  0.598327  0.598327  0.094506  1
  Au  Au25  1  0.650324  0.930647  0.012519  1
  Au  Au26  1  0.097759  0.097759  0.405733  1
  Au  Au27  1  0.620471  0.339067  0.709927  1
  Au  Au28  1  0.119293  0.837616  0.789907  1
  Au  Au29  1  0.068882  0.349820  0.988349  1
  Au  Au30  1  0.849075  0.568955  0.512117  1
  Au  Au31  1  0.161158  0.880355  0.209584  1
  Au  Au32  1  0.431019  0.150492  0.487212  1
  Au  Au33  1  0.837616  0.119293  0.789907  1
