# generated using pymatgen
data_Nd2AlH3Pd16
_symmetry_space_group_name_H-M   'P 1'
_cell_length_a   6.98128321
_cell_length_b   7.04696121
_cell_length_c   6.98128222
_cell_angle_alpha   83.49092702
_cell_angle_beta   82.43457011
_cell_angle_gamma   83.49093298
_symmetry_Int_Tables_number   1
_chemical_formula_structural   Nd2AlH3Pd16
_chemical_formula_sum   'Nd2 Al1 H3 Pd16'
_cell_volume   336.57883332
_cell_formula_units_Z   1
loop_
 _symmetry_equiv_pos_site_id
 _symmetry_equiv_pos_as_xyz
  1  'x, y, z'
loop_
 _atom_site_type_symbol
 _atom_site_label
 _atom_site_symmetry_multiplicity
 _atom_site_fract_x
 _atom_site_fract_y
 _atom_site_fract_z
 _atom_site_occupancy
  Nd  Nd0  1  0.660302  0.670954  0.660302  1
  Nd  Nd1  1  0.339698  0.329046  0.339698  1
  Al  Al2  1  0.000000  0.500000  0.000000  1
  H  H3  1  0.500000  0.500000  0.000000  1
  H  H4  1  0.000000  0.500000  0.500000  1
  H  H5  1  0.500000  0.000000  0.500000  1
  Pd  Pd6  1  0.000000  0.000000  0.500000  1
  Pd  Pd7  1  0.500000  0.000000  0.000000  1
  Pd  Pd8  1  0.707748  0.299090  0.002529  1
  Pd  Pd9  1  0.997471  0.700910  0.292252  1
  Pd  Pd10  1  0.296616  0.000000  0.703384  1
  Pd  Pd11  1  0.002529  0.299090  0.707748  1
  Pd  Pd12  1  0.703384  0.000000  0.296616  1
  Pd  Pd13  1  0.292252  0.700910  0.997471  1
  Pd  Pd14  1  0.346314  0.351079  0.856162  1
  Pd  Pd15  1  0.856162  0.351079  0.346314  1
  Pd  Pd16  1  0.350111  0.843533  0.350111  1
  Pd  Pd17  1  0.653686  0.648921  0.143838  1
  Pd  Pd18  1  0.143838  0.648921  0.653686  1
  Pd  Pd19  1  0.649889  0.156467  0.649889  1
  Pd  Pd20  1  0.901240  0.890388  0.901240  1
  Pd  Pd21  1  0.098760  0.109612  0.098760  1
