# generated using pymatgen
data_GdLu3(ZnPd)4
_symmetry_space_group_name_H-M   'P 1'
_cell_length_a   3.99663900
_cell_length_b   6.99180949
_cell_length_c   8.18153900
_cell_angle_alpha   89.94271904
_cell_angle_beta   90.00000000
_cell_angle_gamma   90.00000000
_symmetry_Int_Tables_number   1
_chemical_formula_structural   GdLu3(ZnPd)4
_chemical_formula_sum   'Gd1 Lu3 Zn4 Pd4'
_cell_volume   228.62267213
_cell_formula_units_Z   1
loop_
 _symmetry_equiv_pos_site_id
 _symmetry_equiv_pos_as_xyz
  1  'x, y, z'
loop_
 _atom_site_type_symbol
 _atom_site_label
 _atom_site_symmetry_multiplicity
 _atom_site_fract_x
 _atom_site_fract_y
 _atom_site_fract_z
 _atom_site_occupancy
  Gd  Gd0  1  0.250000  0.050440  0.685062  1
  Lu  Lu1  1  0.750000  0.448188  0.187103  1
  Lu  Lu2  1  0.750000  0.947318  0.309957  1
  Lu  Lu3  1  0.250000  0.551603  0.815036  1
  Zn  Zn4  1  0.750000  0.866474  0.937519  1
  Zn  Zn5  1  0.750000  0.371277  0.563195  1
  Zn  Zn6  1  0.250000  0.131774  0.065902  1
  Zn  Zn7  1  0.250000  0.631806  0.435249  1
  Pd  Pd8  1  0.750000  0.261091  0.880164  1
  Pd  Pd9  1  0.750000  0.750820  0.623588  1
  Pd  Pd10  1  0.250000  0.743028  0.123556  1
  Pd  Pd11  1  0.250000  0.246179  0.373671  1
