# generated using pymatgen
data_Ta2Ti3InRu6
_symmetry_space_group_name_H-M   'P 1'
_cell_length_a   4.44418100
_cell_length_b   6.29450500
_cell_length_c   13.36934100
_cell_angle_alpha   90.00000000
_cell_angle_beta   89.99990572
_cell_angle_gamma   90.00000000
_symmetry_Int_Tables_number   1
_chemical_formula_structural   Ta2Ti3InRu6
_chemical_formula_sum   'Ta4 Ti6 In2 Ru12'
_cell_volume   373.99286924
_cell_formula_units_Z   2
loop_
 _symmetry_equiv_pos_site_id
 _symmetry_equiv_pos_as_xyz
  1  'x, y, z'
loop_
 _atom_site_type_symbol
 _atom_site_label
 _atom_site_symmetry_multiplicity
 _atom_site_fract_x
 _atom_site_fract_y
 _atom_site_fract_z
 _atom_site_occupancy
  Ta  Ta0  1  0.000014  0.500000  0.334195  1
  Ta  Ta1  1  0.500018  0.000000  0.500392  1
  Ta  Ta2  1  0.000017  0.500000  0.666236  1
  Ta  Ta3  1  0.499978  0.000000  0.832456  1
  Ti  Ti4  1  0.999993  0.000000  0.003978  1
  Ti  Ti5  1  0.499963  0.500000  0.162681  1
  Ti  Ti6  1  0.000047  0.000000  0.330593  1
  Ti  Ti7  1  0.500025  0.500000  0.500967  1
  Ti  Ti8  1  0.999966  0.000000  0.665691  1
  Ti  Ti9  1  0.499995  0.500000  0.836035  1
  In  In10  1  0.999985  0.500000  0.001120  1
  In  In11  1  0.500008  0.000000  0.165594  1
  Ru  Ru12  1  0.499987  0.243112  0.992396  1
  Ru  Ru13  1  0.499987  0.756888  0.992396  1
  Ru  Ru14  1  0.999994  0.256946  0.174358  1
  Ru  Ru15  1  0.999994  0.743054  0.174358  1
  Ru  Ru16  1  0.500023  0.254697  0.337986  1
  Ru  Ru17  1  0.500023  0.745304  0.337986  1
  Ru  Ru18  1  0.000014  0.250014  0.500187  1
  Ru  Ru19  1  0.000014  0.749987  0.500187  1
  Ru  Ru20  1  0.499997  0.249965  0.666443  1
  Ru  Ru21  1  0.499997  0.750036  0.666443  1
  Ru  Ru22  1  0.999981  0.245387  0.828657  1
  Ru  Ru23  1  0.999981  0.754613  0.828657  1
