# generated using pymatgen
data_CeSmTm2(B6Ru)2
_symmetry_space_group_name_H-M   'P 1'
_cell_length_a   3.68269000
_cell_length_b   9.14560027
_cell_length_c   11.53359588
_cell_angle_alpha   90.08083413
_cell_angle_beta   90.00000000
_cell_angle_gamma   90.00000000
_symmetry_Int_Tables_number   1
_chemical_formula_structural   CeSmTm2(B6Ru)2
_chemical_formula_sum   'Ce2 Sm2 Tm4 B24 Ru4'
_cell_volume   388.45585889
_cell_formula_units_Z   2
loop_
 _symmetry_equiv_pos_site_id
 _symmetry_equiv_pos_as_xyz
  1  'x, y, z'
loop_
 _atom_site_type_symbol
 _atom_site_label
 _atom_site_symmetry_multiplicity
 _atom_site_fract_x
 _atom_site_fract_y
 _atom_site_fract_z
 _atom_site_occupancy
  Ce  Ce0  1  0.000000  0.322427  0.414024  1
  Ce  Ce1  1  0.000000  0.677573  0.585976  1
  Sm  Sm2  1  0.000000  0.822007  0.085561  1
  Sm  Sm3  1  0.000000  0.177993  0.914439  1
  Tm  Tm4  1  0.000000  0.944492  0.372653  1
  Tm  Tm5  1  0.000000  0.055508  0.627347  1
  Tm  Tm6  1  0.000000  0.443930  0.126915  1
  Tm  Tm7  1  0.000000  0.556070  0.873085  1
  B  B8  1  0.500000  0.555053  0.431612  1
  B  B9  1  0.500000  0.444947  0.568388  1
  B  B10  1  0.500000  0.055606  0.068701  1
  B  B11  1  0.500000  0.944394  0.931299  1
  B  B12  1  0.500000  0.750327  0.418345  1
  B  B13  1  0.500000  0.249673  0.581655  1
  B  B14  1  0.500000  0.250242  0.081698  1
  B  B15  1  0.500000  0.749758  0.918302  1
  B  B16  1  0.500000  0.791422  0.265823  1
  B  B17  1  0.500000  0.208578  0.734177  1
  B  B18  1  0.500000  0.291549  0.233913  1
  B  B19  1  0.500000  0.708451  0.766087  1
  B  B20  1  0.500000  0.630780  0.184279  1
  B  B21  1  0.500000  0.369220  0.815721  1
  B  B22  1  0.500000  0.131192  0.315521  1
  B  B23  1  0.500000  0.868808  0.684479  1
  B  B24  1  0.500000  0.984371  0.213763  1
  B  B25  1  0.500000  0.015629  0.786237  1
  B  B26  1  0.500000  0.484602  0.285923  1
  B  B27  1  0.500000  0.515398  0.714077  1
  B  B28  1  0.500000  0.603748  0.028361  1
  B  B29  1  0.500000  0.396252  0.971639  1
  B  B30  1  0.500000  0.103975  0.471715  1
  B  B31  1  0.500000  0.896025  0.528285  1
  Ru  Ru32  1  0.000000  0.639000  0.320988  1
  Ru  Ru33  1  0.000000  0.361000  0.679012  1
  Ru  Ru34  1  0.000000  0.139782  0.181428  1
  Ru  Ru35  1  0.000000  0.860218  0.818572  1
