# generated using pymatgen
data_Li8Sm8Sn3Sb5
_symmetry_space_group_name_H-M   'P 1'
_cell_length_a   9.48844067
_cell_length_b   9.48858418
_cell_length_c   7.36710284
_cell_angle_alpha   90.00000003
_cell_angle_beta   89.93088239
_cell_angle_gamma   120.00050076
_symmetry_Int_Tables_number   1
_chemical_formula_structural   Li8Sm8Sn3Sb5
_chemical_formula_sum   'Li8 Sm8 Sn3 Sb5'
_cell_volume   574.40870496
_cell_formula_units_Z   1
loop_
 _symmetry_equiv_pos_site_id
 _symmetry_equiv_pos_as_xyz
  1  'x, y, z'
loop_
 _atom_site_type_symbol
 _atom_site_label
 _atom_site_symmetry_multiplicity
 _atom_site_fract_x
 _atom_site_fract_y
 _atom_site_fract_z
 _atom_site_occupancy
  Li  Li0  1  0.832676  0.166649  0.726406  1
  Li  Li1  1  0.832676  0.666027  0.726406  1
  Li  Li2  1  0.335011  0.167506  0.723703  1
  Li  Li3  1  0.167271  0.833315  0.224575  1
  Li  Li4  1  0.167271  0.333956  0.224575  1
  Li  Li5  1  0.665156  0.832577  0.223867  1
  Li  Li6  1  0.666187  0.333093  0.312526  1
  Li  Li7  1  0.333787  0.666894  0.811114  1
  Sm  Sm8  1  0.492150  0.510947  0.506424  1
  Sm  Sm9  1  0.492150  0.981204  0.506424  1
  Sm  Sm10  1  0.017328  0.508665  0.506019  1
  Sm  Sm11  1  0.509770  0.492352  0.004759  1
  Sm  Sm12  1  0.509770  0.017416  0.004759  1
  Sm  Sm13  1  0.982827  0.491413  0.005598  1
  Sm  Sm14  1  0.997649  0.998824  0.499834  1
  Sm  Sm15  1  0.998414  0.999207  0.998050  1
  Sn  Sn16  1  0.667266  0.833634  0.764923  1
  Sn  Sn17  1  0.667262  0.333630  0.739484  1
  Sn  Sn18  1  0.332344  0.666172  0.239812  1
  Sb  Sb19  1  0.834046  0.166897  0.261733  1
  Sb  Sb20  1  0.834046  0.667148  0.261733  1
  Sb  Sb21  1  0.332583  0.166291  0.262070  1
  Sb  Sb22  1  0.166182  0.833318  0.761611  1
  Sb  Sb23  1  0.166182  0.332865  0.761611  1
