# generated using pymatgen
data_NaSr2Si2(AsPd5)4
_symmetry_space_group_name_H-M   'P 1'
_cell_length_a   8.86364077
_cell_length_b   8.86364029
_cell_length_c   8.94384900
_cell_angle_alpha   59.70020496
_cell_angle_beta   59.70020676
_cell_angle_gamma   60.59959128
_symmetry_Int_Tables_number   1
_chemical_formula_structural   NaSr2Si2(AsPd5)4
_chemical_formula_sum   'Na1 Sr2 Si2 As4 Pd20'
_cell_volume   496.77754611
_cell_formula_units_Z   1
loop_
 _symmetry_equiv_pos_site_id
 _symmetry_equiv_pos_as_xyz
  1  'x, y, z'
loop_
 _atom_site_type_symbol
 _atom_site_label
 _atom_site_symmetry_multiplicity
 _atom_site_fract_x
 _atom_site_fract_y
 _atom_site_fract_z
 _atom_site_occupancy
  Na  Na0  1  0.000000  0.000000  0.000000  1
  Sr  Sr1  1  0.250000  0.250000  0.250000  1
  Sr  Sr2  1  0.750000  0.750000  0.750000  1
  Si  Si3  1  0.264359  0.264359  0.735641  1
  Si  Si4  1  0.735641  0.735641  0.264359  1
  As  As5  1  0.736612  0.263388  0.263388  1
  As  As6  1  0.263388  0.736612  0.736612  1
  As  As7  1  0.263388  0.736612  0.263388  1
  As  As8  1  0.736612  0.263388  0.736612  1
  Pd  Pd9  1  0.384239  0.384239  0.392255  1
  Pd  Pd10  1  0.615761  0.615761  0.607745  1
  Pd  Pd11  1  0.384239  0.384239  0.839269  1
  Pd  Pd12  1  0.392255  0.839269  0.384239  1
  Pd  Pd13  1  0.615761  0.615761  0.160731  1
  Pd  Pd14  1  0.607745  0.160731  0.615761  1
  Pd  Pd15  1  0.839269  0.392255  0.384239  1
  Pd  Pd16  1  0.160731  0.607745  0.615761  1
  Pd  Pd17  1  0.346949  0.007430  0.992570  1
  Pd  Pd18  1  0.653051  0.992570  0.007430  1
  Pd  Pd19  1  0.007430  0.346949  0.653051  1
  Pd  Pd20  1  0.992570  0.653051  0.346949  1
  Pd  Pd21  1  0.007430  0.346949  0.992570  1
  Pd  Pd22  1  0.653051  0.992570  0.346949  1
  Pd  Pd23  1  0.992570  0.653051  0.007430  1
  Pd  Pd24  1  0.346949  0.007430  0.653051  1
  Pd  Pd25  1  0.000000  0.000000  0.347373  1
  Pd  Pd26  1  0.000000  0.000000  0.652627  1
  Pd  Pd27  1  0.652627  0.347373  0.000000  1
  Pd  Pd28  1  0.347373  0.652627  0.000000  1
