# generated using pymatgen
data_Ho2LuAl3Zn2Ni
_symmetry_space_group_name_H-M   'P 1'
_cell_length_a   6.90449825
_cell_length_b   6.93927524
_cell_length_c   4.16451600
_cell_angle_alpha   90.00000000
_cell_angle_beta   90.00000000
_cell_angle_gamma   120.16675749
_symmetry_Int_Tables_number   1
_chemical_formula_structural   Ho2LuAl3Zn2Ni
_chemical_formula_sum   'Ho2 Lu1 Al3 Zn2 Ni1'
_cell_volume   172.50797533
_cell_formula_units_Z   1
loop_
 _symmetry_equiv_pos_site_id
 _symmetry_equiv_pos_as_xyz
  1  'x, y, z'
loop_
 _atom_site_type_symbol
 _atom_site_label
 _atom_site_symmetry_multiplicity
 _atom_site_fract_x
 _atom_site_fract_y
 _atom_site_fract_z
 _atom_site_occupancy
  Ho  Ho0  1  0.596917  0.001870  0.500000  1
  Ho  Ho1  1  0.403083  0.404953  0.500000  1
  Lu  Lu2  1  0.000000  0.599065  0.500000  1
  Al  Al3  1  0.228653  0.000125  0.000000  1
  Al  Al4  1  0.771347  0.771472  0.000000  1
  Al  Al5  1  0.000000  0.228291  0.000000  1
  Zn  Zn6  1  0.329307  0.665720  0.000000  1
  Zn  Zn7  1  0.670693  0.336411  0.000000  1
  Ni  Ni8  1  0.000000  0.992093  0.500000  1
