# generated using pymatgen
data_NdEu4Th3(As7Ir8)2
_symmetry_space_group_name_H-M   'P 1'
_cell_length_a   4.13186600
_cell_length_b   13.22841668
_cell_length_c   13.77412075
_cell_angle_alpha   98.50531683
_cell_angle_beta   90.00000000
_cell_angle_gamma   90.00000000
_symmetry_Int_Tables_number   1
_chemical_formula_structural   NdEu4Th3(As7Ir8)2
_chemical_formula_sum   'Nd1 Eu4 Th3 As14 Ir16'
_cell_volume   744.58659541
_cell_formula_units_Z   1
loop_
 _symmetry_equiv_pos_site_id
 _symmetry_equiv_pos_as_xyz
  1  'x, y, z'
loop_
 _atom_site_type_symbol
 _atom_site_label
 _atom_site_symmetry_multiplicity
 _atom_site_fract_x
 _atom_site_fract_y
 _atom_site_fract_z
 _atom_site_occupancy
  Nd  Nd0  1  0.750000  0.205969  0.557608  1
  Eu  Eu1  1  0.750000  0.285111  0.901006  1
  Eu  Eu2  1  0.250000  0.714925  0.098793  1
  Eu  Eu3  1  0.750000  0.099134  0.205088  1
  Eu  Eu4  1  0.250000  0.900988  0.795046  1
  Th  Th5  1  0.250000  0.794051  0.441669  1
  Th  Th6  1  0.750000  0.517801  0.707401  1
  Th  Th7  1  0.250000  0.480856  0.292238  1
  As  As8  1  0.750000  0.743341  0.917390  1
  As  As9  1  0.250000  0.256985  0.082343  1
  As  As10  1  0.750000  0.907891  0.591214  1
  As  As11  1  0.250000  0.093633  0.411171  1
  As  As12  1  0.750000  0.532551  0.126828  1
  As  As13  1  0.250000  0.468072  0.873786  1
  As  As14  1  0.750000  0.843543  0.276756  1
  As  As15  1  0.250000  0.157848  0.721060  1
  As  As16  1  0.750000  0.606030  0.435530  1
  As  As17  1  0.250000  0.390886  0.563874  1
  As  As18  1  0.750000  0.308405  0.311296  1
  As  As19  1  0.250000  0.691157  0.688803  1
  As  As20  1  0.750000  0.058119  0.900069  1
  As  As21  1  0.250000  0.942297  0.099707  1
  Ir  Ir22  1  0.750000  0.347013  0.142558  1
  Ir  Ir23  1  0.250000  0.653247  0.857786  1
  Ir  Ir24  1  0.750000  0.722669  0.597423  1
  Ir  Ir25  1  0.250000  0.278577  0.399949  1
  Ir  Ir26  1  0.750000  0.919532  0.001874  1
  Ir  Ir27  1  0.250000  0.080976  0.998019  1
  Ir  Ir28  1  0.750000  0.425274  0.473358  1
  Ir  Ir29  1  0.250000  0.575572  0.526721  1
  Ir  Ir30  1  0.750000  0.060047  0.722190  1
  Ir  Ir31  1  0.250000  0.941262  0.278712  1
  Ir  Ir32  1  0.750000  0.550626  0.949194  1
  Ir  Ir33  1  0.250000  0.449653  0.051261  1
  Ir  Ir34  1  0.750000  0.660566  0.273488  1
  Ir  Ir35  1  0.250000  0.341254  0.728218  1
  Ir  Ir36  1  0.750000  0.981430  0.425883  1
  Ir  Ir37  1  0.250000  0.012706  0.574690  1
