# generated using pymatgen
data_Dy11ErTc3Ni
_symmetry_space_group_name_H-M   'P 1'
_cell_length_a   6.28100569
_cell_length_b   7.31639349
_cell_length_c   9.18930465
_cell_angle_alpha   89.98571620
_cell_angle_beta   90.04088410
_cell_angle_gamma   89.99969403
_symmetry_Int_Tables_number   1
_chemical_formula_structural   Dy11ErTc3Ni
_chemical_formula_sum   'Dy11 Er1 Tc3 Ni1'
_cell_volume   422.28802611
_cell_formula_units_Z   1
loop_
 _symmetry_equiv_pos_site_id
 _symmetry_equiv_pos_as_xyz
  1  'x, y, z'
loop_
 _atom_site_type_symbol
 _atom_site_label
 _atom_site_symmetry_multiplicity
 _atom_site_fract_x
 _atom_site_fract_y
 _atom_site_fract_z
 _atom_site_occupancy
  Dy  Dy0  1  0.328458  0.677963  0.067072  1
  Dy  Dy1  1  0.164016  0.177527  0.436268  1
  Dy  Dy2  1  0.666904  0.322025  0.562737  1
  Dy  Dy3  1  0.834687  0.824254  0.938499  1
  Dy  Dy4  1  0.666235  0.322040  0.937559  1
  Dy  Dy5  1  0.834488  0.823988  0.561962  1
  Dy  Dy6  1  0.328949  0.677664  0.432891  1
  Dy  Dy7  1  0.870457  0.541079  0.249588  1
  Dy  Dy8  1  0.625223  0.040418  0.249516  1
  Dy  Dy9  1  0.140789  0.457281  0.750499  1
  Dy  Dy10  1  0.370593  0.956097  0.750491  1
  Er  Er11  1  0.163516  0.176946  0.062885  1
  Tc  Tc12  1  0.037163  0.886442  0.250010  1
  Tc  Tc13  1  0.460050  0.388311  0.249258  1
  Tc  Tc14  1  0.962133  0.113756  0.751191  1
  Ni  Ni15  1  0.546339  0.614209  0.749574  1
