# generated using pymatgen
data_Eu8Ho12Si15Ru
_symmetry_space_group_name_H-M   'P 1'
_cell_length_a   7.53087400
_cell_length_b   7.94783526
_cell_length_c   14.92606300
_cell_angle_alpha   90.00000000
_cell_angle_beta   90.00000000
_cell_angle_gamma   90.01455493
_symmetry_Int_Tables_number   1
_chemical_formula_structural   Eu8Ho12Si15Ru
_chemical_formula_sum   'Eu8 Ho12 Si15 Ru1'
_cell_volume   893.38672353
_cell_formula_units_Z   1
loop_
 _symmetry_equiv_pos_site_id
 _symmetry_equiv_pos_as_xyz
  1  'x, y, z'
loop_
 _atom_site_type_symbol
 _atom_site_label
 _atom_site_symmetry_multiplicity
 _atom_site_fract_x
 _atom_site_fract_y
 _atom_site_fract_z
 _atom_site_occupancy
  Eu  Eu0  1  0.018760  0.179181  0.093888  1
  Eu  Eu1  1  0.982814  0.825504  0.906063  1
  Eu  Eu2  1  0.480983  0.678070  0.903868  1
  Eu  Eu3  1  0.982814  0.825504  0.593937  1
  Eu  Eu4  1  0.518675  0.323804  0.092240  1
  Eu  Eu5  1  0.018760  0.179181  0.406112  1
  Eu  Eu6  1  0.518675  0.323804  0.407760  1
  Eu  Eu7  1  0.480983  0.678070  0.596132  1
  Ho  Ho8  1  0.148389  0.523019  0.750000  1
  Ho  Ho9  1  0.846921  0.478407  0.250000  1
  Ho  Ho10  1  0.347062  0.024981  0.250000  1
  Ho  Ho11  1  0.668446  0.983933  0.750000  1
  Ho  Ho12  1  0.306989  0.174432  0.628361  1
  Ho  Ho13  1  0.679709  0.823295  0.379140  1
  Ho  Ho14  1  0.180568  0.680113  0.377805  1
  Ho  Ho15  1  0.679709  0.823295  0.120860  1
  Ho  Ho16  1  0.829775  0.316140  0.627347  1
  Ho  Ho17  1  0.306989  0.174432  0.871639  1
  Ho  Ho18  1  0.829775  0.316140  0.872653  1
  Ho  Ho19  1  0.180568  0.680113  0.122195  1
  Si  Si20  1  0.972376  0.886544  0.250000  1
  Si  Si21  1  0.474360  0.615801  0.250000  1
  Si  Si22  1  0.522818  0.388918  0.750000  1
  Si  Si23  1  0.270045  0.875766  0.750000  1
  Si  Si24  1  0.736747  0.109137  0.250000  1
  Si  Si25  1  0.238027  0.393632  0.250000  1
  Si  Si26  1  0.761277  0.608909  0.750000  1
  Si  Si27  1  0.142807  0.472593  0.539526  1
  Si  Si28  1  0.858873  0.531441  0.458847  1
  Si  Si29  1  0.356304  0.970734  0.459621  1
  Si  Si30  1  0.858873  0.531441  0.041153  1
  Si  Si31  1  0.638037  0.031239  0.540965  1
  Si  Si32  1  0.142807  0.472593  0.960474  1
  Si  Si33  1  0.638037  0.031239  0.959035  1
  Si  Si34  1  0.356304  0.970734  0.040379  1
  Ru  Ru35  1  0.024943  0.097853  0.750000  1
