# generated using pymatgen
data_Tm3Sn3Hg2
_symmetry_space_group_name_H-M   'P 1'
_cell_length_a   6.36949330
_cell_length_b   6.36949414
_cell_length_c   10.18975900
_cell_angle_alpha   90.00000000
_cell_angle_beta   90.00000000
_cell_angle_gamma   102.61255063
_symmetry_Int_Tables_number   1
_chemical_formula_structural   Tm3Sn3Hg2
_chemical_formula_sum   'Tm6 Sn6 Hg4'
_cell_volume   403.42726118
_cell_formula_units_Z   2
loop_
 _symmetry_equiv_pos_site_id
 _symmetry_equiv_pos_as_xyz
  1  'x, y, z'
loop_
 _atom_site_type_symbol
 _atom_site_label
 _atom_site_symmetry_multiplicity
 _atom_site_fract_x
 _atom_site_fract_y
 _atom_site_fract_z
 _atom_site_occupancy
  Tm  Tm0  1  0.613269  0.613269  0.250000  1
  Tm  Tm1  1  0.386731  0.386731  0.750000  1
  Tm  Tm2  1  0.793742  0.206258  0.000000  1
  Tm  Tm3  1  0.206258  0.793742  0.000000  1
  Tm  Tm4  1  0.206258  0.793742  0.500000  1
  Tm  Tm5  1  0.793742  0.206258  0.500000  1
  Sn  Sn6  1  0.061944  0.498045  0.250000  1
  Sn  Sn7  1  0.938056  0.501955  0.750000  1
  Sn  Sn8  1  0.498045  0.061944  0.250000  1
  Sn  Sn9  1  0.501955  0.938056  0.750000  1
  Sn  Sn10  1  0.007490  0.007490  0.250000  1
  Sn  Sn11  1  0.992510  0.992510  0.750000  1
  Hg  Hg12  1  0.308842  0.308842  0.034902  1
  Hg  Hg13  1  0.691158  0.691158  0.965098  1
  Hg  Hg14  1  0.691158  0.691158  0.534902  1
  Hg  Hg15  1  0.308842  0.308842  0.465098  1
