# generated using pymatgen
data_Y2HoZn3Si2Pd
_symmetry_space_group_name_H-M   'P 1'
_cell_length_a   6.85960261
_cell_length_b   6.86459728
_cell_length_c   4.27903800
_cell_angle_alpha   90.00000000
_cell_angle_beta   90.00000000
_cell_angle_gamma   120.02407449
_symmetry_Int_Tables_number   1
_chemical_formula_structural   Y2HoZn3Si2Pd
_chemical_formula_sum   'Y2 Ho1 Zn3 Si2 Pd1'
_cell_volume   174.45579033
_cell_formula_units_Z   1
loop_
 _symmetry_equiv_pos_site_id
 _symmetry_equiv_pos_as_xyz
  1  'x, y, z'
loop_
 _atom_site_type_symbol
 _atom_site_label
 _atom_site_symmetry_multiplicity
 _atom_site_fract_x
 _atom_site_fract_y
 _atom_site_fract_z
 _atom_site_occupancy
  Y  Y0  1  0.415702  0.415948  0.000000  1
  Y  Y1  1  0.584298  0.000246  0.000000  1
  Ho  Ho2  1  0.000000  0.585113  0.000000  1
  Zn  Zn3  1  0.757852  0.757901  0.500000  1
  Zn  Zn4  1  0.242148  0.000049  0.500000  1
  Zn  Zn5  1  0.000000  0.242336  0.500000  1
  Si  Si6  1  0.668346  0.334615  0.500000  1
  Si  Si7  1  0.331654  0.666270  0.500000  1
  Pd  Pd8  1  0.000000  0.997523  0.000000  1
