# generated using pymatgen
data_Tm6Cr2Fe(Co5P4)3
_symmetry_space_group_name_H-M   'P 1'
_cell_length_a   3.66293700
_cell_length_b   10.48851700
_cell_length_c   12.08191400
_cell_angle_alpha   90.00000000
_cell_angle_beta   90.00000000
_cell_angle_gamma   90.00000000
_symmetry_Int_Tables_number   1
_chemical_formula_structural   Tm6Cr2Fe(Co5P4)3
_chemical_formula_sum   'Tm6 Cr2 Fe1 Co15 P12'
_cell_volume   464.17235963
_cell_formula_units_Z   1
loop_
 _symmetry_equiv_pos_site_id
 _symmetry_equiv_pos_as_xyz
  1  'x, y, z'
loop_
 _atom_site_type_symbol
 _atom_site_label
 _atom_site_symmetry_multiplicity
 _atom_site_fract_x
 _atom_site_fract_y
 _atom_site_fract_z
 _atom_site_occupancy
  Tm  Tm0  1  0.000000  0.500000  0.523815  1
  Tm  Tm1  1  0.500000  0.000000  0.476714  1
  Tm  Tm2  1  0.500000  0.818020  0.204144  1
  Tm  Tm3  1  0.500000  0.181980  0.204144  1
  Tm  Tm4  1  0.000000  0.680779  0.796451  1
  Tm  Tm5  1  0.000000  0.319221  0.796451  1
  Cr  Cr6  1  0.500000  0.500000  0.154676  1
  Cr  Cr7  1  0.000000  0.000000  0.843630  1
  Fe  Fe8  1  0.000000  0.500000  0.987574  1
  Co  Co9  1  0.500000  0.500000  0.700685  1
  Co  Co10  1  0.000000  0.000000  0.299034  1
  Co  Co11  1  0.500000  0.000000  0.013176  1
  Co  Co12  1  0.500000  0.330378  0.992445  1
  Co  Co13  1  0.500000  0.669622  0.992445  1
  Co  Co14  1  0.000000  0.166220  0.007382  1
  Co  Co15  1  0.000000  0.833780  0.007382  1
  Co  Co16  1  0.500000  0.296392  0.430914  1
  Co  Co17  1  0.500000  0.703608  0.430914  1
  Co  Co18  1  0.000000  0.203841  0.569274  1
  Co  Co19  1  0.000000  0.796159  0.569274  1
  Co  Co20  1  0.500000  0.878888  0.708028  1
  Co  Co21  1  0.500000  0.121112  0.708028  1
  Co  Co22  1  0.000000  0.621604  0.291674  1
  Co  Co23  1  0.000000  0.378396  0.291674  1
  P  P24  1  0.500000  0.500000  0.882502  1
  P  P25  1  0.000000  0.000000  0.119399  1
  P  P26  1  0.500000  0.500000  0.346285  1
  P  P27  1  0.000000  0.000000  0.654910  1
  P  P28  1  0.500000  0.312119  0.616941  1
  P  P29  1  0.500000  0.687881  0.616941  1
  P  P30  1  0.000000  0.187642  0.383488  1
  P  P31  1  0.000000  0.812358  0.383488  1
  P  P32  1  0.500000  0.847694  0.890957  1
  P  P33  1  0.500000  0.152306  0.890957  1
  P  P34  1  0.000000  0.652966  0.107101  1
  P  P35  1  0.000000  0.347034  0.107101  1
