# generated using pymatgen
data_SrHgF4
_symmetry_space_group_name_H-M   'P 1'
_cell_length_a   7.05659748
_cell_length_b   7.05659788
_cell_length_c   5.86806605
_cell_angle_alpha   66.49085990
_cell_angle_beta   66.49085480
_cell_angle_gamma   49.11523646
_symmetry_Int_Tables_number   1
_chemical_formula_structural   SrHgF4
_chemical_formula_sum   'Sr2 Hg2 F8'
_cell_volume   198.53518044
_cell_formula_units_Z   2
loop_
 _symmetry_equiv_pos_site_id
 _symmetry_equiv_pos_as_xyz
  1  'x, y, z'
loop_
 _atom_site_type_symbol
 _atom_site_label
 _atom_site_symmetry_multiplicity
 _atom_site_fract_x
 _atom_site_fract_y
 _atom_site_fract_z
 _atom_site_occupancy
  Sr  Sr0  1  0.746703  0.253297  0.750000  1
  Sr  Sr1  1  0.253297  0.746703  0.250000  1
  Hg  Hg2  1  0.000000  0.500000  0.000000  1
  Hg  Hg3  1  0.500000  0.000000  0.500000  1
  F  F4  1  0.660082  0.588585  0.348012  1
  F  F5  1  0.918512  0.839155  0.075417  1
  F  F6  1  0.339918  0.411415  0.651988  1
  F  F7  1  0.411415  0.339918  0.151988  1
  F  F8  1  0.081488  0.160845  0.924583  1
  F  F9  1  0.160845  0.081488  0.424583  1
  F  F10  1  0.588585  0.660082  0.848012  1
  F  F11  1  0.839155  0.918512  0.575417  1
