# generated using pymatgen
data_Pr2Al3Cu2Si
_symmetry_space_group_name_H-M   'P 1'
_cell_length_a   9.04524307
_cell_length_b   9.04524300
_cell_length_c   4.20261000
_cell_angle_alpha   90.00000000
_cell_angle_beta   90.00000000
_cell_angle_gamma   152.51970340
_symmetry_Int_Tables_number   1
_chemical_formula_structural   Pr2Al3Cu2Si
_chemical_formula_sum   'Pr2 Al3 Cu2 Si1'
_cell_volume   158.66390994
_cell_formula_units_Z   1
loop_
 _symmetry_equiv_pos_site_id
 _symmetry_equiv_pos_as_xyz
  1  'x, y, z'
loop_
 _atom_site_type_symbol
 _atom_site_label
 _atom_site_symmetry_multiplicity
 _atom_site_fract_x
 _atom_site_fract_y
 _atom_site_fract_z
 _atom_site_occupancy
  Pr  Pr0  1  0.896716  0.103284  0.750000  1
  Pr  Pr1  1  0.102718  0.897282  0.250000  1
  Al  Al2  1  0.248895  0.751105  0.750000  1
  Al  Al3  1  0.751161  0.248839  0.250000  1
  Al  Al4  1  0.537261  0.462739  0.750000  1
  Cu  Cu5  1  0.674859  0.325141  0.750000  1
  Cu  Cu6  1  0.327327  0.672673  0.250000  1
  Si  Si7  1  0.461062  0.538938  0.250000  1
