# generated using pymatgen
data_YbPr2(ErSi2)2
_symmetry_space_group_name_H-M   'P 1'
_cell_length_a   7.45883900
_cell_length_b   7.83578600
_cell_length_c   14.85464100
_cell_angle_alpha   90.00000000
_cell_angle_beta   90.00000000
_cell_angle_gamma   90.00000000
_symmetry_Int_Tables_number   1
_chemical_formula_structural   YbPr2(ErSi2)2
_chemical_formula_sum   'Yb4 Pr8 Er8 Si16'
_cell_volume   868.19236052
_cell_formula_units_Z   4
loop_
 _symmetry_equiv_pos_site_id
 _symmetry_equiv_pos_as_xyz
  1  'x, y, z'
loop_
 _atom_site_type_symbol
 _atom_site_label
 _atom_site_symmetry_multiplicity
 _atom_site_fract_x
 _atom_site_fract_y
 _atom_site_fract_z
 _atom_site_occupancy
  Yb  Yb0  1  0.658124  0.989641  0.750000  1
  Yb  Yb1  1  0.841876  0.489641  0.250000  1
  Yb  Yb2  1  0.341876  0.010359  0.250000  1
  Yb  Yb3  1  0.158124  0.510359  0.750000  1
  Pr  Pr4  1  0.021024  0.180060  0.401187  1
  Pr  Pr5  1  0.521024  0.319940  0.401187  1
  Pr  Pr6  1  0.478976  0.680060  0.901187  1
  Pr  Pr7  1  0.478976  0.680060  0.598813  1
  Pr  Pr8  1  0.978976  0.819940  0.598813  1
  Pr  Pr9  1  0.978976  0.819940  0.901187  1
  Pr  Pr10  1  0.521024  0.319940  0.098813  1
  Pr  Pr11  1  0.021024  0.180060  0.098813  1
  Er  Er12  1  0.324920  0.180352  0.623465  1
  Er  Er13  1  0.675080  0.819648  0.376535  1
  Er  Er14  1  0.175080  0.680352  0.376535  1
  Er  Er15  1  0.824920  0.319648  0.876535  1
  Er  Er16  1  0.824920  0.319648  0.623465  1
  Er  Er17  1  0.324920  0.180352  0.876535  1
  Er  Er18  1  0.175080  0.680352  0.123465  1
  Er  Er19  1  0.675080  0.819648  0.123465  1
  Si  Si20  1  0.270922  0.888855  0.750000  1
  Si  Si21  1  0.464951  0.610501  0.250000  1
  Si  Si22  1  0.035049  0.110501  0.750000  1
  Si  Si23  1  0.535049  0.389499  0.750000  1
  Si  Si24  1  0.149452  0.466197  0.535253  1
  Si  Si25  1  0.964951  0.889499  0.250000  1
  Si  Si26  1  0.729078  0.111145  0.250000  1
  Si  Si27  1  0.850548  0.533803  0.035253  1
  Si  Si28  1  0.350548  0.966197  0.035253  1
  Si  Si29  1  0.149452  0.466197  0.964747  1
  Si  Si30  1  0.649452  0.033803  0.535253  1
  Si  Si31  1  0.350548  0.966197  0.464747  1
  Si  Si32  1  0.850548  0.533803  0.464747  1
  Si  Si33  1  0.770922  0.611145  0.750000  1
  Si  Si34  1  0.229078  0.388855  0.250000  1
  Si  Si35  1  0.649452  0.033803  0.964747  1
