# generated using pymatgen
data_SmTh3CdHgPd4
_symmetry_space_group_name_H-M   'P 1'
_cell_length_a   7.92144802
_cell_length_b   7.92284206
_cell_length_c   3.81486500
_cell_angle_alpha   90.00000000
_cell_angle_beta   90.00000000
_cell_angle_gamma   89.09037023
_symmetry_Int_Tables_number   1
_chemical_formula_structural   SmTh3CdHgPd4
_chemical_formula_sum   'Sm1 Th3 Cd1 Hg1 Pd4'
_cell_volume   239.39221050
_cell_formula_units_Z   1
loop_
 _symmetry_equiv_pos_site_id
 _symmetry_equiv_pos_as_xyz
  1  'x, y, z'
loop_
 _atom_site_type_symbol
 _atom_site_label
 _atom_site_symmetry_multiplicity
 _atom_site_fract_x
 _atom_site_fract_y
 _atom_site_fract_z
 _atom_site_occupancy
  Sm  Sm0  1  0.676621  0.174075  0.500000  1
  Th  Th1  1  0.326536  0.828011  0.500000  1
  Th  Th2  1  0.825049  0.674686  0.500000  1
  Th  Th3  1  0.172147  0.323004  0.500000  1
  Cd  Cd4  1  0.501141  0.495585  0.000000  1
  Hg  Hg5  1  0.995183  0.001294  0.000000  1
  Pd  Pd6  1  0.370221  0.126749  0.000000  1
  Pd  Pd7  1  0.877710  0.381006  0.000000  1
  Pd  Pd8  1  0.132086  0.628651  0.000000  1
  Pd  Pd9  1  0.623306  0.866938  0.000000  1
