# generated using pymatgen
data_Ho3Sc2Bi2Pb
_symmetry_space_group_name_H-M   'P 1'
_cell_length_a   8.94300992
_cell_length_b   8.91112334
_cell_length_c   6.25635500
_cell_angle_alpha   90.00000000
_cell_angle_beta   90.00000000
_cell_angle_gamma   119.88213066
_symmetry_Int_Tables_number   1
_chemical_formula_structural   Ho3Sc2Bi2Pb
_chemical_formula_sum   'Ho6 Sc4 Bi4 Pb2'
_cell_volume   432.29755874
_cell_formula_units_Z   2
loop_
 _symmetry_equiv_pos_site_id
 _symmetry_equiv_pos_as_xyz
  1  'x, y, z'
loop_
 _atom_site_type_symbol
 _atom_site_label
 _atom_site_symmetry_multiplicity
 _atom_site_fract_x
 _atom_site_fract_y
 _atom_site_fract_z
 _atom_site_occupancy
  Ho  Ho0  1  0.240777  0.003128  0.250000  1
  Ho  Ho1  1  0.240777  0.237648  0.750000  1
  Ho  Ho2  1  0.002112  0.762125  0.750000  1
  Ho  Ho3  1  0.002112  0.239987  0.250000  1
  Ho  Ho4  1  0.757515  0.758483  0.250000  1
  Ho  Ho5  1  0.757515  0.999032  0.750000  1
  Sc  Sc6  1  0.333752  0.666877  0.000000  1
  Sc  Sc7  1  0.664776  0.332387  0.500000  1
  Sc  Sc8  1  0.664776  0.332387  0.000000  1
  Sc  Sc9  1  0.333752  0.666877  0.500000  1
  Bi  Bi10  1  0.604045  0.000500  0.250000  1
  Bi  Bi11  1  0.604045  0.603545  0.750000  1
  Bi  Bi12  1  0.999782  0.395924  0.750000  1
  Bi  Bi13  1  0.999782  0.603859  0.250000  1
  Pb  Pb14  1  0.397241  0.398026  0.250000  1
  Pb  Pb15  1  0.397241  0.999215  0.750000  1
