# generated using pymatgen
data_Ac3AuI3
_symmetry_space_group_name_H-M   'P 1'
_cell_length_a   11.48701854
_cell_length_b   11.48701925
_cell_length_c   11.48702000
_cell_angle_alpha   109.47121843
_cell_angle_beta   109.47121969
_cell_angle_gamma   109.47122282
_symmetry_Int_Tables_number   1
_chemical_formula_structural   Ac3AuI3
_chemical_formula_sum   'Ac12 Au4 I12'
_cell_volume   1166.81005335
_cell_formula_units_Z   4
loop_
 _symmetry_equiv_pos_site_id
 _symmetry_equiv_pos_as_xyz
  1  'x, y, z'
loop_
 _atom_site_type_symbol
 _atom_site_label
 _atom_site_symmetry_multiplicity
 _atom_site_fract_x
 _atom_site_fract_y
 _atom_site_fract_z
 _atom_site_occupancy
  Ac  Ac0  1  0.470884  0.485442  0.235442  1
  Ac  Ac1  1  0.750000  0.235442  0.264558  1
  Ac  Ac2  1  0.750000  0.014558  0.485442  1
  Ac  Ac3  1  0.235442  0.470884  0.485442  1
  Ac  Ac4  1  0.264558  0.750000  0.235442  1
  Ac  Ac5  1  0.029116  0.264558  0.014558  1
  Ac  Ac6  1  0.014558  0.029116  0.264558  1
  Ac  Ac7  1  0.485442  0.750000  0.014558  1
  Ac  Ac8  1  0.485442  0.235442  0.470884  1
  Ac  Ac9  1  0.014558  0.485442  0.750000  1
  Ac  Ac10  1  0.264558  0.014558  0.029116  1
  Ac  Ac11  1  0.235442  0.264558  0.750000  1
  Au  Au12  1  0.250000  0.250000  0.250000  1
  Au  Au13  1  0.500000  0.000000  0.250000  1
  Au  Au14  1  0.000000  0.250000  0.500000  1
  Au  Au15  1  0.250000  0.500000  0.000000  1
  I  I16  1  0.250000  0.760555  0.739445  1
  I  I17  1  0.521112  0.510555  0.760555  1
  I  I18  1  0.978888  0.739445  0.989445  1
  I  I19  1  0.739445  0.250000  0.760555  1
  I  I20  1  0.989445  0.978888  0.739445  1
  I  I21  1  0.250000  0.989445  0.510555  1
  I  I22  1  0.760555  0.521112  0.510555  1
  I  I23  1  0.510555  0.250000  0.989445  1
  I  I24  1  0.760555  0.739445  0.250000  1
  I  I25  1  0.739445  0.989445  0.978888  1
  I  I26  1  0.989445  0.510555  0.250000  1
  I  I27  1  0.510555  0.760555  0.521112  1
