# generated using pymatgen
data_TbHo3Al18(Pd2Rh)2
_symmetry_space_group_name_H-M   'P 1'
_cell_length_a   7.60709161
_cell_length_b   7.60756117
_cell_length_c   9.45947604
_cell_angle_alpha   90.02599976
_cell_angle_beta   90.01843750
_cell_angle_gamma   119.59818114
_symmetry_Int_Tables_number   1
_chemical_formula_structural   TbHo3Al18(Pd2Rh)2
_chemical_formula_sum   'Tb1 Ho3 Al18 Pd4 Rh2'
_cell_volume   475.99888560
_cell_formula_units_Z   1
loop_
 _symmetry_equiv_pos_site_id
 _symmetry_equiv_pos_as_xyz
  1  'x, y, z'
loop_
 _atom_site_type_symbol
 _atom_site_label
 _atom_site_symmetry_multiplicity
 _atom_site_fract_x
 _atom_site_fract_y
 _atom_site_fract_z
 _atom_site_occupancy
  Tb  Tb0  1  0.995583  0.669699  0.249534  1
  Ho  Ho1  1  0.006782  0.331545  0.750606  1
  Ho  Ho2  1  0.668300  0.993210  0.249390  1
  Ho  Ho3  1  0.330158  0.004509  0.750611  1
  Al  Al4  1  0.128021  0.129210  0.246436  1
  Al  Al5  1  0.871203  0.872307  0.753517  1
  Al  Al6  1  0.994898  0.330151  0.073886  1
  Al  Al7  1  0.997333  0.665181  0.925868  1
  Al  Al8  1  0.998491  0.665263  0.578796  1
  Al  Al9  1  0.335089  0.001842  0.421814  1
  Al  Al10  1  0.000551  0.334042  0.422371  1
  Al  Al11  1  0.665633  0.999461  0.578021  1
  Al  Al12  1  0.669555  0.005077  0.925754  1
  Al  Al13  1  0.335083  0.002954  0.073537  1
  Al  Al14  1  0.334324  0.334192  0.560031  1
  Al  Al15  1  0.665524  0.665696  0.440360  1
  Al  Al16  1  0.670614  0.667779  0.052944  1
  Al  Al17  1  0.332222  0.329156  0.946677  1
  Al  Al18  1  0.338886  0.546309  0.248460  1
  Al  Al19  1  0.660139  0.450566  0.753995  1
  Al  Al20  1  0.548913  0.339593  0.245953  1
  Al  Al21  1  0.453471  0.661260  0.751523  1
  Pd  Pd22  1  0.327639  0.672512  0.999949  1
  Pd  Pd23  1  0.327561  0.672581  0.500031  1
  Pd  Pd24  1  0.672079  0.327740  0.500028  1
  Pd  Pd25  1  0.000052  0.000087  0.500030  1
  Rh  Rh26  1  0.671577  0.328243  0.999944  1
  Rh  Rh27  1  0.000318  0.999838  0.999935  1
