# generated using pymatgen
data_Th8Cu3Si12Ir
_symmetry_space_group_name_H-M   'P 1'
_cell_length_a   8.24730400
_cell_length_b   8.24730456
_cell_length_c   8.29905600
_cell_angle_alpha   90.00000000
_cell_angle_beta   90.00000000
_cell_angle_gamma   119.99998973
_symmetry_Int_Tables_number   1
_chemical_formula_structural   Th8Cu3Si12Ir
_chemical_formula_sum   'Th8 Cu3 Si12 Ir1'
_cell_volume   488.85876643
_cell_formula_units_Z   1
loop_
 _symmetry_equiv_pos_site_id
 _symmetry_equiv_pos_as_xyz
  1  'x, y, z'
loop_
 _atom_site_type_symbol
 _atom_site_label
 _atom_site_symmetry_multiplicity
 _atom_site_fract_x
 _atom_site_fract_y
 _atom_site_fract_z
 _atom_site_occupancy
  Th  Th0  1  0.000000  0.000000  0.248917  1
  Th  Th1  1  0.000000  0.000000  0.751019  1
  Th  Th2  1  0.997176  0.498588  0.250726  1
  Th  Th3  1  0.501412  0.498588  0.250726  1
  Th  Th4  1  0.502061  0.004122  0.749311  1
  Th  Th5  1  0.501412  0.002824  0.250726  1
  Th  Th6  1  0.502061  0.497939  0.749311  1
  Th  Th7  1  0.995878  0.497939  0.749311  1
  Cu  Cu8  1  0.333333  0.666667  0.998320  1
  Cu  Cu9  1  0.333333  0.666667  0.501066  1
  Cu  Cu10  1  0.666667  0.333333  0.001201  1
  Si  Si11  1  0.170024  0.340048  0.999930  1
  Si  Si12  1  0.659952  0.829976  0.999930  1
  Si  Si13  1  0.169265  0.338530  0.500361  1
  Si  Si14  1  0.336421  0.168212  0.000085  1
  Si  Si15  1  0.170024  0.829976  0.999930  1
  Si  Si16  1  0.661470  0.830735  0.500361  1
  Si  Si17  1  0.831788  0.663579  0.000085  1
  Si  Si18  1  0.331322  0.165661  0.499549  1
  Si  Si19  1  0.169265  0.830735  0.500361  1
  Si  Si20  1  0.834339  0.668678  0.499549  1
  Si  Si21  1  0.831788  0.168212  0.000085  1
  Si  Si22  1  0.834339  0.165661  0.499549  1
  Ir  Ir23  1  0.666667  0.333333  0.499590  1
