# generated using pymatgen
data_Y8Al(Pd11Au)2
_symmetry_space_group_name_H-M   'P 1'
_cell_length_a   8.34569100
_cell_length_b   8.42097100
_cell_length_c   8.41296500
_cell_angle_alpha   90.00000000
_cell_angle_beta   90.00000000
_cell_angle_gamma   90.00000000
_symmetry_Int_Tables_number   1
_chemical_formula_structural   Y8Al(Pd11Au)2
_chemical_formula_sum   'Y8 Al1 Pd22 Au2'
_cell_volume   591.25326877
_cell_formula_units_Z   1
loop_
 _symmetry_equiv_pos_site_id
 _symmetry_equiv_pos_as_xyz
  1  'x, y, z'
loop_
 _atom_site_type_symbol
 _atom_site_label
 _atom_site_symmetry_multiplicity
 _atom_site_fract_x
 _atom_site_fract_y
 _atom_site_fract_z
 _atom_site_occupancy
  Y  Y0  1  0.251801  0.244638  0.251938  1
  Y  Y1  1  0.747812  0.748365  0.747857  1
  Y  Y2  1  0.747812  0.748365  0.252143  1
  Y  Y3  1  0.747812  0.251635  0.747857  1
  Y  Y4  1  0.251801  0.244638  0.748062  1
  Y  Y5  1  0.251801  0.755362  0.251938  1
  Y  Y6  1  0.251801  0.755362  0.748062  1
  Y  Y7  1  0.747812  0.251635  0.252143  1
  Al  Al8  1  0.999624  0.000000  0.000000  1
  Pd  Pd9  1  0.740363  0.500000  0.000000  1
  Pd  Pd10  1  0.000163  0.259176  0.500000  1
  Pd  Pd11  1  0.500042  0.259222  0.000000  1
  Pd  Pd12  1  0.000163  0.740824  0.500000  1
  Pd  Pd13  1  0.500042  0.740778  0.000000  1
  Pd  Pd14  1  0.500479  0.000000  0.260152  1
  Pd  Pd15  1  0.259999  0.000000  0.500000  1
  Pd  Pd16  1  0.500479  0.000000  0.739848  1
  Pd  Pd17  1  0.739984  0.000000  0.500000  1
  Pd  Pd18  1  0.000373  0.500000  0.259485  1
  Pd  Pd19  1  0.000373  0.500000  0.740515  1
  Pd  Pd20  1  0.747031  0.500000  0.500000  1
  Pd  Pd21  1  0.499894  0.252389  0.500000  1
  Pd  Pd22  1  0.499894  0.747611  0.500000  1
  Pd  Pd23  1  0.499743  0.500000  0.253362  1
  Pd  Pd24  1  0.499743  0.500000  0.746638  1
  Pd  Pd25  1  0.290204  0.000000  0.000000  1
  Pd  Pd26  1  0.709767  0.000000  0.000000  1
  Pd  Pd27  1  0.999883  0.287928  0.000000  1
  Pd  Pd28  1  0.999883  0.712072  0.000000  1
  Pd  Pd29  1  0.999252  0.000000  0.288794  1
  Pd  Pd30  1  0.999252  0.000000  0.711206  1
  Au  Au31  1  0.261215  0.500000  0.000000  1
  Au  Au32  1  0.253702  0.500000  0.500000  1
