# generated using pymatgen
data_Ca14Si(SnAs6)2
_symmetry_space_group_name_H-M   'P 1'
_cell_length_a   9.08270823
_cell_length_b   9.08269773
_cell_length_c   9.08272337
_cell_angle_alpha   87.04293328
_cell_angle_beta   87.04297518
_cell_angle_gamma   87.04258602
_symmetry_Int_Tables_number   1
_chemical_formula_structural   Ca14Si(SnAs6)2
_chemical_formula_sum   'Ca14 Si1 Sn2 As12'
_cell_volume   746.38974454
_cell_formula_units_Z   1
loop_
 _symmetry_equiv_pos_site_id
 _symmetry_equiv_pos_as_xyz
  1  'x, y, z'
loop_
 _atom_site_type_symbol
 _atom_site_label
 _atom_site_symmetry_multiplicity
 _atom_site_fract_x
 _atom_site_fract_y
 _atom_site_fract_z
 _atom_site_occupancy
  Ca  Ca0  1  0.413086  0.269152  0.774786  1
  Ca  Ca1  1  0.774785  0.413085  0.269152  1
  Ca  Ca2  1  0.269152  0.774786  0.413086  1
  Ca  Ca3  1  0.986412  0.542227  0.651187  1
  Ca  Ca4  1  0.651188  0.986414  0.542228  1
  Ca  Ca5  1  0.542228  0.651188  0.986412  1
  Ca  Ca6  1  0.177579  0.534283  0.023185  1
  Ca  Ca7  1  0.023186  0.177577  0.534279  1
  Ca  Ca8  1  0.534283  0.023183  0.177578  1
  Ca  Ca9  1  0.765267  0.259851  0.909063  1
  Ca  Ca10  1  0.909063  0.765265  0.259851  1
  Ca  Ca11  1  0.259850  0.909063  0.765266  1
  Ca  Ca12  1  0.187906  0.187907  0.187906  1
  Ca  Ca13  1  0.400697  0.400696  0.400696  1
  Si  Si14  1  0.008544  0.008544  0.008544  1
  Sn  Sn15  1  0.848341  0.848340  0.848341  1
  Sn  Sn16  1  0.612910  0.612914  0.612911  1
  As  As17  1  0.705471  0.319490  0.585986  1
  As  As18  1  0.585986  0.705471  0.319487  1
  As  As19  1  0.319488  0.585988  0.705470  1
  As  As20  1  0.576071  0.968325  0.863928  1
  As  As21  1  0.863928  0.576071  0.968324  1
  As  As22  1  0.968324  0.863927  0.576071  1
  As  As23  1  0.473006  0.344138  0.084873  1
  As  As24  1  0.084870  0.473004  0.344141  1
  As  As25  1  0.344138  0.084873  0.473004  1
  As  As26  1  0.097958  0.213281  0.857731  1
  As  As27  1  0.857732  0.097957  0.213282  1
  As  As28  1  0.213282  0.857729  0.097959  1
