# generated using pymatgen
data_Ca12Tm3Ge12Mo5O48
_symmetry_space_group_name_H-M   'P 1'
_cell_length_a   11.06862822
_cell_length_b   11.06825240
_cell_length_c   11.06983811
_cell_angle_alpha   109.45765836
_cell_angle_beta   109.48421810
_cell_angle_gamma   109.46765336
_symmetry_Int_Tables_number   1
_chemical_formula_structural   Ca12Tm3Ge12Mo5O48
_chemical_formula_sum   'Ca12 Tm3 Ge12 Mo5 O48'
_cell_volume   1044.03332373
_cell_formula_units_Z   1
loop_
 _symmetry_equiv_pos_site_id
 _symmetry_equiv_pos_as_xyz
  1  'x, y, z'
loop_
 _atom_site_type_symbol
 _atom_site_label
 _atom_site_symmetry_multiplicity
 _atom_site_fract_x
 _atom_site_fract_y
 _atom_site_fract_z
 _atom_site_occupancy
  Ca  Ca0  1  0.248292  0.875011  0.622547  1
  Ca  Ca1  1  0.749872  0.624101  0.873640  1
  Ca  Ca2  1  0.622592  0.872116  0.744860  1
  Ca  Ca3  1  0.877128  0.624635  0.250773  1
  Ca  Ca4  1  0.627483  0.249492  0.872129  1
  Ca  Ca5  1  0.874647  0.747593  0.621977  1
  Ca  Ca6  1  0.751708  0.124989  0.377453  1
  Ca  Ca7  1  0.250128  0.375899  0.126360  1
  Ca  Ca8  1  0.377408  0.127884  0.255140  1
  Ca  Ca9  1  0.122872  0.375365  0.749227  1
  Ca  Ca10  1  0.372517  0.750508  0.127871  1
  Ca  Ca11  1  0.125353  0.252407  0.378023  1
  Tm  Tm12  1  0.500000  0.500000  0.000000  1
  Tm  Tm13  1  0.500000  0.000000  0.000000  1
  Tm  Tm14  1  0.000000  0.000000  0.000000  1
  Ge  Ge15  1  0.122179  0.745600  0.873515  1
  Ge  Ge16  1  0.877821  0.254400  0.126485  1
  Ge  Ge17  1  0.627659  0.376420  0.254252  1
  Ge  Ge18  1  0.751472  0.874521  0.127338  1
  Ge  Ge19  1  0.873112  0.124685  0.747303  1
  Ge  Ge20  1  0.250094  0.624985  0.375033  1
  Ge  Ge21  1  0.749906  0.375015  0.624967  1
  Ge  Ge22  1  0.248528  0.125479  0.872662  1
  Ge  Ge23  1  0.126888  0.875315  0.252697  1
  Ge  Ge24  1  0.372341  0.623580  0.745748  1
  Ge  Ge25  1  0.624549  0.751551  0.377411  1
  Ge  Ge26  1  0.375451  0.248449  0.622589  1
  Mo  Mo27  1  0.500000  0.500000  0.500000  1
  Mo  Mo28  1  0.500000  0.000000  0.500000  1
  Mo  Mo29  1  0.000000  0.500000  0.500000  1
  Mo  Mo30  1  0.000000  0.000000  0.500000  1
  Mo  Mo31  1  0.000000  0.500000  0.000000  1
  O  O32  1  0.410246  0.806110  0.783921  1
  O  O33  1  0.877911  0.399993  0.089300  1
  O  O34  1  0.101129  0.978821  0.690437  1
  O  O35  1  0.518158  0.620843  0.709768  1
  O  O36  1  0.690597  0.088986  0.710242  1
  O  O37  1  0.623346  0.711292  0.521136  1
  O  O38  1  0.624249  0.410112  0.106598  1
  O  O39  1  0.709735  0.518034  0.621655  1
  O  O40  1  0.810580  0.522577  0.399903  1
  O  O41  1  0.977672  0.783748  0.873708  1
  O  O42  1  0.785439  0.876095  0.980828  1
  O  O43  1  0.716235  0.693069  0.091129  1
  O  O44  1  0.410523  0.101394  0.620423  1
  O  O45  1  0.396464  0.808306  0.518149  1
  O  O46  1  0.089405  0.710086  0.691963  1
  O  O47  1  0.103674  0.622303  0.411897  1
  O  O48  1  0.519774  0.394274  0.804831  1
  O  O49  1  0.087952  0.876079  0.397711  1
  O  O50  1  0.983346  0.692670  0.104672  1
  O  O51  1  0.189420  0.477423  0.600097  1
  O  O52  1  0.696232  0.106924  0.981835  1
  O  O53  1  0.789910  0.412382  0.808495  1
  O  O54  1  0.394884  0.089851  0.874068  1
  O  O55  1  0.875334  0.980949  0.785503  1
  O  O56  1  0.589754  0.193890  0.216079  1
  O  O57  1  0.122089  0.600007  0.910700  1
  O  O58  1  0.898871  0.021179  0.309563  1
  O  O59  1  0.481842  0.379157  0.290232  1
  O  O60  1  0.309403  0.911014  0.289758  1
  O  O61  1  0.376654  0.288708  0.478864  1
  O  O62  1  0.375751  0.589888  0.893402  1
  O  O63  1  0.290265  0.481966  0.378345  1
  O  O64  1  0.124666  0.019051  0.214497  1
  O  O65  1  0.605116  0.910149  0.125932  1
  O  O66  1  0.210090  0.587618  0.191505  1
  O  O67  1  0.192783  0.209940  0.588010  1
  O  O68  1  0.303768  0.893076  0.018165  1
  O  O69  1  0.016654  0.307330  0.895328  1
  O  O70  1  0.912048  0.123921  0.602289  1
  O  O71  1  0.480226  0.605726  0.195169  1
  O  O72  1  0.896326  0.377697  0.588103  1
  O  O73  1  0.910595  0.289914  0.308037  1
  O  O74  1  0.603536  0.191694  0.481851  1
  O  O75  1  0.589477  0.898606  0.379577  1
  O  O76  1  0.283765  0.306931  0.908871  1
  O  O77  1  0.214561  0.123905  0.019172  1
  O  O78  1  0.022328  0.216252  0.126292  1
  O  O79  1  0.807217  0.790060  0.411990  1
