# generated using pymatgen
data_CaHo3Sc6(Si5Ir2)4
_symmetry_space_group_name_H-M   'P 1'
_cell_length_a   12.49815014
_cell_length_b   12.49814966
_cell_length_c   4.15021700
_cell_angle_alpha   90.00000000
_cell_angle_beta   90.00000000
_cell_angle_gamma   89.97805476
_symmetry_Int_Tables_number   1
_chemical_formula_structural   CaHo3Sc6(Si5Ir2)4
_chemical_formula_sum   'Ca1 Ho3 Sc6 Si20 Ir8'
_cell_volume   648.27941488
_cell_formula_units_Z   1
loop_
 _symmetry_equiv_pos_site_id
 _symmetry_equiv_pos_as_xyz
  1  'x, y, z'
loop_
 _atom_site_type_symbol
 _atom_site_label
 _atom_site_symmetry_multiplicity
 _atom_site_fract_x
 _atom_site_fract_y
 _atom_site_fract_z
 _atom_site_occupancy
  Ca  Ca0  1  0.384369  0.115631  0.500000  1
  Ho  Ho1  1  0.115826  0.615822  0.500000  1
  Ho  Ho2  1  0.884178  0.384174  0.500000  1
  Ho  Ho3  1  0.616472  0.883528  0.500000  1
  Sc  Sc4  1  0.673883  0.174623  0.500000  1
  Sc  Sc5  1  0.325377  0.826117  0.500000  1
  Sc  Sc6  1  0.173298  0.326702  0.500000  1
  Sc  Sc7  1  0.826390  0.673610  0.500000  1
  Sc  Sc8  1  0.000044  0.999908  0.000000  1
  Sc  Sc9  1  0.500092  0.499956  0.000000  1
  Si  Si10  1  0.568070  0.067589  0.000000  1
  Si  Si11  1  0.432411  0.931930  0.000000  1
  Si  Si12  1  0.067534  0.432466  0.000000  1
  Si  Si13  1  0.932574  0.567426  0.000000  1
  Si  Si14  1  0.199259  0.165579  0.000000  1
  Si  Si15  1  0.800533  0.833995  0.000000  1
  Si  Si16  1  0.165321  0.799795  0.000000  1
  Si  Si17  1  0.700205  0.334679  0.000000  1
  Si  Si18  1  0.834317  0.199461  0.000000  1
  Si  Si19  1  0.300539  0.665683  0.000000  1
  Si  Si20  1  0.666005  0.699467  0.000000  1
  Si  Si21  1  0.334421  0.300741  0.000000  1
  Si  Si22  1  0.007969  0.151285  0.500000  1
  Si  Si23  1  0.992426  0.849191  0.500000  1
  Si  Si24  1  0.150797  0.993245  0.500000  1
  Si  Si25  1  0.506755  0.349203  0.500000  1
  Si  Si26  1  0.849387  0.008149  0.500000  1
  Si  Si27  1  0.491851  0.650613  0.500000  1
  Si  Si28  1  0.650809  0.507574  0.500000  1
  Si  Si29  1  0.348715  0.492031  0.500000  1
  Ir  Ir30  1  0.019858  0.244544  0.000000  1
  Ir  Ir31  1  0.979394  0.755507  0.000000  1
  Ir  Ir32  1  0.243354  0.978356  0.000000  1
  Ir  Ir33  1  0.521644  0.256646  0.000000  1
  Ir  Ir34  1  0.755655  0.019680  0.000000  1
  Ir  Ir35  1  0.480320  0.744345  0.000000  1
  Ir  Ir36  1  0.744493  0.520606  0.000000  1
  Ir  Ir37  1  0.255456  0.480142  0.000000  1
