# generated using pymatgen
data_TbHo3(Al3Pt4)2
_symmetry_space_group_name_H-M   'P 1'
_cell_length_a   8.13114813
_cell_length_b   8.13114790
_cell_length_c   7.63789023
_cell_angle_alpha   89.97346893
_cell_angle_beta   90.02652958
_cell_angle_gamma   140.03411750
_symmetry_Int_Tables_number   1
_chemical_formula_structural   TbHo3(Al3Pt4)2
_chemical_formula_sum   'Tb1 Ho3 Al6 Pt8'
_cell_volume   324.36666001
_cell_formula_units_Z   1
loop_
 _symmetry_equiv_pos_site_id
 _symmetry_equiv_pos_as_xyz
  1  'x, y, z'
loop_
 _atom_site_type_symbol
 _atom_site_label
 _atom_site_symmetry_multiplicity
 _atom_site_fract_x
 _atom_site_fract_y
 _atom_site_fract_z
 _atom_site_occupancy
  Tb  Tb0  1  0.106831  0.893169  0.407911  1
  Ho  Ho1  1  0.892983  0.107017  0.591894  1
  Ho  Ho2  1  0.393110  0.606890  0.908046  1
  Ho  Ho3  1  0.606927  0.393073  0.091757  1
  Al  Al4  1  0.999940  0.000060  0.000039  1
  Al  Al5  1  0.499785  0.500215  0.500133  1
  Al  Al6  1  0.023406  0.476327  0.249778  1
  Al  Al7  1  0.476856  0.023342  0.750085  1
  Al  Al8  1  0.976658  0.523144  0.750085  1
  Al  Al9  1  0.523673  0.976594  0.249778  1
  Pt  Pt10  1  0.191517  0.308804  0.249791  1
  Pt  Pt11  1  0.308602  0.191936  0.750580  1
  Pt  Pt12  1  0.808064  0.691398  0.750580  1
  Pt  Pt13  1  0.691196  0.808483  0.249791  1
  Pt  Pt14  1  0.184434  0.815566  0.028348  1
  Pt  Pt15  1  0.815664  0.184336  0.971328  1
  Pt  Pt16  1  0.315747  0.684253  0.528687  1
  Pt  Pt17  1  0.684606  0.315394  0.471388  1
