# generated using pymatgen
data_Sc2V2Co5(P2Rh)3
_symmetry_space_group_name_H-M   'P 1'
_cell_length_a   3.64805200
_cell_length_b   10.48533700
_cell_length_c   12.01065400
_cell_angle_alpha   90.00000000
_cell_angle_beta   90.00000000
_cell_angle_gamma   90.00000000
_symmetry_Int_Tables_number   1
_chemical_formula_structural   Sc2V2Co5(P2Rh)3
_chemical_formula_sum   'Sc4 V4 Co10 P12 Rh6'
_cell_volume   459.42018210
_cell_formula_units_Z   2
loop_
 _symmetry_equiv_pos_site_id
 _symmetry_equiv_pos_as_xyz
  1  'x, y, z'
loop_
 _atom_site_type_symbol
 _atom_site_label
 _atom_site_symmetry_multiplicity
 _atom_site_fract_x
 _atom_site_fract_y
 _atom_site_fract_z
 _atom_site_occupancy
  Sc  Sc0  1  0.250000  0.585957  0.711627  1
  Sc  Sc1  1  0.250000  0.914043  0.211627  1
  Sc  Sc2  1  0.750000  0.421416  0.289995  1
  Sc  Sc3  1  0.750000  0.078584  0.789995  1
  V  V4  1  0.250000  0.704878  0.985690  1
  V  V5  1  0.250000  0.795122  0.485690  1
  V  V6  1  0.750000  0.297986  0.011452  1
  V  V7  1  0.750000  0.202014  0.511452  1
  Co  Co8  1  0.750000  0.776530  0.819667  1
  Co  Co9  1  0.750000  0.723470  0.319667  1
  Co  Co10  1  0.250000  0.883083  0.696267  1
  Co  Co11  1  0.250000  0.616917  0.196267  1
  Co  Co12  1  0.750000  0.106547  0.304405  1
  Co  Co13  1  0.750000  0.393453  0.804405  1
  Co  Co14  1  0.250000  0.468362  0.934619  1
  Co  Co15  1  0.250000  0.031638  0.434619  1
  Co  Co16  1  0.750000  0.537164  0.065522  1
  Co  Co17  1  0.750000  0.962836  0.565522  1
  P  P18  1  0.250000  0.428334  0.114730  1
  P  P19  1  0.250000  0.071666  0.614730  1
  P  P20  1  0.750000  0.583328  0.884168  1
  P  P21  1  0.750000  0.916672  0.384168  1
  P  P22  1  0.250000  0.272254  0.869976  1
  P  P23  1  0.250000  0.227746  0.369976  1
  P  P24  1  0.750000  0.729800  0.136741  1
  P  P25  1  0.750000  0.770200  0.636741  1
  P  P26  1  0.250000  0.603561  0.380166  1
  P  P27  1  0.250000  0.896439  0.880166  1
  P  P28  1  0.750000  0.406644  0.616829  1
  P  P29  1  0.750000  0.093356  0.116829  1
  Rh  Rh30  1  0.250000  0.405612  0.480480  1
  Rh  Rh31  1  0.250000  0.094388  0.980480  1
  Rh  Rh32  1  0.750000  0.599384  0.516732  1
  Rh  Rh33  1  0.750000  0.900616  0.016732  1
  Rh  Rh34  1  0.250000  0.225731  0.180938  1
  Rh  Rh35  1  0.250000  0.274270  0.680938  1
