# generated using pymatgen
data_Tb3Y3(FeCo3)2
_symmetry_space_group_name_H-M   'P 1'
_cell_length_a   5.51933702
_cell_length_b   5.51933765
_cell_length_c   12.76299754
_cell_angle_alpha   90.06737472
_cell_angle_beta   89.93262638
_cell_angle_gamma   138.17358559
_symmetry_Int_Tables_number   1
_chemical_formula_structural   Tb3Y3(FeCo3)2
_chemical_formula_sum   'Tb3 Y3 Fe2 Co6'
_cell_volume   259.28139634
_cell_formula_units_Z   1
loop_
 _symmetry_equiv_pos_site_id
 _symmetry_equiv_pos_as_xyz
  1  'x, y, z'
loop_
 _atom_site_type_symbol
 _atom_site_label
 _atom_site_symmetry_multiplicity
 _atom_site_fract_x
 _atom_site_fract_y
 _atom_site_fract_z
 _atom_site_occupancy
  Tb  Tb0  1  0.211512  0.788488  0.895328  1
  Tb  Tb1  1  0.502424  0.497576  0.249948  1
  Tb  Tb2  1  0.497636  0.502364  0.749828  1
  Y  Y3  1  0.788594  0.211406  0.395496  1
  Y  Y4  1  0.211502  0.788498  0.604471  1
  Y  Y5  1  0.788701  0.211299  0.104460  1
  Fe  Fe6  1  0.499999  0.500001  0.500066  1
  Fe  Fe7  1  0.500008  0.499992  0.000140  1
  Co  Co8  1  0.072849  0.927151  0.410392  1
  Co  Co9  1  0.927195  0.072805  0.589614  1
  Co  Co10  1  0.072980  0.927020  0.089406  1
  Co  Co11  1  0.927122  0.072878  0.910458  1
  Co  Co12  1  0.195074  0.804926  0.250096  1
  Co  Co13  1  0.804406  0.195594  0.750296  1
