# generated using pymatgen
data_U4Re3Si5GeRu4
_symmetry_space_group_name_H-M   'P 1'
_cell_length_a   7.12946479
_cell_length_b   7.12946677
_cell_length_c   7.12946668
_cell_angle_alpha   109.97996672
_cell_angle_beta   109.12201747
_cell_angle_gamma   109.31292776
_symmetry_Int_Tables_number   1
_chemical_formula_structural   U4Re3Si5GeRu4
_chemical_formula_sum   'U4 Re3 Si5 Ge1 Ru4'
_cell_volume   278.94736455
_cell_formula_units_Z   1
loop_
 _symmetry_equiv_pos_site_id
 _symmetry_equiv_pos_as_xyz
  1  'x, y, z'
loop_
 _atom_site_type_symbol
 _atom_site_label
 _atom_site_symmetry_multiplicity
 _atom_site_fract_x
 _atom_site_fract_y
 _atom_site_fract_z
 _atom_site_occupancy
  U  U0  1  0.501519  0.504266  0.504318  1
  U  U1  1  0.999948  0.997200  0.495682  1
  U  U2  1  0.501519  0.997200  0.997252  1
  U  U3  1  0.999948  0.504266  0.002748  1
  Re  Re4  1  0.250188  0.501485  0.748703  1
  Re  Re5  1  0.752783  0.501485  0.251297  1
  Re  Re6  1  0.251552  0.751552  0.500000  1
  Si  Si7  1  0.999880  0.307778  0.307898  1
  Si  Si8  1  0.999880  0.691982  0.692102  1
  Si  Si9  1  0.692235  0.002083  0.690151  1
  Si  Si10  1  0.311931  0.002083  0.309849  1
  Si  Si11  1  0.688162  0.688162  0.000000  1
  Ge  Ge12  1  0.301997  0.301997  0.000000  1
  Ru  Ru13  1  0.751498  0.251498  0.500000  1
  Ru  Ru14  1  0.503497  0.251837  0.748340  1
  Ru  Ru15  1  0.503497  0.755159  0.251660  1
  Ru  Ru16  1  0.989966  0.989966  0.000000  1
