# generated using pymatgen
data_HgTe19
_symmetry_space_group_name_H-M   'P 1'
_cell_length_a   7.96740280
_cell_length_b   8.94102754
_cell_length_c   10.12016500
_cell_angle_alpha   103.09486428
_cell_angle_beta   96.93454965
_cell_angle_gamma   107.31739481
_symmetry_Int_Tables_number   1
_chemical_formula_structural   HgTe19
_chemical_formula_sum   'Hg1 Te19'
_cell_volume   656.48094483
_cell_formula_units_Z   1
loop_
 _symmetry_equiv_pos_site_id
 _symmetry_equiv_pos_as_xyz
  1  'x, y, z'
loop_
 _atom_site_type_symbol
 _atom_site_label
 _atom_site_symmetry_multiplicity
 _atom_site_fract_x
 _atom_site_fract_y
 _atom_site_fract_z
 _atom_site_occupancy
  Hg  Hg0  1  0.000000  0.500000  0.000000  1
  Te  Te1  1  0.798681  0.584065  0.615450  1
  Te  Te2  1  0.621665  0.200412  0.204850  1
  Te  Te3  1  0.378335  0.799588  0.795150  1
  Te  Te4  1  0.601307  0.687136  0.195958  1
  Te  Te5  1  0.201319  0.415935  0.384550  1
  Te  Te6  1  0.398693  0.312864  0.804042  1
  Te  Te7  1  0.000000  0.000000  0.000000  1
  Te  Te8  1  0.201342  0.913221  0.393732  1
  Te  Te9  1  0.798658  0.086779  0.606268  1
  Te  Te10  1  0.701636  0.633938  0.902715  1
  Te  Te11  1  0.510613  0.255739  0.500149  1
  Te  Te12  1  0.704771  0.136860  0.901887  1
  Te  Te13  1  0.295229  0.863140  0.098113  1
  Te  Te14  1  0.489387  0.744261  0.499851  1
  Te  Te15  1  0.100048  0.463595  0.706062  1
  Te  Te16  1  0.298364  0.366062  0.097285  1
  Te  Te17  1  0.908131  0.038561  0.300117  1
  Te  Te18  1  0.091869  0.961439  0.699883  1
  Te  Te19  1  0.899952  0.536405  0.293938  1
