# generated using pymatgen
data_Yb5Pr(Si3Ru)8
_symmetry_space_group_name_H-M   'P 1'
_cell_length_a   10.18148476
_cell_length_b   10.18148451
_cell_length_c   8.17520236
_cell_angle_alpha   90.14083002
_cell_angle_beta   89.85916855
_cell_angle_gamma   132.64205994
_symmetry_Int_Tables_number   1
_chemical_formula_structural   Yb5Pr(Si3Ru)8
_chemical_formula_sum   'Yb5 Pr1 Si24 Ru8'
_cell_volume   623.39152143
_cell_formula_units_Z   1
loop_
 _symmetry_equiv_pos_site_id
 _symmetry_equiv_pos_as_xyz
  1  'x, y, z'
loop_
 _atom_site_type_symbol
 _atom_site_label
 _atom_site_symmetry_multiplicity
 _atom_site_fract_x
 _atom_site_fract_y
 _atom_site_fract_z
 _atom_site_occupancy
  Yb  Yb0  1  0.999659  0.999708  0.999518  1
  Yb  Yb1  1  0.499708  0.499659  0.500482  1
  Yb  Yb2  1  0.998488  0.498488  0.750000  1
  Yb  Yb3  1  0.498073  0.998073  0.750000  1
  Yb  Yb4  1  0.502156  0.002156  0.250000  1
  Pr  Pr5  1  0.002209  0.502209  0.250000  1
  Si  Si6  1  0.701534  0.291800  0.996318  1
  Si  Si7  1  0.299030  0.709124  0.996525  1
  Si  Si8  1  0.791800  0.201534  0.503682  1
  Si  Si9  1  0.209124  0.799030  0.503475  1
  Si  Si10  1  0.332631  0.333498  0.167803  1
  Si  Si11  1  0.664741  0.667010  0.832300  1
  Si  Si12  1  0.167010  0.164741  0.667700  1
  Si  Si13  1  0.833498  0.832631  0.332197  1
  Si  Si14  1  0.846004  0.613995  0.006828  1
  Si  Si15  1  0.153314  0.386194  0.990976  1
  Si  Si16  1  0.653026  0.885675  0.507938  1
  Si  Si17  1  0.113995  0.346004  0.493172  1
  Si  Si18  1  0.347707  0.114505  0.492290  1
  Si  Si19  1  0.886194  0.653314  0.509024  1
  Si  Si20  1  0.385675  0.153026  0.992062  1
  Si  Si21  1  0.614505  0.847707  0.007710  1
  Si  Si22  1  0.891823  0.123619  0.270046  1
  Si  Si23  1  0.107423  0.874931  0.730967  1
  Si  Si24  1  0.607110  0.374821  0.769213  1
  Si  Si25  1  0.623619  0.391823  0.229954  1
  Si  Si26  1  0.394227  0.627032  0.231083  1
  Si  Si27  1  0.374931  0.607423  0.769033  1
  Si  Si28  1  0.874821  0.107110  0.730787  1
  Si  Si29  1  0.127032  0.894227  0.268917  1
  Ru  Ru30  1  0.830073  0.169890  0.999675  1
  Ru  Ru31  1  0.170325  0.831031  0.998843  1
  Ru  Ru32  1  0.669890  0.330073  0.500325  1
  Ru  Ru33  1  0.331031  0.670325  0.501157  1
  Ru  Ru34  1  0.125973  0.125252  0.375093  1
  Ru  Ru35  1  0.873271  0.873118  0.624632  1
  Ru  Ru36  1  0.373118  0.373271  0.875368  1
  Ru  Ru37  1  0.625252  0.625973  0.124907  1
