# generated using pymatgen
data_AcCd5Au3
_symmetry_space_group_name_H-M   'P 1'
_cell_length_a   4.48327800
_cell_length_b   13.00275800
_cell_length_c   14.59349700
_cell_angle_alpha   90.00000000
_cell_angle_beta   90.00000000
_cell_angle_gamma   90.00000000
_symmetry_Int_Tables_number   1
_chemical_formula_structural   AcCd5Au3
_chemical_formula_sum   'Ac4 Cd20 Au12'
_cell_volume   850.72759941
_cell_formula_units_Z   4
loop_
 _symmetry_equiv_pos_site_id
 _symmetry_equiv_pos_as_xyz
  1  'x, y, z'
loop_
 _atom_site_type_symbol
 _atom_site_label
 _atom_site_symmetry_multiplicity
 _atom_site_fract_x
 _atom_site_fract_y
 _atom_site_fract_z
 _atom_site_occupancy
  Ac  Ac0  1  0.250000  0.896622  0.294827  1
  Ac  Ac1  1  0.750000  0.103378  0.705173  1
  Ac  Ac2  1  0.750000  0.396622  0.205173  1
  Ac  Ac3  1  0.250000  0.603378  0.794827  1
  Cd  Cd4  1  0.250000  0.412035  0.996959  1
  Cd  Cd5  1  0.750000  0.587965  0.003041  1
  Cd  Cd6  1  0.750000  0.912035  0.503041  1
  Cd  Cd7  1  0.250000  0.087965  0.496959  1
  Cd  Cd8  1  0.250000  0.606978  0.323142  1
  Cd  Cd9  1  0.750000  0.393022  0.676858  1
  Cd  Cd10  1  0.750000  0.106978  0.176858  1
  Cd  Cd11  1  0.250000  0.893022  0.823142  1
  Cd  Cd12  1  0.250000  0.015340  0.063631  1
  Cd  Cd13  1  0.750000  0.984660  0.936369  1
  Cd  Cd14  1  0.750000  0.515340  0.436369  1
  Cd  Cd15  1  0.250000  0.484660  0.563631  1
  Cd  Cd16  1  0.250000  0.774100  0.028593  1
  Cd  Cd17  1  0.750000  0.225900  0.971407  1
  Cd  Cd18  1  0.750000  0.274100  0.471407  1
  Cd  Cd19  1  0.250000  0.725900  0.528593  1
  Cd  Cd20  1  0.250000  0.188358  0.301826  1
  Cd  Cd21  1  0.750000  0.811642  0.698174  1
  Cd  Cd22  1  0.750000  0.688358  0.198174  1
  Cd  Cd23  1  0.250000  0.311642  0.801826  1
  Au  Au24  1  0.250000  0.576425  0.127912  1
  Au  Au25  1  0.750000  0.423575  0.872088  1
  Au  Au26  1  0.750000  0.076425  0.372088  1
  Au  Au27  1  0.250000  0.923575  0.627912  1
  Au  Au28  1  0.250000  0.231947  0.107088  1
  Au  Au29  1  0.750000  0.768053  0.892912  1
  Au  Au30  1  0.750000  0.731947  0.392912  1
  Au  Au31  1  0.250000  0.268053  0.607088  1
  Au  Au32  1  0.250000  0.386499  0.376352  1
  Au  Au33  1  0.750000  0.613501  0.623648  1
  Au  Au34  1  0.750000  0.886499  0.123648  1
  Au  Au35  1  0.250000  0.113501  0.876352  1
