# generated using pymatgen
data_LaPr3Y4(SiO5)4
_symmetry_space_group_name_H-M   'P 1'
_cell_length_a   8.16792301
_cell_length_b   8.15795963
_cell_length_c   10.86028669
_cell_angle_alpha   61.10730460
_cell_angle_beta   61.10465862
_cell_angle_gamma   50.31930331
_symmetry_Int_Tables_number   1
_chemical_formula_structural   LaPr3Y4(SiO5)4
_chemical_formula_sum   'La1 Pr3 Y4 Si4 O20'
_cell_volume   470.94048895
_cell_formula_units_Z   1
loop_
 _symmetry_equiv_pos_site_id
 _symmetry_equiv_pos_as_xyz
  1  'x, y, z'
loop_
 _atom_site_type_symbol
 _atom_site_label
 _atom_site_symmetry_multiplicity
 _atom_site_fract_x
 _atom_site_fract_y
 _atom_site_fract_z
 _atom_site_occupancy
  La  La0  1  0.291523  0.784110  0.534547  1
  Pr  Pr1  1  0.782857  0.291857  0.035051  1
  Pr  Pr2  1  0.707672  0.216427  0.464996  1
  Pr  Pr3  1  0.217398  0.708282  0.964638  1
  Y  Y4  1  0.237045  0.477064  0.336578  1
  Y  Y5  1  0.522914  0.763299  0.162146  1
  Y  Y6  1  0.763871  0.521833  0.663585  1
  Y  Y7  1  0.477549  0.236737  0.837026  1
  Si  Si8  1  0.729850  0.902680  0.306317  1
  Si  Si9  1  0.096156  0.272375  0.192185  1
  Si  Si10  1  0.271396  0.097282  0.693576  1
  Si  Si11  1  0.902393  0.728258  0.807939  1
  O  O12  1  0.422070  0.610967  0.109141  1
  O  O13  1  0.389766  0.577375  0.390194  1
  O  O14  1  0.577900  0.388608  0.890849  1
  O  O15  1  0.612320  0.421018  0.609507  1
  O  O16  1  0.867379  0.723438  0.432302  1
  O  O17  1  0.276252  0.132773  0.067383  1
  O  O18  1  0.133547  0.275629  0.567642  1
  O  O19  1  0.722917  0.867482  0.933025  1
  O  O20  1  0.568901  0.841860  0.314466  1
  O  O21  1  0.157493  0.433640  0.183144  1
  O  O22  1  0.432277  0.159694  0.683349  1
  O  O23  1  0.842234  0.565879  0.817299  1
  O  O24  1  0.155973  0.587424  0.825804  1
  O  O25  1  0.413669  0.841647  0.678165  1
  O  O26  1  0.842260  0.412691  0.175102  1
  O  O27  1  0.588047  0.157241  0.323768  1
  O  O28  1  0.906357  0.906636  0.647496  1
  O  O29  1  0.092907  0.091778  0.853682  1
  O  O30  1  0.089286  0.094986  0.352959  1
  O  O31  1  0.907822  0.909031  0.146138  1
