# generated using pymatgen
data_Er8CrSi16W11
_symmetry_space_group_name_H-M   'P 1'
_cell_length_a   6.84495695
_cell_length_b   6.84495695
_cell_length_c   12.70401938
_cell_angle_alpha   90.05857345
_cell_angle_beta   89.94142655
_cell_angle_gamma   90.08916059
_symmetry_Int_Tables_number   1
_chemical_formula_structural   Er8CrSi16W11
_chemical_formula_sum   'Er8 Cr1 Si16 W11'
_cell_volume   595.22561232
_cell_formula_units_Z   1
loop_
 _symmetry_equiv_pos_site_id
 _symmetry_equiv_pos_as_xyz
  1  'x, y, z'
loop_
 _atom_site_type_symbol
 _atom_site_label
 _atom_site_symmetry_multiplicity
 _atom_site_fract_x
 _atom_site_fract_y
 _atom_site_fract_z
 _atom_site_occupancy
  Er  Er0  1  0.337350  0.997893  0.468932  1
  Er  Er1  1  0.502313  0.837576  0.719730  1
  Er  Er2  1  0.498869  0.162365  0.218700  1
  Er  Er3  1  0.837576  0.502313  0.280270  1
  Er  Er4  1  0.162365  0.498869  0.781300  1
  Er  Er5  1  0.662415  0.001798  0.968668  1
  Er  Er6  1  0.997893  0.337350  0.531068  1
  Er  Er7  1  0.001798  0.662415  0.031332  1
  Cr  Cr8  1  0.332072  0.332072  0.000000  1
  Si  Si9  1  0.203097  0.126995  0.684042  1
  Si  Si10  1  0.372742  0.699360  0.934616  1
  Si  Si11  1  0.626288  0.298584  0.433071  1
  Si  Si12  1  0.699360  0.372742  0.065384  1
  Si  Si13  1  0.298584  0.626288  0.566929  1
  Si  Si14  1  0.798772  0.873374  0.182542  1
  Si  Si15  1  0.126995  0.203097  0.315958  1
  Si  Si16  1  0.873374  0.798772  0.817458  1
  Si  Si17  1  0.289675  0.964671  0.063884  1
  Si  Si18  1  0.536379  0.790136  0.313401  1
  Si  Si19  1  0.462072  0.211109  0.815856  1
  Si  Si20  1  0.790136  0.536379  0.686599  1
  Si  Si21  1  0.211109  0.462072  0.184144  1
  Si  Si22  1  0.711644  0.035466  0.563673  1
  Si  Si23  1  0.964671  0.289675  0.936116  1
  Si  Si24  1  0.035466  0.711644  0.436327  1
  W  W25  1  0.166063  0.833000  0.250925  1
  W  W26  1  0.833000  0.166063  0.749075  1
  W  W27  1  0.667766  0.667766  0.500000  1
  W  W28  1  0.165834  0.998720  0.875122  1
  W  W29  1  0.500551  0.661230  0.123100  1
  W  W30  1  0.500466  0.335172  0.624525  1
  W  W31  1  0.661230  0.500551  0.876900  1
  W  W32  1  0.335172  0.500466  0.375475  1
  W  W33  1  0.835370  0.002815  0.372491  1
  W  W34  1  0.998720  0.165834  0.124878  1
  W  W35  1  0.002815  0.835370  0.627509  1
