# generated using pymatgen
data_Nd5Th3(ZnRh)8
_symmetry_space_group_name_H-M   'P 1'
_cell_length_a   3.95087500
_cell_length_b   7.51266325
_cell_length_c   16.56322785
_cell_angle_alpha   90.17862464
_cell_angle_beta   90.00000000
_cell_angle_gamma   90.00000000
_symmetry_Int_Tables_number   1
_chemical_formula_structural   Nd5Th3(ZnRh)8
_chemical_formula_sum   'Nd5 Th3 Zn8 Rh8'
_cell_volume   491.62060573
_cell_formula_units_Z   1
loop_
 _symmetry_equiv_pos_site_id
 _symmetry_equiv_pos_as_xyz
  1  'x, y, z'
loop_
 _atom_site_type_symbol
 _atom_site_label
 _atom_site_symmetry_multiplicity
 _atom_site_fract_x
 _atom_site_fract_y
 _atom_site_fract_z
 _atom_site_occupancy
  Nd  Nd0  1  0.750000  0.945031  0.283937  1
  Nd  Nd1  1  0.750000  0.829176  0.061253  1
  Nd  Nd2  1  0.750000  0.449998  0.214338  1
  Nd  Nd3  1  0.250000  0.053259  0.715308  1
  Nd  Nd4  1  0.250000  0.551050  0.785635  1
  Th  Th5  1  0.250000  0.171863  0.940390  1
  Th  Th6  1  0.250000  0.673108  0.561346  1
  Th  Th7  1  0.750000  0.326250  0.438458  1
  Zn  Zn8  1  0.750000  0.007172  0.561234  1
  Zn  Zn9  1  0.250000  0.620990  0.346140  1
  Zn  Zn10  1  0.750000  0.379366  0.654309  1
  Zn  Zn11  1  0.250000  0.502576  0.059942  1
  Zn  Zn12  1  0.750000  0.509362  0.940119  1
  Zn  Zn13  1  0.250000  0.992286  0.438308  1
  Zn  Zn14  1  0.250000  0.119043  0.152078  1
  Zn  Zn15  1  0.750000  0.878753  0.846448  1
  Rh  Rh16  1  0.750000  0.740480  0.441624  1
  Rh  Rh17  1  0.250000  0.250297  0.320337  1
  Rh  Rh18  1  0.750000  0.246300  0.820942  1
  Rh  Rh19  1  0.750000  0.748390  0.679013  1
  Rh  Rh20  1  0.250000  0.258627  0.558914  1
  Rh  Rh21  1  0.250000  0.745458  0.186844  1
  Rh  Rh22  1  0.750000  0.248233  0.059071  1
  Rh  Rh23  1  0.250000  0.752931  0.934012  1
