# generated using pymatgen
data_Dy6Nb3V(ReN4)6
_symmetry_space_group_name_H-M   'P 1'
_cell_length_a   11.08221792
_cell_length_b   11.09277360
_cell_length_c   11.08221713
_cell_angle_alpha   109.51699361
_cell_angle_beta   109.41403348
_cell_angle_gamma   109.44404128
_symmetry_Int_Tables_number   1
_chemical_formula_structural   Dy6Nb3V(ReN4)6
_chemical_formula_sum   'Dy12 Nb6 V2 Re12 N48'
_cell_volume   1049.24764091
_cell_formula_units_Z   2
loop_
 _symmetry_equiv_pos_site_id
 _symmetry_equiv_pos_as_xyz
  1  'x, y, z'
loop_
 _atom_site_type_symbol
 _atom_site_label
 _atom_site_symmetry_multiplicity
 _atom_site_fract_x
 _atom_site_fract_y
 _atom_site_fract_z
 _atom_site_occupancy
  Dy  Dy0  1  0.252892  0.375706  0.127686  1
  Dy  Dy1  1  0.375607  0.750000  0.125607  1
  Dy  Dy2  1  0.375938  0.127336  0.252825  1
  Dy  Dy3  1  0.874511  0.627336  0.251398  1
  Dy  Dy4  1  0.751979  0.124294  0.377185  1
  Dy  Dy5  1  0.126510  0.250000  0.376510  1
  Dy  Dy6  1  0.873490  0.750000  0.623490  1
  Dy  Dy7  1  0.248021  0.875706  0.622815  1
  Dy  Dy8  1  0.125489  0.372664  0.748602  1
  Dy  Dy9  1  0.624062  0.872664  0.747175  1
  Dy  Dy10  1  0.624393  0.250000  0.874393  1
  Dy  Dy11  1  0.747108  0.624294  0.872314  1
  Nb  Nb12  1  0.000000  0.000000  0.000000  1
  Nb  Nb13  1  0.500000  0.000000  0.000000  1
  Nb  Nb14  1  0.000000  0.500000  0.000000  1
  Nb  Nb15  1  0.500000  0.500000  0.000000  1
  Nb  Nb16  1  0.500000  0.000000  0.500000  1
  Nb  Nb17  1  0.000000  0.500000  0.500000  1
  V  V18  1  0.000000  0.000000  0.500000  1
  V  V19  1  0.500000  0.500000  0.500000  1
  Re  Re20  1  0.875049  0.249999  0.125049  1
  Re  Re21  1  0.752235  0.875991  0.128394  1
  Re  Re22  1  0.624126  0.375528  0.251926  1
  Re  Re23  1  0.123602  0.875528  0.251401  1
  Re  Re24  1  0.252403  0.624009  0.376243  1
  Re  Re25  1  0.627019  0.750000  0.377020  1
  Re  Re26  1  0.372980  0.250000  0.622980  1
  Re  Re27  1  0.747597  0.375991  0.623756  1
  Re  Re28  1  0.876398  0.124472  0.748598  1
  Re  Re29  1  0.375874  0.624471  0.748074  1
  Re  Re30  1  0.247764  0.124009  0.871606  1
  Re  Re31  1  0.124951  0.750000  0.874951  1
  N  N32  1  0.314814  0.901860  0.021441  1
  N  N33  1  0.206244  0.118651  0.019303  1
  N  N34  1  0.880419  0.401860  0.087047  1
  N  N35  1  0.707011  0.685385  0.088177  1
  N  N36  1  0.618136  0.412353  0.099221  1
  N  N37  1  0.978184  0.685322  0.099172  1
  N  N38  1  0.599954  0.914146  0.121402  1
  N  N39  1  0.021722  0.207868  0.119275  1
  N  N40  1  0.207256  0.585853  0.185808  1
  N  N41  1  0.480253  0.598567  0.186260  1
  N  N42  1  0.119134  0.021654  0.207413  1
  N  N43  1  0.586149  0.185322  0.207137  1
  N  N44  1  0.480664  0.382564  0.296845  1
  N  N45  1  0.313131  0.912353  0.294218  1
  N  N46  1  0.902362  0.019288  0.316483  1
  N  N47  1  0.911407  0.292133  0.313854  1
  N  N48  1  0.297196  0.480712  0.383075  1
  N  N49  1  0.587693  0.901434  0.381687  1
  N  N50  1  0.814241  0.521653  0.402520  1
  N  N51  1  0.085719  0.882563  0.401899  1
  N  N52  1  0.099348  0.618651  0.412407  1
  N  N53  1  0.816111  0.796793  0.415582  1
  N  N54  1  0.597208  0.185385  0.478374  1
  N  N55  1  0.381212  0.296794  0.480682  1
  N  N56  1  0.618788  0.703206  0.519318  1
  N  N57  1  0.402793  0.814615  0.521626  1
  N  N58  1  0.183888  0.203206  0.584417  1
  N  N59  1  0.900652  0.381350  0.587592  1
  N  N60  1  0.914281  0.117436  0.598100  1
  N  N61  1  0.185759  0.478347  0.597481  1
  N  N62  1  0.412306  0.098566  0.618314  1
  N  N63  1  0.702804  0.519288  0.616925  1
  N  N64  1  0.088593  0.707867  0.686146  1
  N  N65  1  0.097637  0.980711  0.683517  1
  N  N66  1  0.686869  0.087647  0.705782  1
  N  N67  1  0.519336  0.617436  0.703155  1
  N  N68  1  0.413850  0.814677  0.792862  1
  N  N69  1  0.880867  0.978347  0.792588  1
  N  N70  1  0.519747  0.401434  0.813740  1
  N  N71  1  0.792743  0.414146  0.814191  1
  N  N72  1  0.400045  0.085854  0.878597  1
  N  N73  1  0.978279  0.792133  0.880726  1
  N  N74  1  0.021815  0.314678  0.900827  1
  N  N75  1  0.381865  0.587646  0.900779  1
  N  N76  1  0.292989  0.314615  0.911823  1
  N  N77  1  0.119580  0.598139  0.912953  1
  N  N78  1  0.685186  0.098139  0.978558  1
  N  N79  1  0.793757  0.881350  0.980698  1
