# generated using pymatgen
data_CaTh5(ScBi5)2
_symmetry_space_group_name_H-M   'P 1'
_cell_length_a   9.80710600
_cell_length_b   9.80010805
_cell_length_c   6.62297100
_cell_angle_alpha   90.00000000
_cell_angle_beta   90.00000000
_cell_angle_gamma   119.97640153
_symmetry_Int_Tables_number   1
_chemical_formula_structural   CaTh5(ScBi5)2
_chemical_formula_sum   'Ca1 Th5 Sc2 Bi10'
_cell_volume   551.38943676
_cell_formula_units_Z   1
loop_
 _symmetry_equiv_pos_site_id
 _symmetry_equiv_pos_as_xyz
  1  'x, y, z'
loop_
 _atom_site_type_symbol
 _atom_site_label
 _atom_site_symmetry_multiplicity
 _atom_site_fract_x
 _atom_site_fract_y
 _atom_site_fract_z
 _atom_site_occupancy
  Ca  Ca0  1  0.000000  0.623073  0.250000  1
  Th  Th1  1  0.387094  0.386716  0.250000  1
  Th  Th2  1  0.379989  0.995698  0.750000  1
  Th  Th3  1  0.620011  0.615709  0.750000  1
  Th  Th4  1  0.612906  0.999622  0.250000  1
  Th  Th5  1  0.000000  0.387360  0.750000  1
  Sc  Sc6  1  0.000000  0.998279  0.002724  1
  Sc  Sc7  1  0.000000  0.998279  0.497276  1
  Bi  Bi8  1  0.000000  0.267433  0.250000  1
  Bi  Bi9  1  0.334367  0.664168  0.501170  1
  Bi  Bi10  1  0.665633  0.329802  0.998830  1
  Bi  Bi11  1  0.334367  0.664168  0.998830  1
  Bi  Bi12  1  0.266328  0.266704  0.750000  1
  Bi  Bi13  1  0.733672  0.000377  0.750000  1
  Bi  Bi14  1  0.000000  0.736257  0.750000  1
  Bi  Bi15  1  0.731873  0.734212  0.250000  1
  Bi  Bi16  1  0.268127  0.002339  0.250000  1
  Bi  Bi17  1  0.665633  0.329802  0.501170  1
