# generated using pymatgen
data_Th3Co8P6Rh
_symmetry_space_group_name_H-M   'P 1'
_cell_length_a   3.84289500
_cell_length_b   10.60621700
_cell_length_c   12.47692800
_cell_angle_alpha   90.00000000
_cell_angle_beta   90.00000000
_cell_angle_gamma   90.00000000
_symmetry_Int_Tables_number   1
_chemical_formula_structural   Th3Co8P6Rh
_chemical_formula_sum   'Th6 Co16 P12 Rh2'
_cell_volume   508.54184656
_cell_formula_units_Z   2
loop_
 _symmetry_equiv_pos_site_id
 _symmetry_equiv_pos_as_xyz
  1  'x, y, z'
loop_
 _atom_site_type_symbol
 _atom_site_label
 _atom_site_symmetry_multiplicity
 _atom_site_fract_x
 _atom_site_fract_y
 _atom_site_fract_z
 _atom_site_occupancy
  Th  Th0  1  0.000000  0.500000  0.524474  1
  Th  Th1  1  0.500000  0.000000  0.475526  1
  Th  Th2  1  0.500000  0.815621  0.207884  1
  Th  Th3  1  0.500000  0.184379  0.207884  1
  Th  Th4  1  0.000000  0.684379  0.792116  1
  Th  Th5  1  0.000000  0.315621  0.792116  1
  Co  Co6  1  0.500000  0.500000  0.704592  1
  Co  Co7  1  0.000000  0.000000  0.295408  1
  Co  Co8  1  0.000000  0.500000  0.984584  1
  Co  Co9  1  0.500000  0.000000  0.015416  1
  Co  Co10  1  0.500000  0.333475  0.993767  1
  Co  Co11  1  0.500000  0.666525  0.993767  1
  Co  Co12  1  0.000000  0.166525  0.006233  1
  Co  Co13  1  0.000000  0.833475  0.006233  1
  Co  Co14  1  0.500000  0.300966  0.428577  1
  Co  Co15  1  0.500000  0.699034  0.428577  1
  Co  Co16  1  0.000000  0.199034  0.571423  1
  Co  Co17  1  0.000000  0.800966  0.571423  1
  Co  Co18  1  0.500000  0.880891  0.712103  1
  Co  Co19  1  0.500000  0.119109  0.712103  1
  Co  Co20  1  0.000000  0.619109  0.287897  1
  Co  Co21  1  0.000000  0.380891  0.287897  1
  P  P22  1  0.500000  0.500000  0.885728  1
  P  P23  1  0.000000  0.000000  0.114272  1
  P  P24  1  0.500000  0.500000  0.346415  1
  P  P25  1  0.000000  0.000000  0.653585  1
  P  P26  1  0.500000  0.305341  0.612030  1
  P  P27  1  0.500000  0.694659  0.612030  1
  P  P28  1  0.000000  0.194659  0.387970  1
  P  P29  1  0.000000  0.805341  0.387970  1
  P  P30  1  0.500000  0.846942  0.898999  1
  P  P31  1  0.500000  0.153058  0.898999  1
  P  P32  1  0.000000  0.653058  0.101001  1
  P  P33  1  0.000000  0.346942  0.101001  1
  Rh  Rh34  1  0.500000  0.500000  0.159729  1
  Rh  Rh35  1  0.000000  0.000000  0.840271  1
