# generated using pymatgen
data_Tb2GaCoRu
_symmetry_space_group_name_H-M   'P 1'
_cell_length_a   4.10753927
_cell_length_b   5.47502613
_cell_length_c   5.47502542
_cell_angle_alpha   61.39410695
_cell_angle_beta   67.96852761
_cell_angle_gamma   67.96852838
_symmetry_Int_Tables_number   1
_chemical_formula_structural   Tb2GaCoRu
_chemical_formula_sum   'Tb2 Ga1 Co1 Ru1'
_cell_volume   97.26929708
_cell_formula_units_Z   1
loop_
 _symmetry_equiv_pos_site_id
 _symmetry_equiv_pos_as_xyz
  1  'x, y, z'
loop_
 _atom_site_type_symbol
 _atom_site_label
 _atom_site_symmetry_multiplicity
 _atom_site_fract_x
 _atom_site_fract_y
 _atom_site_fract_z
 _atom_site_occupancy
  Tb  Tb0  1  0.208745  0.283714  0.298795  1
  Tb  Tb1  1  0.791255  0.701205  0.716286  1
  Ga  Ga2  1  0.000000  0.990771  0.009229  1
  Co  Co3  1  0.500000  0.727917  0.272083  1
  Ru  Ru4  1  0.500000  0.296392  0.703608  1
