# generated using pymatgen
data_CoTcP2
_symmetry_space_group_name_H-M   'P 1'
_cell_length_a   3.14344400
_cell_length_b   5.40105301
_cell_length_c   6.00349681
_cell_angle_alpha   91.19117058
_cell_angle_beta   90.00000000
_cell_angle_gamma   90.00000000
_symmetry_Int_Tables_number   1
_chemical_formula_structural   CoTcP2
_chemical_formula_sum   'Co2 Tc2 P4'
_cell_volume   101.90478795
_cell_formula_units_Z   2
loop_
 _symmetry_equiv_pos_site_id
 _symmetry_equiv_pos_as_xyz
  1  'x, y, z'
loop_
 _atom_site_type_symbol
 _atom_site_label
 _atom_site_symmetry_multiplicity
 _atom_site_fract_x
 _atom_site_fract_y
 _atom_site_fract_z
 _atom_site_occupancy
  Co  Co0  1  0.250000  0.002362  0.795922  1
  Co  Co1  1  0.750000  0.997638  0.204078  1
  Tc  Tc2  1  0.250000  0.502068  0.700273  1
  Tc  Tc3  1  0.750000  0.497932  0.299727  1
  P  P4  1  0.250000  0.710570  0.063349  1
  P  P5  1  0.750000  0.289430  0.936651  1
  P  P6  1  0.250000  0.181276  0.422797  1
  P  P7  1  0.750000  0.818724  0.577203  1
