# generated using pymatgen
data_Na2H7Ir
_symmetry_space_group_name_H-M   'P 1'
_cell_length_a   5.47238683
_cell_length_b   5.40950786
_cell_length_c   5.21137234
_cell_angle_alpha   61.91340713
_cell_angle_beta   119.18237839
_cell_angle_gamma   122.95988510
_symmetry_Int_Tables_number   1
_chemical_formula_structural   Na2H7Ir
_chemical_formula_sum   'Na2 H7 Ir1'
_cell_volume   108.47301001
_cell_formula_units_Z   1
loop_
 _symmetry_equiv_pos_site_id
 _symmetry_equiv_pos_as_xyz
  1  'x, y, z'
loop_
 _atom_site_type_symbol
 _atom_site_label
 _atom_site_symmetry_multiplicity
 _atom_site_fract_x
 _atom_site_fract_y
 _atom_site_fract_z
 _atom_site_occupancy
  Na  Na0  1  0.934504  0.192251  0.022899  1
  Na  Na1  1  0.437810  0.688721  0.527086  1
  H  H2  1  0.886936  0.221734  0.477240  1
  H  H3  1  0.941844  0.696197  0.101968  1
  H  H4  1  0.594626  0.348406  0.961938  1
  H  H5  1  0.526235  0.281177  0.541051  1
  H  H6  1  0.366116  0.120299  0.209095  1
  H  H7  1  0.466065  0.640396  0.056696  1
  H  H8  1  0.907286  0.662960  0.486047  1
  Ir  Ir9  1  0.674358  0.429168  0.265410  1
