# generated using pymatgen
data_Er3TmLuIn4
_symmetry_space_group_name_H-M   'P 1'
_cell_length_a   9.18030000
_cell_length_b   9.18030085
_cell_length_c   6.62011800
_cell_angle_alpha   90.00000000
_cell_angle_beta   90.00000000
_cell_angle_gamma   119.99999692
_symmetry_Int_Tables_number   1
_chemical_formula_structural   Er3TmLuIn4
_chemical_formula_sum   'Er6 Tm2 Lu2 In8'
_cell_volume   483.18135047
_cell_formula_units_Z   2
loop_
 _symmetry_equiv_pos_site_id
 _symmetry_equiv_pos_as_xyz
  1  'x, y, z'
loop_
 _atom_site_type_symbol
 _atom_site_label
 _atom_site_symmetry_multiplicity
 _atom_site_fract_x
 _atom_site_fract_y
 _atom_site_fract_z
 _atom_site_occupancy
  Er  Er0  1  0.289601  0.000000  0.750131  1
  Er  Er1  1  0.710399  0.000000  0.249869  1
  Er  Er2  1  0.000000  0.289601  0.750131  1
  Er  Er3  1  0.000000  0.710399  0.249869  1
  Er  Er4  1  0.710399  0.710399  0.750131  1
  Er  Er5  1  0.289601  0.289601  0.249869  1
  Tm  Tm6  1  0.333333  0.666667  0.500000  1
  Tm  Tm7  1  0.666667  0.333333  0.500000  1
  Lu  Lu8  1  0.666667  0.333333  0.000000  1
  Lu  Lu9  1  0.333333  0.666667  0.000000  1
  In  In10  1  0.000000  0.000000  0.500000  1
  In  In11  1  0.000000  0.000000  0.000000  1
  In  In12  1  0.627971  0.000000  0.750158  1
  In  In13  1  0.372029  0.000000  0.249842  1
  In  In14  1  0.000000  0.627971  0.750158  1
  In  In15  1  0.000000  0.372029  0.249842  1
  In  In16  1  0.372029  0.372029  0.750158  1
  In  In17  1  0.627971  0.627971  0.249842  1
