# generated using pymatgen
data_TbDy2LuCdNi
_symmetry_space_group_name_H-M   'P 1'
_cell_length_a   9.53345023
_cell_length_b   9.53344988
_cell_length_c   9.53091000
_cell_angle_alpha   60.00881263
_cell_angle_beta   60.00881386
_cell_angle_gamma   59.98237894
_symmetry_Int_Tables_number   1
_chemical_formula_structural   TbDy2LuCdNi
_chemical_formula_sum   'Tb4 Dy8 Lu4 Cd4 Ni4'
_cell_volume   612.51893436
_cell_formula_units_Z   4
loop_
 _symmetry_equiv_pos_site_id
 _symmetry_equiv_pos_as_xyz
  1  'x, y, z'
loop_
 _atom_site_type_symbol
 _atom_site_label
 _atom_site_symmetry_multiplicity
 _atom_site_fract_x
 _atom_site_fract_y
 _atom_site_fract_z
 _atom_site_occupancy
  Tb  Tb0  1  0.599867  0.599867  0.598197  1
  Tb  Tb1  1  0.599867  0.599867  0.202071  1
  Tb  Tb2  1  0.598197  0.202071  0.599867  1
  Tb  Tb3  1  0.202071  0.598197  0.599867  1
  Dy  Dy4  1  0.435858  0.435858  0.064142  1
  Dy  Dy5  1  0.064142  0.064142  0.435858  1
  Dy  Dy6  1  0.186612  0.813388  0.813388  1
  Dy  Dy7  1  0.813388  0.186612  0.186612  1
  Dy  Dy8  1  0.813388  0.186612  0.813388  1
  Dy  Dy9  1  0.186612  0.813388  0.186612  1
  Dy  Dy10  1  0.813643  0.813643  0.186357  1
  Dy  Dy11  1  0.186357  0.186357  0.813643  1
  Lu  Lu12  1  0.062673  0.437327  0.437327  1
  Lu  Lu13  1  0.437327  0.062673  0.062673  1
  Lu  Lu14  1  0.437327  0.062673  0.437327  1
  Lu  Lu15  1  0.062673  0.437327  0.062673  1
  Cd  Cd16  1  0.830892  0.830892  0.831507  1
  Cd  Cd17  1  0.830892  0.830892  0.506711  1
  Cd  Cd18  1  0.831507  0.506711  0.830892  1
  Cd  Cd19  1  0.506711  0.831507  0.830892  1
  Ni  Ni20  1  0.390930  0.390930  0.393035  1
  Ni  Ni21  1  0.390930  0.390930  0.825104  1
  Ni  Ni22  1  0.393035  0.825104  0.390930  1
  Ni  Ni23  1  0.825104  0.393035  0.390930  1
