# generated using pymatgen
data_Tm8Ti12Si15Pb
_symmetry_space_group_name_H-M   'P 1'
_cell_length_a   7.08106668
_cell_length_b   7.03371306
_cell_length_c   12.95691015
_cell_angle_alpha   89.97243886
_cell_angle_beta   89.68533377
_cell_angle_gamma   89.89547579
_symmetry_Int_Tables_number   1
_chemical_formula_structural   Tm8Ti12Si15Pb
_chemical_formula_sum   'Tm8 Ti12 Si15 Pb1'
_cell_volume   645.32346612
_cell_formula_units_Z   1
loop_
 _symmetry_equiv_pos_site_id
 _symmetry_equiv_pos_as_xyz
  1  'x, y, z'
loop_
 _atom_site_type_symbol
 _atom_site_label
 _atom_site_symmetry_multiplicity
 _atom_site_fract_x
 _atom_site_fract_y
 _atom_site_fract_z
 _atom_site_occupancy
  Tm  Tm0  1  0.345015  0.997655  0.459788  1
  Tm  Tm1  1  0.507915  0.834299  0.718612  1
  Tm  Tm2  1  0.501912  0.159821  0.216846  1
  Tm  Tm3  1  0.841373  0.497552  0.281875  1
  Tm  Tm4  1  0.158905  0.511309  0.786807  1
  Tm  Tm5  1  0.661299  0.996597  0.969382  1
  Tm  Tm6  1  0.990000  0.350829  0.525972  1
  Tm  Tm7  1  0.999452  0.658807  0.034277  1
  Ti  Ti8  1  0.325991  0.326794  0.001358  1
  Ti  Ti9  1  0.174040  0.826106  0.249713  1
  Ti  Ti10  1  0.813552  0.175161  0.752719  1
  Ti  Ti11  1  0.672608  0.672982  0.499355  1
  Ti  Ti12  1  0.152071  0.007340  0.884247  1
  Ti  Ti13  1  0.492748  0.649937  0.126565  1
  Ti  Ti14  1  0.517063  0.355555  0.626397  1
  Ti  Ti15  1  0.653881  0.493784  0.876101  1
  Ti  Ti16  1  0.347970  0.509067  0.372857  1
  Ti  Ti17  1  0.847432  0.992928  0.375297  1
  Ti  Ti18  1  0.009192  0.151500  0.123793  1
  Ti  Ti19  1  0.977654  0.832305  0.618297  1
  Si  Si20  1  0.370225  0.703558  0.935486  1
  Si  Si21  1  0.628697  0.296700  0.431619  1
  Si  Si22  1  0.704100  0.368611  0.067513  1
  Si  Si23  1  0.296770  0.631758  0.566306  1
  Si  Si24  1  0.796970  0.869036  0.183374  1
  Si  Si25  1  0.130789  0.203212  0.315765  1
  Si  Si26  1  0.869839  0.799626  0.817299  1
  Si  Si27  1  0.293427  0.952292  0.067261  1
  Si  Si28  1  0.549908  0.789783  0.313129  1
  Si  Si29  1  0.460936  0.209831  0.821809  1
  Si  Si30  1  0.795251  0.543956  0.687419  1
  Si  Si31  1  0.208653  0.453044  0.185193  1
  Si  Si32  1  0.705920  0.048044  0.564237  1
  Si  Si33  1  0.952586  0.292344  0.935511  1
  Si  Si34  1  0.048206  0.710792  0.432245  1
  Pb  Pb35  1  0.197650  0.127083  0.675575  1
