# generated using pymatgen
data_Er12Fe2Sn2Os
_symmetry_space_group_name_H-M   'P 1'
_cell_length_a   8.32131739
_cell_length_b   8.32134365
_cell_length_c   8.32131615
_cell_angle_alpha   108.84507632
_cell_angle_beta   108.84622488
_cell_angle_gamma   110.72960569
_symmetry_Int_Tables_number   1
_chemical_formula_structural   Er12Fe2Sn2Os
_chemical_formula_sum   'Er12 Fe2 Sn2 Os1'
_cell_volume   443.40320796
_cell_formula_units_Z   1
loop_
 _symmetry_equiv_pos_site_id
 _symmetry_equiv_pos_as_xyz
  1  'x, y, z'
loop_
 _atom_site_type_symbol
 _atom_site_label
 _atom_site_symmetry_multiplicity
 _atom_site_fract_x
 _atom_site_fract_y
 _atom_site_fract_z
 _atom_site_occupancy
  Er  Er0  1  0.308065  0.308077  0.616132  1
  Er  Er1  1  0.691935  0.691923  0.383868  1
  Er  Er2  1  0.308056  0.691923  0.999987  1
  Er  Er3  1  0.691944  0.308077  0.000013  1
  Er  Er4  1  0.430291  0.193178  0.237112  1
  Er  Er5  1  0.569709  0.806822  0.762888  1
  Er  Er6  1  0.956064  0.193178  0.762886  1
  Er  Er7  1  0.193170  0.956055  0.762886  1
  Er  Er8  1  0.043936  0.806822  0.237114  1
  Er  Er9  1  0.806830  0.043945  0.237114  1
  Er  Er10  1  0.193165  0.430267  0.237102  1
  Er  Er11  1  0.806835  0.569733  0.762898  1
  Fe  Fe12  1  0.385654  0.385657  0.000003  1
  Fe  Fe13  1  0.614346  0.614343  0.999997  1
  Sn  Sn14  1  0.500000  0.000000  0.500000  1
  Sn  Sn15  1  0.000000  0.500000  0.500000  1
  Os  Os16  1  0.000000  0.000000  0.000000  1
