# generated using pymatgen
data_Ho5Er5In8(IrPd)2
_symmetry_space_group_name_H-M   'P 1'
_cell_length_a   3.60376100
_cell_length_b   8.11282802
_cell_length_c   18.19844905
_cell_angle_alpha   90.07390758
_cell_angle_beta   90.00000000
_cell_angle_gamma   90.00000000
_symmetry_Int_Tables_number   1
_chemical_formula_structural   Ho5Er5In8(IrPd)2
_chemical_formula_sum   'Ho5 Er5 In8 Ir2 Pd2'
_cell_volume   532.06202931
_cell_formula_units_Z   1
loop_
 _symmetry_equiv_pos_site_id
 _symmetry_equiv_pos_as_xyz
  1  'x, y, z'
loop_
 _atom_site_type_symbol
 _atom_site_label
 _atom_site_symmetry_multiplicity
 _atom_site_fract_x
 _atom_site_fract_y
 _atom_site_fract_z
 _atom_site_occupancy
  Ho  Ho0  1  0.000000  0.499992  0.499993  1
  Ho  Ho1  1  0.000000  0.999978  0.999998  1
  Ho  Ho2  1  0.000000  0.728287  0.277519  1
  Ho  Ho3  1  0.000000  0.271673  0.722482  1
  Ho  Ho4  1  0.000000  0.747476  0.779932  1
  Er  Er5  1  0.000000  0.252807  0.220092  1
  Er  Er6  1  0.000000  0.613203  0.087003  1
  Er  Er7  1  0.000000  0.386720  0.913023  1
  Er  Er8  1  0.000000  0.884982  0.584429  1
  Er  Er9  1  0.000000  0.115030  0.415541  1
  In  In10  1  0.500000  0.709707  0.932289  1
  In  In11  1  0.500000  0.290273  0.067794  1
  In  In12  1  0.500000  0.790743  0.432139  1
  In  In13  1  0.500000  0.209281  0.567859  1
  In  In14  1  0.500000  0.579330  0.648126  1
  In  In15  1  0.500000  0.420581  0.351815  1
  In  In16  1  0.500000  0.922017  0.149652  1
  In  In17  1  0.500000  0.078076  0.850364  1
  Ir  Ir18  1  0.500000  0.519139  0.195698  1
  Ir  Ir19  1  0.500000  0.480443  0.804342  1
  Pd  Pd20  1  0.500000  0.980242  0.695957  1
  Pd  Pd21  1  0.500000  0.020018  0.303955  1
