# generated using pymatgen
data_La2YbSm4OsBr12
_symmetry_space_group_name_H-M   'P 1'
_cell_length_a   9.40465296
_cell_length_b   9.66542566
_cell_length_c   9.63418602
_cell_angle_alpha   107.75410171
_cell_angle_beta   106.61315087
_cell_angle_gamma   106.99933496
_symmetry_Int_Tables_number   1
_chemical_formula_structural   La2YbSm4OsBr12
_chemical_formula_sum   'La2 Yb1 Sm4 Os1 Br12'
_cell_volume   726.82817725
_cell_formula_units_Z   1
loop_
 _symmetry_equiv_pos_site_id
 _symmetry_equiv_pos_as_xyz
  1  'x, y, z'
loop_
 _atom_site_type_symbol
 _atom_site_label
 _atom_site_symmetry_multiplicity
 _atom_site_fract_x
 _atom_site_fract_y
 _atom_site_fract_z
 _atom_site_occupancy
  La  La0  1  0.975260  0.671534  0.885095  1
  La  La1  1  0.698562  0.898428  0.976994  1
  Yb  Yb2  1  0.498657  0.500162  0.497127  1
  Sm  Sm3  1  0.298798  0.104998  0.024983  1
  Sm  Sm4  1  0.024089  0.318114  0.113324  1
  Sm  Sm5  1  0.114296  0.027247  0.321204  1
  Sm  Sm6  1  0.889376  0.971307  0.681048  1
  Os  Os7  1  0.991562  0.995922  0.001002  1
  Br  Br8  1  0.685083  0.227006  0.071578  1
  Br  Br9  1  0.373617  0.453501  0.165834  1
  Br  Br10  1  0.074001  0.685522  0.221783  1
  Br  Br11  1  0.791895  0.934753  0.326670  1
  Br  Br12  1  0.459548  0.170185  0.373991  1
  Br  Br13  1  0.164290  0.376348  0.458604  1
  Br  Br14  1  0.832108  0.624178  0.533690  1
  Br  Br15  1  0.539758  0.829230  0.613088  1
  Br  Br16  1  0.218221  0.070601  0.688266  1
  Br  Br17  1  0.929114  0.309962  0.786152  1
  Br  Br18  1  0.614560  0.534719  0.822541  1
  Br  Br19  1  0.327211  0.796286  0.937029  1
