# generated using pymatgen
data_Tm6OsSe
_symmetry_space_group_name_H-M   'P 1'
_cell_length_a   7.40438164
_cell_length_b   9.00734600
_cell_length_c   6.28775013
_cell_angle_alpha   90.00000000
_cell_angle_beta   88.80863545
_cell_angle_gamma   90.00000000
_symmetry_Int_Tables_number   1
_chemical_formula_structural   Tm6OsSe
_chemical_formula_sum   'Tm12 Os2 Se2'
_cell_volume   419.26346946
_cell_formula_units_Z   2
loop_
 _symmetry_equiv_pos_site_id
 _symmetry_equiv_pos_as_xyz
  1  'x, y, z'
loop_
 _atom_site_type_symbol
 _atom_site_label
 _atom_site_symmetry_multiplicity
 _atom_site_fract_x
 _atom_site_fract_y
 _atom_site_fract_z
 _atom_site_occupancy
  Tm  Tm0  1  0.007362  0.250000  0.625196  1
  Tm  Tm1  1  0.992638  0.750000  0.374804  1
  Tm  Tm2  1  0.441430  0.750000  0.135397  1
  Tm  Tm3  1  0.558570  0.250000  0.864603  1
  Tm  Tm4  1  0.167825  0.056076  0.153165  1
  Tm  Tm5  1  0.832175  0.943924  0.846835  1
  Tm  Tm6  1  0.309691  0.939749  0.665120  1
  Tm  Tm7  1  0.832175  0.556076  0.846835  1
  Tm  Tm8  1  0.690309  0.060251  0.334880  1
  Tm  Tm9  1  0.167825  0.443924  0.153165  1
  Tm  Tm10  1  0.690309  0.439749  0.334880  1
  Tm  Tm11  1  0.309691  0.560251  0.665120  1
  Os  Os12  1  0.118375  0.750000  0.946676  1
  Os  Os13  1  0.881625  0.250000  0.053324  1
  Se  Se14  1  0.374626  0.250000  0.446237  1
  Se  Se15  1  0.625374  0.750000  0.553763  1
