# generated using pymatgen
data_Dy5GaP11Ir16Ru3
_symmetry_space_group_name_H-M   'P 1'
_cell_length_a   12.69502102
_cell_length_b   12.75396011
_cell_length_c   3.97833700
_cell_angle_alpha   90.00000000
_cell_angle_beta   90.00000000
_cell_angle_gamma   120.15370184
_symmetry_Int_Tables_number   1
_chemical_formula_structural   Dy5GaP11Ir16Ru3
_chemical_formula_sum   'Dy5 Ga1 P11 Ir16 Ru3'
_cell_volume   556.97532735
_cell_formula_units_Z   1
loop_
 _symmetry_equiv_pos_site_id
 _symmetry_equiv_pos_as_xyz
  1  'x, y, z'
loop_
 _atom_site_type_symbol
 _atom_site_label
 _atom_site_symmetry_multiplicity
 _atom_site_fract_x
 _atom_site_fract_y
 _atom_site_fract_z
 _atom_site_occupancy
  Dy  Dy0  1  0.330767  0.665032  0.500000  1
  Dy  Dy1  1  0.669233  0.334264  0.500000  1
  Dy  Dy2  1  0.000000  0.819176  0.000000  1
  Dy  Dy3  1  0.185320  0.182782  0.000000  1
  Dy  Dy4  1  0.814680  0.997462  0.000000  1
  Ga  Ga5  1  0.000000  0.640390  0.500000  1
  P  P6  1  0.360157  0.360128  0.500000  1
  P  P7  1  0.639843  0.999973  0.500000  1
  P  P8  1  0.513202  0.687179  0.000000  1
  P  P9  1  0.312581  0.828957  0.000000  1
  P  P10  1  0.163960  0.480752  0.000000  1
  P  P11  1  0.486798  0.173976  0.000000  1
  P  P12  1  0.687419  0.516376  0.000000  1
  P  P13  1  0.836040  0.316792  0.000000  1
  P  P14  1  0.000000  0.172929  0.500000  1
  P  P15  1  0.818865  0.819225  0.500000  1
  P  P16  1  0.181135  0.000360  0.500000  1
  Ir  Ir17  1  0.509635  0.872519  0.000000  1
  Ir  Ir18  1  0.132701  0.639909  0.000000  1
  Ir  Ir19  1  0.354246  0.491756  0.000000  1
  Ir  Ir20  1  0.490365  0.362883  0.000000  1
  Ir  Ir21  1  0.867299  0.507207  0.000000  1
  Ir  Ir22  1  0.645754  0.137509  0.000000  1
  Ir  Ir23  1  0.000000  0.282185  0.000000  1
  Ir  Ir24  1  0.709165  0.714351  0.000000  1
  Ir  Ir25  1  0.290835  0.005185  0.000000  1
  Ir  Ir26  1  0.622612  0.806379  0.500000  1
  Ir  Ir27  1  0.210238  0.829619  0.500000  1
  Ir  Ir28  1  0.178869  0.368550  0.500000  1
  Ir  Ir29  1  0.377388  0.183767  0.500000  1
  Ir  Ir30  1  0.789762  0.619380  0.500000  1
  Ir  Ir31  1  0.821131  0.189680  0.500000  1
  Ir  Ir32  1  0.000000  0.995956  0.500000  1
  Ru  Ru33  1  0.000000  0.443379  0.500000  1
  Ru  Ru34  1  0.534772  0.544403  0.500000  1
  Ru  Ru35  1  0.465228  0.009630  0.500000  1
