# generated using pymatgen
data_Sc8V9Si16W3
_symmetry_space_group_name_H-M   'P 1'
_cell_length_a   6.65724858
_cell_length_b   6.65724858
_cell_length_c   12.33469891
_cell_angle_alpha   89.94435533
_cell_angle_beta   90.05564467
_cell_angle_gamma   90.05599034
_symmetry_Int_Tables_number   1
_chemical_formula_structural   Sc8V9Si16W3
_chemical_formula_sum   'Sc8 V9 Si16 W3'
_cell_volume   546.66023458
_cell_formula_units_Z   1
loop_
 _symmetry_equiv_pos_site_id
 _symmetry_equiv_pos_as_xyz
  1  'x, y, z'
loop_
 _atom_site_type_symbol
 _atom_site_label
 _atom_site_symmetry_multiplicity
 _atom_site_fract_x
 _atom_site_fract_y
 _atom_site_fract_z
 _atom_site_occupancy
  Sc  Sc0  1  0.002360  0.662854  0.029705  1
  Sc  Sc1  1  0.837650  0.501799  0.279690  1
  Sc  Sc2  1  0.161868  0.497498  0.779000  1
  Sc  Sc3  1  0.501799  0.837650  0.720310  1
  Sc  Sc4  1  0.497498  0.161868  0.221000  1
  Sc  Sc5  1  0.997575  0.336859  0.529952  1
  Sc  Sc6  1  0.662854  0.002360  0.970295  1
  Sc  Sc7  1  0.336859  0.997575  0.470048  1
  V  V8  1  0.667580  0.667580  0.500000  1
  V  V9  1  0.005445  0.156863  0.126830  1
  V  V10  1  0.343890  0.506116  0.376954  1
  V  V11  1  0.657347  0.493729  0.876136  1
  V  V12  1  0.506116  0.343890  0.623046  1
  V  V13  1  0.493729  0.657347  0.123864  1
  V  V14  1  0.993401  0.842523  0.625920  1
  V  V15  1  0.156863  0.005445  0.873170  1
  V  V16  1  0.842523  0.993401  0.374080  1
  Si  Si17  1  0.294996  0.959760  0.063767  1
  Si  Si18  1  0.542770  0.793239  0.316188  1
  Si  Si19  1  0.459029  0.205366  0.813314  1
  Si  Si20  1  0.793239  0.542770  0.683812  1
  Si  Si21  1  0.205366  0.459029  0.186686  1
  Si  Si22  1  0.704390  0.038216  0.563031  1
  Si  Si23  1  0.959760  0.294996  0.936233  1
  Si  Si24  1  0.038216  0.704390  0.436969  1
  Si  Si25  1  0.706477  0.371601  0.071803  1
  Si  Si26  1  0.128420  0.206099  0.321953  1
  Si  Si27  1  0.871249  0.793174  0.820846  1
  Si  Si28  1  0.206099  0.128420  0.678047  1
  Si  Si29  1  0.793174  0.871249  0.179154  1
  Si  Si30  1  0.296432  0.629496  0.570231  1
  Si  Si31  1  0.371601  0.706477  0.928197  1
  Si  Si32  1  0.629496  0.296432  0.429769  1
  W  W33  1  0.332949  0.332949  0.000000  1
  W  W34  1  0.168506  0.832473  0.250048  1
  W  W35  1  0.832473  0.168506  0.749952  1
