# generated using pymatgen
data_Sc22Ir5Ru2Pt
_symmetry_space_group_name_H-M   'P 1'
_cell_length_a   9.48467266
_cell_length_b   9.50031964
_cell_length_c   9.48467278
_cell_angle_alpha   59.94542423
_cell_angle_beta   59.77524254
_cell_angle_gamma   59.94542039
_symmetry_Int_Tables_number   1
_chemical_formula_structural   Sc22Ir5Ru2Pt
_chemical_formula_sum   'Sc22 Ir5 Ru2 Pt1'
_cell_volume   602.79167322
_cell_formula_units_Z   1
loop_
 _symmetry_equiv_pos_site_id
 _symmetry_equiv_pos_as_xyz
  1  'x, y, z'
loop_
 _atom_site_type_symbol
 _atom_site_label
 _atom_site_symmetry_multiplicity
 _atom_site_fract_x
 _atom_site_fract_y
 _atom_site_fract_z
 _atom_site_occupancy
  Sc  Sc0  1  0.804643  0.803761  0.195357  1
  Sc  Sc1  1  0.195382  0.804618  0.195382  1
  Sc  Sc2  1  0.804643  0.196239  0.195357  1
  Sc  Sc3  1  0.195357  0.196239  0.804643  1
  Sc  Sc4  1  0.804618  0.195382  0.804618  1
  Sc  Sc5  1  0.195357  0.803761  0.804643  1
  Sc  Sc6  1  0.618717  0.616078  0.149126  1
  Sc  Sc7  1  0.618132  0.151170  0.618132  1
  Sc  Sc8  1  0.149126  0.616078  0.618717  1
  Sc  Sc9  1  0.618132  0.612565  0.618132  1
  Sc  Sc10  1  0.381283  0.383922  0.850874  1
  Sc  Sc11  1  0.381868  0.848830  0.381868  1
  Sc  Sc12  1  0.850874  0.383922  0.381283  1
  Sc  Sc13  1  0.381868  0.387435  0.381868  1
  Sc  Sc14  1  0.844630  0.841355  0.472657  1
  Sc  Sc15  1  0.842154  0.471772  0.842154  1
  Sc  Sc16  1  0.472657  0.841355  0.844630  1
  Sc  Sc17  1  0.842154  0.843918  0.842154  1
  Sc  Sc18  1  0.155370  0.158645  0.527343  1
  Sc  Sc19  1  0.157846  0.528228  0.157846  1
  Sc  Sc20  1  0.527343  0.158645  0.155370  1
  Sc  Sc21  1  0.157846  0.156082  0.157846  1
  Ir  Ir22  1  0.000000  0.000000  0.500000  1
  Ir  Ir23  1  0.000000  0.500000  0.500000  1
  Ir  Ir24  1  0.500000  0.500000  0.000000  1
  Ir  Ir25  1  0.000000  0.500000  0.000000  1
  Ir  Ir26  1  0.500000  0.000000  0.000000  1
  Ru  Ru27  1  0.000000  0.000000  0.000000  1
  Ru  Ru28  1  0.500000  0.500000  0.500000  1
  Pt  Pt29  1  0.500000  0.000000  0.500000  1
