# generated using pymatgen
data_LiTb19(Cd3Ru)2
_symmetry_space_group_name_H-M   'P 1'
_cell_length_a   9.59379600
_cell_length_b   9.59379595
_cell_length_c   9.79517900
_cell_angle_alpha   90.00000000
_cell_angle_beta   90.00000000
_cell_angle_gamma   120.00000016
_symmetry_Int_Tables_number   1
_chemical_formula_structural   LiTb19(Cd3Ru)2
_chemical_formula_sum   'Li1 Tb19 Cd6 Ru2'
_cell_volume   780.77152246
_cell_formula_units_Z   1
loop_
 _symmetry_equiv_pos_site_id
 _symmetry_equiv_pos_as_xyz
  1  'x, y, z'
loop_
 _atom_site_type_symbol
 _atom_site_label
 _atom_site_symmetry_multiplicity
 _atom_site_fract_x
 _atom_site_fract_y
 _atom_site_fract_z
 _atom_site_occupancy
  Li  Li0  1  0.000000  0.000000  0.500000  1
  Tb  Tb1  1  0.000000  0.000000  0.000000  1
  Tb  Tb2  1  0.208353  0.791647  0.440039  1
  Tb  Tb3  1  0.208353  0.416706  0.440039  1
  Tb  Tb4  1  0.583294  0.791647  0.440039  1
  Tb  Tb5  1  0.791647  0.208353  0.559961  1
  Tb  Tb6  1  0.791647  0.583294  0.559961  1
  Tb  Tb7  1  0.416706  0.208353  0.559961  1
  Tb  Tb8  1  0.789329  0.210671  0.940977  1
  Tb  Tb9  1  0.789329  0.578657  0.940977  1
  Tb  Tb10  1  0.421343  0.210671  0.940977  1
  Tb  Tb11  1  0.210671  0.789329  0.059023  1
  Tb  Tb12  1  0.210671  0.421343  0.059023  1
  Tb  Tb13  1  0.578657  0.789329  0.059023  1
  Tb  Tb14  1  0.541710  0.458290  0.252126  1
  Tb  Tb15  1  0.541710  0.083419  0.252126  1
  Tb  Tb16  1  0.916581  0.458290  0.252126  1
  Tb  Tb17  1  0.458290  0.541710  0.747874  1
  Tb  Tb18  1  0.458290  0.916581  0.747874  1
  Tb  Tb19  1  0.083419  0.541710  0.747874  1
  Cd  Cd20  1  0.888523  0.111477  0.258621  1
  Cd  Cd21  1  0.888523  0.777047  0.258621  1
  Cd  Cd22  1  0.222953  0.111477  0.258621  1
  Cd  Cd23  1  0.111477  0.888523  0.741379  1
  Cd  Cd24  1  0.111477  0.222953  0.741379  1
  Cd  Cd25  1  0.777047  0.888523  0.741379  1
  Ru  Ru26  1  0.333333  0.666667  0.249910  1
  Ru  Ru27  1  0.666667  0.333333  0.750090  1
