# generated using pymatgen
data_Nb3Cu2SnC
_symmetry_space_group_name_H-M   'P 1'
_cell_length_a   8.41282424
_cell_length_b   8.41282473
_cell_length_c   8.41282400
_cell_angle_alpha   59.99999502
_cell_angle_beta   59.99999307
_cell_angle_gamma   59.99999052
_symmetry_Int_Tables_number   1
_chemical_formula_structural   Nb3Cu2SnC
_chemical_formula_sum   'Nb12 Cu8 Sn4 C4'
_cell_volume   421.02743116
_cell_formula_units_Z   4
loop_
 _symmetry_equiv_pos_site_id
 _symmetry_equiv_pos_as_xyz
  1  'x, y, z'
loop_
 _atom_site_type_symbol
 _atom_site_label
 _atom_site_symmetry_multiplicity
 _atom_site_fract_x
 _atom_site_fract_y
 _atom_site_fract_z
 _atom_site_occupancy
  Nb  Nb0  1  0.820317  0.179683  0.820317  1
  Nb  Nb1  1  0.070317  0.429683  0.429683  1
  Nb  Nb2  1  0.429683  0.070317  0.070317  1
  Nb  Nb3  1  0.070317  0.429683  0.070317  1
  Nb  Nb4  1  0.429683  0.429683  0.070317  1
  Nb  Nb5  1  0.070317  0.070317  0.429683  1
  Nb  Nb6  1  0.820317  0.820317  0.179683  1
  Nb  Nb7  1  0.179683  0.820317  0.820317  1
  Nb  Nb8  1  0.820317  0.179683  0.179683  1
  Nb  Nb9  1  0.179683  0.179683  0.820317  1
  Nb  Nb10  1  0.429683  0.070317  0.429683  1
  Nb  Nb11  1  0.179683  0.820317  0.179683  1
  Cu  Cu12  1  0.414318  0.414318  0.414318  1
  Cu  Cu13  1  0.492953  0.835682  0.835682  1
  Cu  Cu14  1  0.835682  0.492953  0.835682  1
  Cu  Cu15  1  0.835682  0.835682  0.492953  1
  Cu  Cu16  1  0.414318  0.757047  0.414318  1
  Cu  Cu17  1  0.414318  0.414318  0.757047  1
  Cu  Cu18  1  0.757047  0.414318  0.414318  1
  Cu  Cu19  1  0.835682  0.835682  0.835682  1
  Sn  Sn20  1  0.625000  0.625000  0.625000  1
  Sn  Sn21  1  0.125000  0.625000  0.625000  1
  Sn  Sn22  1  0.625000  0.125000  0.625000  1
  Sn  Sn23  1  0.625000  0.625000  0.125000  1
  C  C24  1  0.125000  0.125000  0.125000  1
  C  C25  1  0.625000  0.125000  0.125000  1
  C  C26  1  0.125000  0.625000  0.125000  1
  C  C27  1  0.125000  0.125000  0.625000  1
