# generated using pymatgen
data_Nd4ZrSc3Re(TcB8)3
_symmetry_space_group_name_H-M   'P 1'
_cell_length_a   3.64705600
_cell_length_b   9.08470115
_cell_length_c   11.53887000
_cell_angle_alpha   90.01028015
_cell_angle_beta   90.00000000
_cell_angle_gamma   90.00000000
_symmetry_Int_Tables_number   1
_chemical_formula_structural   Nd4ZrSc3Re(TcB8)3
_chemical_formula_sum   'Nd4 Zr1 Sc3 Re1 Tc3 B24'
_cell_volume   382.31060974
_cell_formula_units_Z   1
loop_
 _symmetry_equiv_pos_site_id
 _symmetry_equiv_pos_as_xyz
  1  'x, y, z'
loop_
 _atom_site_type_symbol
 _atom_site_label
 _atom_site_symmetry_multiplicity
 _atom_site_fract_x
 _atom_site_fract_y
 _atom_site_fract_z
 _atom_site_occupancy
  Nd  Nd0  1  0.000000  0.322085  0.415714  1
  Nd  Nd1  1  0.000000  0.677566  0.585346  1
  Nd  Nd2  1  0.000000  0.821499  0.084591  1
  Nd  Nd3  1  0.000000  0.178575  0.914488  1
  Zr  Zr4  1  0.000000  0.944087  0.369967  1
  Sc  Sc5  1  0.000000  0.056552  0.630318  1
  Sc  Sc6  1  0.000000  0.443999  0.130810  1
  Sc  Sc7  1  0.000000  0.555614  0.869199  1
  Re  Re8  1  0.000000  0.859083  0.816727  1
  Tc  Tc9  1  0.000000  0.642121  0.316479  1
  Tc  Tc10  1  0.000000  0.358338  0.683014  1
  Tc  Tc11  1  0.000000  0.140656  0.183607  1
  B  B12  1  0.500000  0.556165  0.429928  1
  B  B13  1  0.500000  0.443535  0.570198  1
  B  B14  1  0.500000  0.056411  0.069976  1
  B  B15  1  0.500000  0.943837  0.929947  1
  B  B16  1  0.500000  0.753850  0.415703  1
  B  B17  1  0.500000  0.245422  0.584644  1
  B  B18  1  0.500000  0.254903  0.084712  1
  B  B19  1  0.500000  0.744730  0.915675  1
  B  B20  1  0.500000  0.793267  0.264826  1
  B  B21  1  0.500000  0.205799  0.734651  1
  B  B22  1  0.500000  0.294735  0.234885  1
  B  B23  1  0.500000  0.705093  0.764987  1
  B  B24  1  0.500000  0.627764  0.183385  1
  B  B25  1  0.500000  0.372010  0.816382  1
  B  B26  1  0.500000  0.129044  0.316276  1
  B  B27  1  0.500000  0.872130  0.683571  1
  B  B28  1  0.500000  0.983599  0.214340  1
  B  B29  1  0.500000  0.017265  0.784819  1
  B  B30  1  0.500000  0.483221  0.285001  1
  B  B31  1  0.500000  0.516859  0.715117  1
  B  B32  1  0.500000  0.593640  0.025280  1
  B  B33  1  0.500000  0.406064  0.975067  1
  B  B34  1  0.500000  0.095582  0.474665  1
  B  B35  1  0.500000  0.904902  0.525708  1
