# generated using pymatgen
data_Dy2Er18Si15Te
_symmetry_space_group_name_H-M   'P 1'
_cell_length_a   7.43772130
_cell_length_b   7.60265015
_cell_length_c   14.49740400
_cell_angle_alpha   90.11298414
_cell_angle_beta   93.71694196
_cell_angle_gamma   90.04647676
_symmetry_Int_Tables_number   1
_chemical_formula_structural   Dy2Er18Si15Te
_chemical_formula_sum   'Dy2 Er18 Si15 Te1'
_cell_volume   818.04954601
_cell_formula_units_Z   1
loop_
 _symmetry_equiv_pos_site_id
 _symmetry_equiv_pos_as_xyz
  1  'x, y, z'
loop_
 _atom_site_type_symbol
 _atom_site_label
 _atom_site_symmetry_multiplicity
 _atom_site_fract_x
 _atom_site_fract_y
 _atom_site_fract_z
 _atom_site_occupancy
  Dy  Dy0  1  0.006025  0.813321  0.602634  1
  Dy  Dy1  1  0.494712  0.673975  0.600867  1
  Er  Er2  1  0.322977  0.824016  0.122863  1
  Er  Er3  1  0.823279  0.676926  0.122600  1
  Er  Er4  1  0.833142  0.506444  0.746358  1
  Er  Er5  1  0.472715  0.315680  0.101413  1
  Er  Er6  1  0.027484  0.815053  0.898247  1
  Er  Er7  1  0.498419  0.326903  0.399734  1
  Er  Er8  1  0.664067  0.006112  0.246252  1
  Er  Er9  1  0.527780  0.685630  0.898772  1
  Er  Er10  1  0.675967  0.176777  0.877878  1
  Er  Er11  1  0.146233  0.333000  0.621139  1
  Er  Er12  1  0.176322  0.323390  0.878286  1
  Er  Er13  1  0.857963  0.652814  0.376027  1
  Er  Er14  1  0.341762  0.830706  0.378029  1
  Er  Er15  1  0.333886  0.993871  0.745621  1
  Er  Er16  1  0.642043  0.176231  0.626617  1
  Er  Er17  1  0.168764  0.493111  0.252098  1
  Er  Er18  1  0.973229  0.184706  0.101045  1
  Er  Er19  1  0.016494  0.188927  0.397409  1
  Si  Si20  1  0.216769  0.629411  0.753128  1
  Si  Si21  1  0.292772  0.036208  0.541701  1
  Si  Si22  1  0.037023  0.892534  0.249439  1
  Si  Si23  1  0.716464  0.870723  0.751671  1
  Si  Si24  1  0.286336  0.131269  0.249108  1
  Si  Si25  1  0.798290  0.463594  0.541281  1
  Si  Si26  1  0.458598  0.392153  0.753846  1
  Si  Si27  1  0.200862  0.533202  0.457444  1
  Si  Si28  1  0.144868  0.528702  0.042655  1
  Si  Si29  1  0.959757  0.108479  0.751892  1
  Si  Si30  1  0.785289  0.366043  0.248013  1
  Si  Si31  1  0.353569  0.028805  0.958209  1
  Si  Si32  1  0.853951  0.472405  0.957572  1
  Si  Si33  1  0.644758  0.972482  0.042058  1
  Si  Si34  1  0.540069  0.610306  0.248741  1
  Te  Te35  1  0.707360  0.966087  0.459354  1
