# generated using pymatgen
data_Ti3SnCl16
_symmetry_space_group_name_H-M   'P 1'
_cell_length_a   7.22770803
_cell_length_b   10.83227387
_cell_length_c   10.84317811
_cell_angle_alpha   77.96053891
_cell_angle_beta   89.99417862
_cell_angle_gamma   90.00721757
_symmetry_Int_Tables_number   1
_chemical_formula_structural   Ti3SnCl16
_chemical_formula_sum   'Ti3 Sn1 Cl16'
_cell_volume   830.26651876
_cell_formula_units_Z   1
loop_
 _symmetry_equiv_pos_site_id
 _symmetry_equiv_pos_as_xyz
  1  'x, y, z'
loop_
 _atom_site_type_symbol
 _atom_site_label
 _atom_site_symmetry_multiplicity
 _atom_site_fract_x
 _atom_site_fract_y
 _atom_site_fract_z
 _atom_site_occupancy
  Ti  Ti0  1  0.076442  0.748781  0.133768  1
  Ti  Ti1  1  0.423461  0.748818  0.633699  1
  Ti  Ti2  1  0.923479  0.251165  0.866245  1
  Sn  Sn3  1  0.576718  0.251246  0.366302  1
  Cl  Cl4  1  0.575255  0.423475  0.198930  1
  Cl  Cl5  1  0.075343  0.586277  0.291619  1
  Cl  Cl6  1  0.424641  0.586243  0.791617  1
  Cl  Cl7  1  0.924685  0.413772  0.708385  1
  Cl  Cl8  1  0.638469  0.195690  0.917842  1
  Cl  Cl9  1  0.138464  0.804274  0.582176  1
  Cl  Cl10  1  0.361558  0.804300  0.082167  1
  Cl  Cl11  1  0.878529  0.192338  0.420945  1
  Cl  Cl12  1  0.067892  0.094297  0.810195  1
  Cl  Cl13  1  0.567921  0.905741  0.689836  1
  Cl  Cl14  1  0.932131  0.905693  0.189824  1
  Cl  Cl15  1  0.423513  0.084950  0.306865  1
  Cl  Cl16  1  0.064562  0.301360  0.027125  1
  Cl  Cl17  1  0.564575  0.698635  0.472850  1
  Cl  Cl18  1  0.935396  0.698625  0.972834  1
  Cl  Cl19  1  0.426967  0.304320  0.536777  1
