# generated using pymatgen
data_Tb9Y2HoOs4
_symmetry_space_group_name_H-M   'P 1'
_cell_length_a   6.34540762
_cell_length_b   7.40116462
_cell_length_c   9.14263642
_cell_angle_alpha   90.00067620
_cell_angle_beta   90.11291234
_cell_angle_gamma   90.04687230
_symmetry_Int_Tables_number   1
_chemical_formula_structural   Tb9Y2HoOs4
_chemical_formula_sum   'Tb9 Y2 Ho1 Os4'
_cell_volume   429.36837231
_cell_formula_units_Z   1
loop_
 _symmetry_equiv_pos_site_id
 _symmetry_equiv_pos_as_xyz
  1  'x, y, z'
loop_
 _atom_site_type_symbol
 _atom_site_label
 _atom_site_symmetry_multiplicity
 _atom_site_fract_x
 _atom_site_fract_y
 _atom_site_fract_z
 _atom_site_occupancy
  Tb  Tb0  1  0.330658  0.675658  0.062943  1
  Tb  Tb1  1  0.168808  0.175831  0.436427  1
  Tb  Tb2  1  0.668580  0.324205  0.563087  1
  Tb  Tb3  1  0.831903  0.824823  0.937337  1
  Tb  Tb4  1  0.668542  0.324023  0.937314  1
  Tb  Tb5  1  0.831582  0.824283  0.563013  1
  Tb  Tb6  1  0.330856  0.675597  0.437001  1
  Tb  Tb7  1  0.130939  0.460939  0.750338  1
  Tb  Tb8  1  0.368865  0.961440  0.750403  1
  Y  Y9  1  0.869709  0.538433  0.249769  1
  Y  Y10  1  0.630337  0.038970  0.249566  1
  Ho  Ho11  1  0.168838  0.175283  0.063095  1
  Os  Os12  1  0.042977  0.884978  0.249579  1
  Os  Os13  1  0.456726  0.383829  0.249474  1
  Os  Os14  1  0.960119  0.116019  0.750792  1
  Os  Os15  1  0.540559  0.615693  0.749862  1
