# generated using pymatgen
data_Ho4B16Ir3Os
_symmetry_space_group_name_H-M   'P 1'
_cell_length_a   3.56527700
_cell_length_b   5.96328768
_cell_length_c   11.56807630
_cell_angle_alpha   89.94556082
_cell_angle_beta   90.00000000
_cell_angle_gamma   90.00000000
_symmetry_Int_Tables_number   1
_chemical_formula_structural   Ho4B16Ir3Os
_chemical_formula_sum   'Ho4 B16 Ir3 Os1'
_cell_volume   245.94612624
_cell_formula_units_Z   1
loop_
 _symmetry_equiv_pos_site_id
 _symmetry_equiv_pos_as_xyz
  1  'x, y, z'
loop_
 _atom_site_type_symbol
 _atom_site_label
 _atom_site_symmetry_multiplicity
 _atom_site_fract_x
 _atom_site_fract_y
 _atom_site_fract_z
 _atom_site_occupancy
  Ho  Ho0  1  0.000000  0.631942  0.352619  1
  Ho  Ho1  1  0.000000  0.370188  0.649006  1
  Ho  Ho2  1  0.000000  0.130467  0.148385  1
  Ho  Ho3  1  0.000000  0.868645  0.849381  1
  B  B4  1  0.500000  0.791696  0.187462  1
  B  B5  1  0.500000  0.208925  0.812346  1
  B  B6  1  0.500000  0.291646  0.312299  1
  B  B7  1  0.500000  0.709994  0.686461  1
  B  B8  1  0.500000  0.863831  0.030471  1
  B  B9  1  0.500000  0.136183  0.970015  1
  B  B10  1  0.500000  0.363323  0.470612  1
  B  B11  1  0.500000  0.635320  0.530923  1
  B  B12  1  0.500000  0.885850  0.454732  1
  B  B13  1  0.500000  0.111225  0.547962  1
  B  B14  1  0.500000  0.387512  0.046857  1
  B  B15  1  0.500000  0.612699  0.952899  1
  B  B16  1  0.500000  0.971188  0.308551  1
  B  B17  1  0.500000  0.025269  0.692394  1
  B  B18  1  0.500000  0.474060  0.192626  1
  B  B19  1  0.500000  0.525670  0.807583  1
  Ir  Ir20  1  0.000000  0.643584  0.097013  1
  Ir  Ir21  1  0.000000  0.355871  0.903243  1
  Ir  Ir22  1  0.000000  0.145411  0.402129  1
  Os  Os23  1  0.000000  0.859502  0.594030  1
