# generated using pymatgen
data_SrPr2Ho(Si5Pt3)2
_symmetry_space_group_name_H-M   'P 1'
_cell_length_a   8.26578777
_cell_length_b   8.29207411
_cell_length_c   8.29207336
_cell_angle_alpha   136.79096779
_cell_angle_beta   105.14945925
_cell_angle_gamma   90.61099359
_symmetry_Int_Tables_number   1
_chemical_formula_structural   SrPr2Ho(Si5Pt3)2
_chemical_formula_sum   'Sr1 Pr2 Ho1 Si10 Pt6'
_cell_volume   357.78019306
_cell_formula_units_Z   1
loop_
 _symmetry_equiv_pos_site_id
 _symmetry_equiv_pos_as_xyz
  1  'x, y, z'
loop_
 _atom_site_type_symbol
 _atom_site_label
 _atom_site_symmetry_multiplicity
 _atom_site_fract_x
 _atom_site_fract_y
 _atom_site_fract_z
 _atom_site_occupancy
  Sr  Sr0  1  0.863137  0.628251  0.234886  1
  Pr  Pr1  1  0.395004  0.127920  0.267084  1
  Pr  Pr2  1  0.605441  0.872228  0.733213  1
  Ho  Ho3  1  0.140145  0.371837  0.768307  1
  Si  Si4  1  0.498141  0.748405  0.248793  1
  Si  Si5  1  0.498141  0.249348  0.749738  1
  Si  Si6  1  0.229299  0.981990  0.749925  1
  Si  Si7  1  0.771947  0.521790  0.750954  1
  Si  Si8  1  0.771947  0.020994  0.250158  1
  Si  Si9  1  0.229299  0.479375  0.247310  1
  Si  Si10  1  0.036456  0.887642  0.148813  1
  Si  Si11  1  0.964731  0.114209  0.850523  1
  Si  Si12  1  0.737003  0.386138  0.350865  1
  Si  Si13  1  0.259656  0.609948  0.649708  1
  Pt  Pt14  1  0.001337  0.749066  0.751172  1
  Pt  Pt15  1  0.001337  0.250166  0.252271  1
  Pt  Pt16  1  0.251307  0.863811  0.387497  1
  Pt  Pt17  1  0.748698  0.138216  0.610481  1
  Pt  Pt18  1  0.474120  0.363977  0.110143  1
  Pt  Pt19  1  0.522847  0.634689  0.888159  1
