# generated using pymatgen
data_KNb4VO13
_symmetry_space_group_name_H-M   'P 1'
_cell_length_a   7.49641283
_cell_length_b   7.49641321
_cell_length_c   10.26680700
_cell_angle_alpha   90.00000000
_cell_angle_beta   90.00000000
_cell_angle_gamma   91.14149115
_symmetry_Int_Tables_number   1
_chemical_formula_structural   KNb4VO13
_chemical_formula_sum   'K2 Nb8 V2 O26'
_cell_volume   576.84112567
_cell_formula_units_Z   2
loop_
 _symmetry_equiv_pos_site_id
 _symmetry_equiv_pos_as_xyz
  1  'x, y, z'
loop_
 _atom_site_type_symbol
 _atom_site_label
 _atom_site_symmetry_multiplicity
 _atom_site_fract_x
 _atom_site_fract_y
 _atom_site_fract_z
 _atom_site_occupancy
  K  K0  1  0.441654  0.441654  0.439991  1
  K  K1  1  0.558346  0.558346  0.939991  1
  Nb  Nb2  1  0.557080  0.896643  0.252600  1
  Nb  Nb3  1  0.103357  0.442920  0.752600  1
  Nb  Nb4  1  0.442920  0.103357  0.752600  1
  Nb  Nb5  1  0.896643  0.557080  0.252600  1
  Nb  Nb6  1  0.174516  0.830514  0.501760  1
  Nb  Nb7  1  0.169486  0.825484  0.001760  1
  Nb  Nb8  1  0.830514  0.174516  0.501760  1
  Nb  Nb9  1  0.825484  0.169486  0.001760  1
  V  V10  1  0.164270  0.164270  0.248306  1
  V  V11  1  0.835730  0.835730  0.748306  1
  O  O12  1  0.658863  0.658863  0.250379  1
  O  O13  1  0.341137  0.341137  0.750379  1
  O  O14  1  0.389826  0.129667  0.253488  1
  O  O15  1  0.870333  0.610174  0.753488  1
  O  O16  1  0.610174  0.870333  0.753488  1
  O  O17  1  0.129667  0.389826  0.253488  1
  O  O18  1  0.798844  0.360630  0.384574  1
  O  O19  1  0.638226  0.198781  0.611771  1
  O  O20  1  0.801219  0.361774  0.111771  1
  O  O21  1  0.639370  0.201156  0.884574  1
  O  O22  1  0.198781  0.638226  0.611771  1
  O  O23  1  0.360630  0.798844  0.384574  1
  O  O24  1  0.201156  0.639370  0.884574  1
  O  O25  1  0.361774  0.801219  0.111771  1
  O  O26  1  0.069487  0.069487  0.391285  1
  O  O27  1  0.931417  0.931417  0.605462  1
  O  O28  1  0.068583  0.068583  0.105462  1
  O  O29  1  0.930513  0.930513  0.891285  1
  O  O30  1  0.694474  0.993493  0.387308  1
  O  O31  1  0.009225  0.307754  0.610985  1
  O  O32  1  0.692246  0.990775  0.110985  1
  O  O33  1  0.006507  0.305526  0.887308  1
  O  O34  1  0.307754  0.009225  0.610985  1
  O  O35  1  0.993493  0.694474  0.387308  1
  O  O36  1  0.305526  0.006507  0.887308  1
  O  O37  1  0.990775  0.692246  0.110985  1
