# generated using pymatgen
data_Y2ErSn3Ir2Pd
_symmetry_space_group_name_H-M   'P 1'
_cell_length_a   7.57721724
_cell_length_b   7.59084316
_cell_length_c   3.89337600
_cell_angle_alpha   90.00000000
_cell_angle_beta   90.00000000
_cell_angle_gamma   119.96919170
_symmetry_Int_Tables_number   1
_chemical_formula_structural   Y2ErSn3Ir2Pd
_chemical_formula_sum   'Y2 Er1 Sn3 Ir2 Pd1'
_cell_volume   193.99541997
_cell_formula_units_Z   1
loop_
 _symmetry_equiv_pos_site_id
 _symmetry_equiv_pos_as_xyz
  1  'x, y, z'
loop_
 _atom_site_type_symbol
 _atom_site_label
 _atom_site_symmetry_multiplicity
 _atom_site_fract_x
 _atom_site_fract_y
 _atom_site_fract_z
 _atom_site_occupancy
  Y  Y0  1  0.396191  0.408590  0.500000  1
  Y  Y1  1  0.591376  0.987761  0.500000  1
  Er  Er2  1  0.013422  0.604472  0.500000  1
  Sn  Sn3  1  0.740893  0.737987  0.000000  1
  Sn  Sn4  1  0.261418  0.001681  0.000000  1
  Sn  Sn5  1  0.997646  0.259945  0.000000  1
  Ir  Ir6  1  0.330535  0.666152  0.000000  1
  Ir  Ir7  1  0.000073  0.998613  0.500000  1
  Pd  Pd8  1  0.668445  0.334799  0.000000  1
