# generated using pymatgen
data_Er8GePt24
_symmetry_space_group_name_H-M   'P 1'
_cell_length_a   8.33547800
_cell_length_b   8.33547800
_cell_length_c   8.33547800
_cell_angle_alpha   90.00000000
_cell_angle_beta   90.00000000
_cell_angle_gamma   90.00000000
_symmetry_Int_Tables_number   1
_chemical_formula_structural   Er8GePt24
_chemical_formula_sum   'Er8 Ge1 Pt24'
_cell_volume   579.15062426
_cell_formula_units_Z   1
loop_
 _symmetry_equiv_pos_site_id
 _symmetry_equiv_pos_as_xyz
  1  'x, y, z'
loop_
 _atom_site_type_symbol
 _atom_site_label
 _atom_site_symmetry_multiplicity
 _atom_site_fract_x
 _atom_site_fract_y
 _atom_site_fract_z
 _atom_site_occupancy
  Er  Er0  1  0.252966  0.252966  0.252966  1
  Er  Er1  1  0.747034  0.747034  0.747034  1
  Er  Er2  1  0.747034  0.747034  0.252966  1
  Er  Er3  1  0.747034  0.252966  0.747034  1
  Er  Er4  1  0.252966  0.252966  0.747034  1
  Er  Er5  1  0.252966  0.747034  0.252966  1
  Er  Er6  1  0.252966  0.747034  0.747034  1
  Er  Er7  1  0.747034  0.252966  0.252966  1
  Ge  Ge8  1  0.000000  0.000000  0.000000  1
  Pt  Pt9  1  0.260349  0.500000  0.000000  1
  Pt  Pt10  1  0.739651  0.500000  0.000000  1
  Pt  Pt11  1  0.000000  0.260349  0.500000  1
  Pt  Pt12  1  0.500000  0.260349  0.000000  1
  Pt  Pt13  1  0.000000  0.739651  0.500000  1
  Pt  Pt14  1  0.500000  0.739651  0.000000  1
  Pt  Pt15  1  0.500000  0.000000  0.260349  1
  Pt  Pt16  1  0.260349  0.000000  0.500000  1
  Pt  Pt17  1  0.500000  0.000000  0.739651  1
  Pt  Pt18  1  0.739651  0.000000  0.500000  1
  Pt  Pt19  1  0.000000  0.500000  0.260349  1
  Pt  Pt20  1  0.000000  0.500000  0.739651  1
  Pt  Pt21  1  0.253055  0.500000  0.500000  1
  Pt  Pt22  1  0.746945  0.500000  0.500000  1
  Pt  Pt23  1  0.500000  0.253055  0.500000  1
  Pt  Pt24  1  0.500000  0.746945  0.500000  1
  Pt  Pt25  1  0.500000  0.500000  0.253055  1
  Pt  Pt26  1  0.500000  0.500000  0.746945  1
  Pt  Pt27  1  0.290826  0.000000  0.000000  1
  Pt  Pt28  1  0.709174  0.000000  0.000000  1
  Pt  Pt29  1  0.000000  0.290826  0.000000  1
  Pt  Pt30  1  0.000000  0.709174  0.000000  1
  Pt  Pt31  1  0.000000  0.000000  0.290826  1
  Pt  Pt32  1  0.000000  0.000000  0.709174  1
