# generated using pymatgen
data_Mg(TaSe2)4
_symmetry_space_group_name_H-M   'P 1'
_cell_length_a   6.95882900
_cell_length_b   6.95883001
_cell_length_c   13.68298000
_cell_angle_alpha   90.00000000
_cell_angle_beta   90.00000000
_cell_angle_gamma   120.00000944
_symmetry_Int_Tables_number   1
_chemical_formula_structural   Mg(TaSe2)4
_chemical_formula_sum   'Mg2 Ta8 Se16'
_cell_volume   573.83056241
_cell_formula_units_Z   2
loop_
 _symmetry_equiv_pos_site_id
 _symmetry_equiv_pos_as_xyz
  1  'x, y, z'
loop_
 _atom_site_type_symbol
 _atom_site_label
 _atom_site_symmetry_multiplicity
 _atom_site_fract_x
 _atom_site_fract_y
 _atom_site_fract_z
 _atom_site_occupancy
  Mg  Mg0  1  0.000000  0.000000  0.500000  1
  Mg  Mg1  1  0.000000  0.000000  0.000000  1
  Ta  Ta2  1  0.509923  0.490077  0.750000  1
  Ta  Ta3  1  0.019845  0.509923  0.250000  1
  Ta  Ta4  1  0.490077  0.980155  0.250000  1
  Ta  Ta5  1  0.509923  0.019845  0.750000  1
  Ta  Ta6  1  0.980155  0.490077  0.750000  1
  Ta  Ta7  1  0.490077  0.509923  0.250000  1
  Ta  Ta8  1  0.000000  0.000000  0.750000  1
  Ta  Ta9  1  0.000000  0.000000  0.250000  1
  Se  Se10  1  0.830528  0.169472  0.371031  1
  Se  Se11  1  0.830528  0.661056  0.371031  1
  Se  Se12  1  0.338944  0.169472  0.371031  1
  Se  Se13  1  0.661056  0.830528  0.871031  1
  Se  Se14  1  0.169472  0.338944  0.628969  1
  Se  Se15  1  0.169472  0.830528  0.871031  1
  Se  Se16  1  0.169472  0.338944  0.871031  1
  Se  Se17  1  0.830528  0.169472  0.128969  1
  Se  Se18  1  0.338944  0.169472  0.128969  1
  Se  Se19  1  0.661056  0.830528  0.628969  1
  Se  Se20  1  0.333333  0.666667  0.121208  1
  Se  Se21  1  0.666667  0.333333  0.621208  1
  Se  Se22  1  0.666667  0.333333  0.878792  1
  Se  Se23  1  0.333333  0.666667  0.378792  1
  Se  Se24  1  0.830528  0.661056  0.128969  1
  Se  Se25  1  0.169472  0.830528  0.628969  1
