# generated using pymatgen
data_La5NdOsRuI6
_symmetry_space_group_name_H-M   'P 1'
_cell_length_a   4.39485400
_cell_length_b   9.56847089
_cell_length_c   12.59600775
_cell_angle_alpha   87.06149095
_cell_angle_beta   90.00000000
_cell_angle_gamma   90.00000000
_symmetry_Int_Tables_number   1
_chemical_formula_structural   La5NdOsRuI6
_chemical_formula_sum   'La5 Nd1 Os1 Ru1 I6'
_cell_volume   528.99125647
_cell_formula_units_Z   1
loop_
 _symmetry_equiv_pos_site_id
 _symmetry_equiv_pos_as_xyz
  1  'x, y, z'
loop_
 _atom_site_type_symbol
 _atom_site_label
 _atom_site_symmetry_multiplicity
 _atom_site_fract_x
 _atom_site_fract_y
 _atom_site_fract_z
 _atom_site_occupancy
  La  La0  1  0.250000  0.314972  0.880326  1
  La  La1  1  0.750000  0.117319  0.666886  1
  La  La2  1  0.250000  0.881527  0.328657  1
  La  La3  1  0.750000  0.096551  0.103171  1
  La  La4  1  0.250000  0.903646  0.895861  1
  Nd  Nd5  1  0.750000  0.684686  0.120873  1
  Os  Os6  1  0.750000  0.114316  0.874324  1
  Ru  Ru7  1  0.250000  0.885642  0.130158  1
  I  I8  1  0.750000  0.130682  0.379639  1
  I  I9  1  0.250000  0.868605  0.619827  1
  I  I10  1  0.250000  0.367114  0.619552  1
  I  I11  1  0.750000  0.631270  0.376468  1
  I  I12  1  0.750000  0.607422  0.868134  1
  I  I13  1  0.250000  0.396248  0.136126  1
