# generated using pymatgen
data_Ce2Th6AlS17
_symmetry_space_group_name_H-M   'P 1'
_cell_length_a   7.99451309
_cell_length_b   7.99451265
_cell_length_c   10.67434700
_cell_angle_alpha   80.23766478
_cell_angle_beta   80.23765805
_cell_angle_gamma   65.15118212
_symmetry_Int_Tables_number   1
_chemical_formula_structural   Ce2Th6AlS17
_chemical_formula_sum   'Ce2 Th6 Al1 S17'
_cell_volume   606.39934393
_cell_formula_units_Z   1
loop_
 _symmetry_equiv_pos_site_id
 _symmetry_equiv_pos_as_xyz
  1  'x, y, z'
loop_
 _atom_site_type_symbol
 _atom_site_label
 _atom_site_symmetry_multiplicity
 _atom_site_fract_x
 _atom_site_fract_y
 _atom_site_fract_z
 _atom_site_occupancy
  Ce  Ce0  1  0.815693  0.304979  0.295830  1
  Ce  Ce1  1  0.304979  0.815693  0.295830  1
  Th  Th2  1  0.184868  0.695022  0.702527  1
  Th  Th3  1  0.695022  0.184868  0.702527  1
  Th  Th4  1  0.204841  0.204841  0.544697  1
  Th  Th5  1  0.795123  0.795123  0.450822  1
  Th  Th6  1  0.680291  0.680291  0.978583  1
  Th  Th7  1  0.318149  0.318149  0.026050  1
  Al  Al8  1  0.000715  0.000715  0.001829  1
  S  S9  1  0.822015  0.430761  0.533832  1
  S  S10  1  0.430761  0.822015  0.533832  1
  S  S11  1  0.176993  0.569620  0.467719  1
  S  S12  1  0.569620  0.176993  0.467719  1
  S  S13  1  0.945656  0.318435  0.027707  1
  S  S14  1  0.318435  0.945656  0.027707  1
  S  S15  1  0.055101  0.681578  0.971908  1
  S  S16  1  0.681578  0.055101  0.971908  1
  S  S17  1  0.211765  0.211765  0.280220  1
  S  S18  1  0.788361  0.788361  0.720090  1
  S  S19  1  0.054518  0.054518  0.777881  1
  S  S20  1  0.946138  0.946138  0.223195  1
  S  S21  1  0.300222  0.300222  0.757836  1
  S  S22  1  0.699092  0.699092  0.241421  1
  S  S23  1  0.519039  0.519039  0.831023  1
  S  S24  1  0.481741  0.481741  0.165632  1
  S  S25  1  0.999283  0.999283  0.501677  1
