# generated using pymatgen
data_Hf3Th5(P3Pd4)4
_symmetry_space_group_name_H-M   'P 1'
_cell_length_a   12.95522500
_cell_length_b   12.95522615
_cell_length_c   4.05341600
_cell_angle_alpha   90.00000000
_cell_angle_beta   90.00000000
_cell_angle_gamma   119.99999962
_symmetry_Int_Tables_number   1
_chemical_formula_structural   Hf3Th5(P3Pd4)4
_chemical_formula_sum   'Hf3 Th5 P12 Pd16'
_cell_volume   589.17155262
_cell_formula_units_Z   1
loop_
 _symmetry_equiv_pos_site_id
 _symmetry_equiv_pos_as_xyz
  1  'x, y, z'
loop_
 _atom_site_type_symbol
 _atom_site_label
 _atom_site_symmetry_multiplicity
 _atom_site_fract_x
 _atom_site_fract_y
 _atom_site_fract_z
 _atom_site_occupancy
  Hf  Hf0  1  0.444044  0.000000  0.000000  1
  Hf  Hf1  1  0.000000  0.444044  0.000000  1
  Hf  Hf2  1  0.555956  0.555956  0.000000  1
  Th  Th3  1  0.333333  0.666667  0.000000  1
  Th  Th4  1  0.666667  0.333333  0.000000  1
  Th  Th5  1  0.812806  0.000000  0.500000  1
  Th  Th6  1  0.000000  0.812806  0.500000  1
  Th  Th7  1  0.187194  0.187194  0.500000  1
  P  P8  1  0.177436  0.000000  0.000000  1
  P  P9  1  0.000000  0.177436  0.000000  1
  P  P10  1  0.822564  0.822564  0.000000  1
  P  P11  1  0.164324  0.483517  0.500000  1
  P  P12  1  0.516483  0.680806  0.500000  1
  P  P13  1  0.319194  0.835676  0.500000  1
  P  P14  1  0.680806  0.516483  0.500000  1
  P  P15  1  0.835676  0.319194  0.500000  1
  P  P16  1  0.483517  0.164324  0.500000  1
  P  P17  1  0.638934  0.000000  0.000000  1
  P  P18  1  0.000000  0.638934  0.000000  1
  P  P19  1  0.361066  0.361066  0.000000  1
  Pd  Pd20  1  0.357262  0.482117  0.500000  1
  Pd  Pd21  1  0.517883  0.875145  0.500000  1
  Pd  Pd22  1  0.124855  0.642738  0.500000  1
  Pd  Pd23  1  0.875145  0.517883  0.500000  1
  Pd  Pd24  1  0.642738  0.124855  0.500000  1
  Pd  Pd25  1  0.482117  0.357262  0.500000  1
  Pd  Pd26  1  0.181835  0.376575  0.000000  1
  Pd  Pd27  1  0.623425  0.805261  0.000000  1
  Pd  Pd28  1  0.194739  0.818165  0.000000  1
  Pd  Pd29  1  0.805261  0.623425  0.000000  1
  Pd  Pd30  1  0.818165  0.194739  0.000000  1
  Pd  Pd31  1  0.376575  0.181835  0.000000  1
  Pd  Pd32  1  0.277063  0.000000  0.500000  1
  Pd  Pd33  1  0.000000  0.277063  0.500000  1
  Pd  Pd34  1  0.722937  0.722937  0.500000  1
  Pd  Pd35  1  0.000000  0.000000  0.000000  1
