# generated using pymatgen
data_Ca3DyReTc3B16
_symmetry_space_group_name_H-M   'P 1'
_cell_length_a   3.57451400
_cell_length_b   5.99934643
_cell_length_c   11.60020615
_cell_angle_alpha   89.93918627
_cell_angle_beta   90.00000000
_cell_angle_gamma   90.00000000
_symmetry_Int_Tables_number   1
_chemical_formula_structural   Ca3DyReTc3B16
_chemical_formula_sum   'Ca3 Dy1 Re1 Tc3 B16'
_cell_volume   248.76335522
_cell_formula_units_Z   1
loop_
 _symmetry_equiv_pos_site_id
 _symmetry_equiv_pos_as_xyz
  1  'x, y, z'
loop_
 _atom_site_type_symbol
 _atom_site_label
 _atom_site_symmetry_multiplicity
 _atom_site_fract_x
 _atom_site_fract_y
 _atom_site_fract_z
 _atom_site_occupancy
  Ca  Ca0  1  0.000000  0.627332  0.349401  1
  Ca  Ca1  1  0.000000  0.372392  0.649691  1
  Ca  Ca2  1  0.000000  0.127695  0.151387  1
  Dy  Dy3  1  0.000000  0.871839  0.849726  1
  Re  Re4  1  0.000000  0.870325  0.584051  1
  Tc  Tc5  1  0.000000  0.631175  0.082368  1
  Tc  Tc6  1  0.000000  0.370782  0.915646  1
  Tc  Tc7  1  0.000000  0.130263  0.417160  1
  B  B8  1  0.500000  0.784150  0.184963  1
  B  B9  1  0.500000  0.214874  0.815673  1
  B  B10  1  0.500000  0.284996  0.315319  1
  B  B11  1  0.500000  0.714128  0.685151  1
  B  B12  1  0.500000  0.864248  0.031714  1
  B  B13  1  0.500000  0.135590  0.968063  1
  B  B14  1  0.500000  0.364867  0.467655  1
  B  B15  1  0.500000  0.634406  0.531833  1
  B  B16  1  0.500000  0.886230  0.452594  1
  B  B17  1  0.500000  0.114150  0.547494  1
  B  B18  1  0.500000  0.386114  0.047394  1
  B  B19  1  0.500000  0.612230  0.952511  1
  B  B20  1  0.500000  0.977652  0.307397  1
  B  B21  1  0.500000  0.023577  0.692814  1
  B  B22  1  0.500000  0.477592  0.192315  1
  B  B23  1  0.500000  0.523394  0.807679  1
