# generated using pymatgen
data_Ho3(ThCo)2
_symmetry_space_group_name_H-M   'P 1'
_cell_length_a   8.76031233
_cell_length_b   8.76031198
_cell_length_c   6.90066133
_cell_angle_alpha   84.98610708
_cell_angle_beta   84.98611021
_cell_angle_gamma   41.56686540
_symmetry_Int_Tables_number   1
_chemical_formula_structural   Ho3(ThCo)2
_chemical_formula_sum   'Ho6 Th4 Co4'
_cell_volume   349.83298294
_cell_formula_units_Z   2
loop_
 _symmetry_equiv_pos_site_id
 _symmetry_equiv_pos_as_xyz
  1  'x, y, z'
loop_
 _atom_site_type_symbol
 _atom_site_label
 _atom_site_symmetry_multiplicity
 _atom_site_fract_x
 _atom_site_fract_y
 _atom_site_fract_z
 _atom_site_occupancy
  Ho  Ho0  1  0.358525  0.214851  0.822579  1
  Ho  Ho1  1  0.785149  0.641475  0.677421  1
  Ho  Ho2  1  0.641475  0.785149  0.177421  1
  Ho  Ho3  1  0.214851  0.358525  0.322579  1
  Ho  Ho4  1  0.577310  0.422690  0.750000  1
  Ho  Ho5  1  0.422690  0.577310  0.250000  1
  Th  Th6  1  0.002767  0.806017  0.909463  1
  Th  Th7  1  0.193983  0.997233  0.590537  1
  Th  Th8  1  0.997233  0.193983  0.090537  1
  Th  Th9  1  0.806017  0.002767  0.409463  1
  Co  Co10  1  0.166727  0.611297  0.589836  1
  Co  Co11  1  0.388703  0.833273  0.910164  1
  Co  Co12  1  0.833273  0.388703  0.410164  1
  Co  Co13  1  0.611297  0.166727  0.089836  1
