# generated using pymatgen
data_Dy4Lu6IrRu3
_symmetry_space_group_name_H-M   'P 1'
_cell_length_a   6.26697945
_cell_length_b   7.26683941
_cell_length_c   8.34243648
_cell_angle_alpha   96.97985360
_cell_angle_beta   112.18427779
_cell_angle_gamma   90.07450145
_symmetry_Int_Tables_number   1
_chemical_formula_structural   Dy4Lu6IrRu3
_chemical_formula_sum   'Dy4 Lu6 Ir1 Ru3'
_cell_volume   348.73217936
_cell_formula_units_Z   1
loop_
 _symmetry_equiv_pos_site_id
 _symmetry_equiv_pos_as_xyz
  1  'x, y, z'
loop_
 _atom_site_type_symbol
 _atom_site_label
 _atom_site_symmetry_multiplicity
 _atom_site_fract_x
 _atom_site_fract_y
 _atom_site_fract_z
 _atom_site_occupancy
  Dy  Dy0  1  0.524494  0.083273  0.812463  1
  Dy  Dy1  1  0.475843  0.919145  0.186390  1
  Dy  Dy2  1  0.712972  0.416234  0.186051  1
  Dy  Dy3  1  0.287726  0.583414  0.811064  1
  Lu  Lu4  1  0.294220  0.315027  0.436079  1
  Lu  Lu5  1  0.705420  0.682922  0.565482  1
  Lu  Lu6  1  0.858894  0.183365  0.565021  1
  Lu  Lu7  1  0.139832  0.818040  0.435726  1
  Lu  Lu8  1  0.079724  0.248836  0.998823  1
  Lu  Lu9  1  0.920312  0.750352  0.000262  1
  Ir  Ir10  1  0.318580  0.575922  0.222807  1
  Ru  Ru11  1  0.678840  0.424409  0.779282  1
  Ru  Ru12  1  0.101593  0.922962  0.779587  1
  Ru  Ru13  1  0.901550  0.076095  0.220964  1
