# generated using pymatgen
data_Pr2Y(CuSn)4
_symmetry_space_group_name_H-M   'P 1'
_cell_length_a   8.58467149
_cell_length_b   8.58467228
_cell_length_c   8.58467194
_cell_angle_alpha   148.94024288
_cell_angle_beta   132.36358951
_cell_angle_gamma   57.96327882
_symmetry_Int_Tables_number   1
_chemical_formula_structural   Pr2Y(CuSn)4
_chemical_formula_sum   'Pr2 Y1 Cu4 Sn4'
_cell_volume   239.35755481
_cell_formula_units_Z   1
loop_
 _symmetry_equiv_pos_site_id
 _symmetry_equiv_pos_as_xyz
  1  'x, y, z'
loop_
 _atom_site_type_symbol
 _atom_site_label
 _atom_site_symmetry_multiplicity
 _atom_site_fract_x
 _atom_site_fract_y
 _atom_site_fract_z
 _atom_site_occupancy
  Pr  Pr0  1  0.132868  0.132868  0.000000  1
  Pr  Pr1  1  0.867132  0.867132  0.000000  1
  Y  Y2  1  0.500000  0.000000  0.500000  1
  Cu  Cu3  1  0.484432  0.668089  0.816343  1
  Cu  Cu4  1  0.851746  0.668089  0.183657  1
  Cu  Cu5  1  0.148254  0.331911  0.816343  1
  Cu  Cu6  1  0.515568  0.331911  0.183657  1
  Sn  Sn7  1  0.205914  0.500000  0.705914  1
  Sn  Sn8  1  0.794086  0.500000  0.294086  1
  Sn  Sn9  1  0.714628  0.214628  0.500000  1
  Sn  Sn10  1  0.285372  0.785372  0.500000  1
