# generated using pymatgen
data_Nd4CuPt2Rh
_symmetry_space_group_name_H-M   'P 1'
_cell_length_a   4.56915100
_cell_length_b   5.73139403
_cell_length_c   7.36159732
_cell_angle_alpha   90.18300573
_cell_angle_beta   90.00000000
_cell_angle_gamma   90.00000000
_symmetry_Int_Tables_number   1
_chemical_formula_structural   Nd4CuPt2Rh
_chemical_formula_sum   'Nd4 Cu1 Pt2 Rh1'
_cell_volume   192.78161747
_cell_formula_units_Z   1
loop_
 _symmetry_equiv_pos_site_id
 _symmetry_equiv_pos_as_xyz
  1  'x, y, z'
loop_
 _atom_site_type_symbol
 _atom_site_label
 _atom_site_symmetry_multiplicity
 _atom_site_fract_x
 _atom_site_fract_y
 _atom_site_fract_z
 _atom_site_occupancy
  Nd  Nd0  1  0.000000  0.640171  0.315377  1
  Nd  Nd1  1  0.000000  0.859778  0.822175  1
  Nd  Nd2  1  0.500000  0.365360  0.689979  1
  Nd  Nd3  1  0.500000  0.141370  0.173386  1
  Cu  Cu4  1  0.000000  0.134427  0.463734  1
  Pt  Pt5  1  0.500000  0.872363  0.535659  1
  Pt  Pt6  1  0.500000  0.651641  0.047076  1
  Rh  Rh7  1  0.000000  0.334892  0.952613  1
