# generated using pymatgen
data_PuP2Cl8O3
_symmetry_space_group_name_H-M   'P 1'
_cell_length_a   10.22519203
_cell_length_b   11.43132193
_cell_length_c   9.29523490
_cell_angle_alpha   109.19325421
_cell_angle_beta   122.01387947
_cell_angle_gamma   90.80193742
_symmetry_Int_Tables_number   1
_chemical_formula_structural   PuP2Cl8O3
_chemical_formula_sum   'Pu2 P4 Cl16 O6'
_cell_volume   845.66372172
_cell_formula_units_Z   2
loop_
 _symmetry_equiv_pos_site_id
 _symmetry_equiv_pos_as_xyz
  1  'x, y, z'
loop_
 _atom_site_type_symbol
 _atom_site_label
 _atom_site_symmetry_multiplicity
 _atom_site_fract_x
 _atom_site_fract_y
 _atom_site_fract_z
 _atom_site_occupancy
  Pu  Pu0  1  0.201570  0.234427  0.286610  1
  Pu  Pu1  1  0.798387  0.765524  0.713315  1
  P  P2  1  0.785805  0.067166  0.003332  1
  P  P3  1  0.806349  0.631899  0.033958  1
  P  P4  1  0.193711  0.368208  0.966142  1
  P  P5  1  0.214268  0.932760  0.996658  1
  Cl  Cl6  1  0.794310  0.453343  0.012637  1
  Cl  Cl7  1  0.618788  0.679264  0.028812  1
  Cl  Cl8  1  0.729541  0.090097  0.185952  1
  Cl  Cl9  1  0.399431  0.903253  0.205001  1
  Cl  Cl10  1  0.995738  0.738024  0.282779  1
  Cl  Cl11  1  0.194176  0.086642  0.437264  1
  Cl  Cl12  1  0.501977  0.296222  0.472704  1
  Cl  Cl13  1  0.181761  0.422693  0.507220  1
  Cl  Cl14  1  0.818098  0.577274  0.492609  1
  Cl  Cl15  1  0.497969  0.703769  0.527148  1
  Cl  Cl16  1  0.805851  0.913321  0.562722  1
  Cl  Cl17  1  0.004368  0.262112  0.717292  1
  Cl  Cl18  1  0.600455  0.096707  0.795036  1
  Cl  Cl19  1  0.270511  0.909696  0.814076  1
  Cl  Cl20  1  0.381314  0.320866  0.971413  1
  Cl  Cl21  1  0.205777  0.546739  0.987449  1
  O  O22  1  0.202265  0.069567  0.064828  1
  O  O23  1  0.930164  0.170746  0.089350  1
  O  O24  1  0.186480  0.353641  0.115914  1
  O  O25  1  0.813498  0.646446  0.884138  1
  O  O26  1  0.069725  0.829123  0.910546  1
  O  O27  1  0.797718  0.930471  0.935098  1
