# generated using pymatgen
data_DyTm9(FeSb2)2
_symmetry_space_group_name_H-M   'P 1'
_cell_length_a   7.73222200
_cell_length_b   8.77661800
_cell_length_c   11.99860300
_cell_angle_alpha   90.00000000
_cell_angle_beta   90.00000000
_cell_angle_gamma   90.00000000
_symmetry_Int_Tables_number   1
_chemical_formula_structural   DyTm9(FeSb2)2
_chemical_formula_sum   'Dy2 Tm18 Fe4 Sb8'
_cell_volume   814.25830115
_cell_formula_units_Z   2
loop_
 _symmetry_equiv_pos_site_id
 _symmetry_equiv_pos_as_xyz
  1  'x, y, z'
loop_
 _atom_site_type_symbol
 _atom_site_label
 _atom_site_symmetry_multiplicity
 _atom_site_fract_x
 _atom_site_fract_y
 _atom_site_fract_z
 _atom_site_occupancy
  Dy  Dy0  1  0.377571  0.250000  0.690586  1
  Dy  Dy1  1  0.122429  0.250000  0.190586  1
  Tm  Tm2  1  0.157099  0.750000  0.205377  1
  Tm  Tm3  1  0.342901  0.750000  0.705377  1
  Tm  Tm4  1  0.845438  0.250000  0.795557  1
  Tm  Tm5  1  0.654562  0.250000  0.295557  1
  Tm  Tm6  1  0.450182  0.750000  0.996062  1
  Tm  Tm7  1  0.049818  0.750000  0.496062  1
  Tm  Tm8  1  0.554242  0.250000  0.004858  1
  Tm  Tm9  1  0.945758  0.250000  0.504858  1
  Tm  Tm10  1  0.622665  0.750000  0.307878  1
  Tm  Tm11  1  0.877335  0.750000  0.807878  1
  Tm  Tm12  1  0.823343  0.539310  0.065286  1
  Tm  Tm13  1  0.676657  0.960690  0.565286  1
  Tm  Tm14  1  0.174185  0.031162  0.935365  1
  Tm  Tm15  1  0.325815  0.468838  0.435365  1
  Tm  Tm16  1  0.174185  0.468838  0.935365  1
  Tm  Tm17  1  0.325815  0.031162  0.435365  1
  Tm  Tm18  1  0.823343  0.960690  0.065286  1
  Tm  Tm19  1  0.676657  0.539310  0.565286  1
  Fe  Fe20  1  0.428748  0.750000  0.489649  1
  Fe  Fe21  1  0.071252  0.750000  0.989649  1
  Fe  Fe22  1  0.568530  0.250000  0.508967  1
  Fe  Fe23  1  0.931470  0.250000  0.008967  1
  Sb  Sb24  1  0.929437  0.506528  0.328412  1
  Sb  Sb25  1  0.570563  0.993472  0.828412  1
  Sb  Sb26  1  0.068642  0.006413  0.671469  1
  Sb  Sb27  1  0.431358  0.493587  0.171469  1
  Sb  Sb28  1  0.068642  0.493587  0.671469  1
  Sb  Sb29  1  0.431358  0.006413  0.171469  1
  Sb  Sb30  1  0.929437  0.993472  0.328412  1
  Sb  Sb31  1  0.570563  0.506528  0.828412  1
