# generated using pymatgen
data_DyEr9In8(PtAu)2
_symmetry_space_group_name_H-M   'P 1'
_cell_length_a   3.63200900
_cell_length_b   8.14219841
_cell_length_c   18.24266216
_cell_angle_alpha   90.04493089
_cell_angle_beta   90.00000000
_cell_angle_gamma   90.00000000
_symmetry_Int_Tables_number   1
_chemical_formula_structural   DyEr9In8(PtAu)2
_chemical_formula_sum   'Dy1 Er9 In8 Pt2 Au2'
_cell_volume   539.48165238
_cell_formula_units_Z   1
loop_
 _symmetry_equiv_pos_site_id
 _symmetry_equiv_pos_as_xyz
  1  'x, y, z'
loop_
 _atom_site_type_symbol
 _atom_site_label
 _atom_site_symmetry_multiplicity
 _atom_site_fract_x
 _atom_site_fract_y
 _atom_site_fract_z
 _atom_site_occupancy
  Dy  Dy0  1  0.000000  0.000000  0.000000  1
  Er  Er1  1  0.000000  0.119965  0.418658  1
  Er  Er2  1  0.000000  0.880035  0.581342  1
  Er  Er3  1  0.000000  0.384582  0.915721  1
  Er  Er4  1  0.000000  0.615418  0.084279  1
  Er  Er5  1  0.000000  0.251727  0.217577  1
  Er  Er6  1  0.000000  0.748273  0.782423  1
  Er  Er7  1  0.000000  0.267915  0.721201  1
  Er  Er8  1  0.000000  0.732085  0.278799  1
  Er  Er9  1  0.000000  0.500000  0.500000  1
  In  In10  1  0.500000  0.423553  0.352634  1
  In  In11  1  0.500000  0.576447  0.647366  1
  In  In12  1  0.500000  0.077427  0.852774  1
  In  In13  1  0.500000  0.922573  0.147226  1
  In  In14  1  0.500000  0.292151  0.065806  1
  In  In15  1  0.500000  0.707849  0.934194  1
  In  In16  1  0.500000  0.209560  0.566197  1
  In  In17  1  0.500000  0.790440  0.433803  1
  Pt  Pt18  1  0.500000  0.473525  0.803465  1
  Pt  Pt19  1  0.500000  0.526475  0.196535  1
  Au  Au20  1  0.500000  0.027312  0.302497  1
  Au  Au21  1  0.500000  0.972688  0.697503  1
