# generated using pymatgen
data_Th12Ge11PPd12
_symmetry_space_group_name_H-M   'P 1'
_cell_length_a   4.50337300
_cell_length_b   7.68420333
_cell_length_c   22.00468500
_cell_angle_alpha   90.20108956
_cell_angle_beta   90.00000000
_cell_angle_gamma   90.00000000
_symmetry_Int_Tables_number   1
_chemical_formula_structural   Th12Ge11PPd12
_chemical_formula_sum   'Th12 Ge11 P1 Pd12'
_cell_volume   761.46377713
_cell_formula_units_Z   1
loop_
 _symmetry_equiv_pos_site_id
 _symmetry_equiv_pos_as_xyz
  1  'x, y, z'
loop_
 _atom_site_type_symbol
 _atom_site_label
 _atom_site_symmetry_multiplicity
 _atom_site_fract_x
 _atom_site_fract_y
 _atom_site_fract_z
 _atom_site_occupancy
  Th  Th0  1  0.250000  0.732045  0.333444  1
  Th  Th1  1  0.750000  0.266841  0.666065  1
  Th  Th2  1  0.750000  0.228536  0.165969  1
  Th  Th3  1  0.250000  0.759674  0.833910  1
  Th  Th4  1  0.250000  0.770901  0.166340  1
  Th  Th5  1  0.750000  0.237445  0.833879  1
  Th  Th6  1  0.750000  0.271174  0.333196  1
  Th  Th7  1  0.250000  0.734285  0.666974  1
  Th  Th8  1  0.250000  0.725641  0.999992  1
  Th  Th9  1  0.750000  0.266973  0.999585  1
  Th  Th10  1  0.750000  0.229824  0.498992  1
  Th  Th11  1  0.250000  0.770554  0.500348  1
  Ge  Ge12  1  0.250000  0.085621  0.074093  1
  Ge  Ge13  1  0.750000  0.912369  0.924372  1
  Ge  Ge14  1  0.750000  0.588184  0.423058  1
  Ge  Ge15  1  0.250000  0.415378  0.571267  1
  Ge  Ge16  1  0.250000  0.088339  0.252831  1
  Ge  Ge17  1  0.750000  0.914742  0.749359  1
  Ge  Ge18  1  0.750000  0.587829  0.245674  1
  Ge  Ge19  1  0.250000  0.412545  0.750543  1
  Ge  Ge20  1  0.250000  0.086278  0.412507  1
  Ge  Ge21  1  0.750000  0.914915  0.586301  1
  Ge  Ge22  1  0.750000  0.583492  0.086462  1
  P  P23  1  0.250000  0.412801  0.917427  1
  Pd  Pd24  1  0.250000  0.421366  0.241379  1
  Pd  Pd25  1  0.750000  0.580161  0.757931  1
  Pd  Pd26  1  0.750000  0.921624  0.258937  1
  Pd  Pd27  1  0.250000  0.079286  0.742890  1
  Pd  Pd28  1  0.250000  0.420548  0.425865  1
  Pd  Pd29  1  0.750000  0.579760  0.577748  1
  Pd  Pd30  1  0.750000  0.917903  0.075396  1
  Pd  Pd31  1  0.250000  0.085627  0.923772  1
  Pd  Pd32  1  0.250000  0.418173  0.095210  1
  Pd  Pd33  1  0.750000  0.574847  0.909223  1
  Pd  Pd34  1  0.750000  0.920702  0.405851  1
  Pd  Pd35  1  0.250000  0.083616  0.593203  1
