# generated using pymatgen
data_Ac4YLu5Pt8
_symmetry_space_group_name_H-M   'P 1'
_cell_length_a   7.65406300
_cell_length_b   7.74849640
_cell_length_c   14.83098300
_cell_angle_alpha   89.86222669
_cell_angle_beta   90.00000000
_cell_angle_gamma   90.00000000
_symmetry_Int_Tables_number   1
_chemical_formula_structural   Ac4YLu5Pt8
_chemical_formula_sum   'Ac8 Y2 Lu10 Pt16'
_cell_volume   879.58567895
_cell_formula_units_Z   2
loop_
 _symmetry_equiv_pos_site_id
 _symmetry_equiv_pos_as_xyz
  1  'x, y, z'
loop_
 _atom_site_type_symbol
 _atom_site_label
 _atom_site_symmetry_multiplicity
 _atom_site_fract_x
 _atom_site_fract_y
 _atom_site_fract_z
 _atom_site_occupancy
  Ac  Ac0  1  0.503103  0.675835  0.595015  1
  Ac  Ac1  1  0.003103  0.824165  0.904985  1
  Ac  Ac2  1  0.496947  0.323824  0.096088  1
  Ac  Ac3  1  0.996947  0.176176  0.403912  1
  Ac  Ac4  1  0.496288  0.324712  0.402828  1
  Ac  Ac5  1  0.996288  0.175288  0.097172  1
  Ac  Ac6  1  0.503896  0.676031  0.904519  1
  Ac  Ac7  1  0.003896  0.823969  0.595481  1
  Y  Y8  1  0.662203  0.165499  0.623364  1
  Y  Y9  1  0.162203  0.334501  0.876636  1
  Lu  Lu10  1  0.339249  0.835182  0.125998  1
  Lu  Lu11  1  0.839249  0.664818  0.374002  1
  Lu  Lu12  1  0.337147  0.834652  0.373823  1
  Lu  Lu13  1  0.837147  0.665348  0.126177  1
  Lu  Lu14  1  0.661902  0.165512  0.874022  1
  Lu  Lu15  1  0.161902  0.334488  0.625978  1
  Lu  Lu16  1  0.827702  0.499560  0.750058  1
  Lu  Lu17  1  0.327702  0.000440  0.749942  1
  Lu  Lu18  1  0.172144  0.502658  0.249900  1
  Lu  Lu19  1  0.672144  0.997342  0.250100  1
  Pt  Pt20  1  0.670107  0.956861  0.449559  1
  Pt  Pt21  1  0.170107  0.543139  0.050441  1
  Pt  Pt22  1  0.332601  0.036112  0.953208  1
  Pt  Pt23  1  0.832601  0.463888  0.546792  1
  Pt  Pt24  1  0.323759  0.040164  0.545367  1
  Pt  Pt25  1  0.823759  0.459836  0.954633  1
  Pt  Pt26  1  0.672654  0.959240  0.047586  1
  Pt  Pt27  1  0.172654  0.540760  0.452414  1
  Pt  Pt28  1  0.462083  0.368246  0.749626  1
  Pt  Pt29  1  0.962083  0.131754  0.750374  1
  Pt  Pt30  1  0.538958  0.635642  0.250532  1
  Pt  Pt31  1  0.038958  0.864358  0.249468  1
  Pt  Pt32  1  0.693362  0.867417  0.750775  1
  Pt  Pt33  1  0.193362  0.632583  0.749225  1
  Pt  Pt34  1  0.305897  0.130826  0.249748  1
  Pt  Pt35  1  0.805897  0.369174  0.250252  1
