# generated using pymatgen
data_SmErSc3Si7Pt9
_symmetry_space_group_name_H-M   'P 1'
_cell_length_a   10.05810500
_cell_length_b   10.05810573
_cell_length_c   3.98739900
_cell_angle_alpha   90.00000000
_cell_angle_beta   90.00000000
_cell_angle_gamma   120.00000088
_symmetry_Int_Tables_number   1
_chemical_formula_structural   SmErSc3Si7Pt9
_chemical_formula_sum   'Sm1 Er1 Sc3 Si7 Pt9'
_cell_volume   349.34351457
_cell_formula_units_Z   1
loop_
 _symmetry_equiv_pos_site_id
 _symmetry_equiv_pos_as_xyz
  1  'x, y, z'
loop_
 _atom_site_type_symbol
 _atom_site_label
 _atom_site_symmetry_multiplicity
 _atom_site_fract_x
 _atom_site_fract_y
 _atom_site_fract_z
 _atom_site_occupancy
  Sm  Sm0  1  0.000000  0.000000  0.000000  1
  Er  Er1  1  0.333333  0.666667  0.500000  1
  Sc  Sc2  1  0.894806  0.455065  0.500000  1
  Sc  Sc3  1  0.560260  0.105194  0.500000  1
  Sc  Sc4  1  0.544935  0.439740  0.500000  1
  Si  Si5  1  0.247554  0.196590  0.500000  1
  Si  Si6  1  0.803410  0.050967  0.500000  1
  Si  Si7  1  0.949033  0.752446  0.500000  1
  Si  Si8  1  0.556056  0.647080  0.000000  1
  Si  Si9  1  0.352920  0.908976  0.000000  1
  Si  Si10  1  0.091024  0.443944  0.000000  1
  Si  Si11  1  0.666667  0.333333  0.000000  1
  Pt  Pt12  1  0.220368  0.935464  0.500000  1
  Pt  Pt13  1  0.064536  0.284905  0.500000  1
  Pt  Pt14  1  0.715095  0.779632  0.500000  1
  Pt  Pt15  1  0.314316  0.414000  0.000000  1
  Pt  Pt16  1  0.586000  0.900317  0.000000  1
  Pt  Pt17  1  0.099683  0.685684  0.000000  1
  Pt  Pt18  1  0.384398  0.171704  0.000000  1
  Pt  Pt19  1  0.828296  0.212695  0.000000  1
  Pt  Pt20  1  0.787305  0.615602  0.000000  1
