# generated using pymatgen
data_Sr6CrFe2RhO12
_symmetry_space_group_name_H-M   'P 1'
_cell_length_a   6.71074870
_cell_length_b   6.71074759
_cell_length_c   6.71074681
_cell_angle_alpha   92.86823999
_cell_angle_beta   92.86824459
_cell_angle_gamma   92.86823542
_symmetry_Int_Tables_number   1
_chemical_formula_structural   Sr6CrFe2RhO12
_chemical_formula_sum   'Sr6 Cr1 Fe2 Rh1 O12'
_cell_volume   301.03748402
_cell_formula_units_Z   1
loop_
 _symmetry_equiv_pos_site_id
 _symmetry_equiv_pos_as_xyz
  1  'x, y, z'
loop_
 _atom_site_type_symbol
 _atom_site_label
 _atom_site_symmetry_multiplicity
 _atom_site_fract_x
 _atom_site_fract_y
 _atom_site_fract_z
 _atom_site_occupancy
  Sr  Sr0  1  0.883777  0.250910  0.618600  1
  Sr  Sr1  1  0.250910  0.618600  0.883777  1
  Sr  Sr2  1  0.381400  0.116223  0.749090  1
  Sr  Sr3  1  0.749090  0.381400  0.116223  1
  Sr  Sr4  1  0.116223  0.749090  0.381400  1
  Sr  Sr5  1  0.618600  0.883777  0.250910  1
  Cr  Cr6  1  0.500000  0.500000  0.500000  1
  Fe  Fe7  1  0.251124  0.251124  0.251124  1
  Fe  Fe8  1  0.748876  0.748876  0.748876  1
  Rh  Rh9  1  0.000000  0.000000  0.000000  1
  O  O10  1  0.707002  0.026935  0.897421  1
  O  O11  1  0.973065  0.102579  0.292998  1
  O  O12  1  0.786543  0.598593  0.466919  1
  O  O13  1  0.598593  0.466919  0.786543  1
  O  O14  1  0.466919  0.786543  0.598593  1
  O  O15  1  0.026935  0.897421  0.707002  1
  O  O16  1  0.401407  0.533081  0.213457  1
  O  O17  1  0.292998  0.973065  0.102579  1
  O  O18  1  0.213457  0.401407  0.533081  1
  O  O19  1  0.533081  0.213457  0.401407  1
  O  O20  1  0.897421  0.707002  0.026935  1
  O  O21  1  0.102579  0.292998  0.973065  1
