# generated using pymatgen
data_SrY2Cu2Pt7
_symmetry_space_group_name_H-M   'P 1'
_cell_length_a   9.12847212
_cell_length_b   9.12847292
_cell_length_c   9.12847228
_cell_angle_alpha   34.86409887
_cell_angle_beta   34.86409160
_cell_angle_gamma   34.86409620
_symmetry_Int_Tables_number   1
_chemical_formula_structural   SrY2Cu2Pt7
_chemical_formula_sum   'Sr1 Y2 Cu2 Pt7'
_cell_volume   221.88087201
_cell_formula_units_Z   1
loop_
 _symmetry_equiv_pos_site_id
 _symmetry_equiv_pos_as_xyz
  1  'x, y, z'
loop_
 _atom_site_type_symbol
 _atom_site_label
 _atom_site_symmetry_multiplicity
 _atom_site_fract_x
 _atom_site_fract_y
 _atom_site_fract_z
 _atom_site_occupancy
  Sr  Sr0  1  0.000000  0.000000  0.000000  1
  Y  Y1  1  0.860077  0.860077  0.860077  1
  Y  Y2  1  0.139923  0.139923  0.139923  1
  Cu  Cu3  1  0.666431  0.666431  0.666431  1
  Cu  Cu4  1  0.333569  0.333569  0.333569  1
  Pt  Pt5  1  0.414826  0.414826  0.922503  1
  Pt  Pt6  1  0.922503  0.414826  0.414826  1
  Pt  Pt7  1  0.414826  0.922503  0.414826  1
  Pt  Pt8  1  0.500000  0.500000  0.500000  1
  Pt  Pt9  1  0.585174  0.077497  0.585174  1
  Pt  Pt10  1  0.077497  0.585174  0.585174  1
  Pt  Pt11  1  0.585174  0.585174  0.077497  1
