# generated using pymatgen
data_Ho3Zr(MoN2)4
_symmetry_space_group_name_H-M   'P 1'
_cell_length_a   3.16607600
_cell_length_b   5.66045210
_cell_length_c   10.55433237
_cell_angle_alpha   90.25598148
_cell_angle_beta   90.00000000
_cell_angle_gamma   90.00000000
_symmetry_Int_Tables_number   1
_chemical_formula_structural   Ho3Zr(MoN2)4
_chemical_formula_sum   'Ho3 Zr1 Mo4 N8'
_cell_volume   189.14675188
_cell_formula_units_Z   1
loop_
 _symmetry_equiv_pos_site_id
 _symmetry_equiv_pos_as_xyz
  1  'x, y, z'
loop_
 _atom_site_type_symbol
 _atom_site_label
 _atom_site_symmetry_multiplicity
 _atom_site_fract_x
 _atom_site_fract_y
 _atom_site_fract_z
 _atom_site_occupancy
  Ho  Ho0  1  0.250000  0.580794  0.647004  1
  Ho  Ho1  1  0.750000  0.919090  0.147239  1
  Ho  Ho2  1  0.750000  0.419982  0.352211  1
  Zr  Zr3  1  0.250000  0.081938  0.849519  1
  Mo  Mo4  1  0.250000  0.430262  0.091678  1
  Mo  Mo5  1  0.250000  0.931816  0.406216  1
  Mo  Mo6  1  0.750000  0.565422  0.908988  1
  Mo  Mo7  1  0.750000  0.069939  0.593916  1
  N  N8  1  0.250000  0.166568  0.246604  1
  N  N9  1  0.250000  0.663309  0.249538  1
  N  N10  1  0.750000  0.846274  0.758442  1
  N  N11  1  0.750000  0.325835  0.753260  1
  N  N12  1  0.250000  0.767771  0.990706  1
  N  N13  1  0.250000  0.260808  0.507159  1
  N  N14  1  0.750000  0.232314  0.000753  1
  N  N15  1  0.750000  0.737878  0.496768  1
