# generated using pymatgen
data_Tb7NdGaPd24
_symmetry_space_group_name_H-M   'P 1'
_cell_length_a   8.38629963
_cell_length_b   8.38630014
_cell_length_c   8.38630015
_cell_angle_alpha   90.08433199
_cell_angle_beta   89.91566588
_cell_angle_gamma   89.91567270
_symmetry_Int_Tables_number   1
_chemical_formula_structural   Tb7NdGaPd24
_chemical_formula_sum   'Tb7 Nd1 Ga1 Pd24'
_cell_volume   589.80678719
_cell_formula_units_Z   1
loop_
 _symmetry_equiv_pos_site_id
 _symmetry_equiv_pos_as_xyz
  1  'x, y, z'
loop_
 _atom_site_type_symbol
 _atom_site_label
 _atom_site_symmetry_multiplicity
 _atom_site_fract_x
 _atom_site_fract_y
 _atom_site_fract_z
 _atom_site_occupancy
  Tb  Tb0  1  0.252943  0.251886  0.251886  1
  Tb  Tb1  1  0.747395  0.748178  0.748178  1
  Tb  Tb2  1  0.748114  0.747057  0.251886  1
  Tb  Tb3  1  0.748114  0.251886  0.747057  1
  Tb  Tb4  1  0.251822  0.252605  0.748178  1
  Tb  Tb5  1  0.251822  0.748178  0.252605  1
  Tb  Tb6  1  0.252627  0.747373  0.747373  1
  Nd  Nd7  1  0.747364  0.252636  0.252636  1
  Ga  Ga8  1  0.999408  0.000592  0.000592  1
  Pd  Pd9  1  0.259818  0.500377  0.000573  1
  Pd  Pd10  1  0.740463  0.501759  0.996324  1
  Pd  Pd11  1  0.003676  0.259537  0.501759  1
  Pd  Pd12  1  0.498241  0.259537  0.996324  1
  Pd  Pd13  1  0.999427  0.740182  0.500377  1
  Pd  Pd14  1  0.499623  0.740182  0.000573  1
  Pd  Pd15  1  0.498241  0.996324  0.259537  1
  Pd  Pd16  1  0.259818  0.000573  0.500377  1
  Pd  Pd17  1  0.499623  0.000573  0.740182  1
  Pd  Pd18  1  0.740463  0.996324  0.501759  1
  Pd  Pd19  1  0.003676  0.501759  0.259537  1
  Pd  Pd20  1  0.999427  0.500377  0.740182  1
  Pd  Pd21  1  0.252566  0.499622  0.499622  1
  Pd  Pd22  1  0.747642  0.502869  0.502869  1
  Pd  Pd23  1  0.497131  0.252358  0.502869  1
  Pd  Pd24  1  0.500378  0.747434  0.499622  1
  Pd  Pd25  1  0.497131  0.502869  0.252358  1
  Pd  Pd26  1  0.500378  0.499622  0.747434  1
  Pd  Pd27  1  0.290404  0.000328  0.000328  1
  Pd  Pd28  1  0.708135  0.997606  0.997606  1
  Pd  Pd29  1  0.002394  0.291865  0.997606  1
  Pd  Pd30  1  0.999672  0.709596  0.000328  1
  Pd  Pd31  1  0.002394  0.997606  0.291865  1
  Pd  Pd32  1  0.999672  0.000328  0.709596  1
