# generated using pymatgen
data_Dy16Cd4Ni3Os
_symmetry_space_group_name_H-M   'P 1'
_cell_length_a   9.60253729
_cell_length_b   9.60253717
_cell_length_c   9.60256656
_cell_angle_alpha   59.55066242
_cell_angle_beta   59.55066180
_cell_angle_gamma   59.55015078
_symmetry_Int_Tables_number   1
_chemical_formula_structural   Dy16Cd4Ni3Os
_chemical_formula_sum   'Dy16 Cd4 Ni3 Os1'
_cell_volume   619.70221828
_cell_formula_units_Z   1
loop_
 _symmetry_equiv_pos_site_id
 _symmetry_equiv_pos_as_xyz
  1  'x, y, z'
loop_
 _atom_site_type_symbol
 _atom_site_label
 _atom_site_symmetry_multiplicity
 _atom_site_fract_x
 _atom_site_fract_y
 _atom_site_fract_z
 _atom_site_occupancy
  Dy  Dy0  1  0.597217  0.597217  0.597208  1
  Dy  Dy1  1  0.601361  0.601361  0.202896  1
  Dy  Dy2  1  0.601366  0.202891  0.601357  1
  Dy  Dy3  1  0.202891  0.601366  0.601357  1
  Dy  Dy4  1  0.059731  0.438626  0.438629  1
  Dy  Dy5  1  0.436509  0.061346  0.061359  1
  Dy  Dy6  1  0.438626  0.059731  0.438629  1
  Dy  Dy7  1  0.061346  0.436509  0.061359  1
  Dy  Dy8  1  0.438625  0.438625  0.059738  1
  Dy  Dy9  1  0.061358  0.061358  0.436506  1
  Dy  Dy10  1  0.186229  0.815911  0.815906  1
  Dy  Dy11  1  0.806022  0.189322  0.189315  1
  Dy  Dy12  1  0.815911  0.186229  0.815906  1
  Dy  Dy13  1  0.189322  0.806022  0.189315  1
  Dy  Dy14  1  0.815910  0.815910  0.186226  1
  Dy  Dy15  1  0.189317  0.189317  0.806026  1
  Cd  Cd16  1  0.830010  0.830010  0.830011  1
  Cd  Cd17  1  0.830103  0.830103  0.505588  1
  Cd  Cd18  1  0.830101  0.505591  0.830102  1
  Cd  Cd19  1  0.505591  0.830101  0.830102  1
  Ni  Ni20  1  0.392304  0.392304  0.824711  1
  Ni  Ni21  1  0.392304  0.824703  0.392307  1
  Ni  Ni22  1  0.824703  0.392304  0.392307  1
  Os  Os23  1  0.393142  0.393142  0.393140  1
