# generated using pymatgen
data_Er10OsPt5
_symmetry_space_group_name_H-M   'P 1'
_cell_length_a   10.93310500
_cell_length_b   10.93310500
_cell_length_c   6.35852400
_cell_angle_alpha   90.00000000
_cell_angle_beta   90.00000000
_cell_angle_gamma   90.00000000
_symmetry_Int_Tables_number   1
_chemical_formula_structural   Er10OsPt5
_chemical_formula_sum   'Er20 Os2 Pt10'
_cell_volume   760.05208183
_cell_formula_units_Z   2
loop_
 _symmetry_equiv_pos_site_id
 _symmetry_equiv_pos_as_xyz
  1  'x, y, z'
loop_
 _atom_site_type_symbol
 _atom_site_label
 _atom_site_symmetry_multiplicity
 _atom_site_fract_x
 _atom_site_fract_y
 _atom_site_fract_z
 _atom_site_occupancy
  Er  Er0  1  0.292293  0.088195  0.374967  1
  Er  Er1  1  0.292293  0.911805  0.874967  1
  Er  Er2  1  0.707707  0.088195  0.874967  1
  Er  Er3  1  0.707707  0.911805  0.374967  1
  Er  Er4  1  0.588195  0.792293  0.874967  1
  Er  Er5  1  0.588195  0.207707  0.374967  1
  Er  Er6  1  0.411805  0.792293  0.374967  1
  Er  Er7  1  0.411805  0.207707  0.874967  1
  Er  Er8  1  0.202288  0.414097  0.626069  1
  Er  Er9  1  0.202288  0.585903  0.126069  1
  Er  Er10  1  0.797712  0.414097  0.126069  1
  Er  Er11  1  0.797712  0.585903  0.626069  1
  Er  Er12  1  0.914097  0.702288  0.126069  1
  Er  Er13  1  0.914097  0.297712  0.626069  1
  Er  Er14  1  0.085903  0.702288  0.626069  1
  Er  Er15  1  0.085903  0.297712  0.126069  1
  Er  Er16  1  0.000000  0.000000  0.501886  1
  Er  Er17  1  0.000000  0.000000  0.001886  1
  Er  Er18  1  0.500000  0.500000  0.001886  1
  Er  Er19  1  0.500000  0.500000  0.501886  1
  Os  Os20  1  0.000000  0.500000  0.875172  1
  Os  Os21  1  0.000000  0.500000  0.375172  1
  Pt  Pt22  1  0.844783  0.151491  0.250045  1
  Pt  Pt23  1  0.844783  0.848509  0.750045  1
  Pt  Pt24  1  0.155217  0.151491  0.750045  1
  Pt  Pt25  1  0.155217  0.848509  0.250045  1
  Pt  Pt26  1  0.651491  0.344783  0.750045  1
  Pt  Pt27  1  0.651491  0.655217  0.250045  1
  Pt  Pt28  1  0.348509  0.344783  0.250045  1
  Pt  Pt29  1  0.348509  0.655217  0.750045  1
  Pt  Pt30  1  0.500000  0.000000  0.116726  1
  Pt  Pt31  1  0.500000  0.000000  0.616726  1
