# generated using pymatgen
data_YMgCo3P3Rh
_symmetry_space_group_name_H-M   'P 1'
_cell_length_a   3.74231100
_cell_length_b   10.54306000
_cell_length_c   12.41075500
_cell_angle_alpha   90.00000000
_cell_angle_beta   90.00000000
_cell_angle_gamma   90.00000000
_symmetry_Int_Tables_number   1
_chemical_formula_structural   YMgCo3P3Rh
_chemical_formula_sum   'Y4 Mg4 Co12 P12 Rh4'
_cell_volume   489.67141963
_cell_formula_units_Z   4
loop_
 _symmetry_equiv_pos_site_id
 _symmetry_equiv_pos_as_xyz
  1  'x, y, z'
loop_
 _atom_site_type_symbol
 _atom_site_label
 _atom_site_symmetry_multiplicity
 _atom_site_fract_x
 _atom_site_fract_y
 _atom_site_fract_z
 _atom_site_occupancy
  Y  Y0  1  0.250000  0.918029  0.211194  1
  Y  Y1  1  0.750000  0.081971  0.788806  1
  Y  Y2  1  0.750000  0.418029  0.288806  1
  Y  Y3  1  0.250000  0.581971  0.711194  1
  Mg  Mg4  1  0.250000  0.794265  0.492483  1
  Mg  Mg5  1  0.750000  0.205735  0.507517  1
  Mg  Mg6  1  0.750000  0.294265  0.007517  1
  Mg  Mg7  1  0.250000  0.705735  0.992483  1
  Co  Co8  1  0.250000  0.281758  0.675948  1
  Co  Co9  1  0.750000  0.718242  0.324052  1
  Co  Co10  1  0.750000  0.781758  0.824052  1
  Co  Co11  1  0.250000  0.218242  0.175948  1
  Co  Co12  1  0.250000  0.616685  0.196982  1
  Co  Co13  1  0.750000  0.383315  0.803018  1
  Co  Co14  1  0.750000  0.116685  0.303018  1
  Co  Co15  1  0.250000  0.883315  0.696982  1
  Co  Co16  1  0.250000  0.032682  0.433832  1
  Co  Co17  1  0.750000  0.967318  0.566168  1
  Co  Co18  1  0.750000  0.532682  0.066168  1
  Co  Co19  1  0.250000  0.467318  0.933832  1
  P  P20  1  0.250000  0.076316  0.615533  1
  P  P21  1  0.750000  0.923684  0.384467  1
  P  P22  1  0.750000  0.576316  0.884467  1
  P  P23  1  0.250000  0.423684  0.115533  1
  P  P24  1  0.250000  0.223205  0.354046  1
  P  P25  1  0.750000  0.776795  0.645954  1
  P  P26  1  0.750000  0.723205  0.145954  1
  P  P27  1  0.250000  0.276795  0.854046  1
  P  P28  1  0.250000  0.901345  0.877937  1
  P  P29  1  0.750000  0.098655  0.122063  1
  P  P30  1  0.750000  0.401345  0.622063  1
  P  P31  1  0.250000  0.598655  0.377937  1
  Rh  Rh32  1  0.250000  0.099880  0.979627  1
  Rh  Rh33  1  0.750000  0.900120  0.020373  1
  Rh  Rh34  1  0.750000  0.599880  0.520373  1
  Rh  Rh35  1  0.250000  0.400120  0.479627  1
