# generated using pymatgen
data_Tb19Dy(CoBi2)4
_symmetry_space_group_name_H-M   'P 1'
_cell_length_a   8.05778362
_cell_length_b   8.89164133
_cell_length_c   12.46165106
_cell_angle_alpha   89.98184194
_cell_angle_beta   90.03110445
_cell_angle_gamma   89.97931054
_symmetry_Int_Tables_number   1
_chemical_formula_structural   Tb19Dy(CoBi2)4
_chemical_formula_sum   'Tb19 Dy1 Co4 Bi8'
_cell_volume   892.83870512
_cell_formula_units_Z   1
loop_
 _symmetry_equiv_pos_site_id
 _symmetry_equiv_pos_as_xyz
  1  'x, y, z'
loop_
 _atom_site_type_symbol
 _atom_site_label
 _atom_site_symmetry_multiplicity
 _atom_site_fract_x
 _atom_site_fract_y
 _atom_site_fract_z
 _atom_site_occupancy
  Tb  Tb0  1  0.847909  0.750044  0.801229  1
  Tb  Tb1  1  0.152091  0.249970  0.198729  1
  Tb  Tb2  1  0.348357  0.249733  0.698555  1
  Tb  Tb3  1  0.651908  0.750176  0.301543  1
  Tb  Tb4  1  0.379994  0.750323  0.690074  1
  Tb  Tb5  1  0.621004  0.249452  0.309907  1
  Tb  Tb6  1  0.879371  0.250107  0.809434  1
  Tb  Tb7  1  0.120499  0.749962  0.190372  1
  Tb  Tb8  1  0.953452  0.750407  0.502502  1
  Tb  Tb9  1  0.044756  0.249719  0.497576  1
  Tb  Tb10  1  0.454500  0.249948  0.997562  1
  Tb  Tb11  1  0.545504  0.750010  0.002388  1
  Tb  Tb12  1  0.323115  0.966266  0.437296  1
  Tb  Tb13  1  0.177232  0.965994  0.937053  1
  Tb  Tb14  1  0.322749  0.533595  0.437272  1
  Tb  Tb15  1  0.822762  0.033840  0.062896  1
  Tb  Tb16  1  0.677299  0.465877  0.562997  1
  Tb  Tb17  1  0.822766  0.466103  0.062843  1
  Tb  Tb18  1  0.177278  0.533963  0.937099  1
  Dy  Dy19  1  0.675296  0.034453  0.562913  1
  Co  Co20  1  0.560341  0.750564  0.508330  1
  Co  Co21  1  0.441758  0.249317  0.492018  1
  Co  Co22  1  0.059641  0.249981  0.991632  1
  Co  Co23  1  0.940332  0.749998  0.008298  1
  Bi  Bi24  1  0.570866  0.492177  0.825486  1
  Bi  Bi25  1  0.429255  0.507748  0.174675  1
  Bi  Bi26  1  0.071070  0.507864  0.674404  1
  Bi  Bi27  1  0.429130  0.992183  0.174531  1
  Bi  Bi28  1  0.929170  0.492196  0.325493  1
  Bi  Bi29  1  0.571140  0.007901  0.825220  1
  Bi  Bi30  1  0.929465  0.007783  0.325425  1
  Bi  Bi31  1  0.069995  0.992345  0.674251  1
