# generated using pymatgen
data_Er3HfAl2Rh3
_symmetry_space_group_name_H-M   'P 1'
_cell_length_a   6.97768000
_cell_length_b   7.07645662
_cell_length_c   4.16805100
_cell_angle_alpha   90.00000000
_cell_angle_beta   90.00000000
_cell_angle_gamma   119.53931199
_symmetry_Int_Tables_number   1
_chemical_formula_structural   Er3HfAl2Rh3
_chemical_formula_sum   'Er3 Hf1 Al2 Rh3'
_cell_volume   179.05562698
_cell_formula_units_Z   1
loop_
 _symmetry_equiv_pos_site_id
 _symmetry_equiv_pos_as_xyz
  1  'x, y, z'
loop_
 _atom_site_type_symbol
 _atom_site_label
 _atom_site_symmetry_multiplicity
 _atom_site_fract_x
 _atom_site_fract_y
 _atom_site_fract_z
 _atom_site_occupancy
  Er  Er0  1  0.985403  0.568684  0.500000  1
  Er  Er1  1  0.416719  0.431316  0.500000  1
  Er  Er2  1  0.607266  0.000000  0.500000  1
  Hf  Hf3  1  0.242469  0.000000  0.000000  1
  Al  Al4  1  0.753164  0.755847  0.000000  1
  Al  Al5  1  0.997317  0.244153  0.000000  1
  Rh  Rh6  1  0.661752  0.330731  0.000000  1
  Rh  Rh7  1  0.331020  0.669269  0.000000  1
  Rh  Rh8  1  0.004890  0.000000  0.500000  1
