# generated using pymatgen
data_Cs2CoO4
_symmetry_space_group_name_H-M   'P 1'
_cell_length_a   6.39018100
_cell_length_b   8.55116500
_cell_length_c   11.25762200
_cell_angle_alpha   90.00000000
_cell_angle_beta   90.00000000
_cell_angle_gamma   90.00000000
_symmetry_Int_Tables_number   1
_chemical_formula_structural   Cs2CoO4
_chemical_formula_sum   'Cs8 Co4 O16'
_cell_volume   615.15577894
_cell_formula_units_Z   4
loop_
 _symmetry_equiv_pos_site_id
 _symmetry_equiv_pos_as_xyz
  1  'x, y, z'
loop_
 _atom_site_type_symbol
 _atom_site_label
 _atom_site_symmetry_multiplicity
 _atom_site_fract_x
 _atom_site_fract_y
 _atom_site_fract_z
 _atom_site_occupancy
  Cs  Cs0  1  0.750000  0.010616  0.688849  1
  Cs  Cs1  1  0.250000  0.989384  0.311151  1
  Cs  Cs2  1  0.250000  0.489384  0.188849  1
  Cs  Cs3  1  0.750000  0.510616  0.811151  1
  Cs  Cs4  1  0.250000  0.163003  0.908709  1
  Cs  Cs5  1  0.750000  0.836997  0.091291  1
  Cs  Cs6  1  0.750000  0.336997  0.408709  1
  Cs  Cs7  1  0.250000  0.663003  0.591291  1
  Co  Co8  1  0.750000  0.259438  0.083625  1
  Co  Co9  1  0.250000  0.240562  0.583625  1
  Co  Co10  1  0.750000  0.759438  0.416375  1
  Co  Co11  1  0.250000  0.740562  0.916375  1
  O  O12  1  0.250000  0.046763  0.586295  1
  O  O13  1  0.750000  0.953237  0.413705  1
  O  O14  1  0.750000  0.453237  0.086295  1
  O  O15  1  0.250000  0.546763  0.913705  1
  O  O16  1  0.750000  0.698218  0.557056  1
  O  O17  1  0.750000  0.198218  0.942944  1
  O  O18  1  0.250000  0.301782  0.442944  1
  O  O19  1  0.250000  0.801782  0.057056  1
  O  O20  1  0.038532  0.809922  0.848288  1
  O  O21  1  0.538531  0.190078  0.151712  1
  O  O22  1  0.538531  0.690078  0.348288  1
  O  O23  1  0.038532  0.309922  0.651712  1
  O  O24  1  0.461468  0.809922  0.848288  1
  O  O25  1  0.961469  0.190078  0.151712  1
  O  O26  1  0.961469  0.690078  0.348288  1
  O  O27  1  0.461468  0.309922  0.651712  1
