# generated using pymatgen
data_Tm2Lu2MnFeB12
_symmetry_space_group_name_H-M   'P 1'
_cell_length_a   3.49093100
_cell_length_b   8.98495083
_cell_length_c   11.36300885
_cell_angle_alpha   90.15109441
_cell_angle_beta   90.00000000
_cell_angle_gamma   90.00000000
_symmetry_Int_Tables_number   1
_chemical_formula_structural   Tm2Lu2MnFeB12
_chemical_formula_sum   'Tm4 Lu4 Mn2 Fe2 B24'
_cell_volume   356.40911679
_cell_formula_units_Z   2
loop_
 _symmetry_equiv_pos_site_id
 _symmetry_equiv_pos_as_xyz
  1  'x, y, z'
loop_
 _atom_site_type_symbol
 _atom_site_label
 _atom_site_symmetry_multiplicity
 _atom_site_fract_x
 _atom_site_fract_y
 _atom_site_fract_z
 _atom_site_occupancy
  Tm  Tm0  1  0.000000  0.825996  0.083757  1
  Tm  Tm1  1  0.000000  0.174004  0.916243  1
  Tm  Tm2  1  0.000000  0.322293  0.413303  1
  Tm  Tm3  1  0.000000  0.677707  0.586697  1
  Lu  Lu4  1  0.000000  0.442048  0.130495  1
  Lu  Lu5  1  0.000000  0.557952  0.869505  1
  Lu  Lu6  1  0.000000  0.943212  0.368468  1
  Lu  Lu7  1  0.000000  0.056788  0.631532  1
  Mn  Mn8  1  0.000000  0.138709  0.180829  1
  Mn  Mn9  1  0.000000  0.861291  0.819171  1
  Fe  Fe10  1  0.000000  0.638505  0.320407  1
  Fe  Fe11  1  0.000000  0.361495  0.679593  1
  B  B12  1  0.500000  0.053753  0.067904  1
  B  B13  1  0.500000  0.946247  0.932096  1
  B  B14  1  0.500000  0.554265  0.432598  1
  B  B15  1  0.500000  0.445735  0.567402  1
  B  B16  1  0.500000  0.247570  0.082298  1
  B  B17  1  0.500000  0.752430  0.917702  1
  B  B18  1  0.500000  0.747970  0.417838  1
  B  B19  1  0.500000  0.252030  0.582162  1
  B  B20  1  0.500000  0.291209  0.234952  1
  B  B21  1  0.500000  0.708791  0.765048  1
  B  B22  1  0.500000  0.790502  0.265140  1
  B  B23  1  0.500000  0.209498  0.734860  1
  B  B24  1  0.500000  0.131366  0.314622  1
  B  B25  1  0.500000  0.868634  0.685378  1
  B  B26  1  0.500000  0.630979  0.185598  1
  B  B27  1  0.500000  0.369021  0.814402  1
  B  B28  1  0.500000  0.484632  0.288620  1
  B  B29  1  0.500000  0.515368  0.711380  1
  B  B30  1  0.500000  0.984231  0.211567  1
  B  B31  1  0.500000  0.015769  0.788433  1
  B  B32  1  0.500000  0.101950  0.472278  1
  B  B33  1  0.500000  0.898050  0.527722  1
  B  B34  1  0.500000  0.602080  0.028283  1
  B  B35  1  0.500000  0.397920  0.971717  1
