# generated using pymatgen
data_Hf10Sn6As
_symmetry_space_group_name_H-M   'P 1'
_cell_length_a   8.51162400
_cell_length_b   8.51162484
_cell_length_c   5.84081400
_cell_angle_alpha   90.00000000
_cell_angle_beta   90.00000000
_cell_angle_gamma   120.00000452
_symmetry_Int_Tables_number   1
_chemical_formula_structural   Hf10Sn6As
_chemical_formula_sum   'Hf10 Sn6 As1'
_cell_volume   366.46195313
_cell_formula_units_Z   1
loop_
 _symmetry_equiv_pos_site_id
 _symmetry_equiv_pos_as_xyz
  1  'x, y, z'
loop_
 _atom_site_type_symbol
 _atom_site_label
 _atom_site_symmetry_multiplicity
 _atom_site_fract_x
 _atom_site_fract_y
 _atom_site_fract_z
 _atom_site_occupancy
  Hf  Hf0  1  0.666667  0.333333  0.500000  1
  Hf  Hf1  1  0.333333  0.666667  0.500000  1
  Hf  Hf2  1  0.333333  0.666667  0.000000  1
  Hf  Hf3  1  0.666667  0.333333  0.000000  1
  Hf  Hf4  1  0.744723  0.744723  0.234373  1
  Hf  Hf5  1  0.255277  0.000000  0.234373  1
  Hf  Hf6  1  0.000000  0.255277  0.234373  1
  Hf  Hf7  1  0.255277  0.255277  0.765627  1
  Hf  Hf8  1  0.744723  0.000000  0.765627  1
  Hf  Hf9  1  0.000000  0.744723  0.765627  1
  Sn  Sn10  1  0.392653  0.392653  0.253543  1
  Sn  Sn11  1  0.607347  0.000000  0.253543  1
  Sn  Sn12  1  0.000000  0.607347  0.253543  1
  Sn  Sn13  1  0.607347  0.607347  0.746457  1
  Sn  Sn14  1  0.392653  0.000000  0.746457  1
  Sn  Sn15  1  0.000000  0.392653  0.746457  1
  As  As16  1  0.000000  0.000000  0.500000  1
