# generated using pymatgen
data_Ho3TmLuPb3
_symmetry_space_group_name_H-M   'P 1'
_cell_length_a   6.52685400
_cell_length_b   8.99187900
_cell_length_c   8.99166300
_cell_angle_alpha   120.00098944
_cell_angle_beta   90.00028197
_cell_angle_gamma   90.00118477
_symmetry_Int_Tables_number   1
_chemical_formula_structural   Ho3TmLuPb3
_chemical_formula_sum   'Ho6 Tm2 Lu2 Pb6'
_cell_volume   457.00470924
_cell_formula_units_Z   2
loop_
 _symmetry_equiv_pos_site_id
 _symmetry_equiv_pos_as_xyz
  1  'x, y, z'
loop_
 _atom_site_type_symbol
 _atom_site_label
 _atom_site_symmetry_multiplicity
 _atom_site_fract_x
 _atom_site_fract_y
 _atom_site_fract_z
 _atom_site_occupancy
  Ho  Ho0  1  0.750078  0.237388  0.999996  1
  Ho  Ho1  1  0.750068  0.762647  0.762622  1
  Ho  Ho2  1  0.750071  0.000029  0.237386  1
  Ho  Ho3  1  0.249929  0.762624  0.000000  1
  Ho  Ho4  1  0.249937  0.237361  0.237385  1
  Ho  Ho5  1  0.249933  0.999981  0.762621  1
  Tm  Tm6  1  0.499992  0.333321  0.666688  1
  Tm  Tm7  1  0.499989  0.666637  0.333311  1
  Lu  Lu8  1  0.999986  0.666676  0.333310  1
  Lu  Lu9  1  0.999993  0.333356  0.666691  1
  Pb  Pb10  1  0.750146  0.604289  0.999999  1
  Pb  Pb11  1  0.750159  0.395758  0.395777  1
  Pb  Pb12  1  0.750163  0.999978  0.604216  1
  Pb  Pb13  1  0.249867  0.395702  0.999999  1
  Pb  Pb14  1  0.249846  0.604239  0.604222  1
  Pb  Pb15  1  0.249843  0.000015  0.395777  1
