# generated using pymatgen
data_Y2B(PdPt2)2
_symmetry_space_group_name_H-M   'P 1'
_cell_length_a   5.95005160
_cell_length_b   5.95005221
_cell_length_c   6.15653500
_cell_angle_alpha   58.84525369
_cell_angle_beta   58.84525017
_cell_angle_gamma   58.93438943
_symmetry_Int_Tables_number   1
_chemical_formula_structural   Y2B(PdPt2)2
_chemical_formula_sum   'Y2 B1 Pd2 Pt4'
_cell_volume   150.16309220
_cell_formula_units_Z   1
loop_
 _symmetry_equiv_pos_site_id
 _symmetry_equiv_pos_as_xyz
  1  'x, y, z'
loop_
 _atom_site_type_symbol
 _atom_site_label
 _atom_site_symmetry_multiplicity
 _atom_site_fract_x
 _atom_site_fract_y
 _atom_site_fract_z
 _atom_site_occupancy
  Y  Y0  1  0.254917  0.254917  0.243451  1
  Y  Y1  1  0.745083  0.745083  0.753286  1
  B  B2  1  0.000000  0.000000  0.007532  1
  Pd  Pd3  1  0.748694  0.251307  0.738206  1
  Pd  Pd4  1  0.251307  0.748694  0.738206  1
  Pt  Pt5  1  0.745773  0.254228  0.263450  1
  Pt  Pt6  1  0.254228  0.745773  0.263450  1
  Pt  Pt7  1  0.745396  0.745396  0.250813  1
  Pt  Pt8  1  0.254604  0.254604  0.741606  1
