# generated using pymatgen
data_HoPa(B2Os)2
_symmetry_space_group_name_H-M   'P 1'
_cell_length_a   5.34340900
_cell_length_b   5.82049200
_cell_length_c   6.48573600
_cell_angle_alpha   90.00000000
_cell_angle_beta   90.00000000
_cell_angle_gamma   90.00000000
_symmetry_Int_Tables_number   1
_chemical_formula_structural   HoPa(B2Os)2
_chemical_formula_sum   'Ho2 Pa2 B8 Os4'
_cell_volume   201.71462219
_cell_formula_units_Z   2
loop_
 _symmetry_equiv_pos_site_id
 _symmetry_equiv_pos_as_xyz
  1  'x, y, z'
loop_
 _atom_site_type_symbol
 _atom_site_label
 _atom_site_symmetry_multiplicity
 _atom_site_fract_x
 _atom_site_fract_y
 _atom_site_fract_z
 _atom_site_occupancy
  Ho  Ho0  1  0.750000  0.993640  0.663616  1
  Ho  Ho1  1  0.750000  0.493640  0.836384  1
  Pa  Pa2  1  0.250000  0.001209  0.332584  1
  Pa  Pa3  1  0.250000  0.501209  0.167416  1
  B  B4  1  0.085475  0.366397  0.539657  1
  B  B5  1  0.414525  0.866397  0.960343  1
  B  B6  1  0.587143  0.634235  0.467412  1
  B  B7  1  0.912857  0.134235  0.032588  1
  B  B8  1  0.912857  0.634235  0.467412  1
  B  B9  1  0.587143  0.134235  0.032588  1
  B  B10  1  0.414525  0.366397  0.539657  1
  B  B11  1  0.085475  0.866397  0.960343  1
  Os  Os12  1  0.250000  0.187924  0.819187  1
  Os  Os13  1  0.250000  0.687924  0.680813  1
  Os  Os14  1  0.750000  0.815961  0.190357  1
  Os  Os15  1  0.750000  0.315961  0.309643  1
