# generated using pymatgen
data_AcCrFe(Sb6Os)2
_symmetry_space_group_name_H-M   'P 1'
_cell_length_a   8.14207265
_cell_length_b   8.18654619
_cell_length_c   8.12378720
_cell_angle_alpha   109.46228908
_cell_angle_beta   109.33564048
_cell_angle_gamma   109.70889736
_symmetry_Int_Tables_number   1
_chemical_formula_structural   AcCrFe(Sb6Os)2
_chemical_formula_sum   'Ac1 Cr1 Fe1 Sb12 Os2'
_cell_volume   416.35943641
_cell_formula_units_Z   1
loop_
 _symmetry_equiv_pos_site_id
 _symmetry_equiv_pos_as_xyz
  1  'x, y, z'
loop_
 _atom_site_type_symbol
 _atom_site_label
 _atom_site_symmetry_multiplicity
 _atom_site_fract_x
 _atom_site_fract_y
 _atom_site_fract_z
 _atom_site_occupancy
  Ac  Ac0  1  0.000000  0.000000  0.000000  1
  Cr  Cr1  1  0.000000  0.000000  0.500000  1
  Fe  Fe2  1  0.000000  0.500000  0.000000  1
  Sb  Sb3  1  0.158500  0.813220  0.658851  1
  Sb  Sb4  1  0.841500  0.186780  0.341149  1
  Sb  Sb5  1  0.844384  0.502176  0.668454  1
  Sb  Sb6  1  0.155616  0.497824  0.331546  1
  Sb  Sb7  1  0.821329  0.652471  0.151004  1
  Sb  Sb8  1  0.178671  0.347529  0.848996  1
  Sb  Sb9  1  0.500921  0.658820  0.842704  1
  Sb  Sb10  1  0.499079  0.341180  0.157296  1
  Sb  Sb11  1  0.668793  0.166092  0.824105  1
  Sb  Sb12  1  0.331207  0.833908  0.175895  1
  Sb  Sb13  1  0.654590  0.840830  0.500392  1
  Sb  Sb14  1  0.345410  0.159170  0.499608  1
  Os  Os15  1  0.500000  0.000000  0.000000  1
  Os  Os16  1  0.500000  0.500000  0.500000  1
