# generated using pymatgen
data_Er3TmMnB12Rh
_symmetry_space_group_name_H-M   'P 1'
_cell_length_a   3.58765400
_cell_length_b   9.06219505
_cell_length_c   11.43005602
_cell_angle_alpha   90.15371168
_cell_angle_beta   90.00000000
_cell_angle_gamma   90.00000000
_symmetry_Int_Tables_number   1
_chemical_formula_structural   Er3TmMnB12Rh
_chemical_formula_sum   'Er6 Tm2 Mn2 B24 Rh2'
_cell_volume   371.61287635
_cell_formula_units_Z   2
loop_
 _symmetry_equiv_pos_site_id
 _symmetry_equiv_pos_as_xyz
  1  'x, y, z'
loop_
 _atom_site_type_symbol
 _atom_site_label
 _atom_site_symmetry_multiplicity
 _atom_site_fract_x
 _atom_site_fract_y
 _atom_site_fract_z
 _atom_site_occupancy
  Er  Er0  1  0.500000  0.317480  0.410178  1
  Er  Er1  1  0.500000  0.682520  0.589822  1
  Er  Er2  1  0.500000  0.172106  0.917675  1
  Er  Er3  1  0.500000  0.827894  0.082325  1
  Er  Er4  1  0.500000  0.440121  0.126439  1
  Er  Er5  1  0.500000  0.559879  0.873561  1
  Tm  Tm6  1  0.500000  0.052073  0.629726  1
  Tm  Tm7  1  0.500000  0.947927  0.370274  1
  Mn  Mn8  1  0.500000  0.139270  0.180665  1
  Mn  Mn9  1  0.500000  0.860730  0.819335  1
  B  B10  1  0.000000  0.107880  0.470584  1
  B  B11  1  0.000000  0.892120  0.529416  1
  B  B12  1  0.000000  0.390397  0.969932  1
  B  B13  1  0.000000  0.609603  0.030068  1
  B  B14  1  0.000000  0.131971  0.313393  1
  B  B15  1  0.000000  0.868029  0.686607  1
  B  B16  1  0.000000  0.367454  0.817003  1
  B  B17  1  0.000000  0.632546  0.182997  1
  B  B18  1  0.000000  0.053739  0.067900  1
  B  B19  1  0.000000  0.946261  0.932100  1
  B  B20  1  0.000000  0.446098  0.566209  1
  B  B21  1  0.000000  0.553902  0.433791  1
  B  B22  1  0.000000  0.482256  0.286843  1
  B  B23  1  0.000000  0.517744  0.713157  1
  B  B24  1  0.000000  0.014565  0.788363  1
  B  B25  1  0.000000  0.985435  0.211637  1
  B  B26  1  0.000000  0.245875  0.081552  1
  B  B27  1  0.000000  0.754125  0.918448  1
  B  B28  1  0.000000  0.249444  0.578975  1
  B  B29  1  0.000000  0.750556  0.421025  1
  B  B30  1  0.000000  0.290471  0.233455  1
  B  B31  1  0.000000  0.709529  0.766545  1
  B  B32  1  0.000000  0.206979  0.735065  1
  B  B33  1  0.000000  0.793021  0.264935  1
  Rh  Rh34  1  0.500000  0.361205  0.678693  1
  Rh  Rh35  1  0.500000  0.638795  0.321307  1
