# generated using pymatgen
data_Sr2H6Au
_symmetry_space_group_name_H-M   'P 1'
_cell_length_a   7.36448604
_cell_length_b   7.36448658
_cell_length_c   5.73641500
_cell_angle_alpha   90.00000000
_cell_angle_beta   90.00000000
_cell_angle_gamma   134.17326301
_symmetry_Int_Tables_number   1
_chemical_formula_structural   Sr2H6Au
_chemical_formula_sum   'Sr4 H12 Au2'
_cell_volume   223.14516273
_cell_formula_units_Z   2
loop_
 _symmetry_equiv_pos_site_id
 _symmetry_equiv_pos_as_xyz
  1  'x, y, z'
loop_
 _atom_site_type_symbol
 _atom_site_label
 _atom_site_symmetry_multiplicity
 _atom_site_fract_x
 _atom_site_fract_y
 _atom_site_fract_z
 _atom_site_occupancy
  Sr  Sr0  1  0.648220  0.351780  0.000000  1
  Sr  Sr1  1  0.351780  0.648220  0.000000  1
  Sr  Sr2  1  0.851780  0.148220  0.500000  1
  Sr  Sr3  1  0.148220  0.851780  0.500000  1
  H  H4  1  0.874789  0.125211  0.000000  1
  H  H5  1  0.125211  0.874789  0.000000  1
  H  H6  1  0.625211  0.374789  0.500000  1
  H  H7  1  0.374789  0.625211  0.500000  1
  H  H8  1  0.000116  0.500116  0.250000  1
  H  H9  1  0.999884  0.499884  0.750000  1
  H  H10  1  0.499884  0.999884  0.750000  1
  H  H11  1  0.500116  0.000116  0.250000  1
  H  H12  1  0.231169  0.231169  0.241865  1
  H  H13  1  0.768831  0.768831  0.758135  1
  H  H14  1  0.268831  0.268831  0.741865  1
  H  H15  1  0.731169  0.731169  0.258135  1
  Au  Au16  1  0.000000  0.000000  0.000000  1
  Au  Au17  1  0.500000  0.500000  0.500000  1
