# generated using pymatgen
data_HoBi3(MoO6)2
_symmetry_space_group_name_H-M   'P 1'
_cell_length_a   10.44190336
_cell_length_b   10.44190363
_cell_length_c   5.55307078
_cell_angle_alpha   76.98897006
_cell_angle_beta   76.98897185
_cell_angle_gamma   68.71495038
_symmetry_Int_Tables_number   1
_chemical_formula_structural   HoBi3(MoO6)2
_chemical_formula_sum   'Ho2 Bi6 Mo4 O24'
_cell_volume   542.78281225
_cell_formula_units_Z   2
loop_
 _symmetry_equiv_pos_site_id
 _symmetry_equiv_pos_as_xyz
  1  'x, y, z'
loop_
 _atom_site_type_symbol
 _atom_site_label
 _atom_site_symmetry_multiplicity
 _atom_site_fract_x
 _atom_site_fract_y
 _atom_site_fract_z
 _atom_site_occupancy
  Ho  Ho0  1  0.098517  0.901483  0.750000  1
  Ho  Ho1  1  0.901483  0.098517  0.250000  1
  Bi  Bi2  1  0.725854  0.957664  0.936396  1
  Bi  Bi3  1  0.274146  0.042336  0.063604  1
  Bi  Bi4  1  0.042336  0.274146  0.563604  1
  Bi  Bi5  1  0.957664  0.725854  0.436396  1
  Bi  Bi6  1  0.660119  0.339881  0.750000  1
  Bi  Bi7  1  0.339881  0.660119  0.250000  1
  Mo  Mo8  1  0.538298  0.798228  0.573005  1
  Mo  Mo9  1  0.461702  0.201772  0.426995  1
  Mo  Mo10  1  0.201772  0.461702  0.926995  1
  Mo  Mo11  1  0.798228  0.538298  0.073005  1
  O  O12  1  0.552579  0.638086  0.775408  1
  O  O13  1  0.447421  0.361914  0.224592  1
  O  O14  1  0.361914  0.447421  0.724592  1
  O  O15  1  0.638086  0.552579  0.275408  1
  O  O16  1  0.892042  0.933012  0.591170  1
  O  O17  1  0.107958  0.066988  0.408830  1
  O  O18  1  0.066988  0.107958  0.908830  1
  O  O19  1  0.933012  0.892042  0.091170  1
  O  O20  1  0.604547  0.168735  0.605326  1
  O  O21  1  0.395453  0.831265  0.394674  1
  O  O22  1  0.831265  0.395453  0.894674  1
  O  O23  1  0.168735  0.604547  0.105326  1
  O  O24  1  0.299134  0.207144  0.634411  1
  O  O25  1  0.700866  0.792856  0.365589  1
  O  O26  1  0.792856  0.700866  0.865589  1
  O  O27  1  0.207144  0.299134  0.134411  1
  O  O28  1  0.736713  0.155737  0.016187  1
  O  O29  1  0.263287  0.844263  0.983813  1
  O  O30  1  0.844263  0.263287  0.483813  1
  O  O31  1  0.155737  0.736713  0.516187  1
  O  O32  1  0.504727  0.929668  0.761074  1
  O  O33  1  0.495273  0.070332  0.238926  1
  O  O34  1  0.070332  0.495273  0.738926  1
  O  O35  1  0.929668  0.504727  0.261074  1
