# generated using pymatgen
data_Eu4Si10PdPt5
_symmetry_space_group_name_H-M   'P 1'
_cell_length_a   8.31543683
_cell_length_b   8.31527488
_cell_length_c   8.31540730
_cell_angle_alpha   137.49417270
_cell_angle_beta   105.09196766
_cell_angle_gamma   90.13578112
_symmetry_Int_Tables_number   1
_chemical_formula_structural   Eu4Si10PdPt5
_chemical_formula_sum   'Eu4 Si10 Pd1 Pt5'
_cell_volume   358.06185190
_cell_formula_units_Z   1
loop_
 _symmetry_equiv_pos_site_id
 _symmetry_equiv_pos_as_xyz
  1  'x, y, z'
loop_
 _atom_site_type_symbol
 _atom_site_label
 _atom_site_symmetry_multiplicity
 _atom_site_fract_x
 _atom_site_fract_y
 _atom_site_fract_z
 _atom_site_occupancy
  Eu  Eu0  1  0.104393  0.870651  0.233368  1
  Eu  Eu1  1  0.895649  0.128992  0.766284  1
  Eu  Eu2  1  0.637260  0.371009  0.266641  1
  Eu  Eu3  1  0.362702  0.629333  0.733700  1
  Si  Si4  1  0.000025  0.750004  0.750025  1
  Si  Si5  1  0.000009  0.250001  0.250000  1
  Si  Si6  1  0.270480  0.020510  0.750000  1
  Si  Si7  1  0.729470  0.479469  0.749980  1
  Si  Si8  1  0.729942  0.979918  0.250002  1
  Si  Si9  1  0.270081  0.520085  0.250008  1
  Si  Si10  1  0.761501  0.611317  0.148248  1
  Si  Si11  1  0.238490  0.386730  0.849783  1
  Si  Si12  1  0.463040  0.113242  0.351735  1
  Si  Si13  1  0.536949  0.888702  0.650221  1
  Pd  Pd14  1  0.499992  0.750021  0.249997  1
  Pt  Pt15  1  0.500018  0.250003  0.750006  1
  Pt  Pt16  1  0.022871  0.634985  0.387168  1
  Pt  Pt17  1  0.977122  0.364331  0.612133  1
  Pt  Pt18  1  0.247821  0.135676  0.112798  1
  Pt  Pt19  1  0.752187  0.865021  0.887905  1
