# generated using pymatgen
data_Er5Sc3Tc3B24Ir
_symmetry_space_group_name_H-M   'P 1'
_cell_length_a   3.58989800
_cell_length_b   9.00819708
_cell_length_c   11.38514628
_cell_angle_alpha   90.05923067
_cell_angle_beta   90.00000000
_cell_angle_gamma   90.00000000
_symmetry_Int_Tables_number   1
_chemical_formula_structural   Er5Sc3Tc3B24Ir
_chemical_formula_sum   'Er5 Sc3 Tc3 B24 Ir1'
_cell_volume   368.17845505
_cell_formula_units_Z   1
loop_
 _symmetry_equiv_pos_site_id
 _symmetry_equiv_pos_as_xyz
  1  'x, y, z'
loop_
 _atom_site_type_symbol
 _atom_site_label
 _atom_site_symmetry_multiplicity
 _atom_site_fract_x
 _atom_site_fract_y
 _atom_site_fract_z
 _atom_site_occupancy
  Er  Er0  1  0.500000  0.316260  0.416980  1
  Er  Er1  1  0.500000  0.680233  0.590578  1
  Er  Er2  1  0.500000  0.177404  0.911461  1
  Er  Er3  1  0.500000  0.825558  0.080821  1
  Er  Er4  1  0.500000  0.441476  0.127303  1
  Sc  Sc5  1  0.500000  0.557169  0.868514  1
  Sc  Sc6  1  0.500000  0.055649  0.629075  1
  Sc  Sc7  1  0.500000  0.947222  0.372427  1
  Tc  Tc8  1  0.500000  0.135917  0.183190  1
  Tc  Tc9  1  0.500000  0.860625  0.817863  1
  Tc  Tc10  1  0.500000  0.360611  0.678988  1
  B  B11  1  0.000000  0.096796  0.473917  1
  B  B12  1  0.000000  0.901549  0.526917  1
  B  B13  1  0.000000  0.401224  0.970199  1
  B  B14  1  0.000000  0.601650  0.024855  1
  B  B15  1  0.000000  0.127924  0.318393  1
  B  B16  1  0.000000  0.871202  0.682907  1
  B  B17  1  0.000000  0.371235  0.815601  1
  B  B18  1  0.000000  0.632490  0.183525  1
  B  B19  1  0.000000  0.052009  0.066844  1
  B  B20  1  0.000000  0.945843  0.931959  1
  B  B21  1  0.000000  0.445861  0.566905  1
  B  B22  1  0.000000  0.555382  0.434861  1
  B  B23  1  0.000000  0.482921  0.288493  1
  B  B24  1  0.000000  0.519226  0.713355  1
  B  B25  1  0.000000  0.019199  0.785273  1
  B  B26  1  0.000000  0.980231  0.214508  1
  B  B27  1  0.000000  0.248460  0.081319  1
  B  B28  1  0.000000  0.747903  0.917469  1
  B  B29  1  0.000000  0.246410  0.581642  1
  B  B30  1  0.000000  0.754357  0.420751  1
  B  B31  1  0.000000  0.291298  0.237155  1
  B  B32  1  0.000000  0.706167  0.764313  1
  B  B33  1  0.000000  0.206062  0.734736  1
  B  B34  1  0.000000  0.794751  0.265659  1
  Ir  Ir35  1  0.500000  0.641731  0.321248  1
