# generated using pymatgen
data_Tb8Ga(PdPt7)3
_symmetry_space_group_name_H-M   'P 1'
_cell_length_a   8.39810100
_cell_length_b   8.39552714
_cell_length_c   8.36265900
_cell_angle_alpha   90.00000000
_cell_angle_beta   90.00000000
_cell_angle_gamma   90.01057807
_symmetry_Int_Tables_number   1
_chemical_formula_structural   Tb8Ga(PdPt7)3
_chemical_formula_sum   'Tb8 Ga1 Pd3 Pt21'
_cell_volume   589.62168042
_cell_formula_units_Z   1
loop_
 _symmetry_equiv_pos_site_id
 _symmetry_equiv_pos_as_xyz
  1  'x, y, z'
loop_
 _atom_site_type_symbol
 _atom_site_label
 _atom_site_symmetry_multiplicity
 _atom_site_fract_x
 _atom_site_fract_y
 _atom_site_fract_z
 _atom_site_occupancy
  Tb  Tb0  1  0.250661  0.250282  0.749521  1
  Tb  Tb1  1  0.251650  0.748932  0.251138  1
  Tb  Tb2  1  0.748578  0.251613  0.251386  1
  Tb  Tb3  1  0.747796  0.747799  0.747730  1
  Tb  Tb4  1  0.747796  0.747799  0.252270  1
  Tb  Tb5  1  0.748578  0.251613  0.748614  1
  Tb  Tb6  1  0.251650  0.748932  0.748862  1
  Tb  Tb7  1  0.250661  0.250282  0.250479  1
  Ga  Ga8  1  0.004426  0.004187  0.000000  1
  Pd  Pd9  1  0.745878  0.499706  0.500000  1
  Pd  Pd10  1  0.998714  0.708836  0.000000  1
  Pd  Pd11  1  0.709634  0.998888  0.000000  1
  Pt  Pt12  1  0.498903  0.499468  0.746877  1
  Pt  Pt13  1  0.499011  0.254096  0.500000  1
  Pt  Pt14  1  0.253757  0.499626  0.500000  1
  Pt  Pt15  1  0.498903  0.499468  0.253123  1
  Pt  Pt16  1  0.499101  0.745889  0.500000  1
  Pt  Pt17  1  0.998283  0.998683  0.702224  1
  Pt  Pt18  1  0.998435  0.298434  0.000000  1
  Pt  Pt19  1  0.298063  0.998654  0.000000  1
  Pt  Pt20  1  0.998283  0.998683  0.297776  1
  Pt  Pt21  1  0.000615  0.500196  0.738754  1
  Pt  Pt22  1  0.500475  0.260812  0.000000  1
  Pt  Pt23  1  0.262153  0.999858  0.500000  1
  Pt  Pt24  1  0.000473  0.262421  0.500000  1
  Pt  Pt25  1  0.500439  0.000046  0.739258  1
  Pt  Pt26  1  0.261031  0.500205  0.000000  1
  Pt  Pt27  1  0.000615  0.500196  0.261246  1
  Pt  Pt28  1  0.500739  0.737962  0.000000  1
  Pt  Pt29  1  0.000631  0.735850  0.500000  1
  Pt  Pt30  1  0.500439  0.000046  0.260742  1
  Pt  Pt31  1  0.735909  0.000052  0.500000  1
  Pt  Pt32  1  0.737718  0.500483  0.000000  1
