# generated using pymatgen
data_Li4Nd3GdAs8
_symmetry_space_group_name_H-M   'P 1'
_cell_length_a   3.91040600
_cell_length_b   3.96640921
_cell_length_c   21.08437800
_cell_angle_alpha   89.98132229
_cell_angle_beta   90.00000000
_cell_angle_gamma   90.00000000
_symmetry_Int_Tables_number   1
_chemical_formula_structural   Li4Nd3GdAs8
_chemical_formula_sum   'Li4 Nd3 Gd1 As8'
_cell_volume   327.02438612
_cell_formula_units_Z   1
loop_
 _symmetry_equiv_pos_site_id
 _symmetry_equiv_pos_as_xyz
  1  'x, y, z'
loop_
 _atom_site_type_symbol
 _atom_site_label
 _atom_site_symmetry_multiplicity
 _atom_site_fract_x
 _atom_site_fract_y
 _atom_site_fract_z
 _atom_site_occupancy
  Li  Li0  1  0.750000  0.726677  0.248988  1
  Li  Li1  1  0.250000  0.226666  0.249647  1
  Li  Li2  1  0.750000  0.773472  0.751570  1
  Li  Li3  1  0.250000  0.273409  0.752062  1
  Nd  Nd4  1  0.250000  0.730009  0.114679  1
  Nd  Nd5  1  0.750000  0.229272  0.383429  1
  Nd  Nd6  1  0.250000  0.770509  0.617285  1
  Gd  Gd7  1  0.750000  0.269651  0.883571  1
  As  As8  1  0.750000  0.227452  0.170242  1
  As  As9  1  0.250000  0.726793  0.328359  1
  As  As10  1  0.750000  0.273113  0.672578  1
  As  As11  1  0.250000  0.772420  0.832048  1
  As  As12  1  0.250000  0.214346  0.998854  1
  As  As13  1  0.750000  0.713246  0.498952  1
  As  As14  1  0.250000  0.286519  0.501608  1
  As  As15  1  0.750000  0.786444  0.996127  1
