# generated using pymatgen
data_Er20IrOs6Pt5
_symmetry_space_group_name_H-M   'P 1'
_cell_length_a   10.84528966
_cell_length_b   10.84528980
_cell_length_c   6.40228812
_cell_angle_alpha   89.99424292
_cell_angle_beta   89.99423973
_cell_angle_gamma   89.64338480
_symmetry_Int_Tables_number   1
_chemical_formula_structural   Er20IrOs6Pt5
_chemical_formula_sum   'Er20 Ir1 Os6 Pt5'
_cell_volume   753.02451533
_cell_formula_units_Z   1
loop_
 _symmetry_equiv_pos_site_id
 _symmetry_equiv_pos_as_xyz
  1  'x, y, z'
loop_
 _atom_site_type_symbol
 _atom_site_label
 _atom_site_symmetry_multiplicity
 _atom_site_fract_x
 _atom_site_fract_y
 _atom_site_fract_z
 _atom_site_occupancy
  Er  Er0  1  0.297205  0.089204  0.372625  1
  Er  Er1  1  0.297377  0.911551  0.872308  1
  Er  Er2  1  0.702396  0.084197  0.872290  1
  Er  Er3  1  0.702467  0.910186  0.372245  1
  Er  Er4  1  0.584218  0.791010  0.877253  1
  Er  Er5  1  0.581238  0.205620  0.371346  1
  Er  Er6  1  0.417101  0.792900  0.374756  1
  Er  Er7  1  0.412754  0.206625  0.878719  1
  Er  Er8  1  0.208990  0.415782  0.622747  1
  Er  Er9  1  0.207100  0.582899  0.125244  1
  Er  Er10  1  0.794380  0.418762  0.128654  1
  Er  Er11  1  0.793375  0.587246  0.621281  1
  Er  Er12  1  0.910796  0.702795  0.127375  1
  Er  Er13  1  0.915803  0.297604  0.627710  1
  Er  Er14  1  0.088449  0.702623  0.627692  1
  Er  Er15  1  0.089814  0.297533  0.127755  1
  Er  Er16  1  0.999927  0.999844  0.499368  1
  Er  Er17  1  0.000156  0.000073  0.000632  1
  Er  Er18  1  0.498251  0.501363  0.003403  1
  Er  Er19  1  0.498637  0.501749  0.496597  1
  Ir  Ir20  1  0.345384  0.654616  0.750000  1
  Os  Os21  1  0.652933  0.652241  0.249672  1
  Os  Os22  1  0.347759  0.347067  0.250328  1
  Os  Os23  1  0.500007  0.000023  0.122267  1
  Os  Os24  1  0.499969  0.000202  0.624455  1
  Os  Os25  1  0.999798  0.500031  0.875545  1
  Os  Os26  1  0.999977  0.499993  0.377733  1
  Pt  Pt27  1  0.847345  0.152655  0.250000  1
  Pt  Pt28  1  0.848888  0.849442  0.750309  1
  Pt  Pt29  1  0.150558  0.151112  0.749691  1
  Pt  Pt30  1  0.152079  0.847921  0.250000  1
  Pt  Pt31  1  0.654868  0.345132  0.750000  1
