# generated using pymatgen
data_Er10Hg8Pd3Pt
_symmetry_space_group_name_H-M   'P 1'
_cell_length_a   3.58824500
_cell_length_b   7.93594414
_cell_length_c   18.18320431
_cell_angle_alpha   90.02128206
_cell_angle_beta   90.00000000
_cell_angle_gamma   90.00000000
_symmetry_Int_Tables_number   1
_chemical_formula_structural   Er10Hg8Pd3Pt
_chemical_formula_sum   'Er10 Hg8 Pd3 Pt1'
_cell_volume   517.78692446
_cell_formula_units_Z   1
loop_
 _symmetry_equiv_pos_site_id
 _symmetry_equiv_pos_as_xyz
  1  'x, y, z'
loop_
 _atom_site_type_symbol
 _atom_site_label
 _atom_site_symmetry_multiplicity
 _atom_site_fract_x
 _atom_site_fract_y
 _atom_site_fract_z
 _atom_site_occupancy
  Er  Er0  1  0.000000  0.499953  0.499816  1
  Er  Er1  1  0.000000  0.000147  0.000003  1
  Er  Er2  1  0.000000  0.733332  0.282833  1
  Er  Er3  1  0.000000  0.263610  0.716156  1
  Er  Er4  1  0.000000  0.763869  0.783679  1
  Er  Er5  1  0.000000  0.239991  0.216034  1
  Er  Er6  1  0.000000  0.612613  0.083801  1
  Er  Er7  1  0.000000  0.386600  0.917215  1
  Er  Er8  1  0.000000  0.886767  0.582862  1
  Er  Er9  1  0.000000  0.113345  0.417127  1
  Hg  Hg10  1  0.500000  0.713692  0.933838  1
  Hg  Hg11  1  0.500000  0.284763  0.065186  1
  Hg  Hg12  1  0.500000  0.786425  0.434039  1
  Hg  Hg13  1  0.500000  0.213521  0.566097  1
  Hg  Hg14  1  0.500000  0.583016  0.648125  1
  Hg  Hg15  1  0.500000  0.416185  0.353079  1
  Hg  Hg16  1  0.500000  0.919053  0.148011  1
  Hg  Hg17  1  0.500000  0.083036  0.851811  1
  Pd  Pd18  1  0.500000  0.473903  0.804255  1
  Pd  Pd19  1  0.500000  0.973958  0.695850  1
  Pd  Pd20  1  0.500000  0.026197  0.304298  1
  Pt  Pt21  1  0.500000  0.526024  0.195885  1
