# generated using pymatgen
data_MgAl2Fe(AuO2)4
_symmetry_space_group_name_H-M   'P 1'
_cell_length_a   5.18939328
_cell_length_b   6.08286187
_cell_length_c   7.03369378
_cell_angle_alpha   64.36307975
_cell_angle_beta   75.86008083
_cell_angle_gamma   89.97095501
_symmetry_Int_Tables_number   1
_chemical_formula_structural   MgAl2Fe(AuO2)4
_chemical_formula_sum   'Mg1 Al2 Fe1 Au4 O8'
_cell_volume   192.69539944
_cell_formula_units_Z   1
loop_
 _symmetry_equiv_pos_site_id
 _symmetry_equiv_pos_as_xyz
  1  'x, y, z'
loop_
 _atom_site_type_symbol
 _atom_site_label
 _atom_site_symmetry_multiplicity
 _atom_site_fract_x
 _atom_site_fract_y
 _atom_site_fract_z
 _atom_site_occupancy
  Mg  Mg0  1  0.500002  0.747795  0.000005  1
  Al  Al1  1  0.999992  0.497979  0.000012  1
  Al  Al2  1  0.499993  0.254248  0.999988  1
  Fe  Fe3  1  0.000017  0.998464  0.999995  1
  Au  Au4  1  0.006924  0.999456  0.499508  1
  Au  Au5  1  0.993074  0.498878  0.500500  1
  Au  Au6  1  0.493970  0.750061  0.501883  1
  Au  Au7  1  0.506043  0.251999  0.498109  1
  O  O8  1  0.905649  0.819335  0.835987  1
  O  O9  1  0.877584  0.341458  0.839821  1
  O  O10  1  0.373725  0.562864  0.841430  1
  O  O11  1  0.394232  0.099981  0.836901  1
  O  O12  1  0.122406  0.181201  0.160152  1
  O  O13  1  0.094345  0.655198  0.164043  1
  O  O14  1  0.605765  0.936860  0.163080  1
  O  O15  1  0.626280  0.404223  0.158585  1
