# generated using pymatgen
data_Hf10InGa2Sb5
_symmetry_space_group_name_H-M   'P 1'
_cell_length_a   8.63363232
_cell_length_b   8.60985858
_cell_length_c   5.80542800
_cell_angle_alpha   90.00000000
_cell_angle_beta   90.00000000
_cell_angle_gamma   119.90895501
_symmetry_Int_Tables_number   1
_chemical_formula_structural   Hf10InGa2Sb5
_chemical_formula_sum   'Hf10 In1 Ga2 Sb5'
_cell_volume   374.06936845
_cell_formula_units_Z   1
loop_
 _symmetry_equiv_pos_site_id
 _symmetry_equiv_pos_as_xyz
  1  'x, y, z'
loop_
 _atom_site_type_symbol
 _atom_site_label
 _atom_site_symmetry_multiplicity
 _atom_site_fract_x
 _atom_site_fract_y
 _atom_site_fract_z
 _atom_site_occupancy
  Hf  Hf0  1  0.733362  0.732889  0.750000  1
  Hf  Hf1  1  0.266638  0.999526  0.750000  1
  Hf  Hf2  1  0.000000  0.265317  0.750000  1
  Hf  Hf3  1  0.271592  0.270730  0.250000  1
  Hf  Hf4  1  0.728408  0.999139  0.250000  1
  Hf  Hf5  1  0.000000  0.731263  0.250000  1
  Hf  Hf6  1  0.665243  0.333306  0.000931  1
  Hf  Hf7  1  0.334757  0.668065  0.000931  1
  Hf  Hf8  1  0.334757  0.668065  0.499069  1
  Hf  Hf9  1  0.665243  0.333306  0.499069  1
  In  In10  1  0.000000  0.385180  0.250000  1
  Ga  Ga11  1  0.000000  0.001366  0.004268  1
  Ga  Ga12  1  0.000000  0.001366  0.495732  1
  Sb  Sb13  1  0.389210  0.390088  0.750000  1
  Sb  Sb14  1  0.610790  0.000879  0.750000  1
  Sb  Sb15  1  0.000000  0.606660  0.750000  1
  Sb  Sb16  1  0.611178  0.612017  0.250000  1
  Sb  Sb17  1  0.388822  0.000839  0.250000  1
