# generated using pymatgen
data_Y5Lu3(Si3Rh)4
_symmetry_space_group_name_H-M   'P 1'
_cell_length_a   8.15329700
_cell_length_b   8.15299467
_cell_length_c   7.83718800
_cell_angle_alpha   90.00000000
_cell_angle_beta   90.00000000
_cell_angle_gamma   120.00394229
_symmetry_Int_Tables_number   1
_chemical_formula_structural   Y5Lu3(Si3Rh)4
_chemical_formula_sum   'Y5 Lu3 Si12 Rh4'
_cell_volume   451.15322244
_cell_formula_units_Z   1
loop_
 _symmetry_equiv_pos_site_id
 _symmetry_equiv_pos_as_xyz
  1  'x, y, z'
loop_
 _atom_site_type_symbol
 _atom_site_label
 _atom_site_symmetry_multiplicity
 _atom_site_fract_x
 _atom_site_fract_y
 _atom_site_fract_z
 _atom_site_occupancy
  Y  Y0  1  0.999999  0.999992  0.250000  1
  Y  Y1  1  0.999991  0.000002  0.750000  1
  Y  Y2  1  0.508777  0.491194  0.250000  1
  Y  Y3  1  0.508793  0.017580  0.250000  1
  Y  Y4  1  0.982407  0.491202  0.250000  1
  Lu  Lu5  1  0.490837  0.509208  0.750000  1
  Lu  Lu6  1  0.490805  0.981632  0.750000  1
  Lu  Lu7  1  0.018391  0.509229  0.750000  1
  Si  Si8  1  0.167118  0.832880  0.503070  1
  Si  Si9  1  0.167101  0.334220  0.503056  1
  Si  Si10  1  0.665782  0.832891  0.503065  1
  Si  Si11  1  0.832375  0.167619  0.502947  1
  Si  Si12  1  0.832389  0.664766  0.502950  1
  Si  Si13  1  0.335232  0.167604  0.502944  1
  Si  Si14  1  0.832375  0.167619  0.997053  1
  Si  Si15  1  0.832389  0.664766  0.997050  1
  Si  Si16  1  0.335232  0.167604  0.997056  1
  Si  Si17  1  0.167118  0.832880  0.996930  1
  Si  Si18  1  0.167101  0.334220  0.996944  1
  Si  Si19  1  0.665782  0.832891  0.996935  1
  Rh  Rh20  1  0.333335  0.666678  0.474690  1
  Rh  Rh21  1  0.666668  0.333322  0.543055  1
  Rh  Rh22  1  0.666668  0.333322  0.956945  1
  Rh  Rh23  1  0.333335  0.666678  0.025310  1
