# generated using pymatgen
data_Hf6Al6Co2CuNi2Pt
_symmetry_space_group_name_H-M   'P 1'
_cell_length_a   7.05592200
_cell_length_b   7.05592189
_cell_length_c   6.77425600
_cell_angle_alpha   90.00000000
_cell_angle_beta   90.00000000
_cell_angle_gamma   120.00000987
_symmetry_Int_Tables_number   1
_chemical_formula_structural   Hf6Al6Co2CuNi2Pt
_chemical_formula_sum   'Hf6 Al6 Co2 Cu1 Ni2 Pt1'
_cell_volume   292.07859384
_cell_formula_units_Z   1
loop_
 _symmetry_equiv_pos_site_id
 _symmetry_equiv_pos_as_xyz
  1  'x, y, z'
loop_
 _atom_site_type_symbol
 _atom_site_label
 _atom_site_symmetry_multiplicity
 _atom_site_fract_x
 _atom_site_fract_y
 _atom_site_fract_z
 _atom_site_occupancy
  Hf  Hf0  1  0.606915  0.018519  0.750544  1
  Hf  Hf1  1  0.981481  0.588396  0.750544  1
  Hf  Hf2  1  0.411604  0.393085  0.750544  1
  Hf  Hf3  1  0.980479  0.588496  0.249615  1
  Hf  Hf4  1  0.608017  0.019521  0.249615  1
  Hf  Hf5  1  0.411504  0.391983  0.249615  1
  Al  Al6  1  0.742512  0.746245  0.000085  1
  Al  Al7  1  0.253755  0.996269  0.000085  1
  Al  Al8  1  0.003731  0.257488  0.000085  1
  Al  Al9  1  0.747736  0.754878  0.500011  1
  Al  Al10  1  0.245122  0.992858  0.500011  1
  Al  Al11  1  0.007142  0.252264  0.500011  1
  Co  Co12  1  0.666667  0.333333  0.999398  1
  Co  Co13  1  0.666667  0.333333  0.500483  1
  Cu  Cu14  1  0.333333  0.666667  0.497716  1
  Ni  Ni15  1  0.000000  0.000000  0.757105  1
  Ni  Ni16  1  0.000000  0.000000  0.243044  1
  Pt  Pt17  1  0.333333  0.666667  0.001491  1
