# generated using pymatgen
data_Dy2Y10ZnCo4Sb
_symmetry_space_group_name_H-M   'P 1'
_cell_length_a   8.34719995
_cell_length_b   8.37171637
_cell_length_c   8.34720051
_cell_angle_alpha   111.77805099
_cell_angle_beta   108.70732491
_cell_angle_gamma   107.83425341
_symmetry_Int_Tables_number   1
_chemical_formula_structural   Dy2Y10ZnCo4Sb
_chemical_formula_sum   'Dy2 Y10 Zn1 Co4 Sb1'
_cell_volume   449.10484175
_cell_formula_units_Z   1
loop_
 _symmetry_equiv_pos_site_id
 _symmetry_equiv_pos_as_xyz
  1  'x, y, z'
loop_
 _atom_site_type_symbol
 _atom_site_label
 _atom_site_symmetry_multiplicity
 _atom_site_fract_x
 _atom_site_fract_y
 _atom_site_fract_z
 _atom_site_occupancy
  Dy  Dy0  1  0.324325  0.009055  0.684731  1
  Dy  Dy1  1  0.675675  0.990945  0.315269  1
  Y  Y2  1  0.429068  0.228167  0.199607  1
  Y  Y3  1  0.570932  0.771833  0.800393  1
  Y  Y4  1  0.028559  0.228167  0.799099  1
  Y  Y5  1  0.971441  0.771833  0.200901  1
  Y  Y6  1  0.179156  0.281285  0.460695  1
  Y  Y7  1  0.820844  0.718715  0.539305  1
  Y  Y8  1  0.179411  0.718715  0.897870  1
  Y  Y9  1  0.820589  0.281285  0.102130  1
  Y  Y10  1  0.324281  0.636479  0.312196  1
  Y  Y11  1  0.675719  0.363521  0.687804  1
  Zn  Zn12  1  0.000000  0.000000  0.000000  1
  Co  Co13  1  0.346326  0.000000  0.346326  1
  Co  Co14  1  0.653674  0.000000  0.653674  1
  Co  Co15  1  0.113508  0.614524  0.501015  1
  Co  Co16  1  0.886492  0.385476  0.498985  1
  Sb  Sb17  1  0.500000  0.500000  0.000000  1
