# generated using pymatgen
data_Tb7Y(Er3Sn4)4
_symmetry_space_group_name_H-M   'P 1'
_cell_length_a   8.00492902
_cell_length_b   8.14444001
_cell_length_c   15.39065606
_cell_angle_alpha   89.99511669
_cell_angle_beta   90.00867453
_cell_angle_gamma   90.00127739
_symmetry_Int_Tables_number   1
_chemical_formula_structural   Tb7Y(Er3Sn4)4
_chemical_formula_sum   'Tb7 Y1 Er12 Sn16'
_cell_volume   1003.40402877
_cell_formula_units_Z   1
loop_
 _symmetry_equiv_pos_site_id
 _symmetry_equiv_pos_as_xyz
  1  'x, y, z'
loop_
 _atom_site_type_symbol
 _atom_site_label
 _atom_site_symmetry_multiplicity
 _atom_site_fract_x
 _atom_site_fract_y
 _atom_site_fract_z
 _atom_site_occupancy
  Tb  Tb0  1  0.522390  0.320829  0.902266  1
  Tb  Tb1  1  0.022380  0.179151  0.597683  1
  Tb  Tb2  1  0.477610  0.679174  0.402270  1
  Tb  Tb3  1  0.977572  0.820801  0.097697  1
  Tb  Tb4  1  0.477578  0.679146  0.097706  1
  Tb  Tb5  1  0.977597  0.820836  0.402273  1
  Tb  Tb6  1  0.522399  0.320800  0.597763  1
  Y  Y7  1  0.022540  0.179112  0.902281  1
  Er  Er8  1  0.367396  0.836515  0.877676  1
  Er  Er9  1  0.867363  0.663518  0.622336  1
  Er  Er10  1  0.632633  0.163532  0.377673  1
  Er  Er11  1  0.132638  0.336504  0.122329  1
  Er  Er12  1  0.632633  0.163554  0.122315  1
  Er  Er13  1  0.132632  0.336483  0.377673  1
  Er  Er14  1  0.367386  0.836484  0.622324  1
  Er  Er15  1  0.867383  0.663515  0.877685  1
  Er  Er16  1  0.198659  0.503657  0.750005  1
  Er  Er17  1  0.698652  0.996392  0.750034  1
  Er  Er18  1  0.801317  0.496368  0.249975  1
  Er  Er19  1  0.301336  0.003632  0.249996  1
  Sn  Sn20  1  0.293352  0.036253  0.041885  1
  Sn  Sn21  1  0.793468  0.463828  0.458094  1
  Sn  Sn22  1  0.706522  0.963799  0.541915  1
  Sn  Sn23  1  0.206487  0.536159  0.958086  1
  Sn  Sn24  1  0.706575  0.963845  0.958058  1
  Sn  Sn25  1  0.206550  0.536194  0.541915  1
  Sn  Sn26  1  0.293449  0.036182  0.458087  1
  Sn  Sn27  1  0.793445  0.463852  0.041936  1
  Sn  Sn28  1  0.564956  0.620834  0.750029  1
  Sn  Sn29  1  0.064973  0.879191  0.749975  1
  Sn  Sn30  1  0.435018  0.379163  0.249989  1
  Sn  Sn31  1  0.935050  0.120814  0.249965  1
  Sn  Sn32  1  0.330784  0.147034  0.750031  1
  Sn  Sn33  1  0.830885  0.352865  0.750090  1
  Sn  Sn34  1  0.669193  0.852935  0.250000  1
  Sn  Sn35  1  0.169200  0.647052  0.249984  1
