# generated using pymatgen
data_Nd4P4Ir3Rh
_symmetry_space_group_name_H-M   'P 1'
_cell_length_a   6.26071802
_cell_length_b   6.26071802
_cell_length_c   6.26071802
_cell_angle_alpha   90.00602161
_cell_angle_beta   90.00602161
_cell_angle_gamma   90.00602161
_symmetry_Int_Tables_number   1
_chemical_formula_structural   Nd4P4Ir3Rh
_chemical_formula_sum   'Nd4 P4 Ir3 Rh1'
_cell_volume   245.39879374
_cell_formula_units_Z   1
loop_
 _symmetry_equiv_pos_site_id
 _symmetry_equiv_pos_as_xyz
  1  'x, y, z'
loop_
 _atom_site_type_symbol
 _atom_site_label
 _atom_site_symmetry_multiplicity
 _atom_site_fract_x
 _atom_site_fract_y
 _atom_site_fract_z
 _atom_site_occupancy
  Nd  Nd0  1  0.910469  0.411263  0.089390  1
  Nd  Nd1  1  0.089390  0.910469  0.411263  1
  Nd  Nd2  1  0.588985  0.588985  0.588985  1
  Nd  Nd3  1  0.411263  0.089390  0.910469  1
  P  P4  1  0.681677  0.818350  0.181808  1
  P  P5  1  0.318270  0.318270  0.318270  1
  P  P6  1  0.818350  0.181808  0.681677  1
  P  P7  1  0.181808  0.681677  0.818350  1
  Ir  Ir8  1  0.420711  0.579479  0.079332  1
  Ir  Ir9  1  0.579479  0.079332  0.420711  1
  Ir  Ir10  1  0.079332  0.420711  0.579479  1
  Rh  Rh11  1  0.920264  0.920264  0.920264  1
