# generated using pymatgen
data_LiHf4TcIr2
_symmetry_space_group_name_H-M   'P 1'
_cell_length_a   6.52105300
_cell_length_b   4.62155700
_cell_length_c   9.24325900
_cell_angle_alpha   90.00000000
_cell_angle_beta   90.00064742
_cell_angle_gamma   90.00000000
_symmetry_Int_Tables_number   1
_chemical_formula_structural   LiHf4TcIr2
_chemical_formula_sum   'Li2 Hf8 Tc2 Ir4'
_cell_volume   278.56796145
_cell_formula_units_Z   2
loop_
 _symmetry_equiv_pos_site_id
 _symmetry_equiv_pos_as_xyz
  1  'x, y, z'
loop_
 _atom_site_type_symbol
 _atom_site_label
 _atom_site_symmetry_multiplicity
 _atom_site_fract_x
 _atom_site_fract_y
 _atom_site_fract_z
 _atom_site_occupancy
  Li  Li0  1  0.749997  0.250001  0.125597  1
  Li  Li1  1  0.250000  0.749999  0.374410  1
  Hf  Hf2  1  0.498318  0.749999  0.122453  1
  Hf  Hf3  1  0.001672  0.749999  0.122457  1
  Hf  Hf4  1  0.501680  0.250001  0.377549  1
  Hf  Hf5  1  0.998327  0.250001  0.377546  1
  Hf  Hf6  1  0.998363  0.749999  0.627179  1
  Hf  Hf7  1  0.501625  0.749999  0.627175  1
  Hf  Hf8  1  0.001633  0.250001  0.872816  1
  Hf  Hf9  1  0.498373  0.250001  0.872816  1
  Tc  Tc10  1  0.750000  0.250001  0.625116  1
  Tc  Tc11  1  0.250002  0.749999  0.874882  1
  Ir  Ir12  1  0.250001  0.250001  0.129640  1
  Ir  Ir13  1  0.750001  0.749999  0.370372  1
  Ir  Ir14  1  0.250004  0.250001  0.620007  1
  Ir  Ir15  1  0.750003  0.749999  0.879983  1
