# generated using pymatgen
data_Hf6Mn3(FeCo4)4
_symmetry_space_group_name_H-M   'P 1'
_cell_length_a   8.12679172
_cell_length_b   8.11824243
_cell_length_c   8.12679200
_cell_angle_alpha   59.96515659
_cell_angle_beta   59.99999886
_cell_angle_gamma   59.96515462
_symmetry_Int_Tables_number   1
_chemical_formula_structural   Hf6Mn3(FeCo4)4
_chemical_formula_sum   'Hf6 Mn3 Fe4 Co16'
_cell_volume   378.92770232
_cell_formula_units_Z   1
loop_
 _symmetry_equiv_pos_site_id
 _symmetry_equiv_pos_as_xyz
  1  'x, y, z'
loop_
 _atom_site_type_symbol
 _atom_site_label
 _atom_site_symmetry_multiplicity
 _atom_site_fract_x
 _atom_site_fract_y
 _atom_site_fract_z
 _atom_site_occupancy
  Hf  Hf0  1  0.209413  0.790145  0.791029  1
  Hf  Hf1  1  0.791029  0.790145  0.209413  1
  Hf  Hf2  1  0.790587  0.209855  0.208971  1
  Hf  Hf3  1  0.208971  0.209855  0.790587  1
  Hf  Hf4  1  0.790587  0.209855  0.790587  1
  Hf  Hf5  1  0.209413  0.790145  0.209413  1
  Mn  Mn6  1  0.500000  0.500000  0.000000  1
  Mn  Mn7  1  0.000000  0.500000  0.000000  1
  Mn  Mn8  1  0.000000  0.500000  0.500000  1
  Fe  Fe9  1  0.500000  0.000000  0.500000  1
  Fe  Fe10  1  0.500000  0.500000  0.500000  1
  Fe  Fe11  1  0.000000  0.000000  0.500000  1
  Fe  Fe12  1  0.500000  0.000000  0.000000  1
  Co  Co13  1  0.620991  0.621468  0.136552  1
  Co  Co14  1  0.174054  0.477836  0.174054  1
  Co  Co15  1  0.863448  0.378532  0.379009  1
  Co  Co16  1  0.521398  0.826264  0.826170  1
  Co  Co17  1  0.478602  0.173736  0.173830  1
  Co  Co18  1  0.826170  0.826264  0.521398  1
  Co  Co19  1  0.173830  0.173736  0.478602  1
  Co  Co20  1  0.136552  0.621468  0.620991  1
  Co  Co21  1  0.173830  0.173736  0.173830  1
  Co  Co22  1  0.379009  0.378532  0.863448  1
  Co  Co23  1  0.620991  0.621468  0.620991  1
  Co  Co24  1  0.378660  0.864018  0.378660  1
  Co  Co25  1  0.379009  0.378532  0.379009  1
  Co  Co26  1  0.826170  0.826264  0.826170  1
  Co  Co27  1  0.621340  0.135982  0.621340  1
  Co  Co28  1  0.825946  0.522164  0.825946  1
