# generated using pymatgen
data_Sr2Tm2HgPb11
_symmetry_space_group_name_H-M   'P 1'
_cell_length_a   10.05721000
_cell_length_b   6.93724953
_cell_length_c   6.94104389
_cell_angle_alpha   89.39765664
_cell_angle_beta   90.00000000
_cell_angle_gamma   90.00000000
_symmetry_Int_Tables_number   1
_chemical_formula_structural   Sr2Tm2HgPb11
_chemical_formula_sum   'Sr2 Tm2 Hg1 Pb11'
_cell_volume   484.24553558
_cell_formula_units_Z   1
loop_
 _symmetry_equiv_pos_site_id
 _symmetry_equiv_pos_as_xyz
  1  'x, y, z'
loop_
 _atom_site_type_symbol
 _atom_site_label
 _atom_site_symmetry_multiplicity
 _atom_site_fract_x
 _atom_site_fract_y
 _atom_site_fract_z
 _atom_site_occupancy
  Sr  Sr0  1  0.750000  0.995700  0.999160  1
  Sr  Sr1  1  0.750000  0.508059  0.498423  1
  Tm  Tm2  1  0.250000  0.007392  0.003211  1
  Tm  Tm3  1  0.250000  0.499757  0.505072  1
  Hg  Hg4  1  0.750000  0.494156  0.997137  1
  Pb  Pb5  1  0.008702  0.242986  0.742344  1
  Pb  Pb6  1  0.491850  0.252026  0.249278  1
  Pb  Pb7  1  0.490019  0.750959  0.249566  1
  Pb  Pb8  1  0.009434  0.745862  0.754622  1
  Pb  Pb9  1  0.009981  0.750959  0.249566  1
  Pb  Pb10  1  0.490566  0.745862  0.754622  1
  Pb  Pb11  1  0.491298  0.242986  0.742344  1
  Pb  Pb12  1  0.008150  0.252026  0.249278  1
  Pb  Pb13  1  0.250000  0.997806  0.502265  1
  Pb  Pb14  1  0.250000  0.506419  0.004432  1
  Pb  Pb15  1  0.750000  0.007042  0.498677  1
