# generated using pymatgen
data_SmDy(CuP)3
_symmetry_space_group_name_H-M   'P 1'
_cell_length_a   3.89614700
_cell_length_b   10.74004400
_cell_length_c   12.98815500
_cell_angle_alpha   90.00000000
_cell_angle_beta   90.00000000
_cell_angle_gamma   90.00000000
_symmetry_Int_Tables_number   1
_chemical_formula_structural   SmDy(CuP)3
_chemical_formula_sum   'Sm4 Dy4 Cu12 P12'
_cell_volume   543.48662120
_cell_formula_units_Z   4
loop_
 _symmetry_equiv_pos_site_id
 _symmetry_equiv_pos_as_xyz
  1  'x, y, z'
loop_
 _atom_site_type_symbol
 _atom_site_label
 _atom_site_symmetry_multiplicity
 _atom_site_fract_x
 _atom_site_fract_y
 _atom_site_fract_z
 _atom_site_occupancy
  Sm  Sm0  1  0.250000  0.930634  0.793155  1
  Sm  Sm1  1  0.750000  0.430634  0.706845  1
  Sm  Sm2  1  0.250000  0.569366  0.293155  1
  Sm  Sm3  1  0.750000  0.069366  0.206845  1
  Dy  Dy4  1  0.250000  0.841653  0.502692  1
  Dy  Dy5  1  0.750000  0.341653  0.997308  1
  Dy  Dy6  1  0.250000  0.658347  0.002692  1
  Dy  Dy7  1  0.750000  0.158347  0.497308  1
  Cu  Cu8  1  0.250000  0.402180  0.512738  1
  Cu  Cu9  1  0.750000  0.902180  0.987262  1
  Cu  Cu10  1  0.250000  0.097820  0.012738  1
  Cu  Cu11  1  0.750000  0.597820  0.487262  1
  Cu  Cu12  1  0.250000  0.272449  0.332774  1
  Cu  Cu13  1  0.750000  0.772449  0.167226  1
  Cu  Cu14  1  0.250000  0.227551  0.832774  1
  Cu  Cu15  1  0.750000  0.727551  0.667226  1
  Cu  Cu16  1  0.250000  0.859956  0.280395  1
  Cu  Cu17  1  0.750000  0.359956  0.219605  1
  Cu  Cu18  1  0.250000  0.640044  0.780395  1
  Cu  Cu19  1  0.750000  0.140044  0.719605  1
  P  P20  1  0.250000  0.238850  0.643077  1
  P  P21  1  0.750000  0.738850  0.856923  1
  P  P22  1  0.250000  0.261150  0.143077  1
  P  P23  1  0.750000  0.761150  0.356923  1
  P  P24  1  0.250000  0.605212  0.600066  1
  P  P25  1  0.750000  0.105212  0.899934  1
  P  P26  1  0.250000  0.894788  0.100066  1
  P  P27  1  0.750000  0.394788  0.399934  1
  P  P28  1  0.250000  0.057548  0.370944  1
  P  P29  1  0.750000  0.557548  0.129056  1
  P  P30  1  0.250000  0.442452  0.870944  1
  P  P31  1  0.750000  0.942452  0.629056  1
