# generated using pymatgen
data_Er4ZnAs5Ir7
_symmetry_space_group_name_H-M   'P 1'
_cell_length_a   7.27265348
_cell_length_b   7.27265393
_cell_length_c   7.27265300
_cell_angle_alpha   108.30311614
_cell_angle_beta   110.05842131
_cell_angle_gamma   110.05841468
_symmetry_Int_Tables_number   1
_chemical_formula_structural   Er4ZnAs5Ir7
_chemical_formula_sum   'Er4 Zn1 As5 Ir7'
_cell_volume   296.02040785
_cell_formula_units_Z   1
loop_
 _symmetry_equiv_pos_site_id
 _symmetry_equiv_pos_as_xyz
  1  'x, y, z'
loop_
 _atom_site_type_symbol
 _atom_site_label
 _atom_site_symmetry_multiplicity
 _atom_site_fract_x
 _atom_site_fract_y
 _atom_site_fract_z
 _atom_site_occupancy
  Er  Er0  1  0.000004  0.995730  0.494339  1
  Er  Er1  1  0.000004  0.494339  0.995730  1
  Er  Er2  1  0.501397  0.995727  0.995727  1
  Er  Er3  1  0.498587  0.494349  0.494349  1
  Zn  Zn4  1  0.000008  0.695615  0.695615  1
  As  As5  1  0.684190  0.680242  0.996038  1
  As  As6  1  0.315812  0.996046  0.311845  1
  As  As7  1  0.999998  0.331078  0.331078  1
  As  As8  1  0.315812  0.311845  0.996046  1
  As  As9  1  0.684190  0.996038  0.680242  1
  Ir  Ir10  1  0.748541  0.247771  0.499233  1
  Ir  Ir11  1  0.748541  0.499233  0.247771  1
  Ir  Ir12  1  0.499997  0.246932  0.746929  1
  Ir  Ir13  1  0.251460  0.499224  0.750681  1
  Ir  Ir14  1  0.251460  0.750681  0.499224  1
  Ir  Ir15  1  0.499997  0.746929  0.246932  1
  Ir  Ir16  1  0.000001  0.018220  0.018220  1
