# generated using pymatgen
data_La4Ag2O9
_symmetry_space_group_name_H-M   'P 1'
_cell_length_a   12.10275500
_cell_length_b   6.28952200
_cell_length_c   12.09255200
_cell_angle_alpha   90.00000000
_cell_angle_beta   90.00000000
_cell_angle_gamma   90.00000000
_symmetry_Int_Tables_number   1
_chemical_formula_structural   La4Ag2O9
_chemical_formula_sum   'La16 Ag8 O36'
_cell_volume   920.49163457
_cell_formula_units_Z   4
loop_
 _symmetry_equiv_pos_site_id
 _symmetry_equiv_pos_as_xyz
  1  'x, y, z'
loop_
 _atom_site_type_symbol
 _atom_site_label
 _atom_site_symmetry_multiplicity
 _atom_site_fract_x
 _atom_site_fract_y
 _atom_site_fract_z
 _atom_site_occupancy
  La  La0  1  0.489077  0.243284  0.089269  1
  La  La1  1  0.010922  0.743287  0.089269  1
  La  La2  1  0.840793  0.299561  0.235814  1
  La  La3  1  0.659206  0.799554  0.235809  1
  La  La4  1  0.159212  0.299569  0.264187  1
  La  La5  1  0.340794  0.799568  0.264186  1
  La  La6  1  0.510916  0.243301  0.410734  1
  La  La7  1  0.989084  0.743287  0.410728  1
  La  La8  1  0.010919  0.256711  0.589269  1
  La  La9  1  0.489076  0.756704  0.589272  1
  La  La10  1  0.659209  0.200437  0.735810  1
  La  La11  1  0.840787  0.700442  0.735809  1
  La  La12  1  0.340793  0.200442  0.764187  1
  La  La13  1  0.159209  0.700446  0.764188  1
  La  La14  1  0.989074  0.256706  0.910726  1
  La  La15  1  0.510917  0.756713  0.910729  1
  Ag  Ag16  1  0.228700  0.077662  0.011363  1
  Ag  Ag17  1  0.271298  0.577662  0.011364  1
  Ag  Ag18  1  0.771299  0.077662  0.488638  1
  Ag  Ag19  1  0.728702  0.577663  0.488637  1
  Ag  Ag20  1  0.271299  0.422340  0.511361  1
  Ag  Ag21  1  0.228701  0.922339  0.511359  1
  Ag  Ag22  1  0.728702  0.422337  0.988637  1
  Ag  Ag23  1  0.771299  0.922336  0.988636  1
  O  O24  1  0.883500  0.443677  0.053192  1
  O  O25  1  0.616502  0.943673  0.053194  1
  O  O26  1  0.077990  0.111405  0.087935  1
  O  O27  1  0.422013  0.611409  0.087939  1
  O  O28  1  0.663296  0.441912  0.145891  1
  O  O29  1  0.836707  0.941912  0.145894  1
  O  O30  1  0.302565  0.123918  0.157711  1
  O  O31  1  0.197433  0.623917  0.157714  1
  O  O32  1  0.499999  0.023202  0.250002  1
  O  O33  1  0.000002  0.523202  0.249999  1
  O  O34  1  0.697435  0.123921  0.342287  1
  O  O35  1  0.802568  0.623919  0.342286  1
  O  O36  1  0.336707  0.441917  0.354108  1
  O  O37  1  0.163300  0.941911  0.354116  1
  O  O38  1  0.922014  0.111409  0.412062  1
  O  O39  1  0.577986  0.611409  0.412063  1
  O  O40  1  0.116503  0.443676  0.446806  1
  O  O41  1  0.383491  0.943677  0.446811  1
  O  O42  1  0.616504  0.056321  0.553194  1
  O  O43  1  0.883495  0.556321  0.553193  1
  O  O44  1  0.422017  0.388590  0.587938  1
  O  O45  1  0.077993  0.888598  0.587937  1
  O  O46  1  0.836705  0.058084  0.645892  1
  O  O47  1  0.663295  0.558087  0.645891  1
  O  O48  1  0.197432  0.376077  0.657716  1
  O  O49  1  0.302566  0.876079  0.657709  1
  O  O50  1  0.999998  0.476802  0.750001  1
  O  O51  1  0.500000  0.976803  0.750002  1
  O  O52  1  0.802569  0.376079  0.842286  1
  O  O53  1  0.697432  0.876075  0.842282  1
  O  O54  1  0.163295  0.058086  0.854115  1
  O  O55  1  0.336705  0.558084  0.854111  1
  O  O56  1  0.577985  0.388592  0.912060  1
  O  O57  1  0.922017  0.888594  0.912059  1
  O  O58  1  0.383492  0.056322  0.946809  1
  O  O59  1  0.116503  0.556321  0.946809  1
