# generated using pymatgen
data_KMo(CO3)2
_symmetry_space_group_name_H-M   'P 1'
_cell_length_a   6.46186096
_cell_length_b   6.46186468
_cell_length_c   6.85918948
_cell_angle_alpha   102.42186277
_cell_angle_beta   102.42101197
_cell_angle_gamma   95.38896784
_symmetry_Int_Tables_number   1
_chemical_formula_structural   KMo(CO3)2
_chemical_formula_sum   'K2 Mo2 C4 O12'
_cell_volume   270.19146690
_cell_formula_units_Z   2
loop_
 _symmetry_equiv_pos_site_id
 _symmetry_equiv_pos_as_xyz
  1  'x, y, z'
loop_
 _atom_site_type_symbol
 _atom_site_label
 _atom_site_symmetry_multiplicity
 _atom_site_fract_x
 _atom_site_fract_y
 _atom_site_fract_z
 _atom_site_occupancy
  K  K0  1  0.897193  0.102794  0.249992  1
  K  K1  1  0.102807  0.897206  0.750008  1
  Mo  Mo2  1  0.332501  0.667498  0.250008  1
  Mo  Mo3  1  0.667499  0.332502  0.749992  1
  C  C4  1  0.391895  0.181012  0.289834  1
  C  C5  1  0.818997  0.608103  0.210165  1
  C  C6  1  0.181003  0.391898  0.789835  1
  C  C7  1  0.608105  0.818989  0.710166  1
  O  O8  1  0.779881  0.424373  0.078920  1
  O  O9  1  0.287279  0.330884  0.240713  1
  O  O10  1  0.304065  0.985396  0.195611  1
  O  O11  1  0.014559  0.695919  0.304372  1
  O  O12  1  0.669145  0.712701  0.259280  1
  O  O13  1  0.575663  0.220130  0.421110  1
  O  O14  1  0.424338  0.779870  0.578890  1
  O  O15  1  0.330856  0.287300  0.740720  1
  O  O16  1  0.985441  0.304081  0.695628  1
  O  O17  1  0.695935  0.014604  0.804389  1
  O  O18  1  0.712721  0.669116  0.759287  1
  O  O19  1  0.220119  0.575627  0.921080  1
