# generated using pymatgen
data_Er8Tm4IrOs3
_symmetry_space_group_name_H-M   'P 1'
_cell_length_a   6.30595305
_cell_length_b   7.30235140
_cell_length_c   8.94006001
_cell_angle_alpha   90.00147811
_cell_angle_beta   89.99558113
_cell_angle_gamma   90.08541409
_symmetry_Int_Tables_number   1
_chemical_formula_structural   Er8Tm4IrOs3
_chemical_formula_sum   'Er8 Tm4 Ir1 Os3'
_cell_volume   411.67397254
_cell_formula_units_Z   1
loop_
 _symmetry_equiv_pos_site_id
 _symmetry_equiv_pos_as_xyz
  1  'x, y, z'
loop_
 _atom_site_type_symbol
 _atom_site_label
 _atom_site_symmetry_multiplicity
 _atom_site_fract_x
 _atom_site_fract_y
 _atom_site_fract_z
 _atom_site_occupancy
  Er  Er0  1  0.669614  0.325131  0.937399  1
  Er  Er1  1  0.827724  0.824557  0.564461  1
  Er  Er2  1  0.332215  0.673416  0.438234  1
  Er  Er3  1  0.170187  0.176466  0.061538  1
  Er  Er4  1  0.872722  0.537974  0.249990  1
  Er  Er5  1  0.628447  0.039202  0.250019  1
  Er  Er6  1  0.127804  0.461858  0.749966  1
  Er  Er7  1  0.370430  0.961616  0.750020  1
  Tm  Tm8  1  0.332161  0.673475  0.061683  1
  Tm  Tm9  1  0.170239  0.176487  0.438536  1
  Tm  Tm10  1  0.669637  0.325099  0.562542  1
  Tm  Tm11  1  0.827734  0.824533  0.935644  1
  Ir  Ir12  1  0.039360  0.884094  0.249903  1
  Os  Os13  1  0.462534  0.383740  0.250093  1
  Os  Os14  1  0.962866  0.115769  0.749884  1
  Os  Os15  1  0.536326  0.616584  0.750088  1
