# generated using pymatgen
data_Tb3Er5Sc11Si16Ru
_symmetry_space_group_name_H-M   'P 1'
_cell_length_a   6.99291406
_cell_length_b   7.34634244
_cell_length_c   13.87161535
_cell_angle_alpha   90.02251648
_cell_angle_beta   89.98765034
_cell_angle_gamma   90.05881596
_symmetry_Int_Tables_number   1
_chemical_formula_structural   Tb3Er5Sc11Si16Ru
_chemical_formula_sum   'Tb3 Er5 Sc11 Si16 Ru1'
_cell_volume   712.61691147
_cell_formula_units_Z   1
loop_
 _symmetry_equiv_pos_site_id
 _symmetry_equiv_pos_as_xyz
  1  'x, y, z'
loop_
 _atom_site_type_symbol
 _atom_site_label
 _atom_site_symmetry_multiplicity
 _atom_site_fract_x
 _atom_site_fract_y
 _atom_site_fract_z
 _atom_site_occupancy
  Tb  Tb0  1  0.011739  0.177150  0.406925  1
  Tb  Tb1  1  0.511599  0.324033  0.405178  1
  Tb  Tb2  1  0.488349  0.672978  0.598062  1
  Er  Er3  1  0.012397  0.178231  0.093262  1
  Er  Er4  1  0.992353  0.817783  0.901005  1
  Er  Er5  1  0.487820  0.673550  0.901969  1
  Er  Er6  1  0.992658  0.818003  0.600111  1
  Er  Er7  1  0.512091  0.322979  0.094922  1
  Sc  Sc8  1  0.841449  0.495703  0.249500  1
  Sc  Sc9  1  0.341819  0.003312  0.249361  1
  Sc  Sc10  1  0.658239  0.996354  0.750358  1
  Sc  Sc11  1  0.325775  0.176918  0.627108  1
  Sc  Sc12  1  0.672447  0.824880  0.374330  1
  Sc  Sc13  1  0.172593  0.674381  0.376288  1
  Sc  Sc14  1  0.672209  0.824506  0.124710  1
  Sc  Sc15  1  0.825714  0.330840  0.628435  1
  Sc  Sc16  1  0.326170  0.177470  0.873494  1
  Sc  Sc17  1  0.825455  0.330541  0.872403  1
  Sc  Sc18  1  0.172563  0.674332  0.122737  1
  Si  Si19  1  0.029434  0.118175  0.750399  1
  Si  Si20  1  0.972677  0.884982  0.249368  1
  Si  Si21  1  0.469122  0.615876  0.249312  1
  Si  Si22  1  0.516114  0.394435  0.750667  1
  Si  Si23  1  0.284660  0.866405  0.750740  1
  Si  Si24  1  0.716907  0.128949  0.248583  1
  Si  Si25  1  0.215368  0.371234  0.248596  1
  Si  Si26  1  0.794781  0.630026  0.750751  1
  Si  Si27  1  0.155081  0.466176  0.547201  1
  Si  Si28  1  0.844476  0.537724  0.463818  1
  Si  Si29  1  0.345340  0.964103  0.463342  1
  Si  Si30  1  0.842498  0.535380  0.036661  1
  Si  Si31  1  0.659872  0.033788  0.540277  1
  Si  Si32  1  0.157124  0.466291  0.952811  1
  Si  Si33  1  0.659496  0.033658  0.959878  1
  Si  Si34  1  0.344379  0.965203  0.036890  1
  Ru  Ru35  1  0.149231  0.493652  0.750549  1
