# generated using pymatgen
data_Ho3ErMoI4
_symmetry_space_group_name_H-M   'P 1'
_cell_length_a   11.47658630
_cell_length_b   11.45063875
_cell_length_c   5.98794773
_cell_angle_alpha   89.61061986
_cell_angle_beta   89.62437892
_cell_angle_gamma   89.67991322
_symmetry_Int_Tables_number   1
_chemical_formula_structural   Ho3ErMoI4
_chemical_formula_sum   'Ho6 Er2 Mo2 I8'
_cell_volume   786.85445685
_cell_formula_units_Z   2
loop_
 _symmetry_equiv_pos_site_id
 _symmetry_equiv_pos_as_xyz
  1  'x, y, z'
loop_
 _atom_site_type_symbol
 _atom_site_label
 _atom_site_symmetry_multiplicity
 _atom_site_fract_x
 _atom_site_fract_y
 _atom_site_fract_z
 _atom_site_occupancy
  Ho  Ho0  1  0.202553  0.916173  0.997050  1
  Ho  Ho1  1  0.797447  0.083827  0.002950  1
  Ho  Ho2  1  0.083261  0.796919  0.501548  1
  Ho  Ho3  1  0.916739  0.203081  0.498452  1
  Ho  Ho4  1  0.798244  0.917002  0.504227  1
  Ho  Ho5  1  0.201756  0.082998  0.495773  1
  Er  Er6  1  0.082432  0.201077  0.996063  1
  Er  Er7  1  0.917568  0.798923  0.003937  1
  Mo  Mo8  1  0.999883  0.000164  0.249593  1
  Mo  Mo9  1  0.000117  0.999836  0.750407  1
  I  I10  1  0.354860  0.848830  0.501617  1
  I  I11  1  0.645140  0.151170  0.498383  1
  I  I12  1  0.149297  0.644501  0.001767  1
  I  I13  1  0.850703  0.355499  0.998233  1
  I  I14  1  0.354368  0.148018  0.992566  1
  I  I15  1  0.645632  0.851982  0.007434  1
  I  I16  1  0.852145  0.644158  0.505572  1
  I  I17  1  0.147855  0.355842  0.494428  1
