# generated using pymatgen
data_Dy9HoIn8NiAu3
_symmetry_space_group_name_H-M   'P 1'
_cell_length_a   8.17184828
_cell_length_b   18.35266671
_cell_length_c   3.65383500
_cell_angle_alpha   90.00000000
_cell_angle_beta   90.00000000
_cell_angle_gamma   89.79399690
_symmetry_Int_Tables_number   1
_chemical_formula_structural   Dy9HoIn8NiAu3
_chemical_formula_sum   'Dy9 Ho1 In8 Ni1 Au3'
_cell_volume   547.98112169
_cell_formula_units_Z   1
loop_
 _symmetry_equiv_pos_site_id
 _symmetry_equiv_pos_as_xyz
  1  'x, y, z'
loop_
 _atom_site_type_symbol
 _atom_site_label
 _atom_site_symmetry_multiplicity
 _atom_site_fract_x
 _atom_site_fract_y
 _atom_site_fract_z
 _atom_site_occupancy
  Dy  Dy0  1  0.500168  0.497962  0.000000  1
  Dy  Dy1  1  0.001453  0.002077  0.000000  1
  Dy  Dy2  1  0.760238  0.282649  0.000000  1
  Dy  Dy3  1  0.261153  0.715661  0.000000  1
  Dy  Dy4  1  0.761008  0.782871  0.000000  1
  Dy  Dy5  1  0.225274  0.224272  0.000000  1
  Dy  Dy6  1  0.620077  0.082081  0.000000  1
  Dy  Dy7  1  0.379098  0.921601  0.000000  1
  Dy  Dy8  1  0.878816  0.577485  0.000000  1
  Ho  Ho9  1  0.114250  0.411070  0.000000  1
  In  In10  1  0.710966  0.934498  0.500000  1
  In  In11  1  0.289792  0.071014  0.500000  1
  In  In12  1  0.793654  0.429915  0.500000  1
  In  In13  1  0.207697  0.562595  0.500000  1
  In  In14  1  0.579524  0.645735  0.500000  1
  In  In15  1  0.420849  0.352185  0.500000  1
  In  In16  1  0.925348  0.151373  0.500000  1
  In  In17  1  0.078794  0.852855  0.500000  1
  Ni  Ni18  1  0.026071  0.304146  0.500000  1
  Au  Au19  1  0.527929  0.199536  0.500000  1
  Au  Au20  1  0.468380  0.803363  0.500000  1
  Au  Au21  1  0.969461  0.695057  0.500000  1
