# generated using pymatgen
data_Mo2IrRu5
_symmetry_space_group_name_H-M   'P 1'
_cell_length_a   5.51719010
_cell_length_b   5.51718996
_cell_length_c   4.37510900
_cell_angle_alpha   90.00000000
_cell_angle_beta   90.00000000
_cell_angle_gamma   119.97783997
_symmetry_Int_Tables_number   1
_chemical_formula_structural   Mo2IrRu5
_chemical_formula_sum   'Mo2 Ir1 Ru5'
_cell_volume   115.35922475
_cell_formula_units_Z   1
loop_
 _symmetry_equiv_pos_site_id
 _symmetry_equiv_pos_as_xyz
  1  'x, y, z'
loop_
 _atom_site_type_symbol
 _atom_site_label
 _atom_site_symmetry_multiplicity
 _atom_site_fract_x
 _atom_site_fract_y
 _atom_site_fract_z
 _atom_site_occupancy
  Mo  Mo0  1  0.665018  0.334982  0.250000  1
  Mo  Mo1  1  0.334324  0.665676  0.750000  1
  Ir  Ir2  1  0.834153  0.165847  0.750000  1
  Ru  Ru3  1  0.334045  0.170192  0.750000  1
  Ru  Ru4  1  0.829808  0.665955  0.750000  1
  Ru  Ru5  1  0.166662  0.833338  0.250000  1
  Ru  Ru6  1  0.666807  0.830816  0.250000  1
  Ru  Ru7  1  0.169184  0.333193  0.250000  1
