# generated using pymatgen
data_Th3Sn3Hg2
_symmetry_space_group_name_H-M   'P 1'
_cell_length_a   6.57318104
_cell_length_b   6.57318072
_cell_length_c   10.48172300
_cell_angle_alpha   90.00000000
_cell_angle_beta   90.00000000
_cell_angle_gamma   102.97335166
_symmetry_Int_Tables_number   1
_chemical_formula_structural   Th3Sn3Hg2
_chemical_formula_sum   'Th6 Sn6 Hg4'
_cell_volume   441.32076438
_cell_formula_units_Z   2
loop_
 _symmetry_equiv_pos_site_id
 _symmetry_equiv_pos_as_xyz
  1  'x, y, z'
loop_
 _atom_site_type_symbol
 _atom_site_label
 _atom_site_symmetry_multiplicity
 _atom_site_fract_x
 _atom_site_fract_y
 _atom_site_fract_z
 _atom_site_occupancy
  Th  Th0  1  0.623760  0.623760  0.250000  1
  Th  Th1  1  0.376240  0.376240  0.750000  1
  Th  Th2  1  0.799531  0.200469  0.000000  1
  Th  Th3  1  0.200469  0.799531  0.000000  1
  Th  Th4  1  0.200469  0.799531  0.500000  1
  Th  Th5  1  0.799531  0.200469  0.500000  1
  Sn  Sn6  1  0.076621  0.495912  0.250000  1
  Sn  Sn7  1  0.923379  0.504088  0.750000  1
  Sn  Sn8  1  0.495912  0.076621  0.250000  1
  Sn  Sn9  1  0.504088  0.923379  0.750000  1
  Sn  Sn10  1  0.017140  0.017140  0.250000  1
  Sn  Sn11  1  0.982860  0.982860  0.750000  1
  Hg  Hg12  1  0.310658  0.310658  0.037727  1
  Hg  Hg13  1  0.689342  0.689342  0.962273  1
  Hg  Hg14  1  0.689342  0.689342  0.537727  1
  Hg  Hg15  1  0.310658  0.310658  0.462273  1
