# generated using pymatgen
data_Dy2TiFe6(P2Ru)3
_symmetry_space_group_name_H-M   'P 1'
_cell_length_a   3.72203900
_cell_length_b   10.61291900
_cell_length_c   12.14256100
_cell_angle_alpha   90.00000000
_cell_angle_beta   90.00000000
_cell_angle_gamma   90.00000000
_symmetry_Int_Tables_number   1
_chemical_formula_structural   Dy2TiFe6(P2Ru)3
_chemical_formula_sum   'Dy4 Ti2 Fe12 P12 Ru6'
_cell_volume   479.65178269
_cell_formula_units_Z   2
loop_
 _symmetry_equiv_pos_site_id
 _symmetry_equiv_pos_as_xyz
  1  'x, y, z'
loop_
 _atom_site_type_symbol
 _atom_site_label
 _atom_site_symmetry_multiplicity
 _atom_site_fract_x
 _atom_site_fract_y
 _atom_site_fract_z
 _atom_site_occupancy
  Dy  Dy0  1  0.250000  0.575702  0.708569  1
  Dy  Dy1  1  0.250000  0.924298  0.208569  1
  Dy  Dy2  1  0.750000  0.413197  0.290330  1
  Dy  Dy3  1  0.750000  0.086803  0.790330  1
  Ti  Ti4  1  0.250000  0.696968  0.988649  1
  Ti  Ti5  1  0.250000  0.803032  0.488649  1
  Fe  Fe6  1  0.250000  0.226120  0.175002  1
  Fe  Fe7  1  0.250000  0.273880  0.675002  1
  Fe  Fe8  1  0.750000  0.779929  0.822278  1
  Fe  Fe9  1  0.750000  0.720071  0.322278  1
  Fe  Fe10  1  0.250000  0.876293  0.700112  1
  Fe  Fe11  1  0.250000  0.623707  0.200112  1
  Fe  Fe12  1  0.750000  0.121821  0.302855  1
  Fe  Fe13  1  0.750000  0.378179  0.802855  1
  Fe  Fe14  1  0.250000  0.463080  0.934573  1
  Fe  Fe15  1  0.250000  0.036920  0.434573  1
  Fe  Fe16  1  0.750000  0.538152  0.067711  1
  Fe  Fe17  1  0.750000  0.961848  0.567711  1
  P  P18  1  0.250000  0.424710  0.111529  1
  P  P19  1  0.250000  0.075290  0.611529  1
  P  P20  1  0.750000  0.569622  0.885459  1
  P  P21  1  0.750000  0.930378  0.385459  1
  P  P22  1  0.250000  0.274319  0.860752  1
  P  P23  1  0.250000  0.225681  0.360752  1
  P  P24  1  0.750000  0.733189  0.135000  1
  P  P25  1  0.750000  0.766811  0.635000  1
  P  P26  1  0.250000  0.593160  0.386933  1
  P  P27  1  0.250000  0.906840  0.886933  1
  P  P28  1  0.750000  0.387682  0.616889  1
  P  P29  1  0.750000  0.112318  0.116889  1
  Ru  Ru30  1  0.750000  0.301092  0.015562  1
  Ru  Ru31  1  0.750000  0.198908  0.515562  1
  Ru  Ru32  1  0.250000  0.397037  0.486377  1
  Ru  Ru33  1  0.250000  0.102963  0.986377  1
  Ru  Ru34  1  0.750000  0.591501  0.511420  1
  Ru  Ru35  1  0.750000  0.908499  0.011420  1
