# generated using pymatgen
data_Tb3Gd(DyAl)4
_symmetry_space_group_name_H-M   'P 1'
_cell_length_a   5.12557200
_cell_length_b   6.58041947
_cell_length_c   9.45545167
_cell_angle_alpha   90.04318091
_cell_angle_beta   90.00000000
_cell_angle_gamma   90.00000000
_symmetry_Int_Tables_number   1
_chemical_formula_structural   Tb3Gd(DyAl)4
_chemical_formula_sum   'Tb3 Gd1 Dy4 Al4'
_cell_volume   318.91729578
_cell_formula_units_Z   1
loop_
 _symmetry_equiv_pos_site_id
 _symmetry_equiv_pos_as_xyz
  1  'x, y, z'
loop_
 _atom_site_type_symbol
 _atom_site_label
 _atom_site_symmetry_multiplicity
 _atom_site_fract_x
 _atom_site_fract_y
 _atom_site_fract_z
 _atom_site_occupancy
  Tb  Tb0  1  0.250000  0.309672  0.572805  1
  Tb  Tb1  1  0.750000  0.190837  0.072838  1
  Tb  Tb2  1  0.750000  0.690492  0.427169  1
  Gd  Gd3  1  0.250000  0.808885  0.927288  1
  Dy  Dy4  1  0.250000  0.972802  0.289955  1
  Dy  Dy5  1  0.250000  0.472415  0.209989  1
  Dy  Dy6  1  0.750000  0.027353  0.710020  1
  Dy  Dy7  1  0.750000  0.527339  0.790131  1
  Al  Al8  1  0.250000  0.291131  0.897679  1
  Al  Al9  1  0.250000  0.790699  0.602006  1
  Al  Al10  1  0.750000  0.709088  0.102465  1
  Al  Al11  1  0.750000  0.209287  0.397653  1
