# generated using pymatgen
data_Tb6Tm4Tl5Bi
_symmetry_space_group_name_H-M   'P 1'
_cell_length_a   6.54042100
_cell_length_b   9.08378618
_cell_length_c   9.07964500
_cell_angle_alpha   120.01509139
_cell_angle_beta   89.99831803
_cell_angle_gamma   90.00335805
_symmetry_Int_Tables_number   1
_chemical_formula_structural   Tb6Tm4Tl5Bi
_chemical_formula_sum   'Tb6 Tm4 Tl5 Bi1'
_cell_volume   467.09588716
_cell_formula_units_Z   1
loop_
 _symmetry_equiv_pos_site_id
 _symmetry_equiv_pos_as_xyz
  1  'x, y, z'
loop_
 _atom_site_type_symbol
 _atom_site_label
 _atom_site_symmetry_multiplicity
 _atom_site_fract_x
 _atom_site_fract_y
 _atom_site_fract_z
 _atom_site_occupancy
  Tb  Tb0  1  0.749995  0.234030  0.000000  1
  Tb  Tb1  1  0.749973  0.762400  0.756051  1
  Tb  Tb2  1  0.749973  0.006349  0.243949  1
  Tb  Tb3  1  0.250004  0.760173  0.000000  1
  Tb  Tb4  1  0.250029  0.239184  0.238081  1
  Tb  Tb5  1  0.250029  0.001104  0.761919  1
  Tm  Tm6  1  0.496684  0.330007  0.663458  1
  Tm  Tm7  1  0.496684  0.666549  0.336542  1
  Tm  Tm8  1  0.003318  0.666541  0.336540  1
  Tm  Tm9  1  0.003318  0.330001  0.663460  1
  Tl  Tl10  1  0.749995  0.402914  0.401791  1
  Tl  Tl11  1  0.749995  0.001124  0.598209  1
  Tl  Tl12  1  0.249994  0.396867  0.000000  1
  Tl  Tl13  1  0.250002  0.599154  0.601277  1
  Tl  Tl14  1  0.250002  0.997878  0.398723  1
  Bi  Bi15  1  0.750001  0.605722  0.000000  1
