# generated using pymatgen
data_CoNi3Sn4(PRu)4
_symmetry_space_group_name_H-M   'P 1'
_cell_length_a   3.63656300
_cell_length_b   5.43231460
_cell_length_c   12.66696802
_cell_angle_alpha   90.11188587
_cell_angle_beta   90.00000000
_cell_angle_gamma   90.00000000
_symmetry_Int_Tables_number   1
_chemical_formula_structural   CoNi3Sn4(PRu)4
_chemical_formula_sum   'Co1 Ni3 Sn4 P4 Ru4'
_cell_volume   250.23489684
_cell_formula_units_Z   1
loop_
 _symmetry_equiv_pos_site_id
 _symmetry_equiv_pos_as_xyz
  1  'x, y, z'
loop_
 _atom_site_type_symbol
 _atom_site_label
 _atom_site_symmetry_multiplicity
 _atom_site_fract_x
 _atom_site_fract_y
 _atom_site_fract_z
 _atom_site_occupancy
  Co  Co0  1  0.750000  0.507707  0.414441  1
  Ni  Ni1  1  0.250000  0.496114  0.586877  1
  Ni  Ni2  1  0.250000  0.004572  0.090441  1
  Ni  Ni3  1  0.750000  0.994357  0.910976  1
  Sn  Sn4  1  0.250000  0.274671  0.291416  1
  Sn  Sn5  1  0.750000  0.730722  0.710438  1
  Sn  Sn6  1  0.750000  0.762529  0.213640  1
  Sn  Sn7  1  0.250000  0.233520  0.787506  1
  P  P8  1  0.750000  0.241430  0.053372  1
  P  P9  1  0.250000  0.759227  0.947172  1
  P  P10  1  0.250000  0.737682  0.444837  1
  P  P11  1  0.750000  0.258531  0.550210  1
  Ru  Ru12  1  0.250000  0.493554  0.093210  1
  Ru  Ru13  1  0.750000  0.505448  0.906048  1
  Ru  Ru14  1  0.750000  0.993279  0.405782  1
  Ru  Ru15  1  0.250000  0.006656  0.593634  1
