# generated using pymatgen
data_Th2Zr2NbGe4
_symmetry_space_group_name_H-M   'P 1'
_cell_length_a   7.47853500
_cell_length_b   7.47853500
_cell_length_c   13.81444000
_cell_angle_alpha   90.00000000
_cell_angle_beta   90.00000000
_cell_angle_gamma   90.00000000
_symmetry_Int_Tables_number   1
_chemical_formula_structural   Th2Zr2NbGe4
_chemical_formula_sum   'Th8 Zr8 Nb4 Ge16'
_cell_volume   772.62071063
_cell_formula_units_Z   4
loop_
 _symmetry_equiv_pos_site_id
 _symmetry_equiv_pos_as_xyz
  1  'x, y, z'
loop_
 _atom_site_type_symbol
 _atom_site_label
 _atom_site_symmetry_multiplicity
 _atom_site_fract_x
 _atom_site_fract_y
 _atom_site_fract_z
 _atom_site_occupancy
  Th  Th0  1  0.997031  0.341553  0.531921  1
  Th  Th1  1  0.002969  0.658447  0.031921  1
  Th  Th2  1  0.841553  0.502969  0.281921  1
  Th  Th3  1  0.158447  0.497031  0.781921  1
  Th  Th4  1  0.658447  0.002969  0.968079  1
  Th  Th5  1  0.341553  0.997031  0.468079  1
  Th  Th6  1  0.502969  0.841553  0.718079  1
  Th  Th7  1  0.497031  0.158447  0.218079  1
  Zr  Zr8  1  0.505035  0.340928  0.623770  1
  Zr  Zr9  1  0.494965  0.659072  0.123770  1
  Zr  Zr10  1  0.840928  0.994965  0.373770  1
  Zr  Zr11  1  0.159072  0.005035  0.873770  1
  Zr  Zr12  1  0.659072  0.494965  0.876230  1
  Zr  Zr13  1  0.340928  0.505035  0.376230  1
  Zr  Zr14  1  0.994965  0.840928  0.626230  1
  Zr  Zr15  1  0.005035  0.159072  0.126230  1
  Nb  Nb16  1  0.829325  0.170675  0.750000  1
  Nb  Nb17  1  0.170675  0.829325  0.250000  1
  Nb  Nb18  1  0.670675  0.670675  0.500000  1
  Nb  Nb19  1  0.329325  0.329325  0.000000  1
  Ge  Ge20  1  0.629100  0.302552  0.429138  1
  Ge  Ge21  1  0.370900  0.697448  0.929138  1
  Ge  Ge22  1  0.802552  0.870900  0.179138  1
  Ge  Ge23  1  0.197448  0.129100  0.679138  1
  Ge  Ge24  1  0.697448  0.370900  0.070862  1
  Ge  Ge25  1  0.302552  0.629100  0.570862  1
  Ge  Ge26  1  0.870900  0.802552  0.820862  1
  Ge  Ge27  1  0.129100  0.197448  0.320862  1
  Ge  Ge28  1  0.709823  0.037759  0.567084  1
  Ge  Ge29  1  0.290177  0.962241  0.067084  1
  Ge  Ge30  1  0.537759  0.790177  0.317084  1
  Ge  Ge31  1  0.462241  0.209823  0.817084  1
  Ge  Ge32  1  0.962241  0.290177  0.932916  1
  Ge  Ge33  1  0.037759  0.709823  0.432916  1
  Ge  Ge34  1  0.790177  0.537759  0.682916  1
  Ge  Ge35  1  0.209823  0.462241  0.182916  1
