# generated using pymatgen
data_Ba8TiV(FeO8)2
_symmetry_space_group_name_H-M   'P 1'
_cell_length_a   6.23369504
_cell_length_b   7.74284357
_cell_length_c   10.56920558
_cell_angle_alpha   91.01574432
_cell_angle_beta   94.20891538
_cell_angle_gamma   89.65988639
_symmetry_Int_Tables_number   1
_chemical_formula_structural   Ba8TiV(FeO8)2
_chemical_formula_sum   'Ba8 Ti1 V1 Fe2 O16'
_cell_volume   508.67758005
_cell_formula_units_Z   1
loop_
 _symmetry_equiv_pos_site_id
 _symmetry_equiv_pos_as_xyz
  1  'x, y, z'
loop_
 _atom_site_type_symbol
 _atom_site_label
 _atom_site_symmetry_multiplicity
 _atom_site_fract_x
 _atom_site_fract_y
 _atom_site_fract_z
 _atom_site_occupancy
  Ba  Ba0  1  0.769362  0.849926  0.089260  1
  Ba  Ba1  1  0.725780  0.341501  0.414757  1
  Ba  Ba2  1  0.243604  0.160316  0.934738  1
  Ba  Ba3  1  0.253810  0.661659  0.563909  1
  Ba  Ba4  1  0.210332  0.492223  0.200719  1
  Ba  Ba5  1  0.277970  0.006644  0.303489  1
  Ba  Ba6  1  0.771021  0.490697  0.804242  1
  Ba  Ba7  1  0.720025  0.005964  0.697504  1
  Ti  Ti8  1  0.238019  0.223432  0.586178  1
  V  V9  1  0.263041  0.721162  0.917964  1
  Fe  Fe10  1  0.741947  0.283378  0.078617  1
  Fe  Fe11  1  0.755679  0.775763  0.419434  1
  O  O12  1  0.705868  0.004647  0.412723  1
  O  O13  1  0.810851  0.519633  0.064862  1
  O  O14  1  0.300894  0.995273  0.572051  1
  O  O15  1  0.228994  0.501256  0.925343  1
  O  O16  1  0.508437  0.243967  0.180669  1
  O  O17  1  0.995280  0.739134  0.332522  1
  O  O18  1  0.474582  0.767884  0.824403  1
  O  O19  1  0.023268  0.257091  0.693986  1
  O  O20  1  0.999834  0.162486  0.134360  1
  O  O21  1  0.499880  0.673623  0.365698  1
  O  O22  1  0.022607  0.818867  0.859157  1
  O  O23  1  0.490750  0.333641  0.635298  1
  O  O24  1  0.665666  0.175978  0.916675  1
  O  O25  1  0.820878  0.669609  0.571429  1
  O  O26  1  0.322296  0.809047  0.070929  1
  O  O27  1  0.159323  0.315199  0.429082  1
