# generated using pymatgen
data_BaLiFeF6
_symmetry_space_group_name_H-M   'P 1'
_cell_length_a   10.72424300
_cell_length_b   5.46649461
_cell_length_c   8.78026990
_cell_angle_alpha   89.15349275
_cell_angle_beta   90.00000000
_cell_angle_gamma   90.00000000
_symmetry_Int_Tables_number   1
_chemical_formula_structural   BaLiFeF6
_chemical_formula_sum   'Ba4 Li4 Fe4 F24'
_cell_volume   514.67851076
_cell_formula_units_Z   4
loop_
 _symmetry_equiv_pos_site_id
 _symmetry_equiv_pos_as_xyz
  1  'x, y, z'
loop_
 _atom_site_type_symbol
 _atom_site_label
 _atom_site_symmetry_multiplicity
 _atom_site_fract_x
 _atom_site_fract_y
 _atom_site_fract_z
 _atom_site_occupancy
  Ba  Ba0  1  0.684520  0.304479  0.496288  1
  Ba  Ba1  1  0.815480  0.304479  0.996288  1
  Ba  Ba2  1  0.315480  0.695521  0.503712  1
  Ba  Ba3  1  0.184520  0.695521  0.003712  1
  Li  Li4  1  0.908167  0.753193  0.681725  1
  Li  Li5  1  0.091833  0.246807  0.318275  1
  Li  Li6  1  0.408167  0.246807  0.818275  1
  Li  Li7  1  0.591833  0.753193  0.181725  1
  Fe  Fe8  1  0.912314  0.765058  0.272565  1
  Fe  Fe9  1  0.412314  0.234942  0.227435  1
  Fe  Fe10  1  0.087686  0.234942  0.727435  1
  Fe  Fe11  1  0.587686  0.765058  0.772565  1
  F  F12  1  0.248255  0.402565  0.257221  1
  F  F13  1  0.003841  0.535224  0.802354  1
  F  F14  1  0.081287  0.901283  0.294372  1
  F  F15  1  0.751745  0.597435  0.742779  1
  F  F16  1  0.496159  0.535224  0.302354  1
  F  F17  1  0.606198  0.655465  0.980350  1
  F  F18  1  0.918713  0.098717  0.705628  1
  F  F19  1  0.581287  0.098717  0.205628  1
  F  F20  1  0.840542  0.082549  0.307844  1
  F  F21  1  0.893802  0.655465  0.480350  1
  F  F22  1  0.159458  0.917451  0.692156  1
  F  F23  1  0.402565  0.159940  0.447080  1
  F  F24  1  0.597435  0.840060  0.552920  1
  F  F25  1  0.503841  0.464776  0.697646  1
  F  F26  1  0.251745  0.402565  0.757221  1
  F  F27  1  0.748255  0.597435  0.242779  1
  F  F28  1  0.340542  0.917451  0.192156  1
  F  F29  1  0.996159  0.464776  0.197646  1
  F  F30  1  0.393802  0.344535  0.019650  1
  F  F31  1  0.659458  0.082549  0.807844  1
  F  F32  1  0.106198  0.344535  0.519650  1
  F  F33  1  0.097435  0.159940  0.947080  1
  F  F34  1  0.902565  0.840060  0.052920  1
  F  F35  1  0.418713  0.901283  0.794372  1
