# generated using pymatgen
data_Sc8Ti9Si6Ge10Mo3
_symmetry_space_group_name_H-M   'P 1'
_cell_length_a   6.71424630
_cell_length_b   6.84756151
_cell_length_c   13.14307100
_cell_angle_alpha   90.00000000
_cell_angle_beta   90.00000000
_cell_angle_gamma   90.08936051
_symmetry_Int_Tables_number   1
_chemical_formula_structural   Sc8Ti9Si6Ge10Mo3
_chemical_formula_sum   'Sc8 Ti9 Si6 Ge10 Mo3'
_cell_volume   604.26791687
_cell_formula_units_Z   1
loop_
 _symmetry_equiv_pos_site_id
 _symmetry_equiv_pos_as_xyz
  1  'x, y, z'
loop_
 _atom_site_type_symbol
 _atom_site_label
 _atom_site_symmetry_multiplicity
 _atom_site_fract_x
 _atom_site_fract_y
 _atom_site_fract_z
 _atom_site_occupancy
  Sc  Sc0  1  0.493499  0.676262  0.594896  1
  Sc  Sc1  1  0.996116  0.827598  0.905352  1
  Sc  Sc2  1  0.506411  0.322166  0.098604  1
  Sc  Sc3  1  0.005482  0.177995  0.400603  1
  Sc  Sc4  1  0.506411  0.322166  0.401396  1
  Sc  Sc5  1  0.005482  0.177995  0.099397  1
  Sc  Sc6  1  0.493499  0.676262  0.905104  1
  Sc  Sc7  1  0.996116  0.827598  0.594648  1
  Ti  Ti8  1  0.655172  0.169684  0.629276  1
  Ti  Ti9  1  0.162065  0.326731  0.871370  1
  Ti  Ti10  1  0.339651  0.829610  0.129829  1
  Ti  Ti11  1  0.840004  0.668208  0.370694  1
  Ti  Ti12  1  0.339651  0.829610  0.370171  1
  Ti  Ti13  1  0.840004  0.668208  0.129306  1
  Ti  Ti14  1  0.655172  0.169684  0.870724  1
  Ti  Ti15  1  0.162065  0.326731  0.628630  1
  Ti  Ti16  1  0.833027  0.486923  0.750000  1
  Si  Si17  1  0.460491  0.383738  0.750000  1
  Si  Si18  1  0.960064  0.117721  0.750000  1
  Si  Si19  1  0.541031  0.614834  0.250000  1
  Si  Si20  1  0.040292  0.885306  0.250000  1
  Si  Si21  1  0.302156  0.139574  0.250000  1
  Si  Si22  1  0.801024  0.361178  0.250000  1
  Ge  Ge23  1  0.680434  0.961979  0.459193  1
  Ge  Ge24  1  0.179059  0.537055  0.040482  1
  Ge  Ge25  1  0.321466  0.038469  0.961030  1
  Ge  Ge26  1  0.821923  0.463343  0.540800  1
  Ge  Ge27  1  0.321466  0.038469  0.538970  1
  Ge  Ge28  1  0.821923  0.463343  0.959200  1
  Ge  Ge29  1  0.680434  0.961979  0.040807  1
  Ge  Ge30  1  0.179059  0.537055  0.459518  1
  Ge  Ge31  1  0.697971  0.853342  0.750000  1
  Ge  Ge32  1  0.195913  0.643566  0.750000  1
  Mo  Mo33  1  0.332915  0.014725  0.750000  1
  Mo  Mo34  1  0.166771  0.509963  0.250000  1
  Mo  Mo35  1  0.665775  0.990938  0.250000  1
