# generated using pymatgen
data_YbSm6TcBr12
_symmetry_space_group_name_H-M   'P 1'
_cell_length_a   9.38488481
_cell_length_b   9.38488419
_cell_length_c   9.38488400
_cell_angle_alpha   106.76770847
_cell_angle_beta   106.76772008
_cell_angle_gamma   106.76771211
_symmetry_Int_Tables_number   1
_chemical_formula_structural   YbSm6TcBr12
_chemical_formula_sum   'Yb1 Sm6 Tc1 Br12'
_cell_volume   692.70239975
_cell_formula_units_Z   1
loop_
 _symmetry_equiv_pos_site_id
 _symmetry_equiv_pos_as_xyz
  1  'x, y, z'
loop_
 _atom_site_type_symbol
 _atom_site_label
 _atom_site_symmetry_multiplicity
 _atom_site_fract_x
 _atom_site_fract_y
 _atom_site_fract_z
 _atom_site_occupancy
  Yb  Yb0  1  0.500000  0.500000  0.500000  1
  Sm  Sm1  1  0.104763  0.024890  0.313842  1
  Sm  Sm2  1  0.024890  0.313842  0.104763  1
  Sm  Sm3  1  0.313842  0.104763  0.024890  1
  Sm  Sm4  1  0.895236  0.975110  0.686158  1
  Sm  Sm5  1  0.975110  0.686158  0.895236  1
  Sm  Sm6  1  0.686158  0.895236  0.975110  1
  Tc  Tc7  1  0.000000  0.000000  0.000000  1
  Br  Br8  1  0.074548  0.683081  0.222123  1
  Br  Br9  1  0.683081  0.222123  0.074548  1
  Br  Br10  1  0.222123  0.074548  0.683081  1
  Br  Br11  1  0.925452  0.316919  0.777877  1
  Br  Br12  1  0.316919  0.777877  0.925452  1
  Br  Br13  1  0.777877  0.925452  0.316919  1
  Br  Br14  1  0.457047  0.162688  0.378428  1
  Br  Br15  1  0.162688  0.378428  0.457047  1
  Br  Br16  1  0.378428  0.457047  0.162688  1
  Br  Br17  1  0.542953  0.837312  0.621572  1
  Br  Br18  1  0.837312  0.621572  0.542953  1
  Br  Br19  1  0.621572  0.542953  0.837312  1
