# generated using pymatgen
data_La11Si5Ni4Te
_symmetry_space_group_name_H-M   'P 1'
_cell_length_a   4.32357381
_cell_length_b   9.56641008
_cell_length_c   14.13487800
_cell_angle_alpha   105.44791044
_cell_angle_beta   89.91452490
_cell_angle_gamma   102.98226053
_symmetry_Int_Tables_number   1
_chemical_formula_structural   La11Si5Ni4Te
_chemical_formula_sum   'La11 Si5 Ni4 Te1'
_cell_volume   548.04865164
_cell_formula_units_Z   1
loop_
 _symmetry_equiv_pos_site_id
 _symmetry_equiv_pos_as_xyz
  1  'x, y, z'
loop_
 _atom_site_type_symbol
 _atom_site_label
 _atom_site_symmetry_multiplicity
 _atom_site_fract_x
 _atom_site_fract_y
 _atom_site_fract_z
 _atom_site_occupancy
  La  La0  1  0.902036  0.804934  0.213980  1
  La  La1  1  0.849922  0.699798  0.649427  1
  La  La2  1  0.218047  0.434775  0.102210  1
  La  La3  1  0.549418  0.098286  0.128284  1
  La  La4  1  0.337648  0.671566  0.398238  1
  La  La5  1  0.452017  0.903975  0.881542  1
  La  La6  1  0.999069  0.998304  0.483926  1
  La  La7  1  0.142997  0.286791  0.350058  1
  La  La8  1  0.783794  0.567883  0.900151  1
  La  La9  1  0.658789  0.319863  0.593754  1
  La  La10  1  0.105238  0.209178  0.796614  1
  Si  Si11  1  0.628069  0.253996  0.956636  1
  Si  Si12  1  0.258816  0.518755  0.731290  1
  Si  Si13  1  0.737614  0.473583  0.268365  1
  Si  Si14  1  0.373831  0.748172  0.049496  1
  Si  Si15  1  0.514687  0.029357  0.345049  1
  Ni  Ni16  1  0.752042  0.502822  0.448278  1
  Ni  Ni17  1  0.937077  0.875377  0.025380  1
  Ni  Ni18  1  0.063821  0.124462  0.980191  1
  Ni  Ni19  1  0.249211  0.499128  0.553639  1
  Te  Te20  1  0.488455  0.976041  0.655012  1
