# generated using pymatgen
data_Zr8Fe2PdPt
_symmetry_space_group_name_H-M   'P 1'
_cell_length_a   8.70583153
_cell_length_b   8.70583251
_cell_length_c   8.70972100
_cell_angle_alpha   59.98523513
_cell_angle_beta   59.98523138
_cell_angle_gamma   59.97399184
_symmetry_Int_Tables_number   1
_chemical_formula_structural   Zr8Fe2PdPt
_chemical_formula_sum   'Zr16 Fe4 Pd2 Pt2'
_cell_volume   466.58142316
_cell_formula_units_Z   2
loop_
 _symmetry_equiv_pos_site_id
 _symmetry_equiv_pos_as_xyz
  1  'x, y, z'
loop_
 _atom_site_type_symbol
 _atom_site_label
 _atom_site_symmetry_multiplicity
 _atom_site_fract_x
 _atom_site_fract_y
 _atom_site_fract_z
 _atom_site_occupancy
  Zr  Zr0  1  0.060836  0.646672  0.646247  1
  Zr  Zr1  1  0.646672  0.060836  0.646247  1
  Zr  Zr2  1  0.645984  0.645984  0.062357  1
  Zr  Zr3  1  0.645984  0.645984  0.645675  1
  Zr  Zr4  1  0.808750  0.808750  0.191250  1
  Zr  Zr5  1  0.189087  0.189087  0.810913  1
  Zr  Zr6  1  0.809473  0.190565  0.809818  1
  Zr  Zr7  1  0.190565  0.809473  0.190143  1
  Zr  Zr8  1  0.190565  0.809473  0.809818  1
  Zr  Zr9  1  0.809473  0.190565  0.190143  1
  Zr  Zr10  1  0.438825  0.438825  0.061175  1
  Zr  Zr11  1  0.060505  0.060505  0.439495  1
  Zr  Zr12  1  0.439100  0.060400  0.439630  1
  Zr  Zr13  1  0.060400  0.439100  0.060869  1
  Zr  Zr14  1  0.060400  0.439100  0.439630  1
  Zr  Zr15  1  0.439100  0.060400  0.060869  1
  Fe  Fe16  1  0.426284  0.857692  0.858011  1
  Fe  Fe17  1  0.857692  0.426284  0.858011  1
  Fe  Fe18  1  0.857618  0.857618  0.426891  1
  Fe  Fe19  1  0.857618  0.857618  0.857872  1
  Pd  Pd20  1  0.415244  0.415244  0.754098  1
  Pd  Pd21  1  0.415244  0.415244  0.415417  1
  Pt  Pt22  1  0.762604  0.411979  0.412708  1
  Pt  Pt23  1  0.411979  0.762604  0.412708  1
