# generated using pymatgen
data_Li4HfPaI12
_symmetry_space_group_name_H-M   'P 1'
_cell_length_a   7.42229200
_cell_length_b   7.42229473
_cell_length_c   29.09150900
_cell_angle_alpha   90.00000000
_cell_angle_beta   90.00000000
_cell_angle_gamma   119.99999675
_symmetry_Int_Tables_number   1
_chemical_formula_structural   Li4HfPaI12
_chemical_formula_sum   'Li8 Hf2 Pa2 I24'
_cell_volume   1387.94777954
_cell_formula_units_Z   2
loop_
 _symmetry_equiv_pos_site_id
 _symmetry_equiv_pos_as_xyz
  1  'x, y, z'
loop_
 _atom_site_type_symbol
 _atom_site_label
 _atom_site_symmetry_multiplicity
 _atom_site_fract_x
 _atom_site_fract_y
 _atom_site_fract_z
 _atom_site_occupancy
  Li  Li0  1  0.000000  0.000000  0.250000  1
  Li  Li1  1  0.000000  0.000000  0.750000  1
  Li  Li2  1  0.333333  0.666667  0.000985  1
  Li  Li3  1  0.333333  0.666667  0.499015  1
  Li  Li4  1  0.333333  0.666667  0.250000  1
  Li  Li5  1  0.666667  0.333333  0.750000  1
  Li  Li6  1  0.666667  0.333333  0.999015  1
  Li  Li7  1  0.666667  0.333333  0.500985  1
  Hf  Hf8  1  0.333333  0.666667  0.750000  1
  Hf  Hf9  1  0.666667  0.333333  0.250000  1
  Pa  Pa10  1  0.000000  0.000000  0.000000  1
  Pa  Pa11  1  0.000000  0.000000  0.500000  1
  I  I12  1  0.349559  0.016178  0.306280  1
  I  I13  1  0.333379  0.983822  0.806280  1
  I  I14  1  0.999151  0.337243  0.059188  1
  I  I15  1  0.000849  0.338093  0.559188  1
  I  I16  1  0.983822  0.333379  0.306280  1
  I  I17  1  0.016178  0.349559  0.806280  1
  I  I18  1  0.349559  0.333379  0.193720  1
  I  I19  1  0.333379  0.349559  0.693720  1
  I  I20  1  0.338093  0.337243  0.440812  1
  I  I21  1  0.337243  0.338093  0.940812  1
  I  I22  1  0.662757  0.000849  0.440812  1
  I  I23  1  0.338093  0.000849  0.059188  1
  I  I24  1  0.337243  0.999151  0.559188  1
  I  I25  1  0.662757  0.661907  0.059188  1
  I  I26  1  0.661907  0.662757  0.559188  1
  I  I27  1  0.666621  0.650441  0.306280  1
  I  I28  1  0.650441  0.666621  0.806280  1
  I  I29  1  0.983822  0.650441  0.193720  1
  I  I30  1  0.016178  0.666621  0.693720  1
  I  I31  1  0.999151  0.661907  0.440812  1
  I  I32  1  0.000849  0.662757  0.940812  1
  I  I33  1  0.661907  0.999151  0.940812  1
  I  I34  1  0.666621  0.016178  0.193720  1
  I  I35  1  0.650441  0.983822  0.693720  1
