# generated using pymatgen
data_Y4Pa(MnB3)2
_symmetry_space_group_name_H-M   'P 1'
_cell_length_a   5.45072682
_cell_length_b   5.45072602
_cell_length_c   8.02117886
_cell_angle_alpha   70.13708852
_cell_angle_beta   70.13708059
_cell_angle_gamma   59.99999771
_symmetry_Int_Tables_number   1
_chemical_formula_structural   Y4Pa(MnB3)2
_chemical_formula_sum   'Y4 Pa1 Mn2 B6'
_cell_volume   189.83743283
_cell_formula_units_Z   1
loop_
 _symmetry_equiv_pos_site_id
 _symmetry_equiv_pos_as_xyz
  1  'x, y, z'
loop_
 _atom_site_type_symbol
 _atom_site_label
 _atom_site_symmetry_multiplicity
 _atom_site_fract_x
 _atom_site_fract_y
 _atom_site_fract_z
 _atom_site_occupancy
  Y  Y0  1  0.746872  0.746872  0.759384  1
  Y  Y1  1  0.253128  0.253128  0.240616  1
  Y  Y2  1  0.586121  0.586121  0.241639  1
  Y  Y3  1  0.413879  0.413879  0.758361  1
  Pa  Pa4  1  0.000000  0.000000  0.000000  1
  Mn  Mn5  1  0.891715  0.891715  0.324855  1
  Mn  Mn6  1  0.108285  0.108285  0.675145  1
  B  B7  1  0.500000  0.166153  0.500000  1
  B  B8  1  0.833847  0.500000  0.500000  1
  B  B9  1  0.166153  0.833847  0.500000  1
  B  B10  1  0.166153  0.500000  0.500000  1
  B  B11  1  0.833847  0.166153  0.500000  1
  B  B12  1  0.500000  0.833847  0.500000  1
