# generated using pymatgen
data_Er12Tc3Pb2
_symmetry_space_group_name_H-M   'P 1'
_cell_length_a   8.44683024
_cell_length_b   8.44683048
_cell_length_c   8.44683067
_cell_angle_alpha   109.01281383
_cell_angle_beta   109.01282168
_cell_angle_gamma   110.39197304
_symmetry_Int_Tables_number   1
_chemical_formula_structural   Er12Tc3Pb2
_chemical_formula_sum   'Er12 Tc3 Pb2'
_cell_volume   463.84741095
_cell_formula_units_Z   1
loop_
 _symmetry_equiv_pos_site_id
 _symmetry_equiv_pos_as_xyz
  1  'x, y, z'
loop_
 _atom_site_type_symbol
 _atom_site_label
 _atom_site_symmetry_multiplicity
 _atom_site_fract_x
 _atom_site_fract_y
 _atom_site_fract_z
 _atom_site_occupancy
  Er  Er0  1  0.190685  0.428250  0.237565  1
  Er  Er1  1  0.809315  0.571750  0.762435  1
  Er  Er2  1  0.190685  0.953121  0.762435  1
  Er  Er3  1  0.953121  0.190685  0.762435  1
  Er  Er4  1  0.809315  0.046879  0.237565  1
  Er  Er5  1  0.046879  0.809315  0.237565  1
  Er  Er6  1  0.428250  0.190685  0.237565  1
  Er  Er7  1  0.571750  0.809315  0.762435  1
  Er  Er8  1  0.306608  0.306608  0.613216  1
  Er  Er9  1  0.693392  0.693392  0.386784  1
  Er  Er10  1  0.693392  0.306608  0.000000  1
  Er  Er11  1  0.306608  0.693392  0.000000  1
  Tc  Tc12  1  0.371427  0.371427  0.000000  1
  Tc  Tc13  1  0.628573  0.628573  0.000000  1
  Tc  Tc14  1  0.000000  0.000000  0.000000  1
  Pb  Pb15  1  0.000000  0.500000  0.500000  1
  Pb  Pb16  1  0.500000  0.000000  0.500000  1
