# generated using pymatgen
data_Gd3Si3Os
_symmetry_space_group_name_H-M   'P 1'
_cell_length_a   4.20429900
_cell_length_b   10.84433000
_cell_length_c   12.27465600
_cell_angle_alpha   90.00000000
_cell_angle_beta   90.00000000
_cell_angle_gamma   90.00000000
_symmetry_Int_Tables_number   1
_chemical_formula_structural   Gd3Si3Os
_chemical_formula_sum   'Gd12 Si12 Os4'
_cell_volume   559.63600696
_cell_formula_units_Z   4
loop_
 _symmetry_equiv_pos_site_id
 _symmetry_equiv_pos_as_xyz
  1  'x, y, z'
loop_
 _atom_site_type_symbol
 _atom_site_label
 _atom_site_symmetry_multiplicity
 _atom_site_fract_x
 _atom_site_fract_y
 _atom_site_fract_z
 _atom_site_occupancy
  Gd  Gd0  1  0.250000  0.880967  0.022207  1
  Gd  Gd1  1  0.250000  0.619033  0.522207  1
  Gd  Gd2  1  0.750000  0.119033  0.977793  1
  Gd  Gd3  1  0.750000  0.380967  0.477793  1
  Gd  Gd4  1  0.250000  0.920592  0.603196  1
  Gd  Gd5  1  0.250000  0.579408  0.103196  1
  Gd  Gd6  1  0.750000  0.079408  0.396804  1
  Gd  Gd7  1  0.750000  0.420592  0.896804  1
  Gd  Gd8  1  0.250000  0.659188  0.800845  1
  Gd  Gd9  1  0.250000  0.840812  0.300845  1
  Gd  Gd10  1  0.750000  0.340812  0.199155  1
  Gd  Gd11  1  0.750000  0.159188  0.699155  1
  Si  Si12  1  0.250000  0.005588  0.819566  1
  Si  Si13  1  0.250000  0.494412  0.319566  1
  Si  Si14  1  0.750000  0.994412  0.180434  1
  Si  Si15  1  0.750000  0.505588  0.680434  1
  Si  Si16  1  0.250000  0.249254  0.840517  1
  Si  Si17  1  0.250000  0.250746  0.340517  1
  Si  Si18  1  0.750000  0.750746  0.159483  1
  Si  Si19  1  0.750000  0.749254  0.659483  1
  Si  Si20  1  0.250000  0.206665  0.544018  1
  Si  Si21  1  0.250000  0.293335  0.044018  1
  Si  Si22  1  0.750000  0.793335  0.455982  1
  Si  Si23  1  0.750000  0.706665  0.955982  1
  Os  Os24  1  0.250000  0.388876  0.681012  1
  Os  Os25  1  0.250000  0.111124  0.181012  1
  Os  Os26  1  0.750000  0.611124  0.318988  1
  Os  Os27  1  0.750000  0.888876  0.818988  1
