# generated using pymatgen
data_K7RbBa4(SnAs4)2
_symmetry_space_group_name_H-M   'P 1'
_cell_length_a   10.68079033
_cell_length_b   10.67995495
_cell_length_c   8.06856798
_cell_angle_alpha   88.62367606
_cell_angle_beta   88.85639292
_cell_angle_gamma   119.27958424
_symmetry_Int_Tables_number   1
_chemical_formula_structural   K7RbBa4(SnAs4)2
_chemical_formula_sum   'K7 Rb1 Ba4 Sn2 As8'
_cell_volume   802.03714818
_cell_formula_units_Z   1
loop_
 _symmetry_equiv_pos_site_id
 _symmetry_equiv_pos_as_xyz
  1  'x, y, z'
loop_
 _atom_site_type_symbol
 _atom_site_label
 _atom_site_symmetry_multiplicity
 _atom_site_fract_x
 _atom_site_fract_y
 _atom_site_fract_z
 _atom_site_occupancy
  K  K0  1  0.052387  0.523336  0.616777  1
  K  K1  1  0.524743  0.053106  0.116252  1
  K  K2  1  0.281369  0.137765  0.821581  1
  K  K3  1  0.865713  0.718263  0.772675  1
  K  K4  1  0.858220  0.150272  0.800647  1
  K  K5  1  0.718251  0.865944  0.272728  1
  K  K6  1  0.137597  0.281446  0.322088  1
  Rb  Rb7  1  0.148674  0.860360  0.303671  1
  Ba  Ba8  1  0.471305  0.943410  0.612984  1
  Ba  Ba9  1  0.469925  0.521238  0.620290  1
  Ba  Ba10  1  0.942382  0.469540  0.112495  1
  Ba  Ba11  1  0.521164  0.469658  0.120481  1
  Sn  Sn12  1  0.669077  0.336694  0.501976  1
  Sn  Sn13  1  0.336614  0.668951  0.001114  1
  As  As14  1  0.666545  0.347594  0.837047  1
  As  As15  1  0.348591  0.665235  0.336076  1
  As  As16  1  0.608929  0.798336  0.873689  1
  As  As17  1  0.198479  0.390155  0.914718  1
  As  As18  1  0.192988  0.798178  0.892558  1
  As  As19  1  0.391995  0.200760  0.415724  1
  As  As20  1  0.796110  0.607127  0.374227  1
  As  As21  1  0.798939  0.192631  0.397698  1
