# generated using pymatgen
data_Dy3Ta2B4Ru10W
_symmetry_space_group_name_H-M   'P 1'
_cell_length_a   9.59636615
_cell_length_b   9.58645513
_cell_length_c   3.10619400
_cell_angle_alpha   90.00000000
_cell_angle_beta   90.00000000
_cell_angle_gamma   90.30295007
_symmetry_Int_Tables_number   1
_chemical_formula_structural   Dy3Ta2B4Ru10W
_chemical_formula_sum   'Dy3 Ta2 B4 Ru10 W1'
_cell_volume   285.75073718
_cell_formula_units_Z   1
loop_
 _symmetry_equiv_pos_site_id
 _symmetry_equiv_pos_as_xyz
  1  'x, y, z'
loop_
 _atom_site_type_symbol
 _atom_site_label
 _atom_site_symmetry_multiplicity
 _atom_site_fract_x
 _atom_site_fract_y
 _atom_site_fract_z
 _atom_site_occupancy
  Dy  Dy0  1  0.824235  0.675070  0.000000  1
  Dy  Dy1  1  0.175099  0.323789  0.000000  1
  Dy  Dy2  1  0.325315  0.825942  0.000000  1
  Ta  Ta3  1  0.676725  0.175304  0.000000  1
  Ta  Ta4  1  0.002647  0.998221  0.000000  1
  B  B5  1  0.624114  0.882494  0.000000  1
  B  B6  1  0.380771  0.122661  0.000000  1
  B  B7  1  0.117270  0.619213  0.000000  1
  B  B8  1  0.876911  0.375824  0.000000  1
  Ru  Ru9  1  0.569483  0.718859  0.500000  1
  Ru  Ru10  1  0.442013  0.283539  0.500000  1
  Ru  Ru11  1  0.070134  0.780036  0.500000  1
  Ru  Ru12  1  0.914546  0.213600  0.500000  1
  Ru  Ru13  1  0.283841  0.567344  0.500000  1
  Ru  Ru14  1  0.710739  0.417797  0.500000  1
  Ru  Ru15  1  0.222361  0.071442  0.500000  1
  Ru  Ru16  1  0.780298  0.940152  0.500000  1
  Ru  Ru17  1  0.509775  0.010239  0.500000  1
  Ru  Ru18  1  0.996129  0.495573  0.500000  1
  W  W19  1  0.497594  0.502900  0.000000  1
