# generated using pymatgen
data_MnAl2Rh3
_symmetry_space_group_name_H-M   'P 1'
_cell_length_a   4.28763100
_cell_length_b   6.03671900
_cell_length_c   12.84674400
_cell_angle_alpha   90.00000000
_cell_angle_beta   89.99997327
_cell_angle_gamma   90.00000000
_symmetry_Int_Tables_number   1
_chemical_formula_structural   MnAl2Rh3
_chemical_formula_sum   'Mn4 Al8 Rh12'
_cell_volume   332.51514649
_cell_formula_units_Z   4
loop_
 _symmetry_equiv_pos_site_id
 _symmetry_equiv_pos_as_xyz
  1  'x, y, z'
loop_
 _atom_site_type_symbol
 _atom_site_label
 _atom_site_symmetry_multiplicity
 _atom_site_fract_x
 _atom_site_fract_y
 _atom_site_fract_z
 _atom_site_occupancy
  Mn  Mn0  1  0.000004  0.000000  0.000320  1
  Mn  Mn1  1  0.499857  0.500000  0.166544  1
  Mn  Mn2  1  0.999856  0.000000  0.333451  1
  Mn  Mn3  1  0.500002  0.500000  0.499690  1
  Al  Al4  1  0.999999  0.500000  0.002143  1
  Al  Al5  1  0.499877  0.000000  0.166218  1
  Al  Al6  1  0.999876  0.500000  0.333778  1
  Al  Al7  1  0.500001  0.000000  0.497858  1
  Al  Al8  1  0.000162  0.500000  0.664280  1
  Al  Al9  1  0.500163  0.000000  0.835719  1
  Al  Al10  1  0.000120  0.000000  0.666325  1
  Al  Al11  1  0.500120  0.500000  0.833680  1
  Rh  Rh12  1  0.500002  0.253095  0.996819  1
  Rh  Rh13  1  0.500002  0.746906  0.996819  1
  Rh  Rh14  1  0.999867  0.249238  0.166441  1
  Rh  Rh15  1  0.999867  0.750763  0.166441  1
  Rh  Rh16  1  0.499866  0.250713  0.333555  1
  Rh  Rh17  1  0.499866  0.749288  0.333555  1
  Rh  Rh18  1  0.000002  0.246883  0.503162  1
  Rh  Rh19  1  0.000002  0.753118  0.503162  1
  Rh  Rh20  1  0.500122  0.248552  0.669149  1
  Rh  Rh21  1  0.500122  0.751449  0.669149  1
  Rh  Rh22  1  0.000122  0.251437  0.830872  1
  Rh  Rh23  1  0.000122  0.748564  0.830872  1
