# generated using pymatgen
data_HoEr(TaB4)2
_symmetry_space_group_name_H-M   'P 1'
_cell_length_a   3.14450200
_cell_length_b   3.14450283
_cell_length_c   14.44329100
_cell_angle_alpha   90.00000000
_cell_angle_beta   90.00000000
_cell_angle_gamma   120.00001227
_symmetry_Int_Tables_number   1
_chemical_formula_structural   HoEr(TaB4)2
_chemical_formula_sum   'Ho1 Er1 Ta2 B8'
_cell_volume   123.68032141
_cell_formula_units_Z   1
loop_
 _symmetry_equiv_pos_site_id
 _symmetry_equiv_pos_as_xyz
  1  'x, y, z'
loop_
 _atom_site_type_symbol
 _atom_site_label
 _atom_site_symmetry_multiplicity
 _atom_site_fract_x
 _atom_site_fract_y
 _atom_site_fract_z
 _atom_site_occupancy
  Ho  Ho0  1  0.000000  0.000000  0.000000  1
  Er  Er1  1  0.000000  0.000000  0.500000  1
  Ta  Ta2  1  0.000000  0.000000  0.749221  1
  Ta  Ta3  1  0.000000  0.000000  0.250779  1
  B  B4  1  0.666667  0.333333  0.864291  1
  B  B5  1  0.666667  0.333333  0.634327  1
  B  B6  1  0.666667  0.333333  0.365673  1
  B  B7  1  0.666667  0.333333  0.135709  1
  B  B8  1  0.333333  0.666667  0.864291  1
  B  B9  1  0.333333  0.666667  0.634327  1
  B  B10  1  0.333333  0.666667  0.365673  1
  B  B11  1  0.333333  0.666667  0.135709  1
