# generated using pymatgen
data_LaNdAsS
_symmetry_space_group_name_H-M   'P 1'
_cell_length_a   5.97009800
_cell_length_b   5.97009800
_cell_length_c   6.00274800
_cell_angle_alpha   90.00099617
_cell_angle_beta   90.00099617
_cell_angle_gamma   90.00019194
_symmetry_Int_Tables_number   1
_chemical_formula_structural   LaNdAsS
_chemical_formula_sum   'La2 Nd2 As2 S2'
_cell_volume   213.95036516
_cell_formula_units_Z   2
loop_
 _symmetry_equiv_pos_site_id
 _symmetry_equiv_pos_as_xyz
  1  'x, y, z'
loop_
 _atom_site_type_symbol
 _atom_site_label
 _atom_site_symmetry_multiplicity
 _atom_site_fract_x
 _atom_site_fract_y
 _atom_site_fract_z
 _atom_site_occupancy
  La  La0  1  0.749998  0.749998  0.002279  1
  La  La1  1  0.250005  0.250005  0.997727  1
  Nd  Nd2  1  0.750012  0.249986  0.500013  1
  Nd  Nd3  1  0.249986  0.750012  0.500013  1
  As  As4  1  0.749994  0.749994  0.502699  1
  As  As5  1  0.250011  0.250011  0.497348  1
  S  S6  1  0.750009  0.249996  0.999960  1
  S  S7  1  0.249996  0.750009  0.999960  1
