# generated using pymatgen
data_Y6Lu14Cd6RuPt
_symmetry_space_group_name_H-M   'P 1'
_cell_length_a   9.53910500
_cell_length_b   9.53910539
_cell_length_c   9.64384200
_cell_angle_alpha   90.00000000
_cell_angle_beta   90.00000000
_cell_angle_gamma   119.99999517
_symmetry_Int_Tables_number   1
_chemical_formula_structural   Y6Lu14Cd6RuPt
_chemical_formula_sum   'Y6 Lu14 Cd6 Ru1 Pt1'
_cell_volume   759.96924204
_cell_formula_units_Z   1
loop_
 _symmetry_equiv_pos_site_id
 _symmetry_equiv_pos_as_xyz
  1  'x, y, z'
loop_
 _atom_site_type_symbol
 _atom_site_label
 _atom_site_symmetry_multiplicity
 _atom_site_fract_x
 _atom_site_fract_y
 _atom_site_fract_z
 _atom_site_occupancy
  Y  Y0  1  0.541666  0.458334  0.250000  1
  Y  Y1  1  0.541666  0.083332  0.250000  1
  Y  Y2  1  0.916668  0.458334  0.250000  1
  Y  Y3  1  0.460185  0.539815  0.750000  1
  Y  Y4  1  0.460185  0.920369  0.750000  1
  Y  Y5  1  0.079631  0.539815  0.750000  1
  Lu  Lu6  1  0.000000  0.000000  0.500348  1
  Lu  Lu7  1  0.000000  0.000000  0.999652  1
  Lu  Lu8  1  0.207990  0.792010  0.441375  1
  Lu  Lu9  1  0.207990  0.415982  0.441375  1
  Lu  Lu10  1  0.584018  0.792010  0.441375  1
  Lu  Lu11  1  0.789909  0.210091  0.560122  1
  Lu  Lu12  1  0.789909  0.579818  0.560122  1
  Lu  Lu13  1  0.420182  0.210091  0.560122  1
  Lu  Lu14  1  0.789909  0.210091  0.939878  1
  Lu  Lu15  1  0.789909  0.579818  0.939878  1
  Lu  Lu16  1  0.420182  0.210091  0.939878  1
  Lu  Lu17  1  0.207990  0.792010  0.058625  1
  Lu  Lu18  1  0.207990  0.415982  0.058625  1
  Lu  Lu19  1  0.584018  0.792010  0.058625  1
  Cd  Cd20  1  0.886487  0.113513  0.250000  1
  Cd  Cd21  1  0.886487  0.772974  0.250000  1
  Cd  Cd22  1  0.227026  0.113513  0.250000  1
  Cd  Cd23  1  0.113575  0.886425  0.750000  1
  Cd  Cd24  1  0.113575  0.227151  0.750000  1
  Cd  Cd25  1  0.772849  0.886425  0.750000  1
  Ru  Ru26  1  0.666667  0.333333  0.750000  1
  Pt  Pt27  1  0.333333  0.666667  0.250000  1
