# generated using pymatgen
data_Th7ReIrRu
_symmetry_space_group_name_H-M   'P 1'
_cell_length_a   10.07672054
_cell_length_b   9.95861248
_cell_length_c   6.33830831
_cell_angle_alpha   89.99999885
_cell_angle_beta   90.00393147
_cell_angle_gamma   119.61302267
_symmetry_Int_Tables_number   1
_chemical_formula_structural   Th7ReIrRu
_chemical_formula_sum   'Th14 Re2 Ir2 Ru2'
_cell_volume   552.97101840
_cell_formula_units_Z   2
loop_
 _symmetry_equiv_pos_site_id
 _symmetry_equiv_pos_as_xyz
  1  'x, y, z'
loop_
 _atom_site_type_symbol
 _atom_site_label
 _atom_site_symmetry_multiplicity
 _atom_site_fract_x
 _atom_site_fract_y
 _atom_site_fract_z
 _atom_site_occupancy
  Th  Th0  1  0.454012  0.535078  0.298322  1
  Th  Th1  1  0.082494  0.541247  0.299179  1
  Th  Th2  1  0.921104  0.460553  0.795458  1
  Th  Th3  1  0.252741  0.126371  0.502378  1
  Th  Th4  1  0.543195  0.079796  0.796687  1
  Th  Th5  1  0.741598  0.870798  0.005970  1
  Th  Th6  1  0.666345  0.333172  0.292342  1
  Th  Th7  1  0.129054  0.876974  0.001614  1
  Th  Th8  1  0.454012  0.918934  0.298322  1
  Th  Th9  1  0.543195  0.463400  0.796687  1
  Th  Th10  1  0.874580  0.123737  0.503569  1
  Th  Th11  1  0.129054  0.252081  0.001614  1
  Th  Th12  1  0.874580  0.750844  0.503569  1
  Th  Th13  1  0.332514  0.666258  0.787180  1
  Re  Re14  1  0.624620  0.812309  0.550707  1
  Re  Re15  1  0.378144  0.189073  0.050248  1
  Ir  Ir16  1  0.818346  0.626096  0.052294  1
  Ir  Ir17  1  0.818346  0.192250  0.052294  1
  Ru  Ru18  1  0.181032  0.371346  0.547782  1
  Ru  Ru19  1  0.181032  0.809685  0.547782  1
