# generated using pymatgen
data_Dy2Th(B2C)3
_symmetry_space_group_name_H-M   'P 1'
_cell_length_a   5.29356575
_cell_length_b   5.29356716
_cell_length_c   5.29356682
_cell_angle_alpha   77.43117316
_cell_angle_beta   77.43116851
_cell_angle_gamma   77.43116123
_symmetry_Int_Tables_number   1
_chemical_formula_structural   Dy2Th(B2C)3
_chemical_formula_sum   'Dy2 Th1 B6 C3'
_cell_volume   139.03594075
_cell_formula_units_Z   1
loop_
 _symmetry_equiv_pos_site_id
 _symmetry_equiv_pos_as_xyz
  1  'x, y, z'
loop_
 _atom_site_type_symbol
 _atom_site_label
 _atom_site_symmetry_multiplicity
 _atom_site_fract_x
 _atom_site_fract_y
 _atom_site_fract_z
 _atom_site_occupancy
  Dy  Dy0  1  0.689154  0.689154  0.689154  1
  Dy  Dy1  1  0.310846  0.310846  0.310846  1
  Th  Th2  1  0.000000  0.000000  0.000000  1
  B  B3  1  0.500000  0.773288  0.226712  1
  B  B4  1  0.226712  0.500000  0.773288  1
  B  B5  1  0.773288  0.226712  0.500000  1
  B  B6  1  0.500000  0.226712  0.773288  1
  B  B7  1  0.226712  0.773288  0.500000  1
  B  B8  1  0.773288  0.500000  0.226712  1
  C  C9  1  0.000000  0.000000  0.500000  1
  C  C10  1  0.000000  0.500000  0.000000  1
  C  C11  1  0.500000  0.000000  0.000000  1
