# generated using pymatgen
data_La2Ga4Ir2PdRh
_symmetry_space_group_name_H-M   'P 1'
_cell_length_a   4.38164900
_cell_length_b   4.37562100
_cell_length_c   10.17270800
_cell_angle_alpha   90.00000000
_cell_angle_beta   90.00000000
_cell_angle_gamma   90.00000000
_symmetry_Int_Tables_number   1
_chemical_formula_structural   La2Ga4Ir2PdRh
_chemical_formula_sum   'La2 Ga4 Ir2 Pd1 Rh1'
_cell_volume   195.03558676
_cell_formula_units_Z   1
loop_
 _symmetry_equiv_pos_site_id
 _symmetry_equiv_pos_as_xyz
  1  'x, y, z'
loop_
 _atom_site_type_symbol
 _atom_site_label
 _atom_site_symmetry_multiplicity
 _atom_site_fract_x
 _atom_site_fract_y
 _atom_site_fract_z
 _atom_site_occupancy
  La  La0  1  0.000000  0.500000  0.237699  1
  La  La1  1  0.500000  0.000000  0.757083  1
  Ga  Ga2  1  0.000000  0.000000  0.503622  1
  Ga  Ga3  1  0.500000  0.500000  0.502753  1
  Ga  Ga4  1  0.000000  0.500000  0.876131  1
  Ga  Ga5  1  0.500000  0.000000  0.120881  1
  Ir  Ir6  1  0.000000  0.000000  0.001074  1
  Ir  Ir7  1  0.000000  0.500000  0.629719  1
  Pd  Pd8  1  0.500000  0.000000  0.370381  1
  Rh  Rh9  1  0.500000  0.500000  0.000658  1
