# generated using pymatgen
data_MnPtI18
_symmetry_space_group_name_H-M   'P 1'
_cell_length_a   10.09591340
_cell_length_b   10.19348242
_cell_length_c   10.05986423
_cell_angle_alpha   91.19826376
_cell_angle_beta   91.20474624
_cell_angle_gamma   91.00863386
_symmetry_Int_Tables_number   1
_chemical_formula_structural   MnPtI18
_chemical_formula_sum   'Mn1 Pt1 I18'
_cell_volume   1034.66213018
_cell_formula_units_Z   1
loop_
 _symmetry_equiv_pos_site_id
 _symmetry_equiv_pos_as_xyz
  1  'x, y, z'
loop_
 _atom_site_type_symbol
 _atom_site_label
 _atom_site_symmetry_multiplicity
 _atom_site_fract_x
 _atom_site_fract_y
 _atom_site_fract_z
 _atom_site_occupancy
  Mn  Mn0  1  0.000000  0.000000  0.000000  1
  Pt  Pt1  1  0.500000  0.500000  0.500000  1
  I  I2  1  0.768252  0.482663  0.517065  1
  I  I3  1  0.515785  0.765535  0.481773  1
  I  I4  1  0.482221  0.517458  0.769147  1
  I  I5  1  0.231748  0.517337  0.482935  1
  I  I6  1  0.484215  0.234465  0.518227  1
  I  I7  1  0.517779  0.482542  0.230853  1
  I  I8  1  0.888162  0.370522  0.763831  1
  I  I9  1  0.761914  0.885766  0.371449  1
  I  I10  1  0.371689  0.762944  0.888262  1
  I  I11  1  0.111838  0.629478  0.236169  1
  I  I12  1  0.238086  0.114234  0.628551  1
  I  I13  1  0.628311  0.237056  0.111738  1
  I  I14  1  0.013587  0.964331  0.715583  1
  I  I15  1  0.716629  0.013017  0.962393  1
  I  I16  1  0.962277  0.719393  0.010653  1
  I  I17  1  0.986413  0.035669  0.284417  1
  I  I18  1  0.283371  0.986983  0.037607  1
  I  I19  1  0.037723  0.280607  0.989347  1
