# generated using pymatgen
data_AcEr(AuO3)2
_symmetry_space_group_name_H-M   'P 1'
_cell_length_a   3.92045800
_cell_length_b   13.18948900
_cell_length_c   5.61121000
_cell_angle_alpha   90.00000000
_cell_angle_beta   90.00000000
_cell_angle_gamma   90.00000000
_symmetry_Int_Tables_number   1
_chemical_formula_structural   AcEr(AuO3)2
_chemical_formula_sum   'Ac2 Er2 Au4 O12'
_cell_volume   290.14914700
_cell_formula_units_Z   2
loop_
 _symmetry_equiv_pos_site_id
 _symmetry_equiv_pos_as_xyz
  1  'x, y, z'
loop_
 _atom_site_type_symbol
 _atom_site_label
 _atom_site_symmetry_multiplicity
 _atom_site_fract_x
 _atom_site_fract_y
 _atom_site_fract_z
 _atom_site_occupancy
  Ac  Ac0  1  0.711932  0.081273  0.249999  1
  Ac  Ac1  1  0.288069  0.581273  0.249999  1
  Er  Er2  1  0.766216  0.418722  0.749999  1
  Er  Er3  1  0.233785  0.918722  0.749999  1
  Au  Au4  1  0.089573  0.332428  0.249999  1
  Au  Au5  1  0.910428  0.832429  0.249999  1
  Au  Au6  1  0.056312  0.171362  0.749999  1
  Au  Au7  1  0.943689  0.671362  0.749999  1
  O  O8  1  0.818087  0.261296  0.990673  1
  O  O9  1  0.181915  0.761296  0.990673  1
  O  O10  1  0.228847  0.068349  0.981364  1
  O  O11  1  0.771155  0.568349  0.981364  1
  O  O12  1  0.228847  0.068349  0.518636  1
  O  O13  1  0.771155  0.568349  0.518636  1
  O  O14  1  0.818087  0.261296  0.509327  1
  O  O15  1  0.181915  0.761296  0.509327  1
  O  O16  1  0.285803  0.418464  0.510951  1
  O  O17  1  0.714199  0.918464  0.510951  1
  O  O18  1  0.285803  0.418464  0.989048  1
  O  O19  1  0.714199  0.918464  0.989048  1
