# generated using pymatgen
data_NaLuPa4O12
_symmetry_space_group_name_H-M   'P 1'
_cell_length_a   6.46847445
_cell_length_b   6.46847452
_cell_length_c   7.51238400
_cell_angle_alpha   73.11843756
_cell_angle_beta   73.11843736
_cell_angle_gamma   48.28776467
_symmetry_Int_Tables_number   1
_chemical_formula_structural   NaLuPa4O12
_chemical_formula_sum   'Na1 Lu1 Pa4 O12'
_cell_volume   222.44525943
_cell_formula_units_Z   1
loop_
 _symmetry_equiv_pos_site_id
 _symmetry_equiv_pos_as_xyz
  1  'x, y, z'
loop_
 _atom_site_type_symbol
 _atom_site_label
 _atom_site_symmetry_multiplicity
 _atom_site_fract_x
 _atom_site_fract_y
 _atom_site_fract_z
 _atom_site_occupancy
  Na  Na0  1  0.999972  0.000028  0.000000  1
  Lu  Lu1  1  0.999977  0.000023  0.500000  1
  Pa  Pa2  1  0.660733  0.660726  0.672084  1
  Pa  Pa3  1  0.336373  0.336407  0.834209  1
  Pa  Pa4  1  0.339274  0.339267  0.327916  1
  Pa  Pa5  1  0.663593  0.663627  0.165791  1
  O  O6  1  0.433170  0.914371  0.911764  1
  O  O7  1  0.914215  0.433037  0.911674  1
  O  O8  1  0.081658  0.579732  0.583165  1
  O  O9  1  0.261026  0.737267  0.741128  1
  O  O10  1  0.579602  0.081446  0.583060  1
  O  O11  1  0.737166  0.260902  0.740881  1
  O  O12  1  0.739098  0.262834  0.259119  1
  O  O13  1  0.918554  0.420398  0.416940  1
  O  O14  1  0.420268  0.918342  0.416835  1
  O  O15  1  0.262733  0.738974  0.258872  1
  O  O16  1  0.566963  0.085785  0.088326  1
  O  O17  1  0.085629  0.566830  0.088236  1
