# generated using pymatgen
data_Dy4Ho16Bi7Sb5
_symmetry_space_group_name_H-M   'P 1'
_cell_length_a   8.16102478
_cell_length_b   9.42155062
_cell_length_c   11.94432302
_cell_angle_alpha   90.04531542
_cell_angle_beta   89.93882527
_cell_angle_gamma   89.98822707
_symmetry_Int_Tables_number   1
_chemical_formula_structural   Dy4Ho16Bi7Sb5
_chemical_formula_sum   'Dy4 Ho16 Bi7 Sb5'
_cell_volume   918.39229070
_cell_formula_units_Z   1
loop_
 _symmetry_equiv_pos_site_id
 _symmetry_equiv_pos_as_xyz
  1  'x, y, z'
loop_
 _atom_site_type_symbol
 _atom_site_label
 _atom_site_symmetry_multiplicity
 _atom_site_fract_x
 _atom_site_fract_y
 _atom_site_fract_z
 _atom_site_occupancy
  Dy  Dy0  1  0.317356  0.247740  0.218852  1
  Dy  Dy1  1  0.812729  0.246659  0.282433  1
  Dy  Dy2  1  0.684481  0.750066  0.781869  1
  Dy  Dy3  1  0.184432  0.749941  0.717948  1
  Ho  Ho4  1  0.355923  0.753038  0.214241  1
  Ho  Ho5  1  0.850150  0.752483  0.287302  1
  Ho  Ho6  1  0.647037  0.250205  0.786684  1
  Ho  Ho7  1  0.147072  0.249950  0.713080  1
  Ho  Ho8  1  0.689314  0.563208  0.057779  1
  Ho  Ho9  1  0.191459  0.937729  0.441539  1
  Ho  Ho10  1  0.310590  0.062886  0.942278  1
  Ho  Ho11  1  0.810238  0.436864  0.557374  1
  Ho  Ho12  1  0.310911  0.436985  0.942447  1
  Ho  Ho13  1  0.809440  0.062312  0.556003  1
  Ho  Ho14  1  0.688022  0.937386  0.059968  1
  Ho  Ho15  1  0.189827  0.562993  0.442028  1
  Ho  Ho16  1  0.472675  0.247773  0.486516  1
  Ho  Ho17  1  0.971948  0.250017  0.012448  1
  Ho  Ho18  1  0.528650  0.752192  0.510494  1
  Ho  Ho19  1  0.027716  0.750142  0.987946  1
  Bi  Bi20  1  0.065020  0.504534  0.175239  1
  Bi  Bi21  1  0.435308  0.495582  0.674132  1
  Bi  Bi22  1  0.934889  0.004457  0.825042  1
  Bi  Bi23  1  0.435014  0.004505  0.675051  1
  Bi  Bi24  1  0.935034  0.495472  0.825121  1
  Bi  Bi25  1  0.564902  0.504320  0.325115  1
  Bi  Bi26  1  0.065142  0.995510  0.174697  1
  Sb  Sb27  1  0.407597  0.750035  0.958336  1
  Sb  Sb28  1  0.908369  0.749877  0.541830  1
  Sb  Sb29  1  0.592380  0.250061  0.041759  1
  Sb  Sb30  1  0.092027  0.250002  0.457864  1
  Sb  Sb31  1  0.564345  0.995076  0.326583  1
