# generated using pymatgen
data_Dy15Ho5(Ir3Rh)3
_symmetry_space_group_name_H-M   'P 1'
_cell_length_a   10.85530501
_cell_length_b   10.85522202
_cell_length_c   6.37134502
_cell_angle_alpha   90.00697803
_cell_angle_beta   89.99430441
_cell_angle_gamma   89.99920845
_symmetry_Int_Tables_number   1
_chemical_formula_structural   Dy15Ho5(Ir3Rh)3
_chemical_formula_sum   'Dy15 Ho5 Ir9 Rh3'
_cell_volume   750.77855556
_cell_formula_units_Z   1
loop_
 _symmetry_equiv_pos_site_id
 _symmetry_equiv_pos_as_xyz
  1  'x, y, z'
loop_
 _atom_site_type_symbol
 _atom_site_label
 _atom_site_symmetry_multiplicity
 _atom_site_fract_x
 _atom_site_fract_y
 _atom_site_fract_z
 _atom_site_occupancy
  Dy  Dy0  1  0.290161  0.088534  0.378820  1
  Dy  Dy1  1  0.290144  0.911274  0.878764  1
  Dy  Dy2  1  0.709876  0.088749  0.878781  1
  Dy  Dy3  1  0.709770  0.911568  0.378920  1
  Dy  Dy4  1  0.588744  0.790135  0.878757  1
  Dy  Dy5  1  0.588434  0.209768  0.378922  1
  Dy  Dy6  1  0.411558  0.790234  0.378914  1
  Dy  Dy7  1  0.411225  0.209868  0.878805  1
  Dy  Dy8  1  0.209032  0.411490  0.620189  1
  Dy  Dy9  1  0.209360  0.588509  0.122350  1
  Dy  Dy10  1  0.790702  0.411315  0.122377  1
  Dy  Dy11  1  0.790918  0.588411  0.620192  1
  Dy  Dy12  1  0.911367  0.709397  0.122378  1
  Dy  Dy13  1  0.911666  0.290897  0.620190  1
  Dy  Dy14  1  0.088413  0.709100  0.620207  1
  Ho  Ho15  1  0.088587  0.290808  0.122257  1
  Ho  Ho16  1  0.000009  0.000023  0.500257  1
  Ho  Ho17  1  0.000053  0.000136  0.000169  1
  Ho  Ho18  1  0.499996  0.499971  0.000128  1
  Ho  Ho19  1  0.500001  0.499995  0.500261  1
  Ir  Ir20  1  0.846080  0.153104  0.249660  1
  Ir  Ir21  1  0.846085  0.846654  0.749865  1
  Ir  Ir22  1  0.153831  0.153471  0.750277  1
  Ir  Ir23  1  0.154082  0.846969  0.249775  1
  Ir  Ir24  1  0.653339  0.346090  0.749865  1
  Ir  Ir25  1  0.653022  0.654088  0.249765  1
  Ir  Ir26  1  0.346747  0.345863  0.249655  1
  Ir  Ir27  1  0.346651  0.653914  0.749877  1
  Ir  Ir28  1  0.000088  0.499825  0.377011  1
  Rh  Rh29  1  0.499987  0.000009  0.122058  1
  Rh  Rh30  1  0.500005  0.000004  0.622234  1
  Rh  Rh31  1  0.000069  0.499826  0.878323  1
