# generated using pymatgen
data_Tb2ZnRh5C
_symmetry_space_group_name_H-M   'P 1'
_cell_length_a   5.95567378
_cell_length_b   5.81847919
_cell_length_c   5.81843404
_cell_angle_alpha   61.56647826
_cell_angle_beta   59.21714841
_cell_angle_gamma   59.21639071
_symmetry_Int_Tables_number   1
_chemical_formula_structural   Tb2ZnRh5C
_chemical_formula_sum   'Tb2 Zn1 Rh5 C1'
_cell_volume   142.40868060
_cell_formula_units_Z   1
loop_
 _symmetry_equiv_pos_site_id
 _symmetry_equiv_pos_as_xyz
  1  'x, y, z'
loop_
 _atom_site_type_symbol
 _atom_site_label
 _atom_site_symmetry_multiplicity
 _atom_site_fract_x
 _atom_site_fract_y
 _atom_site_fract_z
 _atom_site_occupancy
  Tb  Tb0  1  0.254172  0.245828  0.245828  1
  Tb  Tb1  1  0.754172  0.745828  0.745828  1
  Zn  Zn2  1  0.690324  0.309677  0.309677  1
  Rh  Rh3  1  0.242711  0.757290  0.242033  1
  Rh  Rh4  1  0.757967  0.757288  0.242034  1
  Rh  Rh5  1  0.242712  0.242033  0.757289  1
  Rh  Rh6  1  0.757967  0.242034  0.757289  1
  Rh  Rh7  1  0.271628  0.728373  0.728373  1
  C  C8  1  0.028349  0.971651  0.971651  1
