# generated using pymatgen
data_DyTm5(Sc2Sn3)2
_symmetry_space_group_name_H-M   'P 1'
_cell_length_a   6.24069300
_cell_length_b   8.72448906
_cell_length_c   8.73313232
_cell_angle_alpha   119.96726284
_cell_angle_beta   90.00060448
_cell_angle_gamma   89.99879112
_symmetry_Int_Tables_number   1
_chemical_formula_structural   DyTm5(Sc2Sn3)2
_chemical_formula_sum   'Dy1 Tm5 Sc4 Sn6'
_cell_volume   411.92359073
_cell_formula_units_Z   1
loop_
 _symmetry_equiv_pos_site_id
 _symmetry_equiv_pos_as_xyz
  1  'x, y, z'
loop_
 _atom_site_type_symbol
 _atom_site_label
 _atom_site_symmetry_multiplicity
 _atom_site_fract_x
 _atom_site_fract_y
 _atom_site_fract_z
 _atom_site_occupancy
  Dy  Dy0  1  0.750004  0.238428  0.000000  1
  Tm  Tm1  1  0.749999  0.761122  0.761238  1
  Tm  Tm2  1  0.749999  0.999884  0.238762  1
  Tm  Tm3  1  0.250001  0.761691  0.000000  1
  Tm  Tm4  1  0.250000  0.238692  0.238947  1
  Tm  Tm5  1  0.250000  0.999745  0.761053  1
  Sc  Sc6  1  0.499922  0.333387  0.666679  1
  Sc  Sc7  1  0.499922  0.666709  0.333321  1
  Sc  Sc8  1  0.000070  0.666709  0.333314  1
  Sc  Sc9  1  0.000070  0.333394  0.666686  1
  Sn  Sn10  1  0.750001  0.601548  0.000000  1
  Sn  Sn11  1  0.750009  0.399167  0.399683  1
  Sn  Sn12  1  0.750009  0.999485  0.600317  1
  Sn  Sn13  1  0.249995  0.398981  0.000000  1
  Sn  Sn14  1  0.249996  0.601082  0.601106  1
  Sn  Sn15  1  0.249996  0.999977  0.398894  1
