# generated using pymatgen
data_Ce3(CoP)4
_symmetry_space_group_name_H-M   'P 1'
_cell_length_a   3.87856963
_cell_length_b   3.91614938
_cell_length_c   11.79952669
_cell_angle_alpha   80.44785293
_cell_angle_beta   80.54037644
_cell_angle_gamma   90.00000743
_symmetry_Int_Tables_number   1
_chemical_formula_structural   Ce3(CoP)4
_chemical_formula_sum   'Ce3 Co4 P4'
_cell_volume   174.26686222
_cell_formula_units_Z   1
loop_
 _symmetry_equiv_pos_site_id
 _symmetry_equiv_pos_as_xyz
  1  'x, y, z'
loop_
 _atom_site_type_symbol
 _atom_site_label
 _atom_site_symmetry_multiplicity
 _atom_site_fract_x
 _atom_site_fract_y
 _atom_site_fract_z
 _atom_site_occupancy
  Ce  Ce0  1  0.000000  0.000000  0.000000  1
  Ce  Ce1  1  0.851977  0.351977  0.296048  1
  Ce  Ce2  1  0.148023  0.648023  0.703952  1
  Co  Co3  1  0.596003  0.096003  0.807993  1
  Co  Co4  1  0.403997  0.903997  0.192007  1
  Co  Co5  1  0.249150  0.249150  0.501701  1
  Co  Co6  1  0.750850  0.750850  0.498299  1
  P  P7  1  0.696657  0.196657  0.606686  1
  P  P8  1  0.303343  0.803343  0.393314  1
  P  P9  1  0.448457  0.448457  0.103086  1
  P  P10  1  0.551543  0.551543  0.896914  1
