# generated using pymatgen
data_Gd3Ho7Ru4
_symmetry_space_group_name_H-M   'P 1'
_cell_length_a   6.31235563
_cell_length_b   7.24949375
_cell_length_c   8.43945600
_cell_angle_alpha   96.79833785
_cell_angle_beta   112.07775046
_cell_angle_gamma   89.91505369
_symmetry_Int_Tables_number   1
_chemical_formula_structural   Gd3Ho7Ru4
_chemical_formula_sum   'Gd3 Ho7 Ru4'
_cell_volume   354.97812445
_cell_formula_units_Z   1
loop_
 _symmetry_equiv_pos_site_id
 _symmetry_equiv_pos_as_xyz
  1  'x, y, z'
loop_
 _atom_site_type_symbol
 _atom_site_label
 _atom_site_symmetry_multiplicity
 _atom_site_fract_x
 _atom_site_fract_y
 _atom_site_fract_z
 _atom_site_occupancy
  Gd  Gd0  1  0.358826  0.185538  0.564686  1
  Gd  Gd1  1  0.420028  0.749359  0.999751  1
  Gd  Gd2  1  0.580070  0.250894  0.001129  1
  Ho  Ho3  1  0.793136  0.584300  0.812921  1
  Ho  Ho4  1  0.978501  0.915729  0.186028  1
  Ho  Ho5  1  0.207118  0.416047  0.187337  1
  Ho  Ho6  1  0.020896  0.083799  0.813947  1
  Ho  Ho7  1  0.206051  0.685416  0.564848  1
  Ho  Ho8  1  0.641557  0.814080  0.435204  1
  Ho  Ho9  1  0.793586  0.314936  0.434631  1
  Ru  Ru10  1  0.604299  0.924721  0.779116  1
  Ru  Ru11  1  0.825520  0.576417  0.221239  1
  Ru  Ru12  1  0.396203  0.074961  0.220772  1
  Ru  Ru13  1  0.174210  0.423803  0.778391  1
