# generated using pymatgen
data_Er3Al2Ga3Co
_symmetry_space_group_name_H-M   'P 1'
_cell_length_a   6.87199429
_cell_length_b   6.87199510
_cell_length_c   4.21274700
_cell_angle_alpha   90.00000000
_cell_angle_beta   90.00000000
_cell_angle_gamma   119.79155980
_symmetry_Int_Tables_number   1
_chemical_formula_structural   Er3Al2Ga3Co
_chemical_formula_sum   'Er3 Al2 Ga3 Co1'
_cell_volume   172.65135799
_cell_formula_units_Z   1
loop_
 _symmetry_equiv_pos_site_id
 _symmetry_equiv_pos_as_xyz
  1  'x, y, z'
loop_
 _atom_site_type_symbol
 _atom_site_label
 _atom_site_symmetry_multiplicity
 _atom_site_fract_x
 _atom_site_fract_y
 _atom_site_fract_z
 _atom_site_occupancy
  Er  Er0  1  0.596339  0.998392  0.000000  1
  Er  Er1  1  0.998392  0.596339  0.000000  1
  Er  Er2  1  0.405013  0.405013  0.000000  1
  Al  Al3  1  0.228112  0.001507  0.500000  1
  Al  Al4  1  0.001507  0.228112  0.500000  1
  Ga  Ga5  1  0.768508  0.768508  0.500000  1
  Ga  Ga6  1  0.331416  0.666723  0.500000  1
  Ga  Ga7  1  0.666723  0.331416  0.500000  1
  Co  Co8  1  0.003991  0.003991  0.000000  1
