# generated using pymatgen
data_Pr5Lu3(Sc3Sn4)4
_symmetry_space_group_name_H-M   'P 1'
_cell_length_a   7.78982304
_cell_length_b   8.01239915
_cell_length_c   14.98156300
_cell_angle_alpha   90.06093274
_cell_angle_beta   89.65157423
_cell_angle_gamma   90.12387136
_symmetry_Int_Tables_number   1
_chemical_formula_structural   Pr5Lu3(Sc3Sn4)4
_chemical_formula_sum   'Pr5 Lu3 Sc12 Sn16'
_cell_volume   935.05683210
_cell_formula_units_Z   1
loop_
 _symmetry_equiv_pos_site_id
 _symmetry_equiv_pos_as_xyz
  1  'x, y, z'
loop_
 _atom_site_type_symbol
 _atom_site_label
 _atom_site_symmetry_multiplicity
 _atom_site_fract_x
 _atom_site_fract_y
 _atom_site_fract_z
 _atom_site_occupancy
  Pr  Pr0  1  0.994709  0.172549  0.096505  1
  Pr  Pr1  1  0.006090  0.826988  0.902979  1
  Pr  Pr2  1  0.504423  0.672289  0.905853  1
  Pr  Pr3  1  0.004938  0.825173  0.591306  1
  Pr  Pr4  1  0.495588  0.326059  0.096618  1
  Lu  Lu5  1  0.992173  0.179012  0.406134  1
  Lu  Lu6  1  0.488656  0.323884  0.405482  1
  Lu  Lu7  1  0.509613  0.675549  0.592571  1
  Sc  Sc8  1  0.170063  0.496173  0.747268  1
  Sc  Sc9  1  0.830547  0.503716  0.252876  1
  Sc  Sc10  1  0.331513  0.995657  0.252419  1
  Sc  Sc11  1  0.669354  0.005693  0.747721  1
  Sc  Sc12  1  0.340371  0.162931  0.625854  1
  Sc  Sc13  1  0.659650  0.837370  0.373884  1
  Sc  Sc14  1  0.160265  0.658971  0.375025  1
  Sc  Sc15  1  0.663226  0.839244  0.130271  1
  Sc  Sc16  1  0.841921  0.339083  0.624062  1
  Sc  Sc17  1  0.338789  0.161070  0.870748  1
  Sc  Sc18  1  0.836346  0.337924  0.871786  1
  Sc  Sc19  1  0.162810  0.661668  0.129777  1
  Sn  Sn20  1  0.031775  0.131561  0.747753  1
  Sn  Sn21  1  0.969353  0.872026  0.253830  1
  Sn  Sn22  1  0.467777  0.627357  0.252039  1
  Sn  Sn23  1  0.532789  0.372480  0.747578  1
  Sn  Sn24  1  0.315354  0.852354  0.745492  1
  Sn  Sn25  1  0.689392  0.148038  0.256356  1
  Sn  Sn26  1  0.188564  0.351601  0.255925  1
  Sn  Sn27  1  0.807247  0.644154  0.746733  1
  Sn  Sn28  1  0.189952  0.454844  0.541302  1
  Sn  Sn29  1  0.809024  0.538086  0.456271  1
  Sn  Sn30  1  0.320193  0.961326  0.455338  1
  Sn  Sn31  1  0.827113  0.545844  0.044099  1
  Sn  Sn32  1  0.677004  0.046167  0.540643  1
  Sn  Sn33  1  0.172356  0.454057  0.956848  1
  Sn  Sn34  1  0.674304  0.044202  0.956892  1
  Sn  Sn35  1  0.326755  0.954898  0.043758  1
