# generated using pymatgen
data_Tb3Y7In8(IrPd)2
_symmetry_space_group_name_H-M   'P 1'
_cell_length_a   3.65349400
_cell_length_b   8.15606127
_cell_length_c   18.34260518
_cell_angle_alpha   90.15572289
_cell_angle_beta   90.00000000
_cell_angle_gamma   90.00000000
_symmetry_Int_Tables_number   1
_chemical_formula_structural   Tb3Y7In8(IrPd)2
_chemical_formula_sum   'Tb3 Y7 In8 Ir2 Pd2'
_cell_volume   546.57314836
_cell_formula_units_Z   1
loop_
 _symmetry_equiv_pos_site_id
 _symmetry_equiv_pos_as_xyz
  1  'x, y, z'
loop_
 _atom_site_type_symbol
 _atom_site_label
 _atom_site_symmetry_multiplicity
 _atom_site_fract_x
 _atom_site_fract_y
 _atom_site_fract_z
 _atom_site_occupancy
  Tb  Tb0  1  0.500000  0.229168  0.778120  1
  Tb  Tb1  1  0.500000  0.770861  0.221860  1
  Tb  Tb2  1  0.500000  0.245901  0.280277  1
  Y  Y3  1  0.500000  0.753423  0.719538  1
  Y  Y4  1  0.500000  0.115145  0.587073  1
  Y  Y5  1  0.500000  0.884887  0.413001  1
  Y  Y6  1  0.500000  0.382913  0.084623  1
  Y  Y7  1  0.500000  0.617171  0.915349  1
  Y  Y8  1  0.500000  0.999967  0.999987  1
  Y  Y9  1  0.500000  0.499908  0.499924  1
  In  In10  1  0.000000  0.077190  0.148744  1
  In  In11  1  0.000000  0.922580  0.851006  1
  In  In12  1  0.000000  0.423886  0.650450  1
  In  In13  1  0.000000  0.575883  0.349664  1
  In  In14  1  0.000000  0.207856  0.432216  1
  In  In15  1  0.000000  0.792276  0.568051  1
  In  In16  1  0.000000  0.292810  0.932318  1
  In  In17  1  0.000000  0.707234  0.067580  1
  Ir  Ir18  1  0.000000  0.020827  0.696116  1
  Ir  Ir19  1  0.000000  0.980478  0.303841  1
  Pd  Pd20  1  0.000000  0.480370  0.196584  1
  Pd  Pd21  1  0.000000  0.519269  0.803678  1
