# generated using pymatgen
data_Sm3U(Rh2Pb)2
_symmetry_space_group_name_H-M   'P 1'
_cell_length_a   7.86839043
_cell_length_b   7.86838996
_cell_length_c   3.64516200
_cell_angle_alpha   90.00000000
_cell_angle_beta   90.00000000
_cell_angle_gamma   93.40170808
_symmetry_Int_Tables_number   1
_chemical_formula_structural   Sm3U(Rh2Pb)2
_chemical_formula_sum   'Sm3 U1 Rh4 Pb2'
_cell_volume   225.28005075
_cell_formula_units_Z   1
loop_
 _symmetry_equiv_pos_site_id
 _symmetry_equiv_pos_as_xyz
  1  'x, y, z'
loop_
 _atom_site_type_symbol
 _atom_site_label
 _atom_site_symmetry_multiplicity
 _atom_site_fract_x
 _atom_site_fract_y
 _atom_site_fract_z
 _atom_site_occupancy
  Sm  Sm0  1  0.324181  0.824181  0.500000  1
  Sm  Sm1  1  0.173158  0.335209  0.500000  1
  Sm  Sm2  1  0.835209  0.673158  0.500000  1
  U  U3  1  0.663522  0.163522  0.500000  1
  Rh  Rh4  1  0.110633  0.610633  0.000000  1
  Rh  Rh5  1  0.838296  0.338296  0.000000  1
  Rh  Rh6  1  0.641853  0.900676  0.000000  1
  Rh  Rh7  1  0.400676  0.141853  0.000000  1
  Pb  Pb8  1  0.008781  0.003693  0.000000  1
  Pb  Pb9  1  0.503693  0.508781  0.000000  1
