# generated using pymatgen
data_Na8Sr4TiGeP8
_symmetry_space_group_name_H-M   'P 1'
_cell_length_a   9.39212049
_cell_length_b   9.40756361
_cell_length_c   7.38308318
_cell_angle_alpha   89.66672191
_cell_angle_beta   89.61932213
_cell_angle_gamma   120.02095229
_symmetry_Int_Tables_number   1
_chemical_formula_structural   Na8Sr4TiGeP8
_chemical_formula_sum   'Na8 Sr4 Ti1 Ge1 P8'
_cell_volume   564.78569782
_cell_formula_units_Z   1
loop_
 _symmetry_equiv_pos_site_id
 _symmetry_equiv_pos_as_xyz
  1  'x, y, z'
loop_
 _atom_site_type_symbol
 _atom_site_label
 _atom_site_symmetry_multiplicity
 _atom_site_fract_x
 _atom_site_fract_y
 _atom_site_fract_z
 _atom_site_occupancy
  Na  Na0  1  0.470283  0.937065  0.383008  1
  Na  Na1  1  0.942451  0.472948  0.890418  1
  Na  Na2  1  0.870329  0.735110  0.197364  1
  Na  Na3  1  0.275710  0.129269  0.226337  1
  Na  Na4  1  0.855425  0.133003  0.216667  1
  Na  Na5  1  0.135432  0.291526  0.730734  1
  Na  Na6  1  0.718314  0.862619  0.699783  1
  Na  Na7  1  0.139260  0.846705  0.718343  1
  Sr  Sr8  1  0.047600  0.527931  0.388147  1
  Sr  Sr9  1  0.480162  0.530182  0.384549  1
  Sr  Sr10  1  0.532983  0.058103  0.886979  1
  Sr  Sr11  1  0.536161  0.477049  0.885804  1
  Ti  Ti12  1  0.328561  0.664167  0.996955  1
  Ge  Ge13  1  0.660740  0.325542  0.503255  1
  P  P14  1  0.196850  0.387096  0.110148  1
  P  P15  1  0.614038  0.806047  0.091770  1
  P  P16  1  0.196148  0.808324  0.099673  1
  P  P17  1  0.806485  0.613607  0.593480  1
  P  P18  1  0.383184  0.194771  0.611017  1
  P  P19  1  0.808850  0.197234  0.601380  1
  P  P20  1  0.663783  0.337781  0.178254  1
  P  P21  1  0.337264  0.663935  0.670529  1
