# generated using pymatgen
data_Y6CoRh
_symmetry_space_group_name_H-M   'P 1'
_cell_length_a   6.33154826
_cell_length_b   7.09898956
_cell_length_c   9.52237700
_cell_angle_alpha   90.00000000
_cell_angle_beta   90.00000000
_cell_angle_gamma   90.36642664
_symmetry_Int_Tables_number   1
_chemical_formula_structural   Y6CoRh
_chemical_formula_sum   'Y12 Co2 Rh2'
_cell_volume   427.99919201
_cell_formula_units_Z   2
loop_
 _symmetry_equiv_pos_site_id
 _symmetry_equiv_pos_as_xyz
  1  'x, y, z'
loop_
 _atom_site_type_symbol
 _atom_site_label
 _atom_site_symmetry_multiplicity
 _atom_site_fract_x
 _atom_site_fract_y
 _atom_site_fract_z
 _atom_site_occupancy
  Y  Y0  1  0.627597  0.045485  0.250000  1
  Y  Y1  1  0.372403  0.954515  0.750000  1
  Y  Y2  1  0.142283  0.466770  0.750000  1
  Y  Y3  1  0.857717  0.533230  0.250000  1
  Y  Y4  1  0.176305  0.179210  0.065342  1
  Y  Y5  1  0.823695  0.820790  0.934658  1
  Y  Y6  1  0.672998  0.331092  0.932934  1
  Y  Y7  1  0.823695  0.820790  0.565342  1
  Y  Y8  1  0.327002  0.668908  0.067066  1
  Y  Y9  1  0.176305  0.179210  0.434658  1
  Y  Y10  1  0.327002  0.668908  0.432934  1
  Y  Y11  1  0.672998  0.331092  0.567066  1
  Co  Co12  1  0.450610  0.384857  0.250000  1
  Co  Co13  1  0.549390  0.615143  0.750000  1
  Rh  Rh14  1  0.950140  0.113525  0.750000  1
  Rh  Rh15  1  0.049860  0.886475  0.250000  1
