# generated using pymatgen
data_Nd4Tm3Lu(B6Os)4
_symmetry_space_group_name_H-M   'P 1'
_cell_length_a   3.67996800
_cell_length_b   9.19091604
_cell_length_c   11.62642505
_cell_angle_alpha   90.01110215
_cell_angle_beta   90.00000000
_cell_angle_gamma   90.00000000
_symmetry_Int_Tables_number   1
_chemical_formula_structural   Nd4Tm3Lu(B6Os)4
_chemical_formula_sum   'Nd4 Tm3 Lu1 B24 Os4'
_cell_volume   393.23216051
_cell_formula_units_Z   1
loop_
 _symmetry_equiv_pos_site_id
 _symmetry_equiv_pos_as_xyz
  1  'x, y, z'
loop_
 _atom_site_type_symbol
 _atom_site_label
 _atom_site_symmetry_multiplicity
 _atom_site_fract_x
 _atom_site_fract_y
 _atom_site_fract_z
 _atom_site_occupancy
  Nd  Nd0  1  0.000000  0.322170  0.414316  1
  Nd  Nd1  1  0.000000  0.677840  0.585821  1
  Nd  Nd2  1  0.000000  0.822030  0.085597  1
  Nd  Nd3  1  0.000000  0.177992  0.914227  1
  Tm  Tm4  1  0.000000  0.944596  0.372631  1
  Tm  Tm5  1  0.000000  0.055403  0.627455  1
  Tm  Tm6  1  0.000000  0.444703  0.127107  1
  Lu  Lu7  1  0.000000  0.555379  0.872633  1
  B  B8  1  0.500000  0.556418  0.430288  1
  B  B9  1  0.500000  0.443621  0.569828  1
  B  B10  1  0.500000  0.056384  0.069691  1
  B  B11  1  0.500000  0.943447  0.930243  1
  B  B12  1  0.500000  0.750475  0.417360  1
  B  B13  1  0.500000  0.249607  0.582693  1
  B  B14  1  0.500000  0.250517  0.082617  1
  B  B15  1  0.500000  0.749024  0.917352  1
  B  B16  1  0.500000  0.791356  0.266826  1
  B  B17  1  0.500000  0.208816  0.733213  1
  B  B18  1  0.500000  0.291396  0.233132  1
  B  B19  1  0.500000  0.708158  0.766951  1
  B  B20  1  0.500000  0.630423  0.184979  1
  B  B21  1  0.500000  0.369960  0.815207  1
  B  B22  1  0.500000  0.130461  0.314973  1
  B  B23  1  0.500000  0.869461  0.685092  1
  B  B24  1  0.500000  0.985106  0.214522  1
  B  B25  1  0.500000  0.014788  0.785507  1
  B  B26  1  0.500000  0.485082  0.285440  1
  B  B27  1  0.500000  0.515206  0.714879  1
  B  B28  1  0.500000  0.601551  0.027211  1
  B  B29  1  0.500000  0.398841  0.971936  1
  B  B30  1  0.500000  0.101732  0.472286  1
  B  B31  1  0.500000  0.898254  0.527749  1
  Os  Os32  1  0.000000  0.639563  0.319018  1
  Os  Os33  1  0.000000  0.360761  0.681223  1
  Os  Os34  1  0.000000  0.139630  0.180865  1
  Os  Os35  1  0.000000  0.859850  0.819129  1
