# generated using pymatgen
data_HoEr19(IrPt5)2
_symmetry_space_group_name_H-M   'P 1'
_cell_length_a   10.97519101
_cell_length_b   10.97516503
_cell_length_c   6.37351101
_cell_angle_alpha   89.99263375
_cell_angle_beta   90.00229931
_cell_angle_gamma   90.00380059
_symmetry_Int_Tables_number   1
_chemical_formula_structural   HoEr19(IrPt5)2
_chemical_formula_sum   'Ho1 Er19 Ir2 Pt10'
_cell_volume   767.71828121
_cell_formula_units_Z   1
loop_
 _symmetry_equiv_pos_site_id
 _symmetry_equiv_pos_as_xyz
  1  'x, y, z'
loop_
 _atom_site_type_symbol
 _atom_site_label
 _atom_site_symmetry_multiplicity
 _atom_site_fract_x
 _atom_site_fract_y
 _atom_site_fract_z
 _atom_site_occupancy
  Ho  Ho0  1  0.291890  0.088054  0.376198  1
  Er  Er1  1  0.292174  0.911842  0.876370  1
  Er  Er2  1  0.707790  0.088041  0.876523  1
  Er  Er3  1  0.707759  0.911954  0.376499  1
  Er  Er4  1  0.588000  0.792189  0.876483  1
  Er  Er5  1  0.588156  0.207797  0.376486  1
  Er  Er6  1  0.412058  0.792098  0.376487  1
  Er  Er7  1  0.412126  0.207864  0.876441  1
  Er  Er8  1  0.205314  0.412694  0.624191  1
  Er  Er9  1  0.205337  0.587331  0.124155  1
  Er  Er10  1  0.794695  0.412701  0.124085  1
  Er  Er11  1  0.794661  0.587364  0.624091  1
  Er  Er12  1  0.912668  0.705342  0.124094  1
  Er  Er13  1  0.912669  0.294676  0.624099  1
  Er  Er14  1  0.087321  0.705338  0.624189  1
  Er  Er15  1  0.087237  0.294728  0.124011  1
  Er  Er16  1  0.999872  0.999949  0.500865  1
  Er  Er17  1  0.999992  0.999974  0.000744  1
  Er  Er18  1  0.500007  0.500024  0.000809  1
  Er  Er19  1  0.499999  0.499990  0.500872  1
  Ir  Ir20  1  0.999987  0.500011  0.879915  1
  Ir  Ir21  1  0.999993  0.500023  0.379842  1
  Pt  Pt22  1  0.845794  0.153028  0.249822  1
  Pt  Pt23  1  0.845755  0.846949  0.749834  1
  Pt  Pt24  1  0.154047  0.153168  0.750375  1
  Pt  Pt25  1  0.154160  0.846773  0.249735  1
  Pt  Pt26  1  0.653061  0.345773  0.749839  1
  Pt  Pt27  1  0.653027  0.654227  0.249877  1
  Pt  Pt28  1  0.347076  0.346056  0.249699  1
  Pt  Pt29  1  0.346952  0.654219  0.749821  1
  Pt  Pt30  1  0.500175  0.999941  0.116589  1
  Pt  Pt31  1  0.500251  0.999881  0.616949  1
