# generated using pymatgen
data_Ho5Er11In4NiIr3
_symmetry_space_group_name_H-M   'P 1'
_cell_length_a   9.56499036
_cell_length_b   9.58677179
_cell_length_c   9.57516500
_cell_angle_alpha   60.04004532
_cell_angle_beta   59.96480905
_cell_angle_gamma   60.03211088
_symmetry_Int_Tables_number   1
_chemical_formula_structural   Ho5Er11In4NiIr3
_chemical_formula_sum   'Ho5 Er11 In4 Ni1 Ir3'
_cell_volume   621.02494219
_cell_formula_units_Z   1
loop_
 _symmetry_equiv_pos_site_id
 _symmetry_equiv_pos_as_xyz
  1  'x, y, z'
loop_
 _atom_site_type_symbol
 _atom_site_label
 _atom_site_symmetry_multiplicity
 _atom_site_fract_x
 _atom_site_fract_y
 _atom_site_fract_z
 _atom_site_occupancy
  Ho  Ho0  1  0.439174  0.061999  0.062363  1
  Ho  Ho1  1  0.057548  0.057789  0.442331  1
  Ho  Ho2  1  0.646701  0.048622  0.652339  1
  Ho  Ho3  1  0.811727  0.808288  0.189992  1
  Ho  Ho4  1  0.439174  0.061999  0.436464  1
  Er  Er5  1  0.439672  0.434810  0.062759  1
  Er  Er6  1  0.650072  0.652806  0.043653  1
  Er  Er7  1  0.191855  0.809471  0.188248  1
  Er  Er8  1  0.059465  0.439445  0.060571  1
  Er  Er9  1  0.191855  0.809471  0.810425  1
  Er  Er10  1  0.059465  0.439445  0.440519  1
  Er  Er11  1  0.810641  0.191184  0.189780  1
  Er  Er12  1  0.650072  0.652806  0.653471  1
  Er  Er13  1  0.810641  0.191184  0.808395  1
  Er  Er14  1  0.190396  0.189319  0.810142  1
  Er  Er15  1  0.049018  0.648382  0.651300  1
  In  In16  1  0.417279  0.417708  0.414944  1
  In  In17  1  0.417279  0.417708  0.750071  1
  In  In18  1  0.418300  0.747503  0.417099  1
  In  In19  1  0.747966  0.417791  0.417123  1
  Ni  Ni20  1  0.423261  0.859153  0.858792  1
  Ir  Ir21  1  0.859653  0.859231  0.856354  1
  Ir  Ir22  1  0.859133  0.424656  0.858105  1
  Ir  Ir23  1  0.859653  0.859231  0.424760  1
