# generated using pymatgen
data_Rb2ClOF5
_symmetry_space_group_name_H-M   'P 1'
_cell_length_a   6.35818120
_cell_length_b   6.35818115
_cell_length_c   8.48526900
_cell_angle_alpha   90.00000000
_cell_angle_beta   90.00000000
_cell_angle_gamma   93.94846360
_symmetry_Int_Tables_number   1
_chemical_formula_structural   Rb2ClOF5
_chemical_formula_sum   'Rb4 Cl2 O2 F10'
_cell_volume   342.21523689
_cell_formula_units_Z   2
loop_
 _symmetry_equiv_pos_site_id
 _symmetry_equiv_pos_as_xyz
  1  'x, y, z'
loop_
 _atom_site_type_symbol
 _atom_site_label
 _atom_site_symmetry_multiplicity
 _atom_site_fract_x
 _atom_site_fract_y
 _atom_site_fract_z
 _atom_site_occupancy
  Rb  Rb0  1  0.699166  0.300834  0.000000  1
  Rb  Rb1  1  0.699166  0.300834  0.500000  1
  Rb  Rb2  1  0.300834  0.699166  0.000000  1
  Rb  Rb3  1  0.300834  0.699166  0.500000  1
  Cl  Cl4  1  0.196846  0.196846  0.750000  1
  Cl  Cl5  1  0.803154  0.803154  0.250000  1
  O  O6  1  0.031486  0.031486  0.750000  1
  O  O7  1  0.968514  0.968514  0.250000  1
  F  F8  1  0.470258  0.470258  0.750000  1
  F  F9  1  0.529742  0.529742  0.250000  1
  F  F10  1  0.574154  0.983678  0.250000  1
  F  F11  1  0.016322  0.425846  0.750000  1
  F  F12  1  0.425846  0.016322  0.750000  1
  F  F13  1  0.983678  0.574154  0.250000  1
  F  F14  1  0.217802  0.217802  0.971564  1
  F  F15  1  0.782198  0.782198  0.028436  1
  F  F16  1  0.217802  0.217802  0.528436  1
  F  F17  1  0.782198  0.782198  0.471564  1
