# generated using pymatgen
data_Dy2GaFe2Tc14C3
_symmetry_space_group_name_H-M   'P 1'
_cell_length_a   6.89587024
_cell_length_b   6.89587026
_cell_length_c   6.94662357
_cell_angle_alpha   82.35927472
_cell_angle_beta   82.35926612
_cell_angle_gamma   82.44044335
_symmetry_Int_Tables_number   1
_chemical_formula_structural   Dy2GaFe2Tc14C3
_chemical_formula_sum   'Dy2 Ga1 Fe2 Tc14 C3'
_cell_volume   322.30530569
_cell_formula_units_Z   1
loop_
 _symmetry_equiv_pos_site_id
 _symmetry_equiv_pos_as_xyz
  1  'x, y, z'
loop_
 _atom_site_type_symbol
 _atom_site_label
 _atom_site_symmetry_multiplicity
 _atom_site_fract_x
 _atom_site_fract_y
 _atom_site_fract_z
 _atom_site_occupancy
  Dy  Dy0  1  0.653204  0.653204  0.655361  1
  Dy  Dy1  1  0.346796  0.346796  0.344639  1
  Ga  Ga2  1  0.000000  0.000000  0.500000  1
  Fe  Fe3  1  0.500000  0.000000  0.000000  1
  Fe  Fe4  1  0.000000  0.500000  0.000000  1
  Tc  Tc5  1  0.725722  0.274278  0.000000  1
  Tc  Tc6  1  0.997765  0.721278  0.273745  1
  Tc  Tc7  1  0.278722  0.002235  0.726255  1
  Tc  Tc8  1  0.002235  0.278722  0.726255  1
  Tc  Tc9  1  0.721278  0.997765  0.273745  1
  Tc  Tc10  1  0.274278  0.725722  0.000000  1
  Tc  Tc11  1  0.351979  0.351979  0.858349  1
  Tc  Tc12  1  0.853347  0.353084  0.347222  1
  Tc  Tc13  1  0.353084  0.853347  0.347222  1
  Tc  Tc14  1  0.648021  0.648021  0.141651  1
  Tc  Tc15  1  0.146653  0.646916  0.652778  1
  Tc  Tc16  1  0.646916  0.146653  0.652778  1
  Tc  Tc17  1  0.898261  0.898261  0.905126  1
  Tc  Tc18  1  0.101739  0.101739  0.094874  1
  C  C19  1  0.500000  0.500000  0.000000  1
  C  C20  1  0.000000  0.500000  0.500000  1
  C  C21  1  0.500000  0.000000  0.500000  1
