# generated using pymatgen
data_La6Mg(SiS7)2
_symmetry_space_group_name_H-M   'P 1'
_cell_length_a   10.39532100
_cell_length_b   10.39531983
_cell_length_c   5.78105200
_cell_angle_alpha   90.00000000
_cell_angle_beta   90.00000000
_cell_angle_gamma   120.00000055
_symmetry_Int_Tables_number   1
_chemical_formula_structural   La6Mg(SiS7)2
_chemical_formula_sum   'La6 Mg1 Si2 S14'
_cell_volume   541.01993169
_cell_formula_units_Z   1
loop_
 _symmetry_equiv_pos_site_id
 _symmetry_equiv_pos_as_xyz
  1  'x, y, z'
loop_
 _atom_site_type_symbol
 _atom_site_label
 _atom_site_symmetry_multiplicity
 _atom_site_fract_x
 _atom_site_fract_y
 _atom_site_fract_z
 _atom_site_occupancy
  La  La0  1  0.876983  0.234465  0.249065  1
  La  La1  1  0.765535  0.642519  0.249065  1
  La  La2  1  0.357481  0.123017  0.249065  1
  La  La3  1  0.123299  0.766166  0.753010  1
  La  La4  1  0.233834  0.357133  0.753010  1
  La  La5  1  0.642867  0.876701  0.753010  1
  Mg  Mg6  1  0.000000  0.000000  0.488090  1
  Si  Si7  1  0.666667  0.333333  0.836227  1
  Si  Si8  1  0.333333  0.666667  0.339984  1
  S  S9  1  0.666667  0.333333  0.472239  1
  S  S10  1  0.333333  0.666667  0.975176  1
  S  S11  1  0.915447  0.160482  0.726779  1
  S  S12  1  0.839518  0.754965  0.726779  1
  S  S13  1  0.245035  0.084553  0.726779  1
  S  S14  1  0.082229  0.837683  0.248186  1
  S  S15  1  0.162317  0.244547  0.248186  1
  S  S16  1  0.755453  0.917771  0.248186  1
  S  S17  1  0.591759  0.115878  0.977436  1
  S  S18  1  0.884122  0.475883  0.977436  1
  S  S19  1  0.524117  0.408241  0.977436  1
  S  S20  1  0.408924  0.884235  0.480171  1
  S  S21  1  0.115765  0.524689  0.480171  1
  S  S22  1  0.475311  0.591076  0.480171  1
