# generated using pymatgen
data_CeMnSe3
_symmetry_space_group_name_H-M   'P 1'
_cell_length_a   7.40139800
_cell_length_b   6.69295900
_cell_length_c   9.87624500
_cell_angle_alpha   90.00000000
_cell_angle_beta   90.00000000
_cell_angle_gamma   90.00000000
_symmetry_Int_Tables_number   1
_chemical_formula_structural   CeMnSe3
_chemical_formula_sum   'Ce4 Mn4 Se12'
_cell_volume   489.24205078
_cell_formula_units_Z   4
loop_
 _symmetry_equiv_pos_site_id
 _symmetry_equiv_pos_as_xyz
  1  'x, y, z'
loop_
 _atom_site_type_symbol
 _atom_site_label
 _atom_site_symmetry_multiplicity
 _atom_site_fract_x
 _atom_site_fract_y
 _atom_site_fract_z
 _atom_site_occupancy
  Ce  Ce0  1  0.112836  0.048714  0.008982  1
  Ce  Ce1  1  0.887165  0.951287  0.508983  1
  Ce  Ce2  1  0.387164  0.548714  0.508983  1
  Ce  Ce3  1  0.612835  0.451285  0.008982  1
  Mn  Mn4  1  0.000193  0.500063  0.759078  1
  Mn  Mn5  1  0.999808  0.499936  0.259077  1
  Mn  Mn6  1  0.499807  0.000064  0.259077  1
  Mn  Mn7  1  0.500192  0.999936  0.759078  1
  Se  Se8  1  0.028645  0.369177  0.508952  1
  Se  Se9  1  0.971356  0.630824  0.008951  1
  Se  Se10  1  0.471355  0.869177  0.008951  1
  Se  Se11  1  0.528644  0.130824  0.508952  1
  Se  Se12  1  0.320243  0.319250  0.818234  1
  Se  Se13  1  0.679756  0.680751  0.318235  1
  Se  Se14  1  0.179756  0.819249  0.318235  1
  Se  Se15  1  0.820243  0.180750  0.818234  1
  Se  Se16  1  0.320007  0.319347  0.199754  1
  Se  Se17  1  0.679994  0.680652  0.699753  1
  Se  Se18  1  0.179994  0.819347  0.699753  1
  Se  Se19  1  0.820007  0.180652  0.199754  1
