# generated using pymatgen
data_ZnHg4(AsBr2)2
_symmetry_space_group_name_H-M   'P 1'
_cell_length_a   13.16550400
_cell_length_b   8.11402006
_cell_length_c   8.19054417
_cell_angle_alpha   62.30261014
_cell_angle_beta   90.00000000
_cell_angle_gamma   90.00000000
_symmetry_Int_Tables_number   1
_chemical_formula_structural   ZnHg4(AsBr2)2
_chemical_formula_sum   'Zn2 Hg8 As4 Br8'
_cell_volume   774.69918831
_cell_formula_units_Z   2
loop_
 _symmetry_equiv_pos_site_id
 _symmetry_equiv_pos_as_xyz
  1  'x, y, z'
loop_
 _atom_site_type_symbol
 _atom_site_label
 _atom_site_symmetry_multiplicity
 _atom_site_fract_x
 _atom_site_fract_y
 _atom_site_fract_z
 _atom_site_occupancy
  Zn  Zn0  1  0.838826  0.981057  0.016009  1
  Zn  Zn1  1  0.338826  0.018943  0.983991  1
  Hg  Hg2  1  0.793365  0.672750  0.669146  1
  Hg  Hg3  1  0.553280  0.033204  0.589528  1
  Hg  Hg4  1  0.053280  0.966796  0.410472  1
  Hg  Hg5  1  0.555843  0.531083  0.062455  1
  Hg  Hg6  1  0.293365  0.327250  0.330854  1
  Hg  Hg7  1  0.020702  0.470197  0.436153  1
  Hg  Hg8  1  0.520702  0.529803  0.563847  1
  Hg  Hg9  1  0.055843  0.468917  0.937545  1
  As  As10  1  0.481214  0.355612  0.382918  1
  As  As11  1  0.605293  0.694217  0.725219  1
  As  As12  1  0.981214  0.644388  0.617082  1
  As  As13  1  0.105293  0.305783  0.274781  1
  Br  Br14  1  0.239164  0.285188  0.765589  1
  Br  Br15  1  0.324324  0.741011  0.941126  1
  Br  Br16  1  0.019221  0.883845  0.080175  1
  Br  Br17  1  0.739164  0.714812  0.234411  1
  Br  Br18  1  0.519221  0.116155  0.919825  1
  Br  Br19  1  0.824324  0.258989  0.058874  1
  Br  Br20  1  0.807499  0.063686  0.692090  1
  Br  Br21  1  0.307499  0.936314  0.307910  1
