# generated using pymatgen
data_Rb8Mn3CdBr16
_symmetry_space_group_name_H-M   'P 1'
_cell_length_a   7.91098200
_cell_length_b   9.95958780
_cell_length_c   14.07465441
_cell_angle_alpha   90.00252448
_cell_angle_beta   90.00000000
_cell_angle_gamma   90.00000000
_symmetry_Int_Tables_number   1
_chemical_formula_structural   Rb8Mn3CdBr16
_chemical_formula_sum   'Rb8 Mn3 Cd1 Br16'
_cell_volume   1108.94370630
_cell_formula_units_Z   1
loop_
 _symmetry_equiv_pos_site_id
 _symmetry_equiv_pos_as_xyz
  1  'x, y, z'
loop_
 _atom_site_type_symbol
 _atom_site_label
 _atom_site_symmetry_multiplicity
 _atom_site_fract_x
 _atom_site_fract_y
 _atom_site_fract_z
 _atom_site_occupancy
  Rb  Rb0  1  0.250000  0.619461  0.566918  1
  Rb  Rb1  1  0.750000  0.378705  0.436017  1
  Rb  Rb2  1  0.250000  0.118765  0.930625  1
  Rb  Rb3  1  0.750000  0.887179  0.063781  1
  Rb  Rb4  1  0.250000  0.978422  0.327167  1
  Rb  Rb5  1  0.750000  0.017018  0.674367  1
  Rb  Rb6  1  0.250000  0.482219  0.176921  1
  Rb  Rb7  1  0.750000  0.520869  0.822713  1
  Mn  Mn8  1  0.250000  0.720903  0.926573  1
  Mn  Mn9  1  0.250000  0.221701  0.575769  1
  Mn  Mn10  1  0.750000  0.776680  0.424581  1
  Cd  Cd11  1  0.750000  0.283870  0.075171  1
  Br  Br12  1  0.996096  0.323866  0.651297  1
  Br  Br13  1  0.495407  0.674479  0.349742  1
  Br  Br14  1  0.502593  0.822720  0.848471  1
  Br  Br15  1  0.015182  0.171413  0.152804  1
  Br  Br16  1  0.997407  0.822720  0.848471  1
  Br  Br17  1  0.004593  0.674479  0.349742  1
  Br  Br18  1  0.484818  0.171413  0.152804  1
  Br  Br19  1  0.503904  0.323866  0.651297  1
  Br  Br20  1  0.750000  0.543746  0.079583  1
  Br  Br21  1  0.250000  0.472319  0.920749  1
  Br  Br22  1  0.750000  0.025018  0.418472  1
  Br  Br23  1  0.250000  0.973167  0.582502  1
  Br  Br24  1  0.750000  0.184249  0.900565  1
  Br  Br25  1  0.250000  0.812493  0.092278  1
  Br  Br26  1  0.750000  0.685859  0.591376  1
  Br  Br27  1  0.250000  0.312399  0.409246  1
