# generated using pymatgen
data_Tb2Sc3Ge7Pt9
_symmetry_space_group_name_H-M   'P 1'
_cell_length_a   10.30876100
_cell_length_b   10.30875996
_cell_length_c   4.02062700
_cell_angle_alpha   90.00000000
_cell_angle_beta   90.00000000
_cell_angle_gamma   120.00000012
_symmetry_Int_Tables_number   1
_chemical_formula_structural   Tb2Sc3Ge7Pt9
_chemical_formula_sum   'Tb2 Sc3 Ge7 Pt9'
_cell_volume   370.03032257
_cell_formula_units_Z   1
loop_
 _symmetry_equiv_pos_site_id
 _symmetry_equiv_pos_as_xyz
  1  'x, y, z'
loop_
 _atom_site_type_symbol
 _atom_site_label
 _atom_site_symmetry_multiplicity
 _atom_site_fract_x
 _atom_site_fract_y
 _atom_site_fract_z
 _atom_site_occupancy
  Tb  Tb0  1  0.000000  0.000000  0.000000  1
  Tb  Tb1  1  0.333333  0.666667  0.500000  1
  Sc  Sc2  1  0.894232  0.456434  0.500000  1
  Sc  Sc3  1  0.562202  0.105768  0.500000  1
  Sc  Sc4  1  0.543566  0.437798  0.500000  1
  Ge  Ge5  1  0.243721  0.196543  0.500000  1
  Ge  Ge6  1  0.803457  0.047180  0.500000  1
  Ge  Ge7  1  0.952820  0.756279  0.500000  1
  Ge  Ge8  1  0.554206  0.644589  0.000000  1
  Ge  Ge9  1  0.355411  0.909616  0.000000  1
  Ge  Ge10  1  0.090384  0.445794  0.000000  1
  Ge  Ge11  1  0.666667  0.333333  0.000000  1
  Pt  Pt12  1  0.223285  0.938958  0.500000  1
  Pt  Pt13  1  0.061042  0.284328  0.500000  1
  Pt  Pt14  1  0.715672  0.776715  0.500000  1
  Pt  Pt15  1  0.312218  0.408939  0.000000  1
  Pt  Pt16  1  0.591061  0.903278  0.000000  1
  Pt  Pt17  1  0.096722  0.687782  0.000000  1
  Pt  Pt18  1  0.384846  0.172660  0.000000  1
  Pt  Pt19  1  0.827340  0.212185  0.000000  1
  Pt  Pt20  1  0.787815  0.615154  0.000000  1
