# generated using pymatgen
data_Pr4HfZr2PtF28
_symmetry_space_group_name_H-M   'P 1'
_cell_length_a   5.83554565
_cell_length_b   9.35468773
_cell_length_c   12.55999393
_cell_angle_alpha   62.08112688
_cell_angle_beta   89.94549406
_cell_angle_gamma   89.93106615
_symmetry_Int_Tables_number   1
_chemical_formula_structural   Pr4HfZr2PtF28
_chemical_formula_sum   'Pr4 Hf1 Zr2 Pt1 F28'
_cell_volume   605.84450360
_cell_formula_units_Z   1
loop_
 _symmetry_equiv_pos_site_id
 _symmetry_equiv_pos_as_xyz
  1  'x, y, z'
loop_
 _atom_site_type_symbol
 _atom_site_label
 _atom_site_symmetry_multiplicity
 _atom_site_fract_x
 _atom_site_fract_y
 _atom_site_fract_z
 _atom_site_occupancy
  Pr  Pr0  1  0.757366  0.814023  0.765486  1
  Pr  Pr1  1  0.256840  0.186751  0.731775  1
  Pr  Pr2  1  0.240133  0.187634  0.239471  1
  Pr  Pr3  1  0.742241  0.810132  0.265568  1
  Hf  Hf4  1  0.245074  0.725492  0.043355  1
  Zr  Zr5  1  0.753972  0.273779  0.957566  1
  Zr  Zr6  1  0.254711  0.725013  0.543389  1
  Pt  Pt7  1  0.741855  0.273581  0.456635  1
  F  F8  1  0.453751  0.711840  0.921418  1
  F  F9  1  0.932522  0.291478  0.579738  1
  F  F10  1  0.541470  0.287605  0.081290  1
  F  F11  1  0.047322  0.712044  0.418279  1
  F  F12  1  0.458413  0.282179  0.539882  1
  F  F13  1  0.960921  0.719535  0.953769  1
  F  F14  1  0.545595  0.716625  0.454794  1
  F  F15  1  0.041672  0.280314  0.049228  1
  F  F16  1  0.769838  0.519648  0.861710  1
  F  F17  1  0.266630  0.478899  0.637911  1
  F  F18  1  0.229303  0.483429  0.139068  1
  F  F19  1  0.734526  0.511838  0.361160  1
  F  F20  1  0.761282  0.028293  0.056527  1
  F  F21  1  0.263132  0.970360  0.446000  1
  F  F22  1  0.239361  0.967005  0.942634  1
  F  F23  1  0.741344  0.035412  0.548670  1
  F  F24  1  0.977675  0.732106  0.639887  1
  F  F25  1  0.481415  0.267127  0.858258  1
  F  F26  1  0.020159  0.271094  0.368384  1
  F  F27  1  0.516378  0.731972  0.139208  1
  F  F28  1  0.046536  0.745902  0.167002  1
  F  F29  1  0.555498  0.259939  0.330435  1
  F  F30  1  0.959661  0.254311  0.831965  1
  F  F31  1  0.456604  0.744193  0.669805  1
  F  F32  1  0.415318  0.969629  0.234127  1
  F  F33  1  0.915540  0.030045  0.268740  1
  F  F34  1  0.587180  0.034098  0.767657  1
  F  F35  1  0.088763  0.966674  0.729213  1
