# generated using pymatgen
data_Lu9ScSi5Sn
_symmetry_space_group_name_H-M   'P 1'
_cell_length_a   8.28879490
_cell_length_b   8.31305012
_cell_length_c   6.15094276
_cell_angle_alpha   90.05455342
_cell_angle_beta   90.03092016
_cell_angle_gamma   119.94703689
_symmetry_Int_Tables_number   1
_chemical_formula_structural   Lu9ScSi5Sn
_chemical_formula_sum   'Lu9 Sc1 Si5 Sn1'
_cell_volume   367.24437007
_cell_formula_units_Z   1
loop_
 _symmetry_equiv_pos_site_id
 _symmetry_equiv_pos_as_xyz
  1  'x, y, z'
loop_
 _atom_site_type_symbol
 _atom_site_label
 _atom_site_symmetry_multiplicity
 _atom_site_fract_x
 _atom_site_fract_y
 _atom_site_fract_z
 _atom_site_occupancy
  Lu  Lu0  1  0.331273  0.657637  0.497087  1
  Lu  Lu1  1  0.331425  0.657498  0.003130  1
  Lu  Lu2  1  0.673865  0.342407  0.495921  1
  Lu  Lu3  1  0.766411  0.000467  0.750787  1
  Lu  Lu4  1  0.756853  0.757265  0.248778  1
  Lu  Lu5  1  0.997717  0.241655  0.248751  1
  Lu  Lu6  1  0.988992  0.749109  0.751325  1
  Lu  Lu7  1  0.239866  0.250051  0.750706  1
  Lu  Lu8  1  0.240545  0.000640  0.249495  1
  Sc  Sc9  1  0.674270  0.342846  0.002939  1
  Si  Si10  1  0.395583  0.392322  0.246998  1
  Si  Si11  1  0.999313  0.605759  0.246594  1
  Si  Si12  1  0.996498  0.394217  0.753030  1
  Si  Si13  1  0.604197  0.603678  0.752945  1
  Si  Si14  1  0.605158  0.001495  0.247418  1
  Sn  Sn15  1  0.398037  0.002955  0.754095  1
