# generated using pymatgen
data_LaPr6Y9Cd2(HgPt2)2
_symmetry_space_group_name_H-M   'P 1'
_cell_length_a   9.83046253
_cell_length_b   9.84010757
_cell_length_c   9.83593739
_cell_angle_alpha   60.21722630
_cell_angle_beta   60.38650575
_cell_angle_gamma   60.22827513
_symmetry_Int_Tables_number   1
_chemical_formula_structural   LaPr6Y9Cd2(HgPt2)2
_chemical_formula_sum   'La1 Pr6 Y9 Cd2 Hg2 Pt4'
_cell_volume   677.00154997
_cell_formula_units_Z   1
loop_
 _symmetry_equiv_pos_site_id
 _symmetry_equiv_pos_as_xyz
  1  'x, y, z'
loop_
 _atom_site_type_symbol
 _atom_site_label
 _atom_site_symmetry_multiplicity
 _atom_site_fract_x
 _atom_site_fract_y
 _atom_site_fract_z
 _atom_site_occupancy
  La  La0  1  0.349756  0.350057  0.349125  1
  Pr  Pr1  1  0.940236  0.561342  0.561978  1
  Pr  Pr2  1  0.560538  0.937713  0.938819  1
  Pr  Pr3  1  0.561418  0.940213  0.561925  1
  Pr  Pr4  1  0.937769  0.560250  0.939116  1
  Pr  Pr5  1  0.561092  0.560972  0.941202  1
  Pr  Pr6  1  0.937578  0.937839  0.561508  1
  Y  Y7  1  0.352419  0.352263  0.942326  1
  Y  Y8  1  0.353243  0.940521  0.352847  1
  Y  Y9  1  0.940472  0.353112  0.352848  1
  Y  Y10  1  0.814623  0.186666  0.187681  1
  Y  Y11  1  0.188892  0.811285  0.811350  1
  Y  Y12  1  0.186634  0.814721  0.187677  1
  Y  Y13  1  0.811296  0.188898  0.811234  1
  Y  Y14  1  0.186866  0.186905  0.814936  1
  Y  Y15  1  0.810830  0.810761  0.189909  1
  Cd  Cd16  1  0.581510  0.261948  0.581594  1
  Cd  Cd17  1  0.261931  0.581507  0.581696  1
  Hg  Hg18  1  0.583082  0.583060  0.584885  1
  Hg  Hg19  1  0.584664  0.584521  0.251900  1
  Pt  Pt20  1  0.143196  0.143614  0.143614  1
  Pt  Pt21  1  0.139192  0.139157  0.573616  1
  Pt  Pt22  1  0.138948  0.573686  0.139088  1
  Pt  Pt23  1  0.573807  0.138984  0.139122  1
