# generated using pymatgen
data_YEr7Re2(OsC4)2
_symmetry_space_group_name_H-M   'P 1'
_cell_length_a   5.06706000
_cell_length_b   6.50965355
_cell_length_c   9.75308643
_cell_angle_alpha   89.67282349
_cell_angle_beta   90.00000000
_cell_angle_gamma   90.00000000
_symmetry_Int_Tables_number   1
_chemical_formula_structural   YEr7Re2(OsC4)2
_chemical_formula_sum   'Y1 Er7 Re2 Os2 C8'
_cell_volume   321.69840984
_cell_formula_units_Z   1
loop_
 _symmetry_equiv_pos_site_id
 _symmetry_equiv_pos_as_xyz
  1  'x, y, z'
loop_
 _atom_site_type_symbol
 _atom_site_label
 _atom_site_symmetry_multiplicity
 _atom_site_fract_x
 _atom_site_fract_y
 _atom_site_fract_z
 _atom_site_occupancy
  Y  Y0  1  0.250000  0.030815  0.286089  1
  Er  Er1  1  0.250000  0.677002  0.556097  1
  Er  Er2  1  0.750000  0.323069  0.444337  1
  Er  Er3  1  0.750000  0.821365  0.056135  1
  Er  Er4  1  0.250000  0.178254  0.943322  1
  Er  Er5  1  0.250000  0.532263  0.216222  1
  Er  Er6  1  0.750000  0.467537  0.783595  1
  Er  Er7  1  0.750000  0.969377  0.714634  1
  Re  Re8  1  0.250000  0.721311  0.866528  1
  Re  Re9  1  0.750000  0.278622  0.132938  1
  Os  Os10  1  0.750000  0.776257  0.366364  1
  Os  Os11  1  0.250000  0.223292  0.633983  1
  C  C12  1  0.250000  0.455489  0.760224  1
  C  C13  1  0.750000  0.544153  0.239858  1
  C  C14  1  0.750000  0.043866  0.258395  1
  C  C15  1  0.250000  0.955841  0.741108  1
  C  C16  1  0.250000  0.823477  0.052953  1
  C  C17  1  0.750000  0.175567  0.946262  1
  C  C18  1  0.750000  0.673961  0.552984  1
  C  C19  1  0.250000  0.328482  0.447973  1
