# generated using pymatgen
data_Dy3ErPu6(SiB4)4
_symmetry_space_group_name_H-M   'P 1'
_cell_length_a   7.22220105
_cell_length_b   7.22306002
_cell_length_c   8.10306700
_cell_angle_alpha   90.00000000
_cell_angle_beta   90.00000000
_cell_angle_gamma   89.91904960
_symmetry_Int_Tables_number   1
_chemical_formula_structural   Dy3ErPu6(SiB4)4
_chemical_formula_sum   'Dy3 Er1 Pu6 Si4 B16'
_cell_volume   422.70734498
_cell_formula_units_Z   1
loop_
 _symmetry_equiv_pos_site_id
 _symmetry_equiv_pos_as_xyz
  1  'x, y, z'
loop_
 _atom_site_type_symbol
 _atom_site_label
 _atom_site_symmetry_multiplicity
 _atom_site_fract_x
 _atom_site_fract_y
 _atom_site_fract_z
 _atom_site_occupancy
  Dy  Dy0  1  0.181725  0.318111  0.777556  1
  Dy  Dy1  1  0.181725  0.318111  0.222444  1
  Dy  Dy2  1  0.502191  0.501071  0.500000  1
  Er  Er3  1  0.999211  0.998084  0.500000  1
  Pu  Pu4  1  0.683119  0.182729  0.229244  1
  Pu  Pu5  1  0.317160  0.817008  0.770741  1
  Pu  Pu6  1  0.317160  0.817008  0.229259  1
  Pu  Pu7  1  0.816520  0.683615  0.229441  1
  Pu  Pu8  1  0.816520  0.683615  0.770559  1
  Pu  Pu9  1  0.683119  0.182729  0.770756  1
  Si  Si10  1  0.115266  0.615259  0.500000  1
  Si  Si11  1  0.887142  0.382453  0.500000  1
  Si  Si12  1  0.381764  0.115778  0.500000  1
  Si  Si13  1  0.614193  0.888374  0.500000  1
  B  B14  1  0.173345  0.037748  0.000000  1
  B  B15  1  0.825828  0.959653  0.000000  1
  B  B16  1  0.958215  0.172020  0.000000  1
  B  B17  1  0.327961  0.541839  0.000000  1
  B  B18  1  0.039840  0.825332  0.000000  1
  B  B19  1  0.674557  0.460175  0.000000  1
  B  B20  1  0.540331  0.674085  0.000000  1
  B  B21  1  0.462145  0.326661  0.000000  1
  B  B22  1  0.090211  0.589304  0.000000  1
  B  B23  1  0.910741  0.409663  0.000000  1
  B  B24  1  0.409672  0.090213  0.000000  1
  B  B25  1  0.588788  0.911212  0.000000  1
  B  B26  1  0.999260  0.998352  0.161582  1
  B  B27  1  0.999260  0.998352  0.838418  1
  B  B28  1  0.501516  0.500722  0.838974  1
  B  B29  1  0.501516  0.500722  0.161026  1
