# generated using pymatgen
data_Y12Er4Cd4PdPt3
_symmetry_space_group_name_H-M   'P 1'
_cell_length_a   9.70373951
_cell_length_b   9.70374073
_cell_length_c   9.70374012
_cell_angle_alpha   60.01495505
_cell_angle_beta   60.01495202
_cell_angle_gamma   60.01495632
_symmetry_Int_Tables_number   1
_chemical_formula_structural   Y12Er4Cd4PdPt3
_chemical_formula_sum   'Y12 Er4 Cd4 Pd1 Pt3'
_cell_volume   646.32310884
_cell_formula_units_Z   1
loop_
 _symmetry_equiv_pos_site_id
 _symmetry_equiv_pos_as_xyz
  1  'x, y, z'
loop_
 _atom_site_type_symbol
 _atom_site_label
 _atom_site_symmetry_multiplicity
 _atom_site_fract_x
 _atom_site_fract_y
 _atom_site_fract_z
 _atom_site_occupancy
  Y  Y0  1  0.808434  0.190273  0.190273  1
  Y  Y1  1  0.190294  0.809800  0.809800  1
  Y  Y2  1  0.190273  0.808434  0.190273  1
  Y  Y3  1  0.809800  0.190294  0.809800  1
  Y  Y4  1  0.190273  0.190273  0.808434  1
  Y  Y5  1  0.809800  0.809800  0.190294  1
  Y  Y6  1  0.936078  0.563926  0.563926  1
  Y  Y7  1  0.564947  0.935528  0.935528  1
  Y  Y8  1  0.563926  0.936078  0.563926  1
  Y  Y9  1  0.935528  0.564947  0.935528  1
  Y  Y10  1  0.563926  0.563926  0.936078  1
  Y  Y11  1  0.935528  0.935528  0.564947  1
  Er  Er12  1  0.352011  0.352011  0.352011  1
  Er  Er13  1  0.353014  0.353014  0.943083  1
  Er  Er14  1  0.353014  0.943083  0.353014  1
  Er  Er15  1  0.943083  0.353014  0.353014  1
  Cd  Cd16  1  0.581652  0.581652  0.581652  1
  Cd  Cd17  1  0.581382  0.581382  0.255657  1
  Cd  Cd18  1  0.581382  0.255657  0.581382  1
  Cd  Cd19  1  0.255657  0.581382  0.581382  1
  Pd  Pd20  1  0.145104  0.145104  0.145104  1
  Pt  Pt21  1  0.144667  0.144667  0.565558  1
  Pt  Pt22  1  0.144667  0.565558  0.144667  1
  Pt  Pt23  1  0.565558  0.144667  0.144667  1
