# generated using pymatgen
data_Sm4PtPb2Au3
_symmetry_space_group_name_H-M   'P 1'
_cell_length_a   8.25947714
_cell_length_b   8.25947810
_cell_length_c   3.71458900
_cell_angle_alpha   90.00000000
_cell_angle_beta   90.00000000
_cell_angle_gamma   89.86048297
_symmetry_Int_Tables_number   1
_chemical_formula_structural   Sm4PtPb2Au3
_chemical_formula_sum   'Sm4 Pt1 Pb2 Au3'
_cell_volume   253.40468625
_cell_formula_units_Z   1
loop_
 _symmetry_equiv_pos_site_id
 _symmetry_equiv_pos_as_xyz
  1  'x, y, z'
loop_
 _atom_site_type_symbol
 _atom_site_label
 _atom_site_symmetry_multiplicity
 _atom_site_fract_x
 _atom_site_fract_y
 _atom_site_fract_z
 _atom_site_occupancy
  Sm  Sm0  1  0.343262  0.826869  0.500000  1
  Sm  Sm1  1  0.673131  0.156738  0.500000  1
  Sm  Sm2  1  0.820388  0.679612  0.500000  1
  Sm  Sm3  1  0.167761  0.332239  0.500000  1
  Pt  Pt4  1  0.623542  0.876458  0.000000  1
  Pb  Pb5  1  0.000104  0.997736  0.000000  1
  Pb  Pb6  1  0.502264  0.499896  0.000000  1
  Au  Au7  1  0.122900  0.627446  0.000000  1
  Au  Au8  1  0.374094  0.125906  0.000000  1
  Au  Au9  1  0.872554  0.377100  0.000000  1
