# generated using pymatgen
data_Ho16TlNi4Ag3
_symmetry_space_group_name_H-M   'P 1'
_cell_length_a   9.35881607
_cell_length_b   9.35881712
_cell_length_c   9.35881700
_cell_angle_alpha   60.32515167
_cell_angle_beta   60.32514799
_cell_angle_gamma   60.32515114
_symmetry_Int_Tables_number   1
_chemical_formula_structural   Ho16TlNi4Ag3
_chemical_formula_sum   'Ho16 Tl1 Ni4 Ag3'
_cell_volume   583.89010016
_cell_formula_units_Z   1
loop_
 _symmetry_equiv_pos_site_id
 _symmetry_equiv_pos_as_xyz
  1  'x, y, z'
loop_
 _atom_site_type_symbol
 _atom_site_label
 _atom_site_symmetry_multiplicity
 _atom_site_fract_x
 _atom_site_fract_y
 _atom_site_fract_z
 _atom_site_occupancy
  Ho  Ho0  1  0.350516  0.350516  0.350516  1
  Ho  Ho1  1  0.350077  0.350077  0.949522  1
  Ho  Ho2  1  0.350077  0.949522  0.350077  1
  Ho  Ho3  1  0.949522  0.350077  0.350077  1
  Ho  Ho4  1  0.811181  0.188644  0.188644  1
  Ho  Ho5  1  0.189297  0.810559  0.810559  1
  Ho  Ho6  1  0.188644  0.811181  0.188644  1
  Ho  Ho7  1  0.810559  0.189297  0.810559  1
  Ho  Ho8  1  0.188644  0.188644  0.811181  1
  Ho  Ho9  1  0.810559  0.810559  0.189297  1
  Ho  Ho10  1  0.941018  0.563616  0.563616  1
  Ho  Ho11  1  0.563564  0.936766  0.936766  1
  Ho  Ho12  1  0.563616  0.941018  0.563616  1
  Ho  Ho13  1  0.936766  0.563564  0.936766  1
  Ho  Ho14  1  0.563616  0.563616  0.941018  1
  Ho  Ho15  1  0.936766  0.936766  0.563564  1
  Tl  Tl16  1  0.581301  0.581301  0.581301  1
  Ni  Ni17  1  0.143804  0.143804  0.143804  1
  Ni  Ni18  1  0.142824  0.142824  0.571076  1
  Ni  Ni19  1  0.142824  0.571076  0.142824  1
  Ni  Ni20  1  0.571076  0.142824  0.142824  1
  Ag  Ag21  1  0.581931  0.581931  0.249888  1
  Ag  Ag22  1  0.581931  0.249888  0.581931  1
  Ag  Ag23  1  0.249888  0.581931  0.581931  1
