# generated using pymatgen
data_Sc10Tl6P
_symmetry_space_group_name_H-M   'P 1'
_cell_length_a   6.22515500
_cell_length_b   8.60745415
_cell_length_c   8.60745900
_cell_angle_alpha   119.99999942
_cell_angle_beta   90.00010790
_cell_angle_gamma   89.99979496
_symmetry_Int_Tables_number   1
_chemical_formula_structural   Sc10Tl6P
_chemical_formula_sum   'Sc10 Tl6 P1'
_cell_volume   399.42062266
_cell_formula_units_Z   1
loop_
 _symmetry_equiv_pos_site_id
 _symmetry_equiv_pos_as_xyz
  1  'x, y, z'
loop_
 _atom_site_type_symbol
 _atom_site_label
 _atom_site_symmetry_multiplicity
 _atom_site_fract_x
 _atom_site_fract_y
 _atom_site_fract_z
 _atom_site_occupancy
  Sc  Sc0  1  0.500000  0.333332  0.666666  1
  Sc  Sc1  1  0.500000  0.666667  0.333334  1
  Sc  Sc2  1  0.000000  0.666666  0.333331  1
  Sc  Sc3  1  0.000000  0.333335  0.666669  1
  Sc  Sc4  1  0.747610  0.241565  0.000000  1
  Sc  Sc5  1  0.747610  0.758436  0.758434  1
  Sc  Sc6  1  0.747610  0.000001  0.241566  1
  Sc  Sc7  1  0.252390  0.758435  0.000000  1
  Sc  Sc8  1  0.252390  0.241566  0.241566  1
  Sc  Sc9  1  0.252390  0.000000  0.758434  1
  Tl  Tl10  1  0.754000  0.601053  0.000000  1
  Tl  Tl11  1  0.754002  0.398947  0.398947  1
  Tl  Tl12  1  0.754002  0.000000  0.601053  1
  Tl  Tl13  1  0.246000  0.398947  0.000000  1
  Tl  Tl14  1  0.245998  0.601053  0.601053  1
  Tl  Tl15  1  0.245998  0.000000  0.398947  1
  P  P16  1  0.499999  0.000001  0.000000  1
