# generated using pymatgen
data_Li(Nd2Co)6
_symmetry_space_group_name_H-M   'P 1'
_cell_length_a   8.68213781
_cell_length_b   8.68213667
_cell_length_c   8.68213700
_cell_angle_alpha   109.47122374
_cell_angle_beta   109.47122109
_cell_angle_gamma   109.47121623
_symmetry_Int_Tables_number   1
_chemical_formula_structural   Li(Nd2Co)6
_chemical_formula_sum   'Li1 Nd12 Co6'
_cell_volume   503.79985840
_cell_formula_units_Z   1
loop_
 _symmetry_equiv_pos_site_id
 _symmetry_equiv_pos_as_xyz
  1  'x, y, z'
loop_
 _atom_site_type_symbol
 _atom_site_label
 _atom_site_symmetry_multiplicity
 _atom_site_fract_x
 _atom_site_fract_y
 _atom_site_fract_z
 _atom_site_occupancy
  Li  Li0  1  0.000000  0.000000  0.000000  1
  Nd  Nd1  1  0.806117  0.690853  0.496970  1
  Nd  Nd2  1  0.193883  0.309147  0.503030  1
  Nd  Nd3  1  0.193883  0.690853  0.884736  1
  Nd  Nd4  1  0.806117  0.309147  0.115264  1
  Nd  Nd5  1  0.690853  0.496970  0.806117  1
  Nd  Nd6  1  0.309147  0.503030  0.193883  1
  Nd  Nd7  1  0.690853  0.884736  0.193883  1
  Nd  Nd8  1  0.309147  0.115264  0.806117  1
  Nd  Nd9  1  0.496970  0.806117  0.690853  1
  Nd  Nd10  1  0.503030  0.193883  0.309147  1
  Nd  Nd11  1  0.115264  0.806117  0.309147  1
  Nd  Nd12  1  0.884736  0.193883  0.690853  1
  Co  Co13  1  0.887548  0.387548  0.500000  1
  Co  Co14  1  0.112452  0.612452  0.500000  1
  Co  Co15  1  0.387548  0.500000  0.887548  1
  Co  Co16  1  0.612452  0.500000  0.112452  1
  Co  Co17  1  0.500000  0.887548  0.387548  1
  Co  Co18  1  0.500000  0.112452  0.612452  1
