# generated using pymatgen
data_Ba4MgRe2HgN8
_symmetry_space_group_name_H-M   'P 1'
_cell_length_a   5.99573300
_cell_length_b   7.24478520
_cell_length_c   8.71179491
_cell_angle_alpha   58.15154850
_cell_angle_beta   90.00000000
_cell_angle_gamma   90.00000000
_symmetry_Int_Tables_number   1
_chemical_formula_structural   Ba4MgRe2HgN8
_chemical_formula_sum   'Ba4 Mg1 Re2 Hg1 N8'
_cell_volume   321.44865518
_cell_formula_units_Z   1
loop_
 _symmetry_equiv_pos_site_id
 _symmetry_equiv_pos_as_xyz
  1  'x, y, z'
loop_
 _atom_site_type_symbol
 _atom_site_label
 _atom_site_symmetry_multiplicity
 _atom_site_fract_x
 _atom_site_fract_y
 _atom_site_fract_z
 _atom_site_occupancy
  Ba  Ba0  1  0.250000  0.223618  0.090853  1
  Ba  Ba1  1  0.750000  0.751563  0.907503  1
  Ba  Ba2  1  0.750000  0.740640  0.377755  1
  Ba  Ba3  1  0.250000  0.280546  0.627963  1
  Mg  Mg4  1  0.750000  0.293870  0.392290  1
  Re  Re5  1  0.250000  0.663670  0.178458  1
  Re  Re6  1  0.750000  0.309579  0.821557  1
  Hg  Hg7  1  0.250000  0.830664  0.599450  1
  N  N8  1  0.505369  0.479790  0.777088  1
  N  N9  1  0.998408  0.490454  0.234513  1
  N  N10  1  0.501592  0.490454  0.234513  1
  N  N11  1  0.994631  0.479790  0.777088  1
  N  N12  1  0.750000  0.209158  0.659586  1
  N  N13  1  0.250000  0.780506  0.318378  1
  N  N14  1  0.750000  0.094305  0.059634  1
  N  N15  1  0.250000  0.881394  0.943372  1
