# generated using pymatgen
data_Nb12Al9Zn13CoIr
_symmetry_space_group_name_H-M   'P 1'
_cell_length_a   8.83807500
_cell_length_b   8.83807471
_cell_length_c   8.15326200
_cell_angle_alpha   90.00000000
_cell_angle_beta   90.00000000
_cell_angle_gamma   119.99998986
_symmetry_Int_Tables_number   1
_chemical_formula_structural   Nb12Al9Zn13CoIr
_chemical_formula_sum   'Nb12 Al9 Zn13 Co1 Ir1'
_cell_volume   551.54052148
_cell_formula_units_Z   1
loop_
 _symmetry_equiv_pos_site_id
 _symmetry_equiv_pos_as_xyz
  1  'x, y, z'
loop_
 _atom_site_type_symbol
 _atom_site_label
 _atom_site_symmetry_multiplicity
 _atom_site_fract_x
 _atom_site_fract_y
 _atom_site_fract_z
 _atom_site_occupancy
  Nb  Nb0  1  0.331263  0.999965  0.068920  1
  Nb  Nb1  1  0.668702  0.999965  0.931080  1
  Nb  Nb2  1  0.000035  0.331298  0.068920  1
  Nb  Nb3  1  0.670371  0.000908  0.569524  1
  Nb  Nb4  1  0.999092  0.329629  0.430476  1
  Nb  Nb5  1  0.000035  0.668737  0.931080  1
  Nb  Nb6  1  0.330537  0.000908  0.430476  1
  Nb  Nb7  1  0.999092  0.669463  0.569524  1
  Nb  Nb8  1  0.668702  0.668737  0.068920  1
  Nb  Nb9  1  0.331263  0.331298  0.931080  1
  Nb  Nb10  1  0.330537  0.329629  0.569524  1
  Nb  Nb11  1  0.670371  0.669463  0.430476  1
  Al  Al12  1  0.666667  0.333333  0.500000  1
  Al  Al13  1  0.666667  0.333333  0.000000  1
  Al  Al14  1  0.333333  0.666667  0.000000  1
  Al  Al15  1  0.169809  0.999798  0.743294  1
  Al  Al16  1  0.829990  0.999798  0.256706  1
  Al  Al17  1  0.000202  0.170010  0.743294  1
  Al  Al18  1  0.000202  0.830191  0.256706  1
  Al  Al19  1  0.829990  0.830191  0.743294  1
  Al  Al20  1  0.169809  0.170010  0.256706  1
  Zn  Zn21  1  0.161076  0.495200  0.746969  1
  Zn  Zn22  1  0.839655  0.505405  0.250093  1
  Zn  Zn23  1  0.504800  0.665876  0.746969  1
  Zn  Zn24  1  0.494595  0.160345  0.749907  1
  Zn  Zn25  1  0.494595  0.334250  0.250093  1
  Zn  Zn26  1  0.504800  0.838924  0.253031  1
  Zn  Zn27  1  0.334124  0.838924  0.746969  1
  Zn  Zn28  1  0.665750  0.505405  0.749907  1
  Zn  Zn29  1  0.665750  0.160345  0.250093  1
  Zn  Zn30  1  0.334124  0.495200  0.253031  1
  Zn  Zn31  1  0.839655  0.334250  0.749907  1
  Zn  Zn32  1  0.161076  0.665876  0.253031  1
  Zn  Zn33  1  0.333333  0.666667  0.500000  1
  Co  Co34  1  0.000000  0.000000  0.500000  1
  Ir  Ir35  1  0.000000  0.000000  0.000000  1
