# generated using pymatgen
data_Dy2HoCo9(SiB2)2
_symmetry_space_group_name_H-M   'P 1'
_cell_length_a   5.11669400
_cell_length_b   5.11669364
_cell_length_c   9.34699500
_cell_angle_alpha   90.00000000
_cell_angle_beta   90.00000000
_cell_angle_gamma   120.00001523
_symmetry_Int_Tables_number   1
_chemical_formula_structural   Dy2HoCo9(SiB2)2
_chemical_formula_sum   'Dy2 Ho1 Co9 Si2 B4'
_cell_volume   211.92463092
_cell_formula_units_Z   1
loop_
 _symmetry_equiv_pos_site_id
 _symmetry_equiv_pos_as_xyz
  1  'x, y, z'
loop_
 _atom_site_type_symbol
 _atom_site_label
 _atom_site_symmetry_multiplicity
 _atom_site_fract_x
 _atom_site_fract_y
 _atom_site_fract_z
 _atom_site_occupancy
  Dy  Dy0  1  0.000000  0.000000  0.338757  1
  Dy  Dy1  1  0.000000  0.000000  0.999920  1
  Ho  Ho2  1  0.000000  0.000000  0.661421  1
  Co  Co3  1  0.500000  0.500000  0.500212  1
  Co  Co4  1  0.000000  0.500000  0.500212  1
  Co  Co5  1  0.500000  0.000000  0.196216  1
  Co  Co6  1  0.500000  0.500000  0.196216  1
  Co  Co7  1  0.000000  0.500000  0.196216  1
  Co  Co8  1  0.500000  0.000000  0.803544  1
  Co  Co9  1  0.500000  0.500000  0.803544  1
  Co  Co10  1  0.000000  0.500000  0.803544  1
  Co  Co11  1  0.500000  0.000000  0.500212  1
  Si  Si12  1  0.333333  0.666667  0.999948  1
  Si  Si13  1  0.666667  0.333333  0.999948  1
  B  B14  1  0.333333  0.666667  0.654415  1
  B  B15  1  0.666667  0.333333  0.654415  1
  B  B16  1  0.666667  0.333333  0.345628  1
  B  B17  1  0.333333  0.666667  0.345628  1
