# generated using pymatgen
data_Tb4Tm8Tc3Ir
_symmetry_space_group_name_H-M   'P 1'
_cell_length_a   6.25915502
_cell_length_b   7.37307761
_cell_length_c   8.99458100
_cell_angle_alpha   90.00000000
_cell_angle_beta   90.00000000
_cell_angle_gamma   89.96619567
_symmetry_Int_Tables_number   1
_chemical_formula_structural   Tb4Tm8Tc3Ir
_chemical_formula_sum   'Tb4 Tm8 Tc3 Ir1'
_cell_volume   415.09296665
_cell_formula_units_Z   1
loop_
 _symmetry_equiv_pos_site_id
 _symmetry_equiv_pos_as_xyz
  1  'x, y, z'
loop_
 _atom_site_type_symbol
 _atom_site_label
 _atom_site_symmetry_multiplicity
 _atom_site_fract_x
 _atom_site_fract_y
 _atom_site_fract_z
 _atom_site_occupancy
  Tb  Tb0  1  0.877283  0.540343  0.250000  1
  Tb  Tb1  1  0.621879  0.037813  0.250000  1
  Tb  Tb2  1  0.126289  0.458727  0.750000  1
  Tb  Tb3  1  0.375521  0.960346  0.750000  1
  Tm  Tm4  1  0.335317  0.676451  0.064167  1
  Tm  Tm5  1  0.159790  0.176464  0.436557  1
  Tm  Tm6  1  0.661272  0.322914  0.561482  1
  Tm  Tm7  1  0.839531  0.824734  0.937895  1
  Tm  Tm8  1  0.661272  0.322914  0.938518  1
  Tm  Tm9  1  0.839531  0.824734  0.562105  1
  Tm  Tm10  1  0.335317  0.676451  0.435833  1
  Tm  Tm11  1  0.159790  0.176464  0.063443  1
  Tc  Tc12  1  0.040499  0.883065  0.250000  1
  Tc  Tc13  1  0.461012  0.385641  0.250000  1
  Tc  Tc14  1  0.958315  0.117155  0.750000  1
  Ir  Ir15  1  0.547383  0.615785  0.750000  1
