# generated using pymatgen
data_Er2Fe2MoP6Ir7
_symmetry_space_group_name_H-M   'P 1'
_cell_length_a   3.91647800
_cell_length_b   10.65730900
_cell_length_c   12.41915900
_cell_angle_alpha   90.00000000
_cell_angle_beta   90.00000000
_cell_angle_gamma   90.00000000
_symmetry_Int_Tables_number   1
_chemical_formula_structural   Er2Fe2MoP6Ir7
_chemical_formula_sum   'Er4 Fe4 Mo2 P12 Ir14'
_cell_volume   518.36472108
_cell_formula_units_Z   2
loop_
 _symmetry_equiv_pos_site_id
 _symmetry_equiv_pos_as_xyz
  1  'x, y, z'
loop_
 _atom_site_type_symbol
 _atom_site_label
 _atom_site_symmetry_multiplicity
 _atom_site_fract_x
 _atom_site_fract_y
 _atom_site_fract_z
 _atom_site_occupancy
  Er  Er0  1  0.250000  0.585054  0.710795  1
  Er  Er1  1  0.250000  0.914946  0.210795  1
  Er  Er2  1  0.750000  0.422054  0.290402  1
  Er  Er3  1  0.750000  0.077946  0.790402  1
  Fe  Fe4  1  0.250000  0.456676  0.935480  1
  Fe  Fe5  1  0.250000  0.043324  0.435480  1
  Fe  Fe6  1  0.750000  0.536317  0.064102  1
  Fe  Fe7  1  0.750000  0.963683  0.564102  1
  Mo  Mo8  1  0.250000  0.707993  0.984100  1
  Mo  Mo9  1  0.250000  0.792007  0.484100  1
  P  P10  1  0.250000  0.431567  0.107665  1
  P  P11  1  0.250000  0.068433  0.607665  1
  P  P12  1  0.750000  0.571154  0.894470  1
  P  P13  1  0.750000  0.928846  0.394470  1
  P  P14  1  0.250000  0.266588  0.866386  1
  P  P15  1  0.250000  0.233412  0.366386  1
  P  P16  1  0.750000  0.729373  0.129986  1
  P  P17  1  0.750000  0.770627  0.629986  1
  P  P18  1  0.250000  0.600291  0.389265  1
  P  P19  1  0.250000  0.899709  0.889265  1
  P  P20  1  0.750000  0.405175  0.612962  1
  P  P21  1  0.750000  0.094825  0.112962  1
  Ir  Ir22  1  0.750000  0.282441  0.016046  1
  Ir  Ir23  1  0.750000  0.217559  0.516046  1
  Ir  Ir24  1  0.250000  0.405943  0.479848  1
  Ir  Ir25  1  0.250000  0.094058  0.979848  1
  Ir  Ir26  1  0.750000  0.594084  0.520067  1
  Ir  Ir27  1  0.750000  0.905916  0.020067  1
  Ir  Ir28  1  0.250000  0.234912  0.177042  1
  Ir  Ir29  1  0.250000  0.265088  0.677042  1
  Ir  Ir30  1  0.750000  0.764789  0.821300  1
  Ir  Ir31  1  0.750000  0.735211  0.321300  1
  Ir  Ir32  1  0.250000  0.883892  0.700966  1
  Ir  Ir33  1  0.250000  0.616108  0.200966  1
  Ir  Ir34  1  0.750000  0.115646  0.299118  1
  Ir  Ir35  1  0.750000  0.384354  0.799118  1
