# generated using pymatgen
data_Dy2Er3Tm11(Tl3Co)2
_symmetry_space_group_name_H-M   'P 1'
_cell_length_a   10.18554002
_cell_length_b   10.18459358
_cell_length_c   7.07690500
_cell_angle_alpha   89.99840732
_cell_angle_beta   89.99912091
_cell_angle_gamma   119.98940945
_symmetry_Int_Tables_number   1
_chemical_formula_structural   Dy2Er3Tm11(Tl3Co)2
_chemical_formula_sum   'Dy2 Er3 Tm11 Tl6 Co2'
_cell_volume   635.84036784
_cell_formula_units_Z   1
loop_
 _symmetry_equiv_pos_site_id
 _symmetry_equiv_pos_as_xyz
  1  'x, y, z'
loop_
 _atom_site_type_symbol
 _atom_site_label
 _atom_site_symmetry_multiplicity
 _atom_site_fract_x
 _atom_site_fract_y
 _atom_site_fract_z
 _atom_site_occupancy
  Dy  Dy0  1  0.999971  0.000021  0.272224  1
  Dy  Dy1  1  0.000049  0.000036  0.772191  1
  Er  Er2  1  0.075249  0.537633  0.288820  1
  Er  Er3  1  0.924833  0.462453  0.788777  1
  Er  Er4  1  0.537460  0.074985  0.788804  1
  Tm  Tm5  1  0.178861  0.821402  0.990885  1
  Tm  Tm6  1  0.821032  0.178479  0.490457  1
  Tm  Tm7  1  0.179172  0.357597  0.990672  1
  Tm  Tm8  1  0.642382  0.820948  0.990910  1
  Tm  Tm9  1  0.357638  0.178950  0.490501  1
  Tm  Tm10  1  0.820879  0.642516  0.490679  1
  Tm  Tm11  1  0.333686  0.666679  0.681411  1
  Tm  Tm12  1  0.666333  0.333346  0.181570  1
  Tm  Tm13  1  0.462293  0.537785  0.289100  1
  Tm  Tm14  1  0.537681  0.462327  0.789119  1
  Tm  Tm15  1  0.462217  0.924367  0.289072  1
  Tl  Tl16  1  0.163821  0.836392  0.540029  1
  Tl  Tl17  1  0.836400  0.163693  0.040208  1
  Tl  Tl18  1  0.163781  0.327442  0.540178  1
  Tl  Tl19  1  0.672319  0.836202  0.539987  1
  Tl  Tl20  1  0.327562  0.163885  0.040175  1
  Tl  Tl21  1  0.836168  0.672447  0.040014  1
  Co  Co22  1  0.333719  0.666892  0.060230  1
  Co  Co23  1  0.666491  0.333522  0.560103  1
