# generated using pymatgen
data_Lu10Zn3CoTe4
_symmetry_space_group_name_H-M   'P 1'
_cell_length_a   8.48226854
_cell_length_b   8.48227077
_cell_length_c   7.71629644
_cell_angle_alpha   90.59951748
_cell_angle_beta   90.59951565
_cell_angle_gamma   125.61324082
_symmetry_Int_Tables_number   1
_chemical_formula_structural   Lu10Zn3CoTe4
_chemical_formula_sum   'Lu10 Zn3 Co1 Te4'
_cell_volume   451.22347487
_cell_formula_units_Z   1
loop_
 _symmetry_equiv_pos_site_id
 _symmetry_equiv_pos_as_xyz
  1  'x, y, z'
loop_
 _atom_site_type_symbol
 _atom_site_label
 _atom_site_symmetry_multiplicity
 _atom_site_fract_x
 _atom_site_fract_y
 _atom_site_fract_z
 _atom_site_occupancy
  Lu  Lu0  1  0.997950  0.997950  0.005096  1
  Lu  Lu1  1  0.504203  0.504203  0.492511  1
  Lu  Lu2  1  0.806819  0.567110  0.182287  1
  Lu  Lu3  1  0.460728  0.215314  0.837295  1
  Lu  Lu4  1  0.953414  0.717656  0.648127  1
  Lu  Lu5  1  0.262806  0.027075  0.339959  1
  Lu  Lu6  1  0.215314  0.460728  0.837295  1
  Lu  Lu7  1  0.567110  0.806819  0.182287  1
  Lu  Lu8  1  0.027075  0.262806  0.339959  1
  Lu  Lu9  1  0.717656  0.953414  0.648127  1
  Zn  Zn10  1  0.129915  0.129915  0.630972  1
  Zn  Zn11  1  0.628711  0.628711  0.872633  1
  Zn  Zn12  1  0.370384  0.370384  0.126829  1
  Co  Co13  1  0.867238  0.867238  0.371149  1
  Te  Te14  1  0.218950  0.800953  0.994411  1
  Te  Te15  1  0.692606  0.278167  0.498326  1
  Te  Te16  1  0.800953  0.218950  0.994411  1
  Te  Te17  1  0.278167  0.692606  0.498326  1
