# generated using pymatgen
data_Tm12Fe4HgBi
_symmetry_space_group_name_H-M   'P 1'
_cell_length_a   8.28426470
_cell_length_b   8.28426518
_cell_length_c   8.28426567
_cell_angle_alpha   109.84753905
_cell_angle_beta   111.68315866
_cell_angle_gamma   106.91830703
_symmetry_Int_Tables_number   1
_chemical_formula_structural   Tm12Fe4HgBi
_chemical_formula_sum   'Tm12 Fe4 Hg1 Bi1'
_cell_volume   436.89758041
_cell_formula_units_Z   1
loop_
 _symmetry_equiv_pos_site_id
 _symmetry_equiv_pos_as_xyz
  1  'x, y, z'
loop_
 _atom_site_type_symbol
 _atom_site_label
 _atom_site_symmetry_multiplicity
 _atom_site_fract_x
 _atom_site_fract_y
 _atom_site_fract_z
 _atom_site_occupancy
  Tm  Tm0  1  0.289037  0.186505  0.475541  1
  Tm  Tm1  1  0.710963  0.813495  0.524459  1
  Tm  Tm2  1  0.289037  0.813495  0.102531  1
  Tm  Tm3  1  0.710963  0.186505  0.897469  1
  Tm  Tm4  1  0.614008  0.311382  0.302626  1
  Tm  Tm5  1  0.385992  0.688618  0.697374  1
  Tm  Tm6  1  0.008754  0.311382  0.697374  1
  Tm  Tm7  1  0.991246  0.688618  0.302626  1
  Tm  Tm8  1  0.221784  0.439581  0.217798  1
  Tm  Tm9  1  0.778216  0.560419  0.782202  1
  Tm  Tm10  1  0.221784  0.003987  0.782202  1
  Tm  Tm11  1  0.778216  0.996013  0.217798  1
  Fe  Fe12  1  0.000000  0.386385  0.386385  1
  Fe  Fe13  1  0.000000  0.613615  0.613615  1
  Fe  Fe14  1  0.391794  0.891794  0.500000  1
  Fe  Fe15  1  0.608206  0.108206  0.500000  1
  Hg  Hg16  1  0.000000  0.000000  0.000000  1
  Bi  Bi17  1  0.500000  0.500000  0.000000  1
