# generated using pymatgen
data_DyVF7
_symmetry_space_group_name_H-M   'P 1'
_cell_length_a   5.50120300
_cell_length_b   8.82025826
_cell_length_c   11.79756784
_cell_angle_alpha   63.30427198
_cell_angle_beta   90.00000000
_cell_angle_gamma   90.00000000
_symmetry_Int_Tables_number   1
_chemical_formula_structural   DyVF7
_chemical_formula_sum   'Dy4 V4 F28'
_cell_volume   511.42243955
_cell_formula_units_Z   4
loop_
 _symmetry_equiv_pos_site_id
 _symmetry_equiv_pos_as_xyz
  1  'x, y, z'
loop_
 _atom_site_type_symbol
 _atom_site_label
 _atom_site_symmetry_multiplicity
 _atom_site_fract_x
 _atom_site_fract_y
 _atom_site_fract_z
 _atom_site_occupancy
  Dy  Dy0  1  0.758298  0.808155  0.769969  1
  Dy  Dy1  1  0.258298  0.191845  0.730031  1
  Dy  Dy2  1  0.241702  0.191845  0.230031  1
  Dy  Dy3  1  0.741702  0.808155  0.269969  1
  V  V4  1  0.754818  0.273544  0.954552  1
  V  V5  1  0.254818  0.726456  0.545448  1
  V  V6  1  0.245182  0.726456  0.045448  1
  V  V7  1  0.745182  0.273544  0.454552  1
  F  F8  1  0.447539  0.706557  0.922925  1
  F  F9  1  0.947539  0.293443  0.577075  1
  F  F10  1  0.552461  0.293443  0.077075  1
  F  F11  1  0.052461  0.706557  0.422925  1
  F  F12  1  0.459523  0.282065  0.544625  1
  F  F13  1  0.959523  0.717935  0.955375  1
  F  F14  1  0.540477  0.717935  0.455375  1
  F  F15  1  0.040477  0.282065  0.044625  1
  F  F16  1  0.768956  0.506371  0.863010  1
  F  F17  1  0.268956  0.493629  0.636990  1
  F  F18  1  0.231044  0.493629  0.136990  1
  F  F19  1  0.731044  0.506371  0.363010  1
  F  F20  1  0.757426  0.042918  0.045781  1
  F  F21  1  0.257426  0.957082  0.454219  1
  F  F22  1  0.242574  0.957082  0.954219  1
  F  F23  1  0.742574  0.042918  0.545781  1
  F  F24  1  0.978104  0.731019  0.639838  1
  F  F25  1  0.478104  0.268981  0.860162  1
  F  F26  1  0.021896  0.268981  0.360162  1
  F  F27  1  0.521896  0.731019  0.139838  1
  F  F28  1  0.044208  0.747395  0.170002  1
  F  F29  1  0.544208  0.252605  0.329998  1
  F  F30  1  0.955792  0.252605  0.829998  1
  F  F31  1  0.455792  0.747395  0.670002  1
  F  F32  1  0.419814  0.972507  0.230884  1
  F  F33  1  0.919814  0.027493  0.269116  1
  F  F34  1  0.580186  0.027493  0.769116  1
  F  F35  1  0.080186  0.972507  0.730884  1
