# generated using pymatgen
data_YLu(CoB)8
_symmetry_space_group_name_H-M   'P 1'
_cell_length_a   6.91194100
_cell_length_b   6.91194100
_cell_length_c   3.81943400
_cell_angle_alpha   90.00000000
_cell_angle_beta   90.00000000
_cell_angle_gamma   90.00000000
_symmetry_Int_Tables_number   1
_chemical_formula_structural   YLu(CoB)8
_chemical_formula_sum   'Y1 Lu1 Co8 B8'
_cell_volume   182.47318583
_cell_formula_units_Z   1
loop_
 _symmetry_equiv_pos_site_id
 _symmetry_equiv_pos_as_xyz
  1  'x, y, z'
loop_
 _atom_site_type_symbol
 _atom_site_label
 _atom_site_symmetry_multiplicity
 _atom_site_fract_x
 _atom_site_fract_y
 _atom_site_fract_z
 _atom_site_occupancy
  Y  Y0  1  0.000000  0.000000  0.000000  1
  Lu  Lu1  1  0.500000  0.500000  0.500000  1
  Co  Co2  1  0.382149  0.142193  0.889875  1
  Co  Co3  1  0.617851  0.857807  0.889875  1
  Co  Co4  1  0.360588  0.879518  0.390269  1
  Co  Co5  1  0.639412  0.120482  0.390269  1
  Co  Co6  1  0.120482  0.360588  0.609731  1
  Co  Co7  1  0.879518  0.639412  0.609731  1
  Co  Co8  1  0.142193  0.617851  0.110125  1
  Co  Co9  1  0.857807  0.382149  0.110125  1
  B  B10  1  0.796846  0.662048  0.107218  1
  B  B11  1  0.203154  0.337952  0.107218  1
  B  B12  1  0.835656  0.303634  0.605499  1
  B  B13  1  0.164344  0.696366  0.605499  1
  B  B14  1  0.696366  0.835656  0.394501  1
  B  B15  1  0.303634  0.164344  0.394501  1
  B  B16  1  0.662048  0.203154  0.892782  1
  B  B17  1  0.337952  0.796846  0.892782  1
