# generated using pymatgen
data_CuHg2P4PdO14
_symmetry_space_group_name_H-M   'P 1'
_cell_length_a   4.99119397
_cell_length_b   7.67615698
_cell_length_c   8.90697244
_cell_angle_alpha   100.73044938
_cell_angle_beta   90.23967879
_cell_angle_gamma   109.34094454
_symmetry_Int_Tables_number   1
_chemical_formula_structural   CuHg2P4PdO14
_chemical_formula_sum   'Cu1 Hg2 P4 Pd1 O14'
_cell_volume   315.56621339
_cell_formula_units_Z   1
loop_
 _symmetry_equiv_pos_site_id
 _symmetry_equiv_pos_as_xyz
  1  'x, y, z'
loop_
 _atom_site_type_symbol
 _atom_site_label
 _atom_site_symmetry_multiplicity
 _atom_site_fract_x
 _atom_site_fract_y
 _atom_site_fract_z
 _atom_site_occupancy
  Cu  Cu0  1  0.000001  0.000000  0.000000  1
  Hg  Hg1  1  0.500000  0.500001  0.000000  1
  Hg  Hg2  1  0.000000  0.500000  0.500000  1
  P  P3  1  0.261796  0.801681  0.223059  1
  P  P4  1  0.461978  0.199851  0.273715  1
  P  P5  1  0.538022  0.800150  0.726285  1
  P  P6  1  0.738204  0.198319  0.776941  1
  Pd  Pd7  1  0.000000  0.000000  0.500000  1
  O  O8  1  0.067175  0.798398  0.088725  1
  O  O9  1  0.314044  0.198711  0.121372  1
  O  O10  1  0.394593  0.645709  0.199239  1
  O  O11  1  0.526025  0.001490  0.250139  1
  O  O12  1  0.752443  0.357508  0.293673  1
  O  O13  1  0.122620  0.792469  0.377458  1
  O  O14  1  0.286819  0.212513  0.414305  1
  O  O15  1  0.713179  0.787486  0.585696  1
  O  O16  1  0.877381  0.207531  0.622542  1
  O  O17  1  0.247557  0.642493  0.706327  1
  O  O18  1  0.473976  0.998511  0.749861  1
  O  O19  1  0.605408  0.354291  0.800763  1
  O  O20  1  0.685955  0.801289  0.878628  1
  O  O21  1  0.932826  0.201602  0.911275  1
