# generated using pymatgen
data_ThMnNi4
_symmetry_space_group_name_H-M   'P 1'
_cell_length_a   5.07282300
_cell_length_b   4.96162393
_cell_length_c   4.05478500
_cell_angle_alpha   90.00000000
_cell_angle_beta   90.00000000
_cell_angle_gamma   120.74418184
_symmetry_Int_Tables_number   1
_chemical_formula_structural   ThMnNi4
_chemical_formula_sum   'Th1 Mn1 Ni4'
_cell_volume   87.71345286
_cell_formula_units_Z   1
loop_
 _symmetry_equiv_pos_site_id
 _symmetry_equiv_pos_as_xyz
  1  'x, y, z'
loop_
 _atom_site_type_symbol
 _atom_site_label
 _atom_site_symmetry_multiplicity
 _atom_site_fract_x
 _atom_site_fract_y
 _atom_site_fract_z
 _atom_site_occupancy
  Th  Th0  1  0.000000  0.000000  0.000000  1
  Mn  Mn1  1  0.500000  0.000000  0.500000  1
  Ni  Ni2  1  0.667564  0.335127  0.000000  1
  Ni  Ni3  1  0.332436  0.664873  0.000000  1
  Ni  Ni4  1  0.500000  0.500000  0.500000  1
  Ni  Ni5  1  0.000000  0.500000  0.500000  1
