# generated using pymatgen
data_Y2Er2U(FeB3)2
_symmetry_space_group_name_H-M   'P 1'
_cell_length_a   5.42892764
_cell_length_b   5.42892679
_cell_length_c   7.83960598
_cell_angle_alpha   69.74189214
_cell_angle_beta   69.74189039
_cell_angle_gamma   59.99999860
_symmetry_Int_Tables_number   1
_chemical_formula_structural   Y2Er2U(FeB3)2
_chemical_formula_sum   'Y2 Er2 U1 Fe2 B6'
_cell_volume   183.41329700
_cell_formula_units_Z   1
loop_
 _symmetry_equiv_pos_site_id
 _symmetry_equiv_pos_as_xyz
  1  'x, y, z'
loop_
 _atom_site_type_symbol
 _atom_site_label
 _atom_site_symmetry_multiplicity
 _atom_site_fract_x
 _atom_site_fract_y
 _atom_site_fract_z
 _atom_site_occupancy
  Y  Y0  1  0.589064  0.589064  0.232810  1
  Y  Y1  1  0.410936  0.410936  0.767190  1
  Er  Er2  1  0.745200  0.745200  0.764401  1
  Er  Er3  1  0.254800  0.254800  0.235599  1
  U  U4  1  0.000000  0.000000  0.000000  1
  Fe  Fe5  1  0.894096  0.894096  0.317712  1
  Fe  Fe6  1  0.105904  0.105904  0.682288  1
  B  B7  1  0.500000  0.166517  0.500000  1
  B  B8  1  0.833483  0.500000  0.500000  1
  B  B9  1  0.166517  0.833483  0.500000  1
  B  B10  1  0.166517  0.500000  0.500000  1
  B  B11  1  0.833483  0.166517  0.500000  1
  B  B12  1  0.500000  0.833483  0.500000  1
