# generated using pymatgen
data_Tb2DyEr(Ga3Ir)6
_symmetry_space_group_name_H-M   'P 1'
_cell_length_a   7.59733237
_cell_length_b   7.59863196
_cell_length_c   9.49828900
_cell_angle_alpha   90.00232272
_cell_angle_beta   90.00188258
_cell_angle_gamma   119.97206325
_symmetry_Int_Tables_number   1
_chemical_formula_structural   Tb2DyEr(Ga3Ir)6
_chemical_formula_sum   'Tb2 Dy1 Er1 Ga18 Ir6'
_cell_volume   475.00123170
_cell_formula_units_Z   1
loop_
 _symmetry_equiv_pos_site_id
 _symmetry_equiv_pos_as_xyz
  1  'x, y, z'
loop_
 _atom_site_type_symbol
 _atom_site_label
 _atom_site_symmetry_multiplicity
 _atom_site_fract_x
 _atom_site_fract_y
 _atom_site_fract_z
 _atom_site_occupancy
  Tb  Tb0  1  0.002902  0.332073  0.250000  1
  Tb  Tb1  1  0.668008  0.997196  0.750002  1
  Dy  Dy2  1  0.997200  0.667975  0.750000  1
  Er  Er3  1  0.332102  0.002849  0.250010  1
  Ga  Ga4  1  0.126992  0.126947  0.750014  1
  Ga  Ga5  1  0.873265  0.873087  0.249986  1
  Ga  Ga6  1  0.999150  0.333897  0.580653  1
  Ga  Ga7  1  0.001236  0.666546  0.419229  1
  Ga  Ga8  1  0.001205  0.666516  0.080784  1
  Ga  Ga9  1  0.333815  0.999075  0.919620  1
  Ga  Ga10  1  0.999180  0.333927  0.919332  1
  Ga  Ga11  1  0.665589  0.000764  0.080788  1
  Ga  Ga12  1  0.665615  0.000795  0.419228  1
  Ga  Ga13  1  0.333790  0.999041  0.580367  1
  Ga  Ga14  1  0.332590  0.332199  0.064884  1
  Ga  Ga15  1  0.667493  0.667475  0.935578  1
  Ga  Ga16  1  0.667452  0.667435  0.564402  1
  Ga  Ga17  1  0.332632  0.332242  0.435133  1
  Ga  Ga18  1  0.339277  0.546575  0.750012  1
  Ga  Ga19  1  0.660473  0.453246  0.249987  1
  Ga  Ga20  1  0.546540  0.339277  0.750011  1
  Ga  Ga21  1  0.453604  0.661020  0.249986  1
  Ir  Ir22  1  0.671285  0.328489  0.499899  1
  Ir  Ir23  1  0.328417  0.671390  0.499892  1
  Ir  Ir24  1  0.328412  0.671400  0.000098  1
  Ir  Ir25  1  0.671292  0.328475  0.000103  1
  Ir  Ir26  1  0.000245  0.000044  0.499838  1
  Ir  Ir27  1  0.000243  0.000046  0.000163  1
