# generated using pymatgen
data_Tb16Cd2Hg2Ir3Rh
_symmetry_space_group_name_H-M   'P 1'
_cell_length_a   9.65061669
_cell_length_b   9.65061765
_cell_length_c   9.65668604
_cell_angle_alpha   60.03984135
_cell_angle_beta   60.03983626
_cell_angle_gamma   60.05922266
_symmetry_Int_Tables_number   1
_chemical_formula_structural   Tb16Cd2Hg2Ir3Rh
_chemical_formula_sum   'Tb16 Cd2 Hg2 Ir3 Rh1'
_cell_volume   636.61780399
_cell_formula_units_Z   1
loop_
 _symmetry_equiv_pos_site_id
 _symmetry_equiv_pos_as_xyz
  1  'x, y, z'
loop_
 _atom_site_type_symbol
 _atom_site_label
 _atom_site_symmetry_multiplicity
 _atom_site_fract_x
 _atom_site_fract_y
 _atom_site_fract_z
 _atom_site_occupancy
  Tb  Tb0  1  0.598724  0.598724  0.598281  1
  Tb  Tb1  1  0.600742  0.600742  0.200978  1
  Tb  Tb2  1  0.601681  0.198737  0.601098  1
  Tb  Tb3  1  0.198737  0.601681  0.601098  1
  Tb  Tb4  1  0.059171  0.439350  0.440258  1
  Tb  Tb5  1  0.438015  0.059945  0.060231  1
  Tb  Tb6  1  0.439350  0.059171  0.440258  1
  Tb  Tb7  1  0.059945  0.438015  0.060231  1
  Tb  Tb8  1  0.439132  0.439132  0.059985  1
  Tb  Tb9  1  0.059125  0.059125  0.439531  1
  Tb  Tb10  1  0.188472  0.811454  0.812411  1
  Tb  Tb11  1  0.812180  0.186914  0.188492  1
  Tb  Tb12  1  0.811454  0.188472  0.812411  1
  Tb  Tb13  1  0.186914  0.812180  0.188492  1
  Tb  Tb14  1  0.811586  0.811586  0.189548  1
  Tb  Tb15  1  0.187473  0.187473  0.812736  1
  Cd  Cd16  1  0.830303  0.507576  0.830761  1
  Cd  Cd17  1  0.507576  0.830303  0.830761  1
  Hg  Hg18  1  0.833965  0.833965  0.835944  1
  Hg  Hg19  1  0.834524  0.834524  0.494373  1
  Ir  Ir20  1  0.392529  0.392529  0.824514  1
  Ir  Ir21  1  0.392287  0.824575  0.392795  1
  Ir  Ir22  1  0.824575  0.392287  0.392795  1
  Rh  Rh23  1  0.391540  0.391540  0.392018  1
