# generated using pymatgen
data_NaY(PtRh)2
_symmetry_space_group_name_H-M   'P 1'
_cell_length_a   5.35072603
_cell_length_b   5.35072434
_cell_length_c   5.35072584
_cell_angle_alpha   119.66921929
_cell_angle_beta   120.43352318
_cell_angle_gamma   89.91232359
_symmetry_Int_Tables_number   1
_chemical_formula_structural   NaY(PtRh)2
_chemical_formula_sum   'Na1 Y1 Pt2 Rh2'
_cell_volume   108.23329735
_cell_formula_units_Z   1
loop_
 _symmetry_equiv_pos_site_id
 _symmetry_equiv_pos_as_xyz
  1  'x, y, z'
loop_
 _atom_site_type_symbol
 _atom_site_label
 _atom_site_symmetry_multiplicity
 _atom_site_fract_x
 _atom_site_fract_y
 _atom_site_fract_z
 _atom_site_occupancy
  Na  Na0  1  0.875970  0.125970  0.750000  1
  Y  Y1  1  0.124005  0.874005  0.250000  1
  Pt  Pt2  1  0.500138  0.499546  0.499408  1
  Pt  Pt3  1  0.500138  0.000730  0.000592  1
  Rh  Rh4  1  0.499812  0.499874  0.999938  1
  Rh  Rh5  1  0.999935  0.499874  0.500062  1
