# generated using pymatgen
data_TiTc5Sb14
_symmetry_space_group_name_H-M   'P 1'
_cell_length_a   8.28673358
_cell_length_b   8.28673390
_cell_length_c   8.28673421
_cell_angle_alpha   109.10618712
_cell_angle_beta   109.10618761
_cell_angle_gamma   110.20379344
_symmetry_Int_Tables_number   1
_chemical_formula_structural   TiTc5Sb14
_chemical_formula_sum   'Ti1 Tc5 Sb14'
_cell_volume   438.00078428
_cell_formula_units_Z   1
loop_
 _symmetry_equiv_pos_site_id
 _symmetry_equiv_pos_as_xyz
  1  'x, y, z'
loop_
 _atom_site_type_symbol
 _atom_site_label
 _atom_site_symmetry_multiplicity
 _atom_site_fract_x
 _atom_site_fract_y
 _atom_site_fract_z
 _atom_site_occupancy
  Ti  Ti0  1  0.349698  0.349698  0.000000  1
  Tc  Tc1  1  0.000708  0.342738  0.342029  1
  Tc  Tc2  1  0.000708  0.658678  0.657971  1
  Tc  Tc3  1  0.658678  0.000708  0.657971  1
  Tc  Tc4  1  0.342738  0.000708  0.342029  1
  Tc  Tc5  1  0.661140  0.661140  0.000000  1
  Sb  Sb6  1  0.751177  0.251177  0.500000  1
  Sb  Sb7  1  0.497364  0.243269  0.745905  1
  Sb  Sb8  1  0.497364  0.751459  0.254095  1
  Sb  Sb9  1  0.243269  0.497364  0.745905  1
  Sb  Sb10  1  0.751459  0.497364  0.254095  1
  Sb  Sb11  1  0.251177  0.751177  0.500000  1
  Sb  Sb12  1  0.325923  0.325923  0.326296  1
  Sb  Sb13  1  0.998118  0.998118  0.324527  1
  Sb  Sb14  1  0.325923  0.999627  0.000000  1
  Sb  Sb15  1  0.999627  0.325923  0.000000  1
  Sb  Sb16  1  0.673591  0.998118  0.000000  1
  Sb  Sb17  1  0.998118  0.673591  0.000000  1
  Sb  Sb18  1  0.999627  0.999627  0.673704  1
  Sb  Sb19  1  0.673591  0.673591  0.675473  1
