# generated using pymatgen
data_CsK7Li4(ScAs2)4
_symmetry_space_group_name_H-M   'P 1'
_cell_length_a   10.22599805
_cell_length_b   10.22599788
_cell_length_c   6.59582685
_cell_angle_alpha   90.06613105
_cell_angle_beta   89.93386550
_cell_angle_gamma   99.86644089
_symmetry_Int_Tables_number   1
_chemical_formula_structural   CsK7Li4(ScAs2)4
_chemical_formula_sum   'Cs1 K7 Li4 Sc4 As8'
_cell_volume   679.53042372
_cell_formula_units_Z   1
loop_
 _symmetry_equiv_pos_site_id
 _symmetry_equiv_pos_as_xyz
  1  'x, y, z'
loop_
 _atom_site_type_symbol
 _atom_site_label
 _atom_site_symmetry_multiplicity
 _atom_site_fract_x
 _atom_site_fract_y
 _atom_site_fract_z
 _atom_site_occupancy
  Cs  Cs0  1  0.185366  0.814634  0.710326  1
  K  K1  1  0.070259  0.425946  0.749315  1
  K  K2  1  0.673381  0.326619  0.787519  1
  K  K3  1  0.328150  0.671850  0.211433  1
  K  K4  1  0.574054  0.929741  0.749315  1
  K  K5  1  0.429018  0.073905  0.248558  1
  K  K6  1  0.926095  0.570982  0.248558  1
  K  K7  1  0.825247  0.174753  0.288114  1
  Li  Li8  1  0.119673  0.122654  0.500002  1
  Li  Li9  1  0.877346  0.880327  0.500002  1
  Li  Li10  1  0.379974  0.379293  0.999649  1
  Li  Li11  1  0.620707  0.620026  0.999649  1
  Sc  Sc12  1  0.866742  0.871232  0.000107  1
  Sc  Sc13  1  0.370561  0.369150  0.499501  1
  Sc  Sc14  1  0.630850  0.629439  0.499501  1
  Sc  Sc15  1  0.128768  0.133258  0.000107  1
  As  As16  1  0.837862  0.659441  0.752035  1
  As  As17  1  0.087163  0.912837  0.224479  1
  As  As18  1  0.414509  0.585491  0.729278  1
  As  As19  1  0.592110  0.407890  0.273951  1
  As  As20  1  0.655984  0.841241  0.250611  1
  As  As21  1  0.158759  0.344016  0.250611  1
  As  As22  1  0.340559  0.162138  0.752035  1
  As  As23  1  0.906863  0.093137  0.775346  1
