# generated using pymatgen
data_Ac2Ni2I
_symmetry_space_group_name_H-M   'P 1'
_cell_length_a   4.19762000
_cell_length_b   4.19759700
_cell_length_c   9.28928000
_cell_angle_alpha   90.00000000
_cell_angle_beta   90.00000000
_cell_angle_gamma   120.00018124
_symmetry_Int_Tables_number   1
_chemical_formula_structural   Ac2Ni2I
_chemical_formula_sum   'Ac2 Ni2 I1'
_cell_volume   141.74761285
_cell_formula_units_Z   1
loop_
 _symmetry_equiv_pos_site_id
 _symmetry_equiv_pos_as_xyz
  1  'x, y, z'
loop_
 _atom_site_type_symbol
 _atom_site_label
 _atom_site_symmetry_multiplicity
 _atom_site_fract_x
 _atom_site_fract_y
 _atom_site_fract_z
 _atom_site_occupancy
  Ac  Ac0  1  0.000002  0.000004  0.290284  1
  Ac  Ac1  1  0.000002  0.000004  0.709715  1
  Ni  Ni2  1  0.666651  0.333302  0.500000  1
  Ni  Ni3  1  0.333316  0.666631  0.500000  1
  I  I4  1  0.333328  0.666658  0.000000  1
