# generated using pymatgen
data_Y16TlIn5CoOs
_symmetry_space_group_name_H-M   'P 1'
_cell_length_a   10.41296513
_cell_length_b   10.41296794
_cell_length_c   7.11435200
_cell_angle_alpha   90.00159368
_cell_angle_beta   89.99844944
_cell_angle_gamma   120.01785132
_symmetry_Int_Tables_number   1
_chemical_formula_structural   Y16TlIn5CoOs
_chemical_formula_sum   'Y16 Tl1 In5 Co1 Os1'
_cell_volume   667.93896016
_cell_formula_units_Z   1
loop_
 _symmetry_equiv_pos_site_id
 _symmetry_equiv_pos_as_xyz
  1  'x, y, z'
loop_
 _atom_site_type_symbol
 _atom_site_label
 _atom_site_symmetry_multiplicity
 _atom_site_fract_x
 _atom_site_fract_y
 _atom_site_fract_z
 _atom_site_occupancy
  Y  Y0  1  0.465703  0.534298  0.480636  1
  Y  Y1  1  0.068531  0.534239  0.480870  1
  Y  Y2  1  0.465761  0.931469  0.480870  1
  Y  Y3  1  0.536209  0.463791  0.981072  1
  Y  Y4  1  0.927456  0.463295  0.980436  1
  Y  Y5  1  0.536705  0.072543  0.980437  1
  Y  Y6  1  0.821944  0.178056  0.276124  1
  Y  Y7  1  0.355891  0.177856  0.276288  1
  Y  Y8  1  0.822144  0.644110  0.276288  1
  Y  Y9  1  0.176694  0.823305  0.778024  1
  Y  Y10  1  0.646866  0.823307  0.776858  1
  Y  Y11  1  0.176693  0.353134  0.776858  1
  Y  Y12  1  0.333389  0.666611  0.101206  1
  Y  Y13  1  0.666658  0.333342  0.592231  1
  Y  Y14  1  0.999561  0.000439  0.497164  1
  Y  Y15  1  0.999601  0.000399  0.998595  1
  Tl  Tl16  1  0.162640  0.837360  0.232756  1
  In  In17  1  0.675145  0.837555  0.233545  1
  In  In18  1  0.162446  0.324855  0.233545  1
  In  In19  1  0.836342  0.163658  0.732576  1
  In  In20  1  0.327332  0.163622  0.732442  1
  In  In21  1  0.836378  0.672667  0.732442  1
  Co  Co22  1  0.666685  0.333315  0.207729  1
  Os  Os23  1  0.333225  0.666775  0.705560  1
