# generated using pymatgen
data_Tm6Lu6In2Fe2Ir
_symmetry_space_group_name_H-M   'P 1'
_cell_length_a   8.23561268
_cell_length_b   8.22421533
_cell_length_c   8.23561387
_cell_angle_alpha   108.60166422
_cell_angle_beta   108.72398341
_cell_angle_gamma   111.15821925
_symmetry_Int_Tables_number   1
_chemical_formula_structural   Tm6Lu6In2Fe2Ir
_chemical_formula_sum   'Tm6 Lu6 In2 Fe2 Ir1'
_cell_volume   428.82480756
_cell_formula_units_Z   1
loop_
 _symmetry_equiv_pos_site_id
 _symmetry_equiv_pos_as_xyz
  1  'x, y, z'
loop_
 _atom_site_type_symbol
 _atom_site_label
 _atom_site_symmetry_multiplicity
 _atom_site_fract_x
 _atom_site_fract_y
 _atom_site_fract_z
 _atom_site_occupancy
  Tm  Tm0  1  0.306981  0.307398  0.615455  1
  Tm  Tm1  1  0.693019  0.692602  0.384545  1
  Tm  Tm2  1  0.691944  0.307398  0.000417  1
  Tm  Tm3  1  0.308056  0.692602  0.999583  1
  Tm  Tm4  1  0.194012  0.432678  0.238665  1
  Tm  Tm5  1  0.805988  0.567322  0.761335  1
  Lu  Lu6  1  0.193316  0.955260  0.761944  1
  Lu  Lu7  1  0.955062  0.192518  0.761651  1
  Lu  Lu8  1  0.806684  0.044740  0.238056  1
  Lu  Lu9  1  0.044938  0.807482  0.238349  1
  Lu  Lu10  1  0.430868  0.192518  0.237455  1
  Lu  Lu11  1  0.569132  0.807482  0.762545  1
  In  In12  1  0.000000  0.500000  0.500000  1
  In  In13  1  0.500000  0.000000  0.500000  1
  Fe  Fe14  1  0.384599  0.383999  0.999400  1
  Fe  Fe15  1  0.615401  0.616001  0.000600  1
  Ir  Ir16  1  0.000000  0.000000  0.000000  1
