# generated using pymatgen
data_Ba2(SrAl3)3
_symmetry_space_group_name_H-M   'P 1'
_cell_length_a   12.50988371
_cell_length_b   12.50988379
_cell_length_c   12.50988450
_cell_angle_alpha   27.40087427
_cell_angle_beta   27.40087419
_cell_angle_gamma   27.40087537
_symmetry_Int_Tables_number   1
_chemical_formula_structural   Ba2(SrAl3)3
_chemical_formula_sum   'Ba2 Sr3 Al9'
_cell_volume   365.93174882
_cell_formula_units_Z   1
loop_
 _symmetry_equiv_pos_site_id
 _symmetry_equiv_pos_as_xyz
  1  'x, y, z'
loop_
 _atom_site_type_symbol
 _atom_site_label
 _atom_site_symmetry_multiplicity
 _atom_site_fract_x
 _atom_site_fract_y
 _atom_site_fract_z
 _atom_site_occupancy
  Ba  Ba0  1  0.498441  0.498441  0.498441  1
  Ba  Ba1  1  0.217477  0.217477  0.217477  1
  Sr  Sr2  1  0.682479  0.682479  0.682479  1
  Sr  Sr3  1  0.318046  0.318046  0.318046  1
  Sr  Sr4  1  0.781640  0.781640  0.781640  1
  Al  Al5  1  0.877904  0.877904  0.877904  1
  Al  Al6  1  0.121614  0.121614  0.121614  1
  Al  Al7  1  0.237992  0.718278  0.237992  1
  Al  Al8  1  0.237992  0.237992  0.718278  1
  Al  Al9  1  0.718278  0.237992  0.237992  1
  Al  Al10  1  0.763335  0.280539  0.763335  1
  Al  Al11  1  0.763335  0.763335  0.280539  1
  Al  Al12  1  0.280539  0.763335  0.763335  1
  Al  Al13  1  0.000927  0.000927  0.000927  1
