# generated using pymatgen
data_RbLiEuF5
_symmetry_space_group_name_H-M   'P 1'
_cell_length_a   12.17066300
_cell_length_b   6.53762592
_cell_length_c   6.74242900
_cell_angle_alpha   65.85461633
_cell_angle_beta   90.00000000
_cell_angle_gamma   90.00000000
_symmetry_Int_Tables_number   1
_chemical_formula_structural   RbLiEuF5
_chemical_formula_sum   'Rb4 Li4 Eu4 F20'
_cell_volume   489.54039588
_cell_formula_units_Z   4
loop_
 _symmetry_equiv_pos_site_id
 _symmetry_equiv_pos_as_xyz
  1  'x, y, z'
loop_
 _atom_site_type_symbol
 _atom_site_label
 _atom_site_symmetry_multiplicity
 _atom_site_fract_x
 _atom_site_fract_y
 _atom_site_fract_z
 _atom_site_occupancy
  Rb  Rb0  1  0.846208  0.037145  0.948511  1
  Rb  Rb1  1  0.653792  0.537145  0.948511  1
  Rb  Rb2  1  0.346208  0.462855  0.051489  1
  Rb  Rb3  1  0.153792  0.962855  0.051489  1
  Li  Li4  1  0.747623  0.460538  0.444974  1
  Li  Li5  1  0.752377  0.960538  0.444974  1
  Li  Li6  1  0.252377  0.539462  0.555026  1
  Li  Li7  1  0.247623  0.039462  0.555026  1
  Eu  Eu8  1  0.997278  0.321548  0.322253  1
  Eu  Eu9  1  0.002722  0.678452  0.677747  1
  Eu  Eu10  1  0.502722  0.821548  0.322253  1
  Eu  Eu11  1  0.497278  0.178452  0.677747  1
  F  F12  1  0.673873  0.284773  0.698523  1
  F  F13  1  0.605794  0.966521  0.533929  1
  F  F14  1  0.326127  0.715227  0.301477  1
  F  F15  1  0.009010  0.330264  0.957417  1
  F  F16  1  0.173873  0.215227  0.301477  1
  F  F17  1  0.394206  0.033479  0.466071  1
  F  F18  1  0.894206  0.466521  0.533929  1
  F  F19  1  0.531419  0.453827  0.336961  1
  F  F20  1  0.803503  0.271555  0.291174  1
  F  F21  1  0.303503  0.228445  0.708826  1
  F  F22  1  0.468581  0.546173  0.663039  1
  F  F23  1  0.990990  0.669736  0.042583  1
  F  F24  1  0.196497  0.728445  0.708826  1
  F  F25  1  0.509010  0.169736  0.042583  1
  F  F26  1  0.968581  0.953827  0.336961  1
  F  F27  1  0.696497  0.771555  0.291174  1
  F  F28  1  0.031419  0.046173  0.663039  1
  F  F29  1  0.826127  0.784773  0.698523  1
  F  F30  1  0.105794  0.533479  0.466071  1
  F  F31  1  0.490990  0.830264  0.957417  1
