# generated using pymatgen
data_Dy2Er2BI5
_symmetry_space_group_name_H-M   'P 1'
_cell_length_a   9.69798538
_cell_length_b   9.69798633
_cell_length_c   8.58128990
_cell_angle_alpha   102.23432962
_cell_angle_beta   102.23433121
_cell_angle_gamma   24.37149436
_symmetry_Int_Tables_number   1
_chemical_formula_structural   Dy2Er2BI5
_chemical_formula_sum   'Dy2 Er2 B1 I5'
_cell_volume   325.12120964
_cell_formula_units_Z   1
loop_
 _symmetry_equiv_pos_site_id
 _symmetry_equiv_pos_as_xyz
  1  'x, y, z'
loop_
 _atom_site_type_symbol
 _atom_site_label
 _atom_site_symmetry_multiplicity
 _atom_site_fract_x
 _atom_site_fract_y
 _atom_site_fract_z
 _atom_site_occupancy
  Dy  Dy0  1  0.000566  0.000566  0.806780  1
  Dy  Dy1  1  0.364861  0.364861  0.932165  1
  Er  Er2  1  0.634337  0.634337  0.069080  1
  Er  Er3  1  0.999320  0.999320  0.190314  1
  B  B4  1  0.500446  0.500446  0.001614  1
  I  I5  1  0.829030  0.829030  0.176365  1
  I  I6  1  0.165166  0.165166  0.338507  1
  I  I7  1  0.500242  0.500242  0.497027  1
  I  I8  1  0.834191  0.834191  0.657992  1
  I  I9  1  0.171842  0.171842  0.830156  1
