# generated using pymatgen
data_YbGa2(SnIr)4
_symmetry_space_group_name_H-M   'P 1'
_cell_length_a   6.83688697
_cell_length_b   6.83688707
_cell_length_c   6.85348805
_cell_angle_alpha   119.54862569
_cell_angle_beta   119.54862058
_cell_angle_gamma   90.64636041
_symmetry_Int_Tables_number   1
_chemical_formula_structural   YbGa2(SnIr)4
_chemical_formula_sum   'Yb1 Ga2 Sn4 Ir4'
_cell_volume   228.32141691
_cell_formula_units_Z   1
loop_
 _symmetry_equiv_pos_site_id
 _symmetry_equiv_pos_as_xyz
  1  'x, y, z'
loop_
 _atom_site_type_symbol
 _atom_site_label
 _atom_site_symmetry_multiplicity
 _atom_site_fract_x
 _atom_site_fract_y
 _atom_site_fract_z
 _atom_site_occupancy
  Yb  Yb0  1  0.019969  0.019969  0.000000  1
  Ga  Ga1  1  0.466062  0.116464  0.000000  1
  Ga  Ga2  1  0.116464  0.466062  0.000000  1
  Sn  Sn3  1  0.877902  0.877902  0.334998  1
  Sn  Sn4  1  0.494251  0.994251  0.500000  1
  Sn  Sn5  1  0.994251  0.494251  0.500000  1
  Sn  Sn6  1  0.542904  0.542904  0.665002  1
  Ir  Ir7  1  0.762122  0.395629  0.000000  1
  Ir  Ir8  1  0.395629  0.762122  0.000000  1
  Ir  Ir9  1  0.575632  0.575632  0.320815  1
  Ir  Ir10  1  0.254816  0.254816  0.679185  1
