# generated using pymatgen
data_Ac2ErSi5AsPd20
_symmetry_space_group_name_H-M   'P 1'
_cell_length_a   8.81527554
_cell_length_b   8.86464586
_cell_length_c   8.86341343
_cell_angle_alpha   59.63662817
_cell_angle_beta   60.18821333
_cell_angle_gamma   60.17462970
_symmetry_Int_Tables_number   1
_chemical_formula_structural   Ac2ErSi5AsPd20
_chemical_formula_sum   'Ac2 Er1 Si5 As1 Pd20'
_cell_volume   489.72859347
_cell_formula_units_Z   1
loop_
 _symmetry_equiv_pos_site_id
 _symmetry_equiv_pos_as_xyz
  1  'x, y, z'
loop_
 _atom_site_type_symbol
 _atom_site_label
 _atom_site_symmetry_multiplicity
 _atom_site_fract_x
 _atom_site_fract_y
 _atom_site_fract_z
 _atom_site_occupancy
  Ac  Ac0  1  0.249888  0.250116  0.250108  1
  Ac  Ac1  1  0.749893  0.750111  0.750113  1
  Er  Er2  1  0.001270  0.998786  0.998747  1
  Si  Si3  1  0.266061  0.733952  0.733942  1
  Si  Si4  1  0.265282  0.734726  0.265539  1
  Si  Si5  1  0.734457  0.265553  0.734714  1
  Si  Si6  1  0.265301  0.265547  0.734702  1
  Si  Si7  1  0.734436  0.734694  0.265567  1
  As  As8  1  0.736784  0.263213  0.263212  1
  Pd  Pd9  1  0.345964  0.998721  0.998716  1
  Pd  Pd10  1  0.656594  0.998702  0.998749  1
  Pd  Pd11  1  0.001279  0.343400  0.654038  1
  Pd  Pd12  1  0.001248  0.654044  0.343405  1
  Pd  Pd13  1  0.007202  0.346788  0.992799  1
  Pd  Pd14  1  0.653217  0.992786  0.346782  1
  Pd  Pd15  1  0.999506  0.656440  0.000495  1
  Pd  Pd16  1  0.343577  0.000470  0.656425  1
  Pd  Pd17  1  0.007185  0.992806  0.346746  1
  Pd  Pd18  1  0.999519  0.000479  0.656483  1
  Pd  Pd19  1  0.653247  0.346745  0.992806  1
  Pd  Pd20  1  0.343524  0.656476  0.000472  1
  Pd  Pd21  1  0.381011  0.390109  0.390195  1
  Pd  Pd22  1  0.612101  0.613769  0.613629  1
  Pd  Pd23  1  0.386250  0.387892  0.839517  1
  Pd  Pd24  1  0.386369  0.839502  0.387897  1
  Pd  Pd25  1  0.609890  0.618989  0.161329  1
  Pd  Pd26  1  0.609803  0.161319  0.618991  1
  Pd  Pd27  1  0.838664  0.390208  0.390117  1
  Pd  Pd28  1  0.160479  0.613652  0.613761  1
