# generated using pymatgen
data_Fe2SnCl8
_symmetry_space_group_name_H-M   'P 1'
_cell_length_a   8.31434800
_cell_length_b   6.59402401
_cell_length_c   14.76604909
_cell_angle_alpha   85.19364586
_cell_angle_beta   90.00000000
_cell_angle_gamma   90.00000000
_symmetry_Int_Tables_number   1
_chemical_formula_structural   Fe2SnCl8
_chemical_formula_sum   'Fe4 Sn2 Cl16'
_cell_volume   806.70207548
_cell_formula_units_Z   2
loop_
 _symmetry_equiv_pos_site_id
 _symmetry_equiv_pos_as_xyz
  1  'x, y, z'
loop_
 _atom_site_type_symbol
 _atom_site_label
 _atom_site_symmetry_multiplicity
 _atom_site_fract_x
 _atom_site_fract_y
 _atom_site_fract_z
 _atom_site_occupancy
  Fe  Fe0  1  0.746968  0.614633  0.909722  1
  Fe  Fe1  1  0.246968  0.385367  0.590278  1
  Fe  Fe2  1  0.253032  0.385367  0.090278  1
  Fe  Fe3  1  0.753032  0.614633  0.409722  1
  Sn  Sn4  1  0.000000  0.000000  0.000000  1
  Sn  Sn5  1  0.500000  0.000000  0.500000  1
  Cl  Cl6  1  0.034008  0.291385  0.664914  1
  Cl  Cl7  1  0.256020  0.268054  0.951264  1
  Cl  Cl8  1  0.528550  0.762486  0.350088  1
  Cl  Cl9  1  0.264588  0.724280  0.583425  1
  Cl  Cl10  1  0.743980  0.731946  0.048736  1
  Cl  Cl11  1  0.534008  0.708615  0.835086  1
  Cl  Cl12  1  0.764588  0.275720  0.916575  1
  Cl  Cl13  1  0.465992  0.291385  0.164914  1
  Cl  Cl14  1  0.735412  0.275720  0.416575  1
  Cl  Cl15  1  0.243980  0.268054  0.451264  1
  Cl  Cl16  1  0.471450  0.237514  0.649912  1
  Cl  Cl17  1  0.235412  0.724280  0.083425  1
  Cl  Cl18  1  0.756020  0.731946  0.548736  1
  Cl  Cl19  1  0.028550  0.237514  0.149912  1
  Cl  Cl20  1  0.971450  0.762486  0.850088  1
  Cl  Cl21  1  0.965992  0.708615  0.335086  1
