# generated using pymatgen
data_Ca2HgN
_symmetry_space_group_name_H-M   'P 1'
_cell_length_a   10.20474104
_cell_length_b   10.20474220
_cell_length_c   5.01122100
_cell_angle_alpha   90.00000000
_cell_angle_beta   90.00000000
_cell_angle_gamma   160.11526067
_symmetry_Int_Tables_number   1
_chemical_formula_structural   Ca2HgN
_chemical_formula_sum   'Ca4 Hg2 N2'
_cell_volume   177.49714162
_cell_formula_units_Z   2
loop_
 _symmetry_equiv_pos_site_id
 _symmetry_equiv_pos_as_xyz
  1  'x, y, z'
loop_
 _atom_site_type_symbol
 _atom_site_label
 _atom_site_symmetry_multiplicity
 _atom_site_fract_x
 _atom_site_fract_y
 _atom_site_fract_z
 _atom_site_occupancy
  Ca  Ca0  1  0.218775  0.781225  0.750000  1
  Ca  Ca1  1  0.781225  0.218775  0.250000  1
  Ca  Ca2  1  0.379711  0.620289  0.750000  1
  Ca  Ca3  1  0.620289  0.379711  0.250000  1
  Hg  Hg4  1  0.042685  0.957315  0.750000  1
  Hg  Hg5  1  0.957315  0.042685  0.250000  1
  N  N6  1  0.801461  0.198539  0.750000  1
  N  N7  1  0.198539  0.801461  0.250000  1
