# generated using pymatgen
data_Ta5TiGa4(PdC)2
_symmetry_space_group_name_H-M   'P 1'
_cell_length_a   8.32502704
_cell_length_b   8.32502740
_cell_length_c   8.33528500
_cell_angle_alpha   59.97089340
_cell_angle_beta   59.97088149
_cell_angle_gamma   60.06520420
_symmetry_Int_Tables_number   1
_chemical_formula_structural   Ta5TiGa4(PdC)2
_chemical_formula_sum   'Ta10 Ti2 Ga8 Pd4 C4'
_cell_volume   408.50643373
_cell_formula_units_Z   2
loop_
 _symmetry_equiv_pos_site_id
 _symmetry_equiv_pos_as_xyz
  1  'x, y, z'
loop_
 _atom_site_type_symbol
 _atom_site_label
 _atom_site_symmetry_multiplicity
 _atom_site_fract_x
 _atom_site_fract_y
 _atom_site_fract_z
 _atom_site_occupancy
  Ta  Ta0  1  0.680414  0.317984  0.319834  1
  Ta  Ta1  1  0.316428  0.680869  0.318806  1
  Ta  Ta2  1  0.683463  0.681598  0.319947  1
  Ta  Ta3  1  0.317412  0.317623  0.680537  1
  Ta  Ta4  1  0.568402  0.566537  0.930053  1
  Ta  Ta5  1  0.930953  0.566404  0.568773  1
  Ta  Ta6  1  0.569131  0.933572  0.931194  1
  Ta  Ta7  1  0.932377  0.932588  0.569463  1
  Ta  Ta8  1  0.683596  0.319047  0.681227  1
  Ta  Ta9  1  0.932016  0.569586  0.930166  1
  Ti  Ti10  1  0.567866  0.930533  0.568705  1
  Ti  Ti11  1  0.319467  0.682134  0.681295  1
  Ga  Ga12  1  0.915512  0.914832  0.914966  1
  Ga  Ga13  1  0.993892  0.335386  0.335288  1
  Ga  Ga14  1  0.335781  0.989540  0.339168  1
  Ga  Ga15  1  0.336132  0.339345  0.988461  1
  Ga  Ga16  1  0.914614  0.256108  0.914712  1
  Ga  Ga17  1  0.910655  0.913868  0.261539  1
  Ga  Ga18  1  0.260460  0.914219  0.910832  1
  Ga  Ga19  1  0.335168  0.334488  0.335034  1
  Pd  Pd20  1  0.125472  0.124528  0.125000  1
  Pd  Pd21  1  0.623949  0.124748  0.125663  1
  Pd  Pd22  1  0.125252  0.626051  0.124337  1
  Pd  Pd23  1  0.125365  0.124635  0.625000  1
  C  C24  1  0.620222  0.629778  0.625000  1
  C  C25  1  0.127890  0.625912  0.625090  1
  C  C26  1  0.624088  0.122110  0.624910  1
  C  C27  1  0.624027  0.625973  0.125000  1
