# generated using pymatgen
data_Cd3Ru4PbO14
_symmetry_space_group_name_H-M   'P 1'
_cell_length_a   7.25778459
_cell_length_b   7.29235555
_cell_length_c   7.25778500
_cell_angle_alpha   60.15670064
_cell_angle_beta   60.00000269
_cell_angle_gamma   60.15669975
_symmetry_Int_Tables_number   1
_chemical_formula_structural   Cd3Ru4PbO14
_chemical_formula_sum   'Cd3 Ru4 Pb1 O14'
_cell_volume   272.26110630
_cell_formula_units_Z   1
loop_
 _symmetry_equiv_pos_site_id
 _symmetry_equiv_pos_as_xyz
  1  'x, y, z'
loop_
 _atom_site_type_symbol
 _atom_site_label
 _atom_site_symmetry_multiplicity
 _atom_site_fract_x
 _atom_site_fract_y
 _atom_site_fract_z
 _atom_site_occupancy
  Cd  Cd0  1  0.125000  0.125000  0.625000  1
  Cd  Cd1  1  0.625000  0.125000  0.125000  1
  Cd  Cd2  1  0.125000  0.125000  0.125000  1
  Ru  Ru3  1  0.625000  0.125000  0.625000  1
  Ru  Ru4  1  0.625000  0.625000  0.125000  1
  Ru  Ru5  1  0.125000  0.625000  0.625000  1
  Ru  Ru6  1  0.625000  0.625000  0.625000  1
  Pb  Pb7  1  0.125000  0.625000  0.125000  1
  O  O8  1  0.702847  0.691164  0.302994  1
  O  O9  1  0.947006  0.558836  0.547153  1
  O  O10  1  0.557694  0.940794  0.943819  1
  O  O11  1  0.943819  0.940794  0.557694  1
  O  O12  1  0.947006  0.558836  0.947006  1
  O  O13  1  0.557694  0.940794  0.557694  1
  O  O14  1  0.302994  0.691164  0.302994  1
  O  O15  1  0.302994  0.691164  0.702847  1
  O  O16  1  0.692306  0.309206  0.306181  1
  O  O17  1  0.692306  0.309206  0.692306  1
  O  O18  1  0.547153  0.558836  0.947006  1
  O  O19  1  0.306181  0.309206  0.692306  1
  O  O20  1  0.256735  0.229794  0.256735  1
  O  O21  1  0.993265  0.020206  0.993265  1
