# generated using pymatgen
data_K5(CdAu)3
_symmetry_space_group_name_H-M   'P 1'
_cell_length_a   17.45937700
_cell_length_b   17.45937529
_cell_length_c   5.43971400
_cell_angle_alpha   90.00000000
_cell_angle_beta   90.00000000
_cell_angle_gamma   164.89380343
_symmetry_Int_Tables_number   1
_chemical_formula_structural   K5(CdAu)3
_chemical_formula_sum   'K5 Cd3 Au3'
_cell_volume   432.13833282
_cell_formula_units_Z   1
loop_
 _symmetry_equiv_pos_site_id
 _symmetry_equiv_pos_as_xyz
  1  'x, y, z'
loop_
 _atom_site_type_symbol
 _atom_site_label
 _atom_site_symmetry_multiplicity
 _atom_site_fract_x
 _atom_site_fract_y
 _atom_site_fract_z
 _atom_site_occupancy
  K  K0  1  0.999968  0.000032  0.000000  1
  K  K1  1  0.613514  0.386486  0.000000  1
  K  K2  1  0.384123  0.615877  0.000000  1
  K  K3  1  0.803656  0.196343  0.500000  1
  K  K4  1  0.193742  0.806257  0.500000  1
  Cd  Cd5  1  0.728615  0.271385  0.000000  1
  Cd  Cd6  1  0.915487  0.084513  0.500000  1
  Cd  Cd7  1  0.541717  0.458282  0.500000  1
  Au  Au8  1  0.273204  0.726796  0.000000  1
  Au  Au9  1  0.459593  0.540406  0.500000  1
  Au  Au10  1  0.086380  0.913620  0.500000  1
