# generated using pymatgen
data_LaY5Cd23P
_symmetry_space_group_name_H-M   'P 1'
_cell_length_a   10.03131421
_cell_length_b   9.96325106
_cell_length_c   9.96324909
_cell_angle_alpha   60.45248099
_cell_angle_beta   59.77375736
_cell_angle_gamma   59.77375636
_symmetry_Int_Tables_number   1
_chemical_formula_structural   LaY5Cd23P
_chemical_formula_sum   'La1 Y5 Cd23 P1'
_cell_volume   704.05090975
_cell_formula_units_Z   1
loop_
 _symmetry_equiv_pos_site_id
 _symmetry_equiv_pos_as_xyz
  1  'x, y, z'
loop_
 _atom_site_type_symbol
 _atom_site_label
 _atom_site_symmetry_multiplicity
 _atom_site_fract_x
 _atom_site_fract_y
 _atom_site_fract_z
 _atom_site_occupancy
  La  La0  1  0.205019  0.794981  0.794981  1
  Y  Y1  1  0.803810  0.803899  0.196190  1
  Y  Y2  1  0.196101  0.803899  0.196190  1
  Y  Y3  1  0.797784  0.202216  0.202216  1
  Y  Y4  1  0.196101  0.196190  0.803899  1
  Y  Y5  1  0.803810  0.196190  0.803899  1
  Cd  Cd6  1  0.835725  0.840129  0.488423  1
  Cd  Cd7  1  0.835725  0.488423  0.840129  1
  Cd  Cd8  1  0.497454  0.834614  0.834614  1
  Cd  Cd9  1  0.833320  0.834614  0.834614  1
  Cd  Cd10  1  0.165386  0.166680  0.502546  1
  Cd  Cd11  1  0.165386  0.502546  0.166680  1
  Cd  Cd12  1  0.511577  0.164275  0.164275  1
  Cd  Cd13  1  0.159871  0.164275  0.164275  1
  Cd  Cd14  1  0.619556  0.622213  0.138676  1
  Cd  Cd15  1  0.619556  0.138676  0.622213  1
  Cd  Cd16  1  0.132984  0.618553  0.618553  1
  Cd  Cd17  1  0.629910  0.618553  0.618553  1
  Cd  Cd18  1  0.381447  0.370090  0.867016  1
  Cd  Cd19  1  0.381447  0.867016  0.370090  1
  Cd  Cd20  1  0.861324  0.380444  0.380444  1
  Cd  Cd21  1  0.377787  0.380444  0.380444  1
  Cd  Cd22  1  0.999039  0.000961  0.500049  1
  Cd  Cd23  1  0.499951  0.000961  0.500049  1
  Cd  Cd24  1  0.998990  0.501010  0.501010  1
  Cd  Cd25  1  0.499951  0.500049  0.000961  1
  Cd  Cd26  1  0.999039  0.500049  0.000961  1
  Cd  Cd27  1  0.498990  0.001010  0.001010  1
  Cd  Cd28  1  0.496319  0.503681  0.503681  1
  P  P29  1  0.996640  0.003360  0.003360  1
