# generated using pymatgen
data_Ba2In5Pt2Pb3
_symmetry_space_group_name_H-M   'P 1'
_cell_length_a   9.36327241
_cell_length_b   9.36327098
_cell_length_c   7.72425200
_cell_angle_alpha   90.00000000
_cell_angle_beta   90.00000000
_cell_angle_gamma   150.36596507
_symmetry_Int_Tables_number   1
_chemical_formula_structural   Ba2In5Pt2Pb3
_chemical_formula_sum   'Ba2 In5 Pt2 Pb3'
_cell_volume   334.84308737
_cell_formula_units_Z   1
loop_
 _symmetry_equiv_pos_site_id
 _symmetry_equiv_pos_as_xyz
  1  'x, y, z'
loop_
 _atom_site_type_symbol
 _atom_site_label
 _atom_site_symmetry_multiplicity
 _atom_site_fract_x
 _atom_site_fract_y
 _atom_site_fract_z
 _atom_site_occupancy
  Ba  Ba0  1  0.381464  0.618535  0.250000  1
  Ba  Ba1  1  0.619531  0.380468  0.750000  1
  In  In2  1  0.191318  0.808681  0.052531  1
  In  In3  1  0.191318  0.808681  0.447469  1
  In  In4  1  0.810023  0.189976  0.553800  1
  In  In5  1  0.423760  0.576240  0.750000  1
  In  In6  1  0.810023  0.189976  0.946199  1
  Pt  Pt7  1  0.728083  0.271917  0.250000  1
  Pt  Pt8  1  0.273798  0.726202  0.750000  1
  Pb  Pb9  1  0.998291  0.001709  0.980530  1
  Pb  Pb10  1  0.574097  0.425903  0.250000  1
  Pb  Pb11  1  0.998291  0.001709  0.519470  1
