# generated using pymatgen
data_Pr16Cd4NiRh3
_symmetry_space_group_name_H-M   'P 1'
_cell_length_a   10.01296347
_cell_length_b   10.01541780
_cell_length_c   10.01541800
_cell_angle_alpha   59.99999933
_cell_angle_beta   59.99189067
_cell_angle_gamma   59.99188571
_symmetry_Int_Tables_number   1
_chemical_formula_structural   Pr16Cd4NiRh3
_chemical_formula_sum   'Pr16 Cd4 Ni1 Rh3'
_cell_volume   710.12127218
_cell_formula_units_Z   1
loop_
 _symmetry_equiv_pos_site_id
 _symmetry_equiv_pos_as_xyz
  1  'x, y, z'
loop_
 _atom_site_type_symbol
 _atom_site_label
 _atom_site_symmetry_multiplicity
 _atom_site_fract_x
 _atom_site_fract_y
 _atom_site_fract_z
 _atom_site_occupancy
  Pr  Pr0  1  0.349921  0.346655  0.346655  1
  Pr  Pr1  1  0.349921  0.346655  0.956768  1
  Pr  Pr2  1  0.349921  0.956768  0.346655  1
  Pr  Pr3  1  0.956532  0.347822  0.347822  1
  Pr  Pr4  1  0.808882  0.190028  0.190028  1
  Pr  Pr5  1  0.190213  0.809873  0.809873  1
  Pr  Pr6  1  0.190213  0.809873  0.190040  1
  Pr  Pr7  1  0.808882  0.190028  0.811062  1
  Pr  Pr8  1  0.190213  0.190040  0.809873  1
  Pr  Pr9  1  0.808882  0.811062  0.190028  1
  Pr  Pr10  1  0.936053  0.563009  0.563009  1
  Pr  Pr11  1  0.562123  0.936789  0.936789  1
  Pr  Pr12  1  0.562123  0.936789  0.564300  1
  Pr  Pr13  1  0.936053  0.563009  0.937929  1
  Pr  Pr14  1  0.562123  0.564300  0.936789  1
  Pr  Pr15  1  0.936053  0.937929  0.563009  1
  Cd  Cd16  1  0.579428  0.579600  0.579600  1
  Cd  Cd17  1  0.579428  0.579600  0.261371  1
  Cd  Cd18  1  0.579428  0.261371  0.579600  1
  Cd  Cd19  1  0.261944  0.579352  0.579352  1
  Ni  Ni20  1  0.574411  0.141863  0.141863  1
  Rh  Rh21  1  0.142416  0.141622  0.141622  1
  Rh  Rh22  1  0.142416  0.141622  0.574339  1
  Rh  Rh23  1  0.142416  0.574339  0.141622  1
