# generated using pymatgen
data_Tm3LuAl24Pt8Au
_symmetry_space_group_name_H-M   'P 1'
_cell_length_a   7.52972626
_cell_length_b   7.54915935
_cell_length_c   13.11403010
_cell_angle_alpha   84.55432673
_cell_angle_beta   79.01655859
_cell_angle_gamma   59.89531112
_symmetry_Int_Tables_number   1
_chemical_formula_structural   Tm3LuAl24Pt8Au
_chemical_formula_sum   'Tm3 Lu1 Al24 Pt8 Au1'
_cell_volume   633.07665692
_cell_formula_units_Z   1
loop_
 _symmetry_equiv_pos_site_id
 _symmetry_equiv_pos_as_xyz
  1  'x, y, z'
loop_
 _atom_site_type_symbol
 _atom_site_label
 _atom_site_symmetry_multiplicity
 _atom_site_fract_x
 _atom_site_fract_y
 _atom_site_fract_z
 _atom_site_occupancy
  Tm  Tm0  1  0.393099  0.169274  0.808476  1
  Tm  Tm1  1  0.606004  0.831502  0.192824  1
  Tm  Tm2  1  0.734064  0.499156  0.808264  1
  Lu  Lu3  1  0.266273  0.500988  0.192441  1
  Al  Al4  1  0.682622  0.834080  0.944778  1
  Al  Al5  1  0.316225  0.166253  0.056652  1
  Al  Al6  1  0.146729  0.839167  0.560239  1
  Al  Al7  1  0.854480  0.167250  0.436010  1
  Al  Al8  1  0.488335  0.159496  0.557428  1
  Al  Al9  1  0.520271  0.833547  0.439685  1
  Al  Al10  1  0.218597  0.165470  0.327074  1
  Al  Al11  1  0.776688  0.838852  0.675168  1
  Al  Al12  1  0.439764  0.506785  0.675291  1
  Al  Al13  1  0.563174  0.493682  0.326774  1
  Al  Al14  1  0.108211  0.155166  0.673868  1
  Al  Al15  1  0.891185  0.839573  0.328014  1
  Al  Al16  1  0.354231  0.498247  0.944750  1
  Al  Al17  1  0.645973  0.501360  0.056640  1
  Al  Al18  1  0.015796  0.168417  0.952351  1
  Al  Al19  1  0.983840  0.831454  0.048996  1
  Al  Al20  1  0.188160  0.499634  0.436263  1
  Al  Al21  1  0.806812  0.500052  0.557323  1
  Al  Al22  1  0.733484  0.164057  0.183062  1
  Al  Al23  1  0.267316  0.835424  0.817294  1
  Al  Al24  1  0.060487  0.632962  0.818270  1
  Al  Al25  1  0.938750  0.369003  0.184386  1
  Al  Al26  1  0.853513  0.042689  0.816599  1
  Al  Al27  1  0.145293  0.957519  0.183675  1
  Pt  Pt28  1  0.879981  0.509243  0.360267  1
  Pt  Pt29  1  0.657069  0.171504  0.999567  1
  Pt  Pt30  1  0.343060  0.828292  0.000004  1
  Pt  Pt31  1  0.537081  0.166892  0.360454  1
  Pt  Pt32  1  0.462790  0.833199  0.638836  1
  Pt  Pt33  1  0.778396  0.175648  0.637260  1
  Pt  Pt34  1  0.222079  0.824140  0.361949  1
  Pt  Pt35  1  0.999967  0.499933  0.000282  1
  Au  Au36  1  0.120200  0.490093  0.638785  1
