# generated using pymatgen
data_Cd2InSbO6
_symmetry_space_group_name_H-M   'P 1'
_cell_length_a   6.51928115
_cell_length_b   6.54042330
_cell_length_c   6.53839133
_cell_angle_alpha   90.83513376
_cell_angle_beta   90.23779685
_cell_angle_gamma   90.09321659
_symmetry_Int_Tables_number   1
_chemical_formula_structural   Cd2InSbO6
_chemical_formula_sum   'Cd4 In2 Sb2 O12'
_cell_volume   278.75712892
_cell_formula_units_Z   2
loop_
 _symmetry_equiv_pos_site_id
 _symmetry_equiv_pos_as_xyz
  1  'x, y, z'
loop_
 _atom_site_type_symbol
 _atom_site_label
 _atom_site_symmetry_multiplicity
 _atom_site_fract_x
 _atom_site_fract_y
 _atom_site_fract_z
 _atom_site_occupancy
  Cd  Cd0  1  0.562322  0.051476  0.747923  1
  Cd  Cd1  1  0.946278  0.249435  0.439501  1
  Cd  Cd2  1  0.253340  0.431034  0.950936  1
  Cd  Cd3  1  0.437666  0.959112  0.253896  1
  In  In4  1  0.058433  0.746935  0.563944  1
  In  In5  1  0.749035  0.565254  0.054105  1
  Sb  Sb6  1  0.504181  0.506659  0.501991  1
  Sb  Sb7  1  0.997466  0.996486  0.001770  1
  O  O8  1  0.033438  0.694810  0.912168  1
  O  O9  1  0.706098  0.902568  0.041949  1
  O  O10  1  0.926403  0.024862  0.701901  1
  O  O11  1  0.937870  0.291507  0.081543  1
  O  O12  1  0.287802  0.081956  0.959031  1
  O  O13  1  0.077941  0.944823  0.294466  1
  O  O14  1  0.799375  0.586340  0.421568  1
  O  O15  1  0.577933  0.443331  0.795123  1
  O  O16  1  0.407355  0.795549  0.566089  1
  O  O17  1  0.205720  0.444206  0.566831  1
  O  O18  1  0.451284  0.567620  0.204058  1
  O  O19  1  0.580058  0.216039  0.441205  1
