# generated using pymatgen
data_Ta12Ga8FeNi3C4
_symmetry_space_group_name_H-M   'P 1'
_cell_length_a   8.20104635
_cell_length_b   8.22390055
_cell_length_c   8.20104500
_cell_angle_alpha   60.09187936
_cell_angle_beta   59.99999334
_cell_angle_gamma   60.09188157
_symmetry_Int_Tables_number   1
_chemical_formula_structural   Ta12Ga8FeNi3C4
_chemical_formula_sum   'Ta12 Ga8 Fe1 Ni3 C4'
_cell_volume   391.65442143
_cell_formula_units_Z   1
loop_
 _symmetry_equiv_pos_site_id
 _symmetry_equiv_pos_as_xyz
  1  'x, y, z'
loop_
 _atom_site_type_symbol
 _atom_site_label
 _atom_site_symmetry_multiplicity
 _atom_site_fract_x
 _atom_site_fract_y
 _atom_site_fract_z
 _atom_site_occupancy
  Ta  Ta0  1  0.564686  0.933861  0.564686  1
  Ta  Ta1  1  0.310068  0.684172  0.695690  1
  Ta  Ta2  1  0.685314  0.316139  0.313231  1
  Ta  Ta3  1  0.310068  0.684172  0.310068  1
  Ta  Ta4  1  0.695690  0.684172  0.310068  1
  Ta  Ta5  1  0.313231  0.316139  0.685314  1
  Ta  Ta6  1  0.554310  0.565828  0.939932  1
  Ta  Ta7  1  0.939932  0.565828  0.554310  1
  Ta  Ta8  1  0.564686  0.933861  0.936769  1
  Ta  Ta9  1  0.936769  0.933861  0.564686  1
  Ta  Ta10  1  0.685314  0.316139  0.685314  1
  Ta  Ta11  1  0.939932  0.565828  0.939932  1
  Ga  Ga12  1  0.916292  0.919091  0.916292  1
  Ga  Ga13  1  0.001673  0.330909  0.333708  1
  Ga  Ga14  1  0.336121  0.991635  0.336121  1
  Ga  Ga15  1  0.333708  0.330909  0.001673  1
  Ga  Ga16  1  0.913879  0.258365  0.913879  1
  Ga  Ga17  1  0.916292  0.919091  0.248327  1
  Ga  Ga18  1  0.248327  0.919091  0.916292  1
  Ga  Ga19  1  0.333708  0.330909  0.333708  1
  Fe  Fe20  1  0.125000  0.625000  0.125000  1
  Ni  Ni21  1  0.125000  0.125000  0.125000  1
  Ni  Ni22  1  0.625000  0.125000  0.125000  1
  Ni  Ni23  1  0.125000  0.125000  0.625000  1
  C  C24  1  0.625000  0.625000  0.625000  1
  C  C25  1  0.125000  0.625000  0.625000  1
  C  C26  1  0.625000  0.125000  0.625000  1
  C  C27  1  0.625000  0.625000  0.125000  1
