# generated using pymatgen
data_La7Sm(Ho3Pb4)4
_symmetry_space_group_name_H-M   'P 1'
_cell_length_a   8.41688910
_cell_length_b   8.50164105
_cell_length_c   16.03906100
_cell_angle_alpha   89.97763874
_cell_angle_beta   89.95081088
_cell_angle_gamma   90.01767841
_symmetry_Int_Tables_number   1
_chemical_formula_structural   La7Sm(Ho3Pb4)4
_chemical_formula_sum   'La7 Sm1 Ho12 Pb16'
_cell_volume   1147.71245614
_cell_formula_units_Z   1
loop_
 _symmetry_equiv_pos_site_id
 _symmetry_equiv_pos_as_xyz
  1  'x, y, z'
loop_
 _atom_site_type_symbol
 _atom_site_label
 _atom_site_symmetry_multiplicity
 _atom_site_fract_x
 _atom_site_fract_y
 _atom_site_fract_z
 _atom_site_occupancy
  La  La0  1  0.024474  0.178454  0.598441  1
  La  La1  1  0.476037  0.678237  0.402794  1
  La  La2  1  0.975954  0.822176  0.096699  1
  La  La3  1  0.476029  0.676873  0.096442  1
  La  La4  1  0.975815  0.822079  0.402826  1
  La  La5  1  0.523601  0.322092  0.597272  1
  La  La6  1  0.023643  0.179264  0.903037  1
  Sm  Sm7  1  0.527264  0.321865  0.900783  1
  Ho  Ho8  1  0.363989  0.842850  0.877429  1
  Ho  Ho9  1  0.863567  0.657091  0.623104  1
  Ho  Ho10  1  0.635717  0.156861  0.377384  1
  Ho  Ho11  1  0.135599  0.342642  0.121819  1
  Ho  Ho12  1  0.634885  0.158092  0.121948  1
  Ho  Ho13  1  0.136167  0.342835  0.377483  1
  Ho  Ho14  1  0.364298  0.843693  0.623574  1
  Ho  Ho15  1  0.863708  0.656503  0.877530  1
  Ho  Ho16  1  0.198238  0.505309  0.750747  1
  Ho  Ho17  1  0.698004  0.994836  0.750902  1
  Ho  Ho18  1  0.801654  0.494004  0.249487  1
  Ho  Ho19  1  0.301961  0.005593  0.250010  1
  Pb  Pb20  1  0.297639  0.041825  0.044002  1
  Pb  Pb21  1  0.796528  0.458399  0.455507  1
  Pb  Pb22  1  0.703818  0.958738  0.545153  1
  Pb  Pb23  1  0.208036  0.537734  0.954575  1
  Pb  Pb24  1  0.701935  0.960473  0.955231  1
  Pb  Pb25  1  0.202796  0.542521  0.544843  1
  Pb  Pb26  1  0.296180  0.041621  0.455955  1
  Pb  Pb27  1  0.793547  0.456778  0.042404  1
  Pb  Pb28  1  0.558691  0.630223  0.750505  1
  Pb  Pb29  1  0.058717  0.868505  0.750531  1
  Pb  Pb30  1  0.440845  0.368437  0.250084  1
  Pb  Pb31  1  0.941199  0.131396  0.249463  1
  Pb  Pb32  1  0.337877  0.151784  0.752079  1
  Pb  Pb33  1  0.833564  0.350321  0.750882  1
  Pb  Pb34  1  0.664211  0.850280  0.249533  1
  Pb  Pb35  1  0.163814  0.649615  0.249544  1
