# generated using pymatgen
data_Tb3Ce(SiIr2)4
_symmetry_space_group_name_H-M   'P 1'
_cell_length_a   17.83025034
_cell_length_b   4.06798046
_cell_length_c   4.06715601
_cell_angle_alpha   90.00428650
_cell_angle_beta   96.54127892
_cell_angle_gamma   96.54485077
_symmetry_Int_Tables_number   1
_chemical_formula_structural   Tb3Ce(SiIr2)4
_chemical_formula_sum   'Tb3 Ce1 Si4 Ir8'
_cell_volume   291.14748452
_cell_formula_units_Z   1
loop_
 _symmetry_equiv_pos_site_id
 _symmetry_equiv_pos_as_xyz
  1  'x, y, z'
loop_
 _atom_site_type_symbol
 _atom_site_label
 _atom_site_symmetry_multiplicity
 _atom_site_fract_x
 _atom_site_fract_y
 _atom_site_fract_z
 _atom_site_occupancy
  Tb  Tb0  1  0.896017  0.448374  0.197985  1
  Tb  Tb1  1  0.400510  0.200316  0.450509  1
  Tb  Tb2  1  0.600195  0.799693  0.549722  1
  Ce  Ce3  1  0.098692  0.548762  0.798233  1
  Si  Si4  1  0.675685  0.337809  0.087387  1
  Si  Si5  1  0.178507  0.088769  0.339198  1
  Si  Si6  1  0.822763  0.911710  0.661509  1
  Si  Si7  1  0.325133  0.662679  0.912985  1
  Ir  Ir8  1  0.543164  0.271727  0.021322  1
  Ir  Ir9  1  0.749567  0.874661  0.124902  1
  Ir  Ir10  1  0.044209  0.022829  0.272597  1
  Ir  Ir11  1  0.250928  0.625124  0.375840  1
  Ir  Ir12  1  0.749899  0.375131  0.624556  1
  Ir  Ir13  1  0.955824  0.977828  0.728644  1
  Ir  Ir14  1  0.251263  0.125681  0.875602  1
  Ir  Ir15  1  0.457646  0.728917  0.979009  1
