# generated using pymatgen
data_Mg3Mn2Al(B2Rh5)2
_symmetry_space_group_name_H-M   'P 1'
_cell_length_a   9.41014710
_cell_length_b   9.41788338
_cell_length_c   2.93961800
_cell_angle_alpha   90.00000000
_cell_angle_beta   90.00000000
_cell_angle_gamma   90.19216250
_symmetry_Int_Tables_number   1
_chemical_formula_structural   Mg3Mn2Al(B2Rh5)2
_chemical_formula_sum   'Mg3 Mn2 Al1 B4 Rh10'
_cell_volume   260.51826441
_cell_formula_units_Z   1
loop_
 _symmetry_equiv_pos_site_id
 _symmetry_equiv_pos_as_xyz
  1  'x, y, z'
loop_
 _atom_site_type_symbol
 _atom_site_label
 _atom_site_symmetry_multiplicity
 _atom_site_fract_x
 _atom_site_fract_y
 _atom_site_fract_z
 _atom_site_occupancy
  Mg  Mg0  1  0.323751  0.823034  0.000000  1
  Mg  Mg1  1  0.177719  0.323177  0.000000  1
  Mg  Mg2  1  0.822409  0.676816  0.000000  1
  Mn  Mn3  1  0.676669  0.177318  0.000000  1
  Mn  Mn4  1  0.499278  0.502339  0.000000  1
  Al  Al5  1  0.002169  0.999348  0.000000  1
  B  B6  1  0.123757  0.624230  0.000000  1
  B  B7  1  0.872166  0.372084  0.000000  1
  B  B8  1  0.626875  0.875972  0.000000  1
  B  B9  1  0.375693  0.126740  0.000000  1
  Rh  Rh10  1  0.502349  0.002533  0.500000  1
  Rh  Rh11  1  0.998211  0.498240  0.500000  1
  Rh  Rh12  1  0.216086  0.070239  0.500000  1
  Rh  Rh13  1  0.785182  0.935259  0.500000  1
  Rh  Rh14  1  0.069216  0.784501  0.500000  1
  Rh  Rh15  1  0.715045  0.423997  0.500000  1
  Rh  Rh16  1  0.926014  0.212096  0.500000  1
  Rh  Rh17  1  0.281311  0.570780  0.500000  1
  Rh  Rh18  1  0.571777  0.719346  0.500000  1
  Rh  Rh19  1  0.434323  0.281953  0.500000  1
