# generated using pymatgen
data_Tb4Dy4Ti12Si15P
_symmetry_space_group_name_H-M   'P 1'
_cell_length_a   7.04453355
_cell_length_b   7.05010627
_cell_length_c   12.96308807
_cell_angle_alpha   89.98114739
_cell_angle_beta   89.94141818
_cell_angle_gamma   89.93175576
_symmetry_Int_Tables_number   1
_chemical_formula_structural   Tb4Dy4Ti12Si15P
_chemical_formula_sum   'Tb4 Dy4 Ti12 Si15 P1'
_cell_volume   643.80718409
_cell_formula_units_Z   1
loop_
 _symmetry_equiv_pos_site_id
 _symmetry_equiv_pos_as_xyz
  1  'x, y, z'
loop_
 _atom_site_type_symbol
 _atom_site_label
 _atom_site_symmetry_multiplicity
 _atom_site_fract_x
 _atom_site_fract_y
 _atom_site_fract_z
 _atom_site_occupancy
  Tb  Tb0  1  0.159733  0.498513  0.782204  1
  Tb  Tb1  1  0.660424  0.995363  0.966650  1
  Tb  Tb2  1  0.004112  0.339074  0.534547  1
  Tb  Tb3  1  0.997182  0.659970  0.033091  1
  Dy  Dy4  1  0.340198  0.003141  0.467800  1
  Dy  Dy5  1  0.494068  0.844224  0.716740  1
  Dy  Dy6  1  0.502532  0.159414  0.216368  1
  Dy  Dy7  1  0.839824  0.497104  0.283555  1
  Ti  Ti8  1  0.326112  0.326654  0.999417  1
  Ti  Ti9  1  0.172964  0.827186  0.250051  1
  Ti  Ti10  1  0.827594  0.172930  0.749469  1
  Ti  Ti11  1  0.672859  0.673128  0.500207  1
  Ti  Ti12  1  0.154544  0.010176  0.872783  1
  Ti  Ti13  1  0.491166  0.652907  0.125908  1
  Ti  Ti14  1  0.506696  0.344600  0.627485  1
  Ti  Ti15  1  0.654220  0.493649  0.873721  1
  Ti  Ti16  1  0.347207  0.508058  0.373797  1
  Ti  Ti17  1  0.847258  0.991594  0.376327  1
  Ti  Ti18  1  0.008276  0.152535  0.123765  1
  Ti  Ti19  1  0.994213  0.849244  0.624834  1
  Si  Si20  1  0.369301  0.702454  0.933772  1
  Si  Si21  1  0.629520  0.298209  0.435670  1
  Si  Si22  1  0.701901  0.370546  0.065166  1
  Si  Si23  1  0.298339  0.629972  0.565458  1
  Si  Si24  1  0.797299  0.870438  0.185121  1
  Si  Si25  1  0.130130  0.202071  0.315571  1
  Si  Si26  1  0.870721  0.796909  0.814628  1
  Si  Si27  1  0.290429  0.953262  0.063947  1
  Si  Si28  1  0.546289  0.791110  0.314950  1
  Si  Si29  1  0.459092  0.211156  0.817525  1
  Si  Si30  1  0.789074  0.547742  0.684724  1
  Si  Si31  1  0.209219  0.452831  0.185272  1
  Si  Si32  1  0.709251  0.045768  0.564620  1
  Si  Si33  1  0.953449  0.290194  0.935347  1
  Si  Si34  1  0.046710  0.709157  0.435566  1
  P  P35  1  0.198092  0.128715  0.683945  1
