# generated using pymatgen
data_TbDy5C3Cl5
_symmetry_space_group_name_H-M   'P 1'
_cell_length_a   3.66013429
_cell_length_b   8.31861013
_cell_length_c   10.32056393
_cell_angle_alpha   85.55834936
_cell_angle_beta   79.73379071
_cell_angle_gamma   77.29863127
_symmetry_Int_Tables_number   1
_chemical_formula_structural   TbDy5C3Cl5
_chemical_formula_sum   'Tb1 Dy5 C3 Cl5'
_cell_volume   301.39576397
_cell_formula_units_Z   1
loop_
 _symmetry_equiv_pos_site_id
 _symmetry_equiv_pos_as_xyz
  1  'x, y, z'
loop_
 _atom_site_type_symbol
 _atom_site_label
 _atom_site_symmetry_multiplicity
 _atom_site_fract_x
 _atom_site_fract_y
 _atom_site_fract_z
 _atom_site_occupancy
  Tb  Tb0  1  0.431334  0.923364  0.218314  1
  Dy  Dy1  1  0.574613  0.074466  0.778453  1
  Dy  Dy2  1  0.958931  0.429220  0.656684  1
  Dy  Dy3  1  0.683388  0.179944  0.456071  1
  Dy  Dy4  1  0.046042  0.568808  0.343413  1
  Dy  Dy5  1  0.320804  0.819235  0.542775  1
  C  C6  1  0.127737  0.122947  0.625010  1
  C  C7  1  0.877016  0.875461  0.373410  1
  C  C8  1  0.502625  0.498687  0.500072  1
  Cl  Cl9  1  0.752532  0.745859  0.752294  1
  Cl  Cl10  1  0.380682  0.379282  0.864792  1
  Cl  Cl11  1  0.250327  0.253017  0.246959  1
  Cl  Cl12  1  0.627293  0.614926  0.135124  1
  Cl  Cl13  1  0.003897  0.998374  0.995946  1
