# generated using pymatgen
data_Dy3Sc3Al6PtAu5
_symmetry_space_group_name_H-M   'P 1'
_cell_length_a   7.23811400
_cell_length_b   7.23811385
_cell_length_c   7.85323500
_cell_angle_alpha   90.00000000
_cell_angle_beta   90.00000000
_cell_angle_gamma   119.99999156
_symmetry_Int_Tables_number   1
_chemical_formula_structural   Dy3Sc3Al6PtAu5
_chemical_formula_sum   'Dy3 Sc3 Al6 Pt1 Au5'
_cell_volume   356.31170619
_cell_formula_units_Z   1
loop_
 _symmetry_equiv_pos_site_id
 _symmetry_equiv_pos_as_xyz
  1  'x, y, z'
loop_
 _atom_site_type_symbol
 _atom_site_label
 _atom_site_symmetry_multiplicity
 _atom_site_fract_x
 _atom_site_fract_y
 _atom_site_fract_z
 _atom_site_occupancy
  Dy  Dy0  1  0.580579  0.997718  0.750000  1
  Dy  Dy1  1  0.002282  0.582862  0.750000  1
  Dy  Dy2  1  0.417138  0.419421  0.750000  1
  Sc  Sc3  1  0.996095  0.598895  0.250000  1
  Sc  Sc4  1  0.602800  0.003905  0.250000  1
  Sc  Sc5  1  0.401105  0.397200  0.250000  1
  Al  Al6  1  0.751921  0.753058  0.014232  1
  Al  Al7  1  0.246942  0.998864  0.014232  1
  Al  Al8  1  0.001136  0.248079  0.014232  1
  Al  Al9  1  0.751921  0.753058  0.485768  1
  Al  Al10  1  0.246942  0.998864  0.485768  1
  Al  Al11  1  0.001136  0.248079  0.485768  1
  Pt  Pt12  1  0.000000  0.000000  0.250000  1
  Au  Au13  1  0.000000  0.000000  0.750000  1
  Au  Au14  1  0.666667  0.333333  0.018041  1
  Au  Au15  1  0.666667  0.333333  0.481959  1
  Au  Au16  1  0.333333  0.666667  0.473423  1
  Au  Au17  1  0.333333  0.666667  0.026577  1
