# generated using pymatgen
data_Ce6Al24Co3Os5
_symmetry_space_group_name_H-M   'P 1'
_cell_length_a   8.85415100
_cell_length_b   8.82121585
_cell_length_c   9.41734234
_cell_angle_alpha   90.22210168
_cell_angle_beta   90.00000000
_cell_angle_gamma   120.12358077
_symmetry_Int_Tables_number   1
_chemical_formula_structural   Ce6Al24Co3Os5
_chemical_formula_sum   'Ce6 Al24 Co3 Os5'
_cell_volume   636.19145919
_cell_formula_units_Z   1
loop_
 _symmetry_equiv_pos_site_id
 _symmetry_equiv_pos_as_xyz
  1  'x, y, z'
loop_
 _atom_site_type_symbol
 _atom_site_label
 _atom_site_symmetry_multiplicity
 _atom_site_fract_x
 _atom_site_fract_y
 _atom_site_fract_z
 _atom_site_occupancy
  Ce  Ce0  1  0.195692  0.391383  0.248780  1
  Ce  Ce1  1  0.804308  0.608617  0.751220  1
  Ce  Ce2  1  0.610411  0.801684  0.251249  1
  Ce  Ce3  1  0.389589  0.198316  0.748751  1
  Ce  Ce4  1  0.191273  0.801684  0.251249  1
  Ce  Ce5  1  0.808727  0.198316  0.748751  1
  Al  Al6  1  0.336636  0.673273  0.017202  1
  Al  Al7  1  0.663364  0.326727  0.982798  1
  Al  Al8  1  0.666568  0.333135  0.516150  1
  Al  Al9  1  0.333432  0.666865  0.483850  1
  Al  Al10  1  0.160574  0.321147  0.575800  1
  Al  Al11  1  0.839426  0.678853  0.424200  1
  Al  Al12  1  0.679132  0.840249  0.577784  1
  Al  Al13  1  0.838704  0.677408  0.076598  1
  Al  Al14  1  0.320868  0.159751  0.422216  1
  Al  Al15  1  0.161296  0.322592  0.923402  1
  Al  Al16  1  0.161118  0.840249  0.577784  1
  Al  Al17  1  0.321122  0.158891  0.076138  1
  Al  Al18  1  0.838882  0.159751  0.422216  1
  Al  Al19  1  0.678878  0.841109  0.923862  1
  Al  Al20  1  0.837767  0.158891  0.076138  1
  Al  Al21  1  0.162233  0.841109  0.923862  1
  Al  Al22  1  0.559274  0.118548  0.244714  1
  Al  Al23  1  0.440726  0.881452  0.755286  1
  Al  Al24  1  0.873304  0.435160  0.249388  1
  Al  Al25  1  0.126696  0.564840  0.750612  1
  Al  Al26  1  0.561857  0.435160  0.249388  1
  Al  Al27  1  0.438143  0.564840  0.750612  1
  Al  Al28  1  0.999570  0.999141  0.250121  1
  Al  Al29  1  0.000430  0.000859  0.749879  1
  Co  Co30  1  0.500000  0.000000  0.000000  1
  Co  Co31  1  0.000000  0.000000  0.000000  1
  Co  Co32  1  0.000000  0.000000  0.500000  1
  Os  Os33  1  0.000000  0.500000  0.000000  1
  Os  Os34  1  0.500000  0.000000  0.500000  1
  Os  Os35  1  0.500000  0.500000  0.000000  1
  Os  Os36  1  0.000000  0.500000  0.500000  1
  Os  Os37  1  0.500000  0.500000  0.500000  1
