# generated using pymatgen
data_Dy3BeCo9GeB4
_symmetry_space_group_name_H-M   'P 1'
_cell_length_a   5.08888500
_cell_length_b   5.08888466
_cell_length_c   9.44300000
_cell_angle_alpha   90.00000000
_cell_angle_beta   90.00000000
_cell_angle_gamma   120.00000874
_symmetry_Int_Tables_number   1
_chemical_formula_structural   Dy3BeCo9GeB4
_chemical_formula_sum   'Dy3 Be1 Co9 Ge1 B4'
_cell_volume   211.78043063
_cell_formula_units_Z   1
loop_
 _symmetry_equiv_pos_site_id
 _symmetry_equiv_pos_as_xyz
  1  'x, y, z'
loop_
 _atom_site_type_symbol
 _atom_site_label
 _atom_site_symmetry_multiplicity
 _atom_site_fract_x
 _atom_site_fract_y
 _atom_site_fract_z
 _atom_site_occupancy
  Dy  Dy0  1  0.000000  0.000000  0.660847  1
  Dy  Dy1  1  0.000000  0.000000  0.339153  1
  Dy  Dy2  1  0.000000  0.000000  0.000000  1
  Be  Be3  1  0.333333  0.666667  0.000000  1
  Co  Co4  1  0.500362  0.499638  0.500000  1
  Co  Co5  1  0.999275  0.499638  0.500000  1
  Co  Co6  1  0.498382  0.996764  0.198936  1
  Co  Co7  1  0.498382  0.501618  0.198936  1
  Co  Co8  1  0.003236  0.501618  0.198936  1
  Co  Co9  1  0.498382  0.996764  0.801064  1
  Co  Co10  1  0.498382  0.501618  0.801064  1
  Co  Co11  1  0.003236  0.501618  0.801064  1
  Co  Co12  1  0.500362  0.000725  0.500000  1
  Ge  Ge13  1  0.666667  0.333333  0.000000  1
  B  B14  1  0.333333  0.666667  0.653113  1
  B  B15  1  0.666667  0.333333  0.654620  1
  B  B16  1  0.666667  0.333333  0.345380  1
  B  B17  1  0.333333  0.666667  0.346887  1
