# generated using pymatgen
data_Y2Be2AlRh5
_symmetry_space_group_name_H-M   'P 1'
_cell_length_a   9.63423400
_cell_length_b   9.63423400
_cell_length_c   3.22413600
_cell_angle_alpha   90.00000000
_cell_angle_beta   90.00000000
_cell_angle_gamma   90.00000000
_symmetry_Int_Tables_number   1
_chemical_formula_structural   Y2Be2AlRh5
_chemical_formula_sum   'Y4 Be4 Al2 Rh10'
_cell_volume   299.25935372
_cell_formula_units_Z   2
loop_
 _symmetry_equiv_pos_site_id
 _symmetry_equiv_pos_as_xyz
  1  'x, y, z'
loop_
 _atom_site_type_symbol
 _atom_site_label
 _atom_site_symmetry_multiplicity
 _atom_site_fract_x
 _atom_site_fract_y
 _atom_site_fract_z
 _atom_site_occupancy
  Y  Y0  1  0.823260  0.323260  0.000000  1
  Y  Y1  1  0.323260  0.176740  0.000000  1
  Y  Y2  1  0.676740  0.823260  0.000000  1
  Y  Y3  1  0.176740  0.676740  0.000000  1
  Be  Be4  1  0.622343  0.122343  0.000000  1
  Be  Be5  1  0.122343  0.377657  0.000000  1
  Be  Be6  1  0.877657  0.622343  0.000000  1
  Be  Be7  1  0.377657  0.877657  0.000000  1
  Al  Al8  1  0.000000  0.000000  0.000000  1
  Al  Al9  1  0.500000  0.500000  0.000000  1
  Rh  Rh10  1  0.066503  0.210816  0.500000  1
  Rh  Rh11  1  0.210816  0.933497  0.500000  1
  Rh  Rh12  1  0.789184  0.066503  0.500000  1
  Rh  Rh13  1  0.933497  0.789184  0.500000  1
  Rh  Rh14  1  0.433497  0.710816  0.500000  1
  Rh  Rh15  1  0.566503  0.289184  0.500000  1
  Rh  Rh16  1  0.710816  0.566503  0.500000  1
  Rh  Rh17  1  0.289184  0.433497  0.500000  1
  Rh  Rh18  1  0.500000  0.000000  0.500000  1
  Rh  Rh19  1  0.000000  0.500000  0.500000  1
