# generated using pymatgen
data_Y2TaIrRh2
_symmetry_space_group_name_H-M   'P 1'
_cell_length_a   5.24408488
_cell_length_b   5.24408583
_cell_length_c   5.25426475
_cell_angle_alpha   65.62125301
_cell_angle_beta   65.62125134
_cell_angle_gamma   65.32845789
_symmetry_Int_Tables_number   1
_chemical_formula_structural   Y2TaIrRh2
_chemical_formula_sum   'Y2 Ta1 Ir1 Rh2'
_cell_volume   114.43813072
_cell_formula_units_Z   1
loop_
 _symmetry_equiv_pos_site_id
 _symmetry_equiv_pos_as_xyz
  1  'x, y, z'
loop_
 _atom_site_type_symbol
 _atom_site_label
 _atom_site_symmetry_multiplicity
 _atom_site_fract_x
 _atom_site_fract_y
 _atom_site_fract_z
 _atom_site_occupancy
  Y  Y0  1  0.628029  0.628029  0.625248  1
  Y  Y1  1  0.371971  0.371971  0.374752  1
  Ta  Ta2  1  0.000000  0.000000  0.000000  1
  Ir  Ir3  1  0.000000  0.000000  0.500000  1
  Rh  Rh4  1  0.500000  0.000000  0.000000  1
  Rh  Rh5  1  0.000000  0.500000  0.000000  1
