# generated using pymatgen
data_Li4NdUSe6
_symmetry_space_group_name_H-M   'P 1'
_cell_length_a   7.08295969
_cell_length_b   7.08296020
_cell_length_c   6.86166500
_cell_angle_alpha   100.05122566
_cell_angle_beta   100.05123461
_cell_angle_gamma   120.00915773
_symmetry_Int_Tables_number   1
_chemical_formula_structural   Li4NdUSe6
_chemical_formula_sum   'Li4 Nd1 U1 Se6'
_cell_volume   279.33661356
_cell_formula_units_Z   1
loop_
 _symmetry_equiv_pos_site_id
 _symmetry_equiv_pos_as_xyz
  1  'x, y, z'
loop_
 _atom_site_type_symbol
 _atom_site_label
 _atom_site_symmetry_multiplicity
 _atom_site_fract_x
 _atom_site_fract_y
 _atom_site_fract_z
 _atom_site_occupancy
  Li  Li0  1  0.499038  0.500963  0.000000  1
  Li  Li1  1  0.009423  0.990576  0.499998  1
  Li  Li2  1  0.666685  0.333315  0.500001  1
  Li  Li3  1  0.322721  0.677279  0.500001  1
  Nd  Nd4  1  0.834921  0.165079  0.000000  1
  U  U5  1  0.166984  0.833016  0.000000  1
  Se  Se6  1  0.927960  0.599841  0.245770  1
  Se  Se7  1  0.566525  0.913551  0.253128  1
  Se  Se8  1  0.255078  0.235945  0.254655  1
  Se  Se9  1  0.764057  0.744925  0.745348  1
  Se  Se10  1  0.086451  0.433478  0.746875  1
  Se  Se11  1  0.400162  0.072043  0.754231  1
