# generated using pymatgen
data_TbSm3Ga4NiRu3
_symmetry_space_group_name_H-M   'P 1'
_cell_length_a   4.55000700
_cell_length_b   7.21679987
_cell_length_c   7.13515492
_cell_angle_alpha   89.45250782
_cell_angle_beta   90.00000000
_cell_angle_gamma   90.00000000
_symmetry_Int_Tables_number   1
_chemical_formula_structural   TbSm3Ga4NiRu3
_chemical_formula_sum   'Tb1 Sm3 Ga4 Ni1 Ru3'
_cell_volume   234.28274616
_cell_formula_units_Z   1
loop_
 _symmetry_equiv_pos_site_id
 _symmetry_equiv_pos_as_xyz
  1  'x, y, z'
loop_
 _atom_site_type_symbol
 _atom_site_label
 _atom_site_symmetry_multiplicity
 _atom_site_fract_x
 _atom_site_fract_y
 _atom_site_fract_z
 _atom_site_occupancy
  Tb  Tb0  1  0.750000  0.478697  0.302892  1
  Sm  Sm1  1  0.250000  0.022313  0.805260  1
  Sm  Sm2  1  0.250000  0.522523  0.691507  1
  Sm  Sm3  1  0.750000  0.982124  0.197132  1
  Ga  Ga4  1  0.250000  0.199163  0.398673  1
  Ga  Ga5  1  0.250000  0.688752  0.106732  1
  Ga  Ga6  1  0.750000  0.797904  0.603819  1
  Ga  Ga7  1  0.750000  0.312116  0.894154  1
  Ni  Ni8  1  0.750000  0.659705  0.935129  1
  Ru  Ru9  1  0.250000  0.841195  0.434711  1
  Ru  Ru10  1  0.250000  0.338467  0.064733  1
  Ru  Ru11  1  0.750000  0.157043  0.565258  1
