# generated using pymatgen
data_Pa6MnNi5Sb8
_symmetry_space_group_name_H-M   'P 1'
_cell_length_a   8.20391435
_cell_length_b   8.20391314
_cell_length_c   8.20391400
_cell_angle_alpha   109.43217457
_cell_angle_beta   109.54935923
_cell_angle_gamma   109.43215943
_symmetry_Int_Tables_number   1
_chemical_formula_structural   Pa6MnNi5Sb8
_chemical_formula_sum   'Pa6 Mn1 Ni5 Sb8'
_cell_volume   425.05072089
_cell_formula_units_Z   1
loop_
 _symmetry_equiv_pos_site_id
 _symmetry_equiv_pos_as_xyz
  1  'x, y, z'
loop_
 _atom_site_type_symbol
 _atom_site_label
 _atom_site_symmetry_multiplicity
 _atom_site_fract_x
 _atom_site_fract_y
 _atom_site_fract_z
 _atom_site_occupancy
  Pa  Pa0  1  0.874995  0.250007  0.125004  1
  Pa  Pa1  1  0.624974  0.749987  0.374994  1
  Pa  Pa2  1  0.251580  0.128739  0.869977  1
  Pa  Pa3  1  0.741169  0.371257  0.622843  1
  Pa  Pa4  1  0.130070  0.881658  0.258824  1
  Pa  Pa5  1  0.377158  0.618311  0.748388  1
  Mn  Mn6  1  0.375223  0.250196  0.624894  1
  Ni  Ni7  1  0.124946  0.749906  0.874976  1
  Ni  Ni8  1  0.251039  0.624474  0.375793  1
  Ni  Ni9  1  0.751281  0.875493  0.126564  1
  Ni  Ni10  1  0.624287  0.375332  0.248806  1
  Ni  Ni11  1  0.873384  0.124700  0.748933  1
  Sb  Sb12  1  0.666342  0.499528  0.999004  1
  Sb  Sb13  1  0.499426  0.000484  0.666801  1
  Sb  Sb14  1  0.999980  0.664137  0.501161  1
  Sb  Sb15  1  0.836972  0.835815  0.835838  1
  Sb  Sb16  1  0.498825  0.998825  0.163009  1
  Sb  Sb17  1  0.164115  0.501129  0.000006  1
  Sb  Sb18  1  0.001057  0.167367  0.500572  1
  Sb  Sb19  1  0.333177  0.332655  0.333611  1
