# generated using pymatgen
data_LiTl2(NO3)3
_symmetry_space_group_name_H-M   'P 1'
_cell_length_a   5.35800400
_cell_length_b   9.10961400
_cell_length_c   9.72355500
_cell_angle_alpha   90.00000000
_cell_angle_beta   90.00000000
_cell_angle_gamma   90.00000000
_symmetry_Int_Tables_number   1
_chemical_formula_structural   LiTl2(NO3)3
_chemical_formula_sum   'Li2 Tl4 N6 O18'
_cell_volume   474.60038223
_cell_formula_units_Z   2
loop_
 _symmetry_equiv_pos_site_id
 _symmetry_equiv_pos_as_xyz
  1  'x, y, z'
loop_
 _atom_site_type_symbol
 _atom_site_label
 _atom_site_symmetry_multiplicity
 _atom_site_fract_x
 _atom_site_fract_y
 _atom_site_fract_z
 _atom_site_occupancy
  Li  Li0  1  0.000000  0.284628  0.062524  1
  Li  Li1  1  0.000000  0.715372  0.562524  1
  Tl  Tl2  1  0.500000  0.915781  0.818792  1
  Tl  Tl3  1  0.500000  0.084219  0.318792  1
  Tl  Tl4  1  0.500000  0.610019  0.148164  1
  Tl  Tl5  1  0.500000  0.389981  0.648164  1
  N  N6  1  0.000000  0.971644  0.125670  1
  N  N7  1  0.000000  0.028356  0.625670  1
  N  N8  1  0.000000  0.567771  0.928789  1
  N  N9  1  0.000000  0.432229  0.428789  1
  N  N10  1  0.500000  0.744942  0.489824  1
  N  N11  1  0.500000  0.255058  0.989824  1
  O  O12  1  0.000000  0.100853  0.181050  1
  O  O13  1  0.000000  0.899147  0.681050  1
  O  O14  1  0.794294  0.910274  0.100435  1
  O  O15  1  0.205706  0.910274  0.100435  1
  O  O16  1  0.205706  0.089726  0.600435  1
  O  O17  1  0.794294  0.089726  0.600435  1
  O  O18  1  0.000000  0.503394  0.047767  1
  O  O19  1  0.000000  0.496606  0.547767  1
  O  O20  1  0.205462  0.598822  0.873159  1
  O  O21  1  0.794538  0.598822  0.873159  1
  O  O22  1  0.794538  0.401178  0.373160  1
  O  O23  1  0.205462  0.401178  0.373160  1
  O  O24  1  0.500000  0.697761  0.612881  1
  O  O25  1  0.500000  0.302239  0.112881  1
  O  O26  1  0.705568  0.768551  0.428767  1
  O  O27  1  0.294432  0.768551  0.428767  1
  O  O28  1  0.294432  0.231449  0.928767  1
  O  O29  1  0.705568  0.231449  0.928767  1
