# generated using pymatgen
data_Cs2Si2Pb2O7
_symmetry_space_group_name_H-M   'P 1'
_cell_length_a   5.88388201
_cell_length_b   5.88392726
_cell_length_c   8.54652300
_cell_angle_alpha   89.99913226
_cell_angle_beta   90.00129633
_cell_angle_gamma   119.99695173
_symmetry_Int_Tables_number   1
_chemical_formula_structural   Cs2Si2Pb2O7
_chemical_formula_sum   'Cs2 Si2 Pb2 O7'
_cell_volume   256.25047965
_cell_formula_units_Z   1
loop_
 _symmetry_equiv_pos_site_id
 _symmetry_equiv_pos_as_xyz
  1  'x, y, z'
loop_
 _atom_site_type_symbol
 _atom_site_label
 _atom_site_symmetry_multiplicity
 _atom_site_fract_x
 _atom_site_fract_y
 _atom_site_fract_z
 _atom_site_occupancy
  Cs  Cs0  1  0.333338  0.666658  0.096547  1
  Cs  Cs1  1  0.666662  0.333342  0.903453  1
  Si  Si2  1  0.000020  0.999990  0.304551  1
  Si  Si3  1  0.999979  0.000010  0.695448  1
  Pb  Pb4  1  0.666686  0.333330  0.391202  1
  Pb  Pb5  1  0.333314  0.666669  0.608798  1
  O  O6  1  0.839808  0.145578  0.242197  1
  O  O7  1  0.854448  0.694217  0.242188  1
  O  O8  1  0.305792  0.160198  0.242187  1
  O  O9  1  0.000000  0.999999  0.499999  1
  O  O10  1  0.694207  0.839802  0.757813  1
  O  O11  1  0.145551  0.305783  0.757813  1
  O  O12  1  0.160192  0.854422  0.757803  1
