# generated using pymatgen
data_Ho8Sn(Pd2Pt)8
_symmetry_space_group_name_H-M   'P 1'
_cell_length_a   8.39538700
_cell_length_b   8.39326600
_cell_length_c   8.37687800
_cell_angle_alpha   90.00000000
_cell_angle_beta   90.00000000
_cell_angle_gamma   90.00000000
_symmetry_Int_Tables_number   1
_chemical_formula_structural   Ho8Sn(Pd2Pt)8
_chemical_formula_sum   'Ho8 Sn1 Pd16 Pt8'
_cell_volume   590.27433145
_cell_formula_units_Z   1
loop_
 _symmetry_equiv_pos_site_id
 _symmetry_equiv_pos_as_xyz
  1  'x, y, z'
loop_
 _atom_site_type_symbol
 _atom_site_label
 _atom_site_symmetry_multiplicity
 _atom_site_fract_x
 _atom_site_fract_y
 _atom_site_fract_z
 _atom_site_occupancy
  Ho  Ho0  1  0.253193  0.253822  0.253142  1
  Ho  Ho1  1  0.746586  0.746104  0.746634  1
  Ho  Ho2  1  0.746586  0.746104  0.253366  1
  Ho  Ho3  1  0.746807  0.253822  0.746858  1
  Ho  Ho4  1  0.253193  0.253822  0.746858  1
  Ho  Ho5  1  0.253414  0.746104  0.253366  1
  Ho  Ho6  1  0.253414  0.746104  0.746634  1
  Ho  Ho7  1  0.746807  0.253822  0.253142  1
  Sn  Sn8  1  0.000000  0.000552  0.000000  1
  Pd  Pd9  1  0.000000  0.735289  0.500000  1
  Pd  Pd10  1  0.500000  0.735862  0.000000  1
  Pd  Pd11  1  0.500000  0.999935  0.264906  1
  Pd  Pd12  1  0.265165  0.999995  0.500000  1
  Pd  Pd13  1  0.500000  0.999935  0.735094  1
  Pd  Pd14  1  0.734835  0.999995  0.500000  1
  Pd  Pd15  1  0.000000  0.500370  0.264562  1
  Pd  Pd16  1  0.000000  0.500370  0.735438  1
  Pd  Pd17  1  0.500000  0.500118  0.254356  1
  Pd  Pd18  1  0.500000  0.500118  0.745644  1
  Pd  Pd19  1  0.307709  0.999658  0.000000  1
  Pd  Pd20  1  0.692291  0.999658  0.000000  1
  Pd  Pd21  1  0.000000  0.307618  0.000000  1
  Pd  Pd22  1  0.000000  0.692729  0.000000  1
  Pd  Pd23  1  0.000000  0.999588  0.307711  1
  Pd  Pd24  1  0.000000  0.999588  0.692289  1
  Pt  Pt25  1  0.264239  0.500165  0.000000  1
  Pt  Pt26  1  0.735761  0.500165  0.000000  1
  Pt  Pt27  1  0.000000  0.264652  0.500000  1
  Pt  Pt28  1  0.500000  0.264198  0.000000  1
  Pt  Pt29  1  0.254357  0.500008  0.500000  1
  Pt  Pt30  1  0.745643  0.500008  0.500000  1
  Pt  Pt31  1  0.500000  0.254253  0.500000  1
  Pt  Pt32  1  0.500000  0.745470  0.500000  1
