# generated using pymatgen
data_Y4Tm6OsRh3
_symmetry_space_group_name_H-M   'P 1'
_cell_length_a   6.42578573
_cell_length_b   7.24294009
_cell_length_c   8.40867900
_cell_angle_alpha   96.86350727
_cell_angle_beta   112.19565734
_cell_angle_gamma   89.99489052
_symmetry_Int_Tables_number   1
_chemical_formula_structural   Y4Tm6OsRh3
_chemical_formula_sum   'Y4 Tm6 Os1 Rh3'
_cell_volume   359.32450530
_cell_formula_units_Z   1
loop_
 _symmetry_equiv_pos_site_id
 _symmetry_equiv_pos_as_xyz
  1  'x, y, z'
loop_
 _atom_site_type_symbol
 _atom_site_label
 _atom_site_symmetry_multiplicity
 _atom_site_fract_x
 _atom_site_fract_y
 _atom_site_fract_z
 _atom_site_occupancy
  Y  Y0  1  0.973923  0.918633  0.190458  1
  Y  Y1  1  0.786655  0.580585  0.817579  1
  Y  Y2  1  0.025100  0.080977  0.811540  1
  Y  Y3  1  0.214259  0.419831  0.190000  1
  Tm  Tm4  1  0.650081  0.813043  0.436475  1
  Tm  Tm5  1  0.203179  0.683777  0.558025  1
  Tm  Tm6  1  0.353539  0.183878  0.562088  1
  Tm  Tm7  1  0.791509  0.317998  0.437421  1
  Tm  Tm8  1  0.425156  0.749227  0.000957  1
  Tm  Tm9  1  0.576962  0.251007  0.000956  1
  Os  Os10  1  0.818384  0.573860  0.216727  1
  Rh  Rh11  1  0.593975  0.927930  0.775438  1
  Rh  Rh12  1  0.183209  0.426146  0.779193  1
  Rh  Rh13  1  0.404069  0.073107  0.223143  1
