# generated using pymatgen
data_Lu3PaAl17GaIr6
_symmetry_space_group_name_H-M   'P 1'
_cell_length_a   7.54505645
_cell_length_b   7.54011646
_cell_length_c   9.38866700
_cell_angle_alpha   90.00000000
_cell_angle_beta   90.00000000
_cell_angle_gamma   119.51090945
_symmetry_Int_Tables_number   1
_chemical_formula_structural   Lu3PaAl17GaIr6
_chemical_formula_sum   'Lu3 Pa1 Al17 Ga1 Ir6'
_cell_volume   464.83033555
_cell_formula_units_Z   1
loop_
 _symmetry_equiv_pos_site_id
 _symmetry_equiv_pos_as_xyz
  1  'x, y, z'
loop_
 _atom_site_type_symbol
 _atom_site_label
 _atom_site_symmetry_multiplicity
 _atom_site_fract_x
 _atom_site_fract_y
 _atom_site_fract_z
 _atom_site_occupancy
  Lu  Lu0  1  0.004470  0.327965  0.750000  1
  Lu  Lu1  1  0.675391  0.994309  0.250000  1
  Lu  Lu2  1  0.328474  0.004292  0.750000  1
  Pa  Pa3  1  0.994852  0.674138  0.250000  1
  Al  Al4  1  0.872047  0.873968  0.750000  1
  Al  Al5  1  0.000837  0.332455  0.074468  1
  Al  Al6  1  0.999450  0.664063  0.919088  1
  Al  Al7  1  0.999450  0.664063  0.580912  1
  Al  Al8  1  0.340105  0.004095  0.425560  1
  Al  Al9  1  0.000837  0.332455  0.425532  1
  Al  Al10  1  0.664586  0.000472  0.576927  1
  Al  Al11  1  0.664586  0.000472  0.923073  1
  Al  Al12  1  0.340105  0.004095  0.074440  1
  Al  Al13  1  0.331413  0.331619  0.560217  1
  Al  Al14  1  0.662063  0.665403  0.449247  1
  Al  Al15  1  0.662063  0.665403  0.050753  1
  Al  Al16  1  0.331413  0.331619  0.939783  1
  Al  Al17  1  0.339487  0.549061  0.250000  1
  Al  Al18  1  0.659295  0.448351  0.750000  1
  Al  Al19  1  0.547830  0.339828  0.250000  1
  Al  Al20  1  0.449370  0.661385  0.750000  1
  Ga  Ga21  1  0.136610  0.136296  0.250000  1
  Ir  Ir22  1  0.673476  0.329145  0.001733  1
  Ir  Ir23  1  0.325383  0.671664  0.001681  1
  Ir  Ir24  1  0.325383  0.671664  0.498319  1
  Ir  Ir25  1  0.673476  0.329145  0.498267  1
  Ir  Ir26  1  0.998775  0.996288  0.000872  1
  Ir  Ir27  1  0.998775  0.996288  0.499128  1
