# generated using pymatgen
data_TbNd2Tm5(CdIr)2
_symmetry_space_group_name_H-M   'P 1'
_cell_length_a   9.64205785
_cell_length_b   9.64159818
_cell_length_c   9.64159801
_cell_angle_alpha   60.00315847
_cell_angle_beta   59.99841879
_cell_angle_gamma   59.99842204
_symmetry_Int_Tables_number   1
_chemical_formula_structural   TbNd2Tm5(CdIr)2
_chemical_formula_sum   'Tb2 Nd4 Tm10 Cd4 Ir4'
_cell_volume   633.80079440
_cell_formula_units_Z   2
loop_
 _symmetry_equiv_pos_site_id
 _symmetry_equiv_pos_as_xyz
  1  'x, y, z'
loop_
 _atom_site_type_symbol
 _atom_site_label
 _atom_site_symmetry_multiplicity
 _atom_site_fract_x
 _atom_site_fract_y
 _atom_site_fract_z
 _atom_site_occupancy
  Tb  Tb0  1  0.943809  0.556191  0.556191  1
  Tb  Tb1  1  0.556191  0.943809  0.943809  1
  Nd  Nd2  1  0.559899  0.940101  0.559899  1
  Nd  Nd3  1  0.940101  0.559899  0.940101  1
  Nd  Nd4  1  0.559899  0.559899  0.940101  1
  Nd  Nd5  1  0.940101  0.940101  0.559899  1
  Tm  Tm6  1  0.347774  0.347167  0.347167  1
  Tm  Tm7  1  0.347167  0.347774  0.957893  1
  Tm  Tm8  1  0.347167  0.957893  0.347774  1
  Tm  Tm9  1  0.957893  0.347167  0.347167  1
  Tm  Tm10  1  0.813384  0.186616  0.186616  1
  Tm  Tm11  1  0.186616  0.813384  0.813384  1
  Tm  Tm12  1  0.187645  0.812355  0.187645  1
  Tm  Tm13  1  0.812355  0.187645  0.812355  1
  Tm  Tm14  1  0.187645  0.187645  0.812355  1
  Tm  Tm15  1  0.812355  0.812355  0.187645  1
  Cd  Cd16  1  0.581832  0.578966  0.578966  1
  Cd  Cd17  1  0.578966  0.581832  0.260234  1
  Cd  Cd18  1  0.578966  0.260234  0.581832  1
  Cd  Cd19  1  0.260234  0.578966  0.578966  1
  Ir  Ir20  1  0.143509  0.140360  0.140360  1
  Ir  Ir21  1  0.140360  0.143509  0.575772  1
  Ir  Ir22  1  0.140360  0.575772  0.143509  1
  Ir  Ir23  1  0.575772  0.140360  0.140360  1
