# generated using pymatgen
data_K4HfPtI12
_symmetry_space_group_name_H-M   'P 1'
_cell_length_a   8.01049500
_cell_length_b   8.01049500
_cell_length_c   11.88405700
_cell_angle_alpha   90.00000000
_cell_angle_beta   90.00000000
_cell_angle_gamma   90.00000000
_symmetry_Int_Tables_number   1
_chemical_formula_structural   K4HfPtI12
_chemical_formula_sum   'K4 Hf1 Pt1 I12'
_cell_volume   762.57652782
_cell_formula_units_Z   1
loop_
 _symmetry_equiv_pos_site_id
 _symmetry_equiv_pos_as_xyz
  1  'x, y, z'
loop_
 _atom_site_type_symbol
 _atom_site_label
 _atom_site_symmetry_multiplicity
 _atom_site_fract_x
 _atom_site_fract_y
 _atom_site_fract_z
 _atom_site_occupancy
  K  K0  1  0.500000  0.000000  0.755390  1
  K  K1  1  0.000000  0.500000  0.755390  1
  K  K2  1  0.500000  0.000000  0.244610  1
  K  K3  1  0.000000  0.500000  0.244610  1
  Hf  Hf4  1  0.500000  0.500000  0.500000  1
  Pt  Pt5  1  0.000000  0.000000  0.000000  1
  I  I6  1  0.715787  0.184741  0.000000  1
  I  I7  1  0.687241  0.197362  0.500000  1
  I  I8  1  0.312759  0.802638  0.500000  1
  I  I9  1  0.284213  0.815259  0.000000  1
  I  I10  1  0.802638  0.687241  0.500000  1
  I  I11  1  0.197362  0.312759  0.500000  1
  I  I12  1  0.000000  0.000000  0.228562  1
  I  I13  1  0.500000  0.500000  0.258224  1
  I  I14  1  0.000000  0.000000  0.771438  1
  I  I15  1  0.500000  0.500000  0.741776  1
  I  I16  1  0.815259  0.715787  0.000000  1
  I  I17  1  0.184741  0.284213  0.000000  1
