# generated using pymatgen
data_NdHo3Al18OsPt5
_symmetry_space_group_name_H-M   'P 1'
_cell_length_a   7.62576788
_cell_length_b   7.63168164
_cell_length_c   9.46414705
_cell_angle_alpha   90.03605599
_cell_angle_beta   90.06346959
_cell_angle_gamma   119.71625285
_symmetry_Int_Tables_number   1
_chemical_formula_structural   NdHo3Al18OsPt5
_chemical_formula_sum   'Nd1 Ho3 Al18 Os1 Pt5'
_cell_volume   478.35457286
_cell_formula_units_Z   1
loop_
 _symmetry_equiv_pos_site_id
 _symmetry_equiv_pos_as_xyz
  1  'x, y, z'
loop_
 _atom_site_type_symbol
 _atom_site_label
 _atom_site_symmetry_multiplicity
 _atom_site_fract_x
 _atom_site_fract_y
 _atom_site_fract_z
 _atom_site_occupancy
  Nd  Nd0  1  0.995659  0.670834  0.249617  1
  Ho  Ho1  1  0.005139  0.329865  0.751301  1
  Ho  Ho2  1  0.670281  0.995365  0.248600  1
  Ho  Ho3  1  0.329794  0.004511  0.751485  1
  Al  Al4  1  0.129897  0.133467  0.249174  1
  Al  Al5  1  0.869281  0.871429  0.750662  1
  Al  Al6  1  0.995475  0.332559  0.072955  1
  Al  Al7  1  0.995661  0.659183  0.923070  1
  Al  Al8  1  0.999460  0.666355  0.580416  1
  Al  Al9  1  0.335573  0.002821  0.424193  1
  Al  Al10  1  0.000676  0.333676  0.424895  1
  Al  Al11  1  0.665068  0.999985  0.578271  1
  Al  Al12  1  0.665813  0.004283  0.923841  1
  Al  Al13  1  0.341558  0.005230  0.072917  1
  Al  Al14  1  0.333074  0.333869  0.562450  1
  Al  Al15  1  0.664026  0.666585  0.442334  1
  Al  Al16  1  0.666701  0.661862  0.050322  1
  Al  Al17  1  0.337376  0.331339  0.944656  1
  Al  Al18  1  0.340063  0.546202  0.249239  1
  Al  Al19  1  0.659880  0.450803  0.753502  1
  Al  Al20  1  0.546202  0.337569  0.245876  1
  Al  Al21  1  0.454044  0.662505  0.750681  1
  Os  Os22  1  0.671169  0.326692  0.998795  1
  Pt  Pt23  1  0.328536  0.671251  0.998930  1
  Pt  Pt24  1  0.327581  0.672661  0.501033  1
  Pt  Pt25  1  0.671018  0.327151  0.500974  1
  Pt  Pt26  1  0.001176  0.000352  0.998857  1
  Pt  Pt27  1  0.999824  0.001598  0.500958  1
