# generated using pymatgen
data_Pr3HgIr2(RhO7)2
_symmetry_space_group_name_H-M   'P 1'
_cell_length_a   7.29429028
_cell_length_b   7.30092442
_cell_length_c   7.30092529
_cell_angle_alpha   61.78010953
_cell_angle_beta   61.86366528
_cell_angle_gamma   61.86366758
_symmetry_Int_Tables_number   1
_chemical_formula_structural   Pr3HgIr2(RhO7)2
_chemical_formula_sum   'Pr3 Hg1 Ir2 Rh2 O14'
_cell_volume   286.23345583
_cell_formula_units_Z   1
loop_
 _symmetry_equiv_pos_site_id
 _symmetry_equiv_pos_as_xyz
  1  'x, y, z'
loop_
 _atom_site_type_symbol
 _atom_site_label
 _atom_site_symmetry_multiplicity
 _atom_site_fract_x
 _atom_site_fract_y
 _atom_site_fract_z
 _atom_site_occupancy
  Pr  Pr0  1  0.125000  0.125000  0.625000  1
  Pr  Pr1  1  0.625000  0.125000  0.125000  1
  Pr  Pr2  1  0.125000  0.625000  0.125000  1
  Hg  Hg3  1  0.125000  0.125000  0.125000  1
  Ir  Ir4  1  0.625000  0.125000  0.625000  1
  Ir  Ir5  1  0.625000  0.625000  0.125000  1
  Rh  Rh6  1  0.625000  0.625000  0.625000  1
  Rh  Rh7  1  0.125000  0.625000  0.625000  1
  O  O8  1  0.959569  0.538056  0.538056  1
  O  O9  1  0.307668  0.299156  0.693744  1
  O  O10  1  0.942332  0.556256  0.950844  1
  O  O11  1  0.689378  0.305098  0.305098  1
  O  O12  1  0.543912  0.538946  0.958720  1
  O  O13  1  0.543912  0.958720  0.538946  1
  O  O14  1  0.560622  0.944902  0.944902  1
  O  O15  1  0.245376  0.243867  0.243867  1
  O  O16  1  0.290431  0.711944  0.711944  1
  O  O17  1  0.706088  0.291280  0.711054  1
  O  O18  1  0.004624  0.006133  0.006133  1
  O  O19  1  0.942332  0.950844  0.556256  1
  O  O20  1  0.307668  0.693744  0.299156  1
  O  O21  1  0.706088  0.711054  0.291280  1
