# generated using pymatgen
data_CaEu4Sn3
_symmetry_space_group_name_H-M   'P 1'
_cell_length_a   9.84723543
_cell_length_b   9.84723497
_cell_length_c   9.84723622
_cell_angle_alpha   130.15520471
_cell_angle_beta   130.15520667
_cell_angle_gamma   73.15876434
_symmetry_Int_Tables_number   1
_chemical_formula_structural   CaEu4Sn3
_chemical_formula_sum   'Ca2 Eu8 Sn6'
_cell_volume   544.63428422
_cell_formula_units_Z   2
loop_
 _symmetry_equiv_pos_site_id
 _symmetry_equiv_pos_as_xyz
  1  'x, y, z'
loop_
 _atom_site_type_symbol
 _atom_site_label
 _atom_site_symmetry_multiplicity
 _atom_site_fract_x
 _atom_site_fract_y
 _atom_site_fract_z
 _atom_site_occupancy
  Ca  Ca0  1  0.000000  0.000000  0.000000  1
  Ca  Ca1  1  0.500000  0.500000  0.000000  1
  Eu  Eu2  1  0.818634  0.318634  0.843805  1
  Eu  Eu3  1  0.181366  0.681366  0.156195  1
  Eu  Eu4  1  0.474829  0.974829  0.156195  1
  Eu  Eu5  1  0.318634  0.474829  0.500000  1
  Eu  Eu6  1  0.025171  0.181366  0.500000  1
  Eu  Eu7  1  0.525171  0.025171  0.843805  1
  Eu  Eu8  1  0.681366  0.525171  0.500000  1
  Eu  Eu9  1  0.974829  0.818634  0.500000  1
  Sn  Sn10  1  0.125538  0.625538  0.751076  1
  Sn  Sn11  1  0.874462  0.374462  0.248924  1
  Sn  Sn12  1  0.625538  0.874462  0.500000  1
  Sn  Sn13  1  0.374462  0.125538  0.500000  1
  Sn  Sn14  1  0.250000  0.250000  0.000000  1
  Sn  Sn15  1  0.750000  0.750000  0.000000  1
