# generated using pymatgen
data_SmCl30
_symmetry_space_group_name_H-M   'P 1'
_cell_length_a   13.25397349
_cell_length_b   13.25397320
_cell_length_c   15.68967605
_cell_angle_alpha   82.69802384
_cell_angle_beta   82.69802383
_cell_angle_gamma   120.65534627
_symmetry_Int_Tables_number   1
_chemical_formula_structural   SmCl30
_chemical_formula_sum   'Sm1 Cl30'
_cell_volume   2291.51811698
_cell_formula_units_Z   1
loop_
 _symmetry_equiv_pos_site_id
 _symmetry_equiv_pos_as_xyz
  1  'x, y, z'
loop_
 _atom_site_type_symbol
 _atom_site_label
 _atom_site_symmetry_multiplicity
 _atom_site_fract_x
 _atom_site_fract_y
 _atom_site_fract_z
 _atom_site_occupancy
  Sm  Sm0  1  0.000000  0.000000  0.000000  1
  Cl  Cl1  1  0.936662  0.936662  0.180687  1
  Cl  Cl2  1  0.063338  0.063338  0.819313  1
  Cl  Cl3  1  0.117610  0.235101  0.006317  1
  Cl  Cl4  1  0.882390  0.764899  0.993683  1
  Cl  Cl5  1  0.235101  0.117610  0.006317  1
  Cl  Cl6  1  0.764899  0.882390  0.993683  1
  Cl  Cl7  1  0.198286  0.743140  0.065934  1
  Cl  Cl8  1  0.801714  0.256860  0.934066  1
  Cl  Cl9  1  0.689461  0.084750  0.260886  1
  Cl  Cl10  1  0.256860  0.801714  0.934066  1
  Cl  Cl11  1  0.310539  0.915250  0.739114  1
  Cl  Cl12  1  0.743140  0.198286  0.065934  1
  Cl  Cl13  1  0.981211  0.204323  0.769783  1
  Cl  Cl14  1  0.915250  0.310539  0.739114  1
  Cl  Cl15  1  0.018789  0.795677  0.230217  1
  Cl  Cl16  1  0.084750  0.689461  0.260886  1
  Cl  Cl17  1  0.795677  0.018789  0.230217  1
  Cl  Cl18  1  0.204323  0.981211  0.769783  1
  Cl  Cl19  1  0.464925  0.551326  0.262551  1
  Cl  Cl20  1  0.535075  0.448674  0.737449  1
  Cl  Cl21  1  0.509392  0.205895  0.450089  1
  Cl  Cl22  1  0.448674  0.535075  0.737449  1
  Cl  Cl23  1  0.490608  0.794105  0.549911  1
  Cl  Cl24  1  0.551326  0.464925  0.262551  1
  Cl  Cl25  1  0.240840  0.428876  0.547572  1
  Cl  Cl26  1  0.794105  0.490608  0.549911  1
  Cl  Cl27  1  0.759160  0.571124  0.452428  1
  Cl  Cl28  1  0.205895  0.509392  0.450089  1
  Cl  Cl29  1  0.571124  0.759160  0.452428  1
  Cl  Cl30  1  0.428876  0.240840  0.547572  1
