# generated using pymatgen
data_Eu2ZrCrO6
_symmetry_space_group_name_H-M   'P 1'
_cell_length_a   5.62471608
_cell_length_b   5.73829900
_cell_length_c   8.01471186
_cell_angle_alpha   90.00000000
_cell_angle_beta   90.09777334
_cell_angle_gamma   90.00000000
_symmetry_Int_Tables_number   1
_chemical_formula_structural   Eu2ZrCrO6
_chemical_formula_sum   'Eu4 Zr2 Cr2 O12'
_cell_volume   258.68488942
_cell_formula_units_Z   2
loop_
 _symmetry_equiv_pos_site_id
 _symmetry_equiv_pos_as_xyz
  1  'x, y, z'
loop_
 _atom_site_type_symbol
 _atom_site_label
 _atom_site_symmetry_multiplicity
 _atom_site_fract_x
 _atom_site_fract_y
 _atom_site_fract_z
 _atom_site_occupancy
  Eu  Eu0  1  0.509424  0.543727  0.249133  1
  Eu  Eu1  1  0.990576  0.043727  0.250867  1
  Eu  Eu2  1  0.490576  0.456273  0.750867  1
  Eu  Eu3  1  0.009424  0.956273  0.749133  1
  Zr  Zr4  1  0.000000  0.500000  0.000000  1
  Zr  Zr5  1  0.500000  0.000000  0.500000  1
  Cr  Cr6  1  0.000000  0.500000  0.500000  1
  Cr  Cr7  1  0.500000  0.000000  0.000000  1
  O  O8  1  0.409749  0.971564  0.244681  1
  O  O9  1  0.090251  0.471564  0.255319  1
  O  O10  1  0.590251  0.028436  0.755319  1
  O  O11  1  0.909749  0.528436  0.744681  1
  O  O12  1  0.790066  0.798680  0.047740  1
  O  O13  1  0.709934  0.298680  0.452260  1
  O  O14  1  0.198647  0.209533  0.546827  1
  O  O15  1  0.301353  0.709533  0.953173  1
  O  O16  1  0.209934  0.201320  0.952260  1
  O  O17  1  0.290066  0.701320  0.547740  1
  O  O18  1  0.801353  0.790467  0.453173  1
  O  O19  1  0.698647  0.290467  0.046827  1
