# generated using pymatgen
data_Tb6Zn4Pd4Pt9
_symmetry_space_group_name_H-M   'P 1'
_cell_length_a   8.28258992
_cell_length_b   8.27136082
_cell_length_c   8.27136133
_cell_angle_alpha   109.35997149
_cell_angle_beta   109.44077650
_cell_angle_gamma   109.44078175
_symmetry_Int_Tables_number   1
_chemical_formula_structural   Tb6Zn4Pd4Pt9
_chemical_formula_sum   'Tb6 Zn4 Pd4 Pt9'
_cell_volume   437.13661387
_cell_formula_units_Z   1
loop_
 _symmetry_equiv_pos_site_id
 _symmetry_equiv_pos_as_xyz
  1  'x, y, z'
loop_
 _atom_site_type_symbol
 _atom_site_label
 _atom_site_symmetry_multiplicity
 _atom_site_fract_x
 _atom_site_fract_y
 _atom_site_fract_z
 _atom_site_occupancy
  Tb  Tb0  1  0.699231  0.699181  0.001120  1
  Tb  Tb1  1  0.300402  0.999058  0.301059  1
  Tb  Tb2  1  0.999902  0.300530  0.300530  1
  Tb  Tb3  1  0.300402  0.301059  0.999058  1
  Tb  Tb4  1  0.699231  0.001120  0.699181  1
  Tb  Tb5  1  0.001567  0.699938  0.699938  1
  Zn  Zn6  1  0.999424  0.999374  0.499585  1
  Zn  Zn7  1  0.999424  0.499585  0.999374  1
  Zn  Zn8  1  0.500021  0.999977  0.999977  1
  Zn  Zn9  1  0.500055  0.500004  0.500004  1
  Pd  Pd10  1  0.666570  0.333859  0.333859  1
  Pd  Pd11  1  0.666594  0.666170  0.333803  1
  Pd  Pd12  1  0.666594  0.333803  0.666170  1
  Pd  Pd13  1  0.333519  0.666608  0.666608  1
  Pt  Pt14  1  0.333508  0.333543  0.665695  1
  Pt  Pt15  1  0.667195  0.000491  0.333120  1
  Pt  Pt16  1  0.999679  0.666709  0.333212  1
  Pt  Pt17  1  0.667195  0.333120  0.000491  1
  Pt  Pt18  1  0.333508  0.665695  0.333543  1
  Pt  Pt19  1  0.999679  0.333212  0.666709  1
  Pt  Pt20  1  0.333285  0.667341  0.000060  1
  Pt  Pt21  1  0.333285  0.000060  0.667341  1
  Pt  Pt22  1  0.999729  0.999561  0.999561  1
