# generated using pymatgen
data_Tb2Al9OsRu4
_symmetry_space_group_name_H-M   'P 1'
_cell_length_a   7.99875532
_cell_length_b   7.99875467
_cell_length_c   7.99875450
_cell_angle_alpha   134.51911385
_cell_angle_beta   134.51911039
_cell_angle_gamma   66.27831737
_symmetry_Int_Tables_number   1
_chemical_formula_structural   Tb2Al9OsRu4
_chemical_formula_sum   'Tb2 Al9 Os1 Ru4'
_cell_volume   256.12922996
_cell_formula_units_Z   1
loop_
 _symmetry_equiv_pos_site_id
 _symmetry_equiv_pos_as_xyz
  1  'x, y, z'
loop_
 _atom_site_type_symbol
 _atom_site_label
 _atom_site_symmetry_multiplicity
 _atom_site_fract_x
 _atom_site_fract_y
 _atom_site_fract_z
 _atom_site_occupancy
  Tb  Tb0  1  0.000000  0.500000  0.500000  1
  Tb  Tb1  1  0.500000  0.000000  0.500000  1
  Al  Al2  1  0.439785  0.861709  0.000000  1
  Al  Al3  1  0.138291  0.138291  0.578076  1
  Al  Al4  1  0.861709  0.439785  0.000000  1
  Al  Al5  1  0.861709  0.861709  0.421924  1
  Al  Al6  1  0.560215  0.138291  0.000000  1
  Al  Al7  1  0.138291  0.560215  0.000000  1
  Al  Al8  1  0.560215  0.560215  0.421924  1
  Al  Al9  1  0.000000  0.000000  0.000000  1
  Al  Al10  1  0.439785  0.439785  0.578076  1
  Os  Os11  1  0.500000  0.500000  0.000000  1
  Ru  Ru12  1  0.182349  0.182349  0.000000  1
  Ru  Ru13  1  0.817651  0.817651  0.000000  1
  Ru  Ru14  1  0.250000  0.750000  0.500000  1
  Ru  Ru15  1  0.750000  0.250000  0.500000  1
