# generated using pymatgen
data_LiHo2(P3Pd10)2
_symmetry_space_group_name_H-M   'P 1'
_cell_length_a   8.63444773
_cell_length_b   8.63444765
_cell_length_c   8.63444800
_cell_angle_alpha   59.99999867
_cell_angle_beta   59.99999895
_cell_angle_gamma   60.00000123
_symmetry_Int_Tables_number   1
_chemical_formula_structural   LiHo2(P3Pd10)2
_chemical_formula_sum   'Li1 Ho2 P6 Pd20'
_cell_volume   455.18579679
_cell_formula_units_Z   1
loop_
 _symmetry_equiv_pos_site_id
 _symmetry_equiv_pos_as_xyz
  1  'x, y, z'
loop_
 _atom_site_type_symbol
 _atom_site_label
 _atom_site_symmetry_multiplicity
 _atom_site_fract_x
 _atom_site_fract_y
 _atom_site_fract_z
 _atom_site_occupancy
  Li  Li0  1  0.000000  0.000000  0.000000  1
  Ho  Ho1  1  0.250000  0.250000  0.250000  1
  Ho  Ho2  1  0.750000  0.750000  0.750000  1
  P  P3  1  0.739752  0.260248  0.260248  1
  P  P4  1  0.260248  0.739752  0.739752  1
  P  P5  1  0.260248  0.739752  0.260248  1
  P  P6  1  0.739752  0.260248  0.739752  1
  P  P7  1  0.260248  0.260248  0.739752  1
  P  P8  1  0.739752  0.739752  0.260248  1
  Pd  Pd9  1  0.384661  0.384661  0.384661  1
  Pd  Pd10  1  0.615339  0.615339  0.615339  1
  Pd  Pd11  1  0.384661  0.384661  0.846018  1
  Pd  Pd12  1  0.384661  0.846018  0.384661  1
  Pd  Pd13  1  0.615339  0.615339  0.153982  1
  Pd  Pd14  1  0.615339  0.153982  0.615339  1
  Pd  Pd15  1  0.846018  0.384661  0.384661  1
  Pd  Pd16  1  0.153982  0.615339  0.615339  1
  Pd  Pd17  1  0.345204  0.000000  0.000000  1
  Pd  Pd18  1  0.654796  0.000000  0.000000  1
  Pd  Pd19  1  0.000000  0.345204  0.654796  1
  Pd  Pd20  1  0.000000  0.654796  0.345204  1
  Pd  Pd21  1  0.000000  0.345204  0.000000  1
  Pd  Pd22  1  0.654796  0.000000  0.345204  1
  Pd  Pd23  1  0.000000  0.654796  0.000000  1
  Pd  Pd24  1  0.345204  0.000000  0.654796  1
  Pd  Pd25  1  0.000000  0.000000  0.345204  1
  Pd  Pd26  1  0.000000  0.000000  0.654796  1
  Pd  Pd27  1  0.654796  0.345204  0.000000  1
  Pd  Pd28  1  0.345204  0.654796  0.000000  1
