# generated using pymatgen
data_Nd2Al20ReOsRh2
_symmetry_space_group_name_H-M   'P 1'
_cell_length_a   6.90933236
_cell_length_b   6.90455773
_cell_length_c   9.22741791
_cell_angle_alpha   90.56321790
_cell_angle_beta   90.43416310
_cell_angle_gamma   96.93039645
_symmetry_Int_Tables_number   1
_chemical_formula_structural   Nd2Al20ReOsRh2
_chemical_formula_sum   'Nd2 Al20 Re1 Os1 Rh2'
_cell_volume   436.94763619
_cell_formula_units_Z   1
loop_
 _symmetry_equiv_pos_site_id
 _symmetry_equiv_pos_as_xyz
  1  'x, y, z'
loop_
 _atom_site_type_symbol
 _atom_site_label
 _atom_site_symmetry_multiplicity
 _atom_site_fract_x
 _atom_site_fract_y
 _atom_site_fract_z
 _atom_site_occupancy
  Nd  Nd0  1  0.873993  0.128649  0.750619  1
  Nd  Nd1  1  0.126007  0.871351  0.249381  1
  Al  Al2  1  0.619994  0.377178  0.549271  1
  Al  Al3  1  0.380006  0.622822  0.450729  1
  Al  Al4  1  0.377024  0.619734  0.049108  1
  Al  Al5  1  0.622976  0.380266  0.950892  1
  Al  Al6  1  0.224413  0.224176  0.500461  1
  Al  Al7  1  0.775587  0.775824  0.499539  1
  Al  Al8  1  0.774955  0.775187  0.999396  1
  Al  Al9  1  0.225045  0.224813  0.000604  1
  Al  Al10  1  0.841643  0.159915  0.102351  1
  Al  Al11  1  0.158357  0.840085  0.897649  1
  Al  Al12  1  0.160390  0.842060  0.602798  1
  Al  Al13  1  0.839610  0.157940  0.397202  1
  Al  Al14  1  0.856958  0.589991  0.749551  1
  Al  Al15  1  0.143042  0.410009  0.250449  1
  Al  Al16  1  0.409438  0.142066  0.750096  1
  Al  Al17  1  0.590562  0.857934  0.249904  1
  Al  Al18  1  0.221197  0.481911  0.753256  1
  Al  Al19  1  0.778803  0.518089  0.246744  1
  Al  Al20  1  0.517879  0.778992  0.745649  1
  Al  Al21  1  0.482121  0.221008  0.254351  1
  Re  Re22  1  0.000000  0.500000  0.000000  1
  Os  Os23  1  0.500000  0.000000  0.500000  1
  Rh  Rh24  1  0.000000  0.500000  0.500000  1
  Rh  Rh25  1  0.500000  0.000000  0.000000  1
