# generated using pymatgen
data_Nd4Ga18(PdRu)3
_symmetry_space_group_name_H-M   'P 1'
_cell_length_a   7.68294129
_cell_length_b   7.68294034
_cell_length_c   9.72220349
_cell_angle_alpha   89.95235948
_cell_angle_beta   89.95236015
_cell_angle_gamma   119.80684229
_symmetry_Int_Tables_number   1
_chemical_formula_structural   Nd4Ga18(PdRu)3
_chemical_formula_sum   'Nd4 Ga18 Pd3 Ru3'
_cell_volume   497.95687762
_cell_formula_units_Z   1
loop_
 _symmetry_equiv_pos_site_id
 _symmetry_equiv_pos_as_xyz
  1  'x, y, z'
loop_
 _atom_site_type_symbol
 _atom_site_label
 _atom_site_symmetry_multiplicity
 _atom_site_fract_x
 _atom_site_fract_y
 _atom_site_fract_z
 _atom_site_occupancy
  Nd  Nd0  1  0.996173  0.669159  0.250427  1
  Nd  Nd1  1  0.001702  0.329377  0.749514  1
  Nd  Nd2  1  0.670623  0.998298  0.250486  1
  Nd  Nd3  1  0.330841  0.003827  0.749573  1
  Ga  Ga4  1  0.133537  0.131583  0.250044  1
  Ga  Ga5  1  0.868417  0.866463  0.749956  1
  Ga  Ga6  1  0.008996  0.339251  0.077950  1
  Ga  Ga7  1  0.001725  0.665445  0.922554  1
  Ga  Ga8  1  0.998207  0.660519  0.575158  1
  Ga  Ga9  1  0.339481  0.001793  0.424842  1
  Ga  Ga10  1  0.003235  0.339652  0.423994  1
  Ga  Ga11  1  0.660348  0.996765  0.576006  1
  Ga  Ga12  1  0.660749  0.991004  0.922050  1
  Ga  Ga13  1  0.334555  0.998275  0.077446  1
  Ga  Ga14  1  0.341838  0.341936  0.558941  1
  Ga  Ga15  1  0.658064  0.658162  0.441059  1
  Ga  Ga16  1  0.657666  0.663102  0.062311  1
  Ga  Ga17  1  0.336898  0.342334  0.937689  1
  Ga  Ga18  1  0.336897  0.548709  0.250725  1
  Ga  Ga19  1  0.664322  0.456432  0.745733  1
  Ga  Ga20  1  0.543568  0.335678  0.254267  1
  Ga  Ga21  1  0.451291  0.663103  0.749275  1
  Pd  Pd22  1  0.672012  0.327988  0.000000  1
  Pd  Pd23  1  0.000402  0.999598  0.000000  1
  Pd  Pd24  1  0.999781  0.000219  0.500000  1
  Ru  Ru25  1  0.328232  0.671768  0.000000  1
  Ru  Ru26  1  0.327838  0.672162  0.500000  1
  Ru  Ru27  1  0.672601  0.327399  0.500000  1
