# generated using pymatgen
data_Ta2Ti6Al15Ir7
_symmetry_space_group_name_H-M   'P 1'
_cell_length_a   8.66389482
_cell_length_b   8.66488289
_cell_length_c   8.66389408
_cell_angle_alpha   120.00426206
_cell_angle_beta   119.92684034
_cell_angle_gamma   90.05641834
_symmetry_Int_Tables_number   1
_chemical_formula_structural   Ta2Ti6Al15Ir7
_chemical_formula_sum   'Ta2 Ti6 Al15 Ir7'
_cell_volume   460.16331210
_cell_formula_units_Z   1
loop_
 _symmetry_equiv_pos_site_id
 _symmetry_equiv_pos_as_xyz
  1  'x, y, z'
loop_
 _atom_site_type_symbol
 _atom_site_label
 _atom_site_symmetry_multiplicity
 _atom_site_fract_x
 _atom_site_fract_y
 _atom_site_fract_z
 _atom_site_occupancy
  Ta  Ta0  1  0.796432  0.294112  0.083919  1
  Ta  Ta1  1  0.210192  0.294112  0.497680  1
  Ti  Ti2  1  0.207154  0.705087  0.497933  1
  Ti  Ti3  1  0.217923  0.716736  0.927009  1
  Ti  Ti4  1  0.789726  0.716736  0.498811  1
  Ti  Ti5  1  0.785196  0.282006  0.496811  1
  Ti  Ti6  1  0.379171  0.123885  0.744714  1
  Ti  Ti7  1  0.379561  0.636056  0.256495  1
  Al  Al8  1  0.996608  0.506926  0.510318  1
  Al  Al9  1  0.158357  0.340484  0.182125  1
  Al  Al10  1  0.154058  0.963978  0.809920  1
  Al  Al11  1  0.151467  0.345219  0.808164  1
  Al  Al12  1  0.537054  0.345219  0.193752  1
  Al  Al13  1  0.845518  0.652716  0.807200  1
  Al  Al14  1  0.841389  0.026586  0.185196  1
  Al  Al15  1  0.840923  0.658144  0.184778  1
  Al  Al16  1  0.473366  0.658144  0.817222  1
  Al  Al17  1  0.379415  0.120661  0.257624  1
  Al  Al18  1  0.863038  0.120661  0.741245  1
  Al  Al19  1  0.621139  0.878819  0.257680  1
  Al  Al20  1  0.621475  0.363874  0.742398  1
  Al  Al21  1  0.621175  0.877811  0.742166  1
  Al  Al22  1  0.135644  0.877811  0.256636  1
  Ir  Ir23  1  0.001289  0.999558  0.501288  1
  Ir  Ir24  1  0.498270  0.999558  0.998269  1
  Ir  Ir25  1  0.497167  0.497557  0.000390  1
  Ir  Ir26  1  0.497592  0.499225  0.498437  1
  Ir  Ir27  1  0.000789  0.499225  0.001635  1
  Ir  Ir28  1  0.999855  0.999720  0.999865  1
  Ir  Ir29  1  0.499051  0.999370  0.500319  1
