# generated using pymatgen
data_Pr2Y3Bi3Pb
_symmetry_space_group_name_H-M   'P 1'
_cell_length_a   8.39099400
_cell_length_b   8.37231200
_cell_length_c   15.66446200
_cell_angle_alpha   90.00000000
_cell_angle_beta   90.00000000
_cell_angle_gamma   90.00000000
_symmetry_Int_Tables_number   1
_chemical_formula_structural   Pr2Y3Bi3Pb
_chemical_formula_sum   'Pr8 Y12 Bi12 Pb4'
_cell_volume   1100.46009392
_cell_formula_units_Z   4
loop_
 _symmetry_equiv_pos_site_id
 _symmetry_equiv_pos_as_xyz
  1  'x, y, z'
loop_
 _atom_site_type_symbol
 _atom_site_label
 _atom_site_symmetry_multiplicity
 _atom_site_fract_x
 _atom_site_fract_y
 _atom_site_fract_z
 _atom_site_occupancy
  Pr  Pr0  1  0.475012  0.679222  0.595787  1
  Pr  Pr1  1  0.975012  0.820778  0.904213  1
  Pr  Pr2  1  0.524988  0.320778  0.095787  1
  Pr  Pr3  1  0.024988  0.179222  0.404213  1
  Pr  Pr4  1  0.524988  0.320778  0.404213  1
  Pr  Pr5  1  0.024988  0.179222  0.095787  1
  Pr  Pr6  1  0.475012  0.679222  0.904213  1
  Pr  Pr7  1  0.975012  0.820778  0.595787  1
  Y  Y8  1  0.641088  0.150858  0.623718  1
  Y  Y9  1  0.141088  0.349142  0.876282  1
  Y  Y10  1  0.358912  0.849142  0.123718  1
  Y  Y11  1  0.858912  0.650858  0.376282  1
  Y  Y12  1  0.358912  0.849142  0.376282  1
  Y  Y13  1  0.858912  0.650858  0.123718  1
  Y  Y14  1  0.641088  0.150858  0.876282  1
  Y  Y15  1  0.141088  0.349142  0.623718  1
  Y  Y16  1  0.808350  0.503903  0.750000  1
  Y  Y17  1  0.308350  0.996097  0.750000  1
  Y  Y18  1  0.191650  0.496097  0.250000  1
  Y  Y19  1  0.691650  0.003903  0.250000  1
  Bi  Bi20  1  0.707040  0.958606  0.453896  1
  Bi  Bi21  1  0.207040  0.541394  0.046104  1
  Bi  Bi22  1  0.292960  0.041394  0.953896  1
  Bi  Bi23  1  0.792960  0.458606  0.546104  1
  Bi  Bi24  1  0.292960  0.041394  0.546104  1
  Bi  Bi25  1  0.792960  0.458606  0.953896  1
  Bi  Bi26  1  0.707040  0.958606  0.046104  1
  Bi  Bi27  1  0.207040  0.541394  0.453896  1
  Bi  Bi28  1  0.443910  0.370681  0.750000  1
  Bi  Bi29  1  0.943910  0.129319  0.750000  1
  Bi  Bi30  1  0.556090  0.629319  0.250000  1
  Bi  Bi31  1  0.056090  0.870681  0.250000  1
  Pb  Pb32  1  0.659845  0.845310  0.750000  1
  Pb  Pb33  1  0.159845  0.654690  0.750000  1
  Pb  Pb34  1  0.340155  0.154690  0.250000  1
  Pb  Pb35  1  0.840155  0.345310  0.250000  1
