# generated using pymatgen
data_NdTl2P2Se7
_symmetry_space_group_name_H-M   'P 1'
_cell_length_a   7.29705100
_cell_length_b   9.68834807
_cell_length_c   21.27556900
_cell_angle_alpha   95.65988844
_cell_angle_beta   90.00000000
_cell_angle_gamma   90.00000000
_symmetry_Int_Tables_number   1
_chemical_formula_structural   NdTl2P2Se7
_chemical_formula_sum   'Nd4 Tl8 P8 Se28'
_cell_volume   1496.77276992
_cell_formula_units_Z   4
loop_
 _symmetry_equiv_pos_site_id
 _symmetry_equiv_pos_as_xyz
  1  'x, y, z'
loop_
 _atom_site_type_symbol
 _atom_site_label
 _atom_site_symmetry_multiplicity
 _atom_site_fract_x
 _atom_site_fract_y
 _atom_site_fract_z
 _atom_site_occupancy
  Nd  Nd0  1  0.535898  0.693828  0.349191  1
  Nd  Nd1  1  0.035898  0.806172  0.150809  1
  Nd  Nd2  1  0.464102  0.306172  0.650809  1
  Nd  Nd3  1  0.964102  0.193828  0.849191  1
  Tl  Tl4  1  0.519887  0.750923  0.993751  1
  Tl  Tl5  1  0.019887  0.749077  0.506249  1
  Tl  Tl6  1  0.480113  0.249077  0.006249  1
  Tl  Tl7  1  0.980113  0.250923  0.493751  1
  Tl  Tl8  1  0.943636  0.353624  0.173758  1
  Tl  Tl9  1  0.443636  0.146376  0.326242  1
  Tl  Tl10  1  0.056364  0.646376  0.826242  1
  Tl  Tl11  1  0.556364  0.853624  0.673758  1
  P  P12  1  0.010351  0.924067  0.956596  1
  P  P13  1  0.989649  0.075933  0.043404  1
  P  P14  1  0.489649  0.424067  0.456596  1
  P  P15  1  0.510351  0.575933  0.543404  1
  P  P16  1  0.509806  0.399842  0.827494  1
  P  P17  1  0.009806  0.100158  0.672506  1
  P  P18  1  0.490194  0.600158  0.172506  1
  P  P19  1  0.990194  0.899842  0.327494  1
  Se  Se20  1  0.960121  0.278012  0.005538  1
  Se  Se21  1  0.460121  0.221988  0.494462  1
  Se  Se22  1  0.039879  0.721988  0.994462  1
  Se  Se23  1  0.539879  0.778012  0.505538  1
  Se  Se24  1  0.747445  0.509571  0.597058  1
  Se  Se25  1  0.247445  0.990429  0.902942  1
  Se  Se26  1  0.252555  0.490429  0.402942  1
  Se  Se27  1  0.752555  0.009571  0.097058  1
  Se  Se28  1  0.759986  0.952456  0.900834  1
  Se  Se29  1  0.740014  0.452456  0.400834  1
  Se  Se30  1  0.259986  0.547544  0.599166  1
  Se  Se31  1  0.240014  0.047544  0.099166  1
  Se  Se32  1  0.731744  0.600367  0.106792  1
  Se  Se33  1  0.231744  0.899633  0.393208  1
  Se  Se34  1  0.268256  0.399633  0.893208  1
  Se  Se35  1  0.768256  0.100367  0.606792  1
  Se  Se36  1  0.754028  0.959300  0.391092  1
  Se  Se37  1  0.254028  0.540700  0.108908  1
  Se  Se38  1  0.245972  0.040699  0.608908  1
  Se  Se39  1  0.745972  0.459300  0.891092  1
  Se  Se40  1  0.959019  0.955985  0.745459  1
  Se  Se41  1  0.459019  0.544015  0.754541  1
  Se  Se42  1  0.040981  0.044015  0.254541  1
  Se  Se43  1  0.540981  0.455985  0.245459  1
  Se  Se44  1  0.913115  0.692846  0.277907  1
  Se  Se45  1  0.413115  0.807154  0.222093  1
  Se  Se46  1  0.086885  0.307154  0.722093  1
  Se  Se47  1  0.586885  0.192846  0.777907  1
