# generated using pymatgen
data_K4RbSb2Pt
_symmetry_space_group_name_H-M   'P 1'
_cell_length_a   10.30617331
_cell_length_b   10.30617302
_cell_length_c   10.30617435
_cell_angle_alpha   33.64558121
_cell_angle_beta   33.64558630
_cell_angle_gamma   33.64557563
_symmetry_Int_Tables_number   1
_chemical_formula_structural   K4RbSb2Pt
_chemical_formula_sum   'K4 Rb1 Sb2 Pt1'
_cell_volume   299.36607820
_cell_formula_units_Z   1
loop_
 _symmetry_equiv_pos_site_id
 _symmetry_equiv_pos_as_xyz
  1  'x, y, z'
loop_
 _atom_site_type_symbol
 _atom_site_label
 _atom_site_symmetry_multiplicity
 _atom_site_fract_x
 _atom_site_fract_y
 _atom_site_fract_z
 _atom_site_occupancy
  K  K0  1  0.361725  0.361725  0.361725  1
  K  K1  1  0.638275  0.638275  0.638275  1
  K  K2  1  0.220196  0.220196  0.220196  1
  K  K3  1  0.779804  0.779804  0.779804  1
  Rb  Rb4  1  0.500000  0.500000  0.500000  1
  Sb  Sb5  1  0.088996  0.088996  0.088996  1
  Sb  Sb6  1  0.911004  0.911004  0.911004  1
  Pt  Pt7  1  0.000000  0.000000  0.000000  1
