# generated using pymatgen
data_TmTaFe4P3
_symmetry_space_group_name_H-M   'P 1'
_cell_length_a   3.66189200
_cell_length_b   10.41596800
_cell_length_c   12.31979700
_cell_angle_alpha   90.00000000
_cell_angle_beta   90.00000000
_cell_angle_gamma   90.00000000
_symmetry_Int_Tables_number   1
_chemical_formula_structural   TmTaFe4P3
_chemical_formula_sum   'Tm4 Ta4 Fe16 P12'
_cell_volume   469.90354381
_cell_formula_units_Z   4
loop_
 _symmetry_equiv_pos_site_id
 _symmetry_equiv_pos_as_xyz
  1  'x, y, z'
loop_
 _atom_site_type_symbol
 _atom_site_label
 _atom_site_symmetry_multiplicity
 _atom_site_fract_x
 _atom_site_fract_y
 _atom_site_fract_z
 _atom_site_occupancy
  Tm  Tm0  1  0.250000  0.583268  0.713251  1
  Tm  Tm1  1  0.250000  0.916732  0.213251  1
  Tm  Tm2  1  0.750000  0.416732  0.286749  1
  Tm  Tm3  1  0.750000  0.083268  0.786749  1
  Ta  Ta4  1  0.250000  0.703992  0.992227  1
  Ta  Ta5  1  0.250000  0.796008  0.492227  1
  Ta  Ta6  1  0.750000  0.296008  0.007773  1
  Ta  Ta7  1  0.750000  0.203992  0.507773  1
  Fe  Fe8  1  0.250000  0.416593  0.491224  1
  Fe  Fe9  1  0.250000  0.083407  0.991224  1
  Fe  Fe10  1  0.750000  0.583407  0.508776  1
  Fe  Fe11  1  0.750000  0.916593  0.008776  1
  Fe  Fe12  1  0.250000  0.216365  0.170879  1
  Fe  Fe13  1  0.250000  0.283635  0.670879  1
  Fe  Fe14  1  0.750000  0.783635  0.829121  1
  Fe  Fe15  1  0.750000  0.716365  0.329121  1
  Fe  Fe16  1  0.250000  0.879340  0.697800  1
  Fe  Fe17  1  0.250000  0.620660  0.197800  1
  Fe  Fe18  1  0.750000  0.120660  0.302200  1
  Fe  Fe19  1  0.750000  0.379340  0.802200  1
  Fe  Fe20  1  0.250000  0.463907  0.933743  1
  Fe  Fe21  1  0.250000  0.036093  0.433743  1
  Fe  Fe22  1  0.750000  0.536093  0.066257  1
  Fe  Fe23  1  0.750000  0.963907  0.566257  1
  P  P24  1  0.250000  0.424667  0.114133  1
  P  P25  1  0.250000  0.075333  0.614133  1
  P  P26  1  0.750000  0.575333  0.885867  1
  P  P27  1  0.750000  0.924667  0.385867  1
  P  P28  1  0.250000  0.272179  0.854663  1
  P  P29  1  0.250000  0.227821  0.354663  1
  P  P30  1  0.750000  0.727821  0.145337  1
  P  P31  1  0.750000  0.772179  0.645337  1
  P  P32  1  0.250000  0.595755  0.375848  1
  P  P33  1  0.250000  0.904245  0.875848  1
  P  P34  1  0.750000  0.404245  0.624152  1
  P  P35  1  0.750000  0.095755  0.124152  1
