# generated using pymatgen
data_HoTm11(Si3Rh)4
_symmetry_space_group_name_H-M   'P 1'
_cell_length_a   4.17919700
_cell_length_b   10.57304198
_cell_length_c   12.19033278
_cell_angle_alpha   90.04623817
_cell_angle_beta   90.00000000
_cell_angle_gamma   90.00000000
_symmetry_Int_Tables_number   1
_chemical_formula_structural   HoTm11(Si3Rh)4
_chemical_formula_sum   'Ho1 Tm11 Si12 Rh4'
_cell_volume   538.65192956
_cell_formula_units_Z   1
loop_
 _symmetry_equiv_pos_site_id
 _symmetry_equiv_pos_as_xyz
  1  'x, y, z'
loop_
 _atom_site_type_symbol
 _atom_site_label
 _atom_site_symmetry_multiplicity
 _atom_site_fract_x
 _atom_site_fract_y
 _atom_site_fract_z
 _atom_site_occupancy
  Ho  Ho0  1  0.750000  0.159762  0.699021  1
  Tm  Tm1  1  0.250000  0.878982  0.020716  1
  Tm  Tm2  1  0.250000  0.620895  0.520192  1
  Tm  Tm3  1  0.750000  0.120890  0.979933  1
  Tm  Tm4  1  0.750000  0.379702  0.479368  1
  Tm  Tm5  1  0.250000  0.920425  0.603173  1
  Tm  Tm6  1  0.250000  0.579245  0.103690  1
  Tm  Tm7  1  0.750000  0.079169  0.396459  1
  Tm  Tm8  1  0.750000  0.421267  0.896719  1
  Tm  Tm9  1  0.250000  0.660913  0.800450  1
  Tm  Tm10  1  0.250000  0.839461  0.300539  1
  Tm  Tm11  1  0.750000  0.338759  0.199633  1
  Si  Si12  1  0.250000  0.014188  0.823130  1
  Si  Si13  1  0.250000  0.485073  0.322453  1
  Si  Si14  1  0.750000  0.985316  0.177395  1
  Si  Si15  1  0.750000  0.514972  0.677447  1
  Si  Si16  1  0.250000  0.248143  0.841942  1
  Si  Si17  1  0.250000  0.252149  0.341587  1
  Si  Si18  1  0.750000  0.752239  0.158313  1
  Si  Si19  1  0.750000  0.747905  0.658021  1
  Si  Si20  1  0.250000  0.198581  0.541057  1
  Si  Si21  1  0.250000  0.302241  0.042407  1
  Si  Si22  1  0.750000  0.801695  0.457647  1
  Si  Si23  1  0.750000  0.698192  0.958016  1
  Rh  Rh24  1  0.250000  0.391956  0.681653  1
  Rh  Rh25  1  0.250000  0.109057  0.181490  1
  Rh  Rh26  1  0.750000  0.608696  0.318253  1
  Rh  Rh27  1  0.750000  0.890126  0.819297  1
