# generated using pymatgen
data_Ac2La2YbSn4
_symmetry_space_group_name_H-M   'P 1'
_cell_length_a   8.43494000
_cell_length_b   8.76774500
_cell_length_c   16.47987300
_cell_angle_alpha   90.00000000
_cell_angle_beta   90.00000000
_cell_angle_gamma   90.00000000
_symmetry_Int_Tables_number   1
_chemical_formula_structural   Ac2La2YbSn4
_chemical_formula_sum   'Ac8 La8 Yb4 Sn16'
_cell_volume   1218.77564927
_cell_formula_units_Z   4
loop_
 _symmetry_equiv_pos_site_id
 _symmetry_equiv_pos_as_xyz
  1  'x, y, z'
loop_
 _atom_site_type_symbol
 _atom_site_label
 _atom_site_symmetry_multiplicity
 _atom_site_fract_x
 _atom_site_fract_y
 _atom_site_fract_z
 _atom_site_occupancy
  Ac  Ac0  1  0.506658  0.681452  0.597253  1
  Ac  Ac1  1  0.006658  0.818548  0.902747  1
  Ac  Ac2  1  0.493342  0.318548  0.097253  1
  Ac  Ac3  1  0.993342  0.181452  0.402747  1
  Ac  Ac4  1  0.493342  0.318548  0.402747  1
  Ac  Ac5  1  0.993342  0.181452  0.097253  1
  Ac  Ac6  1  0.506658  0.681452  0.902747  1
  Ac  Ac7  1  0.006658  0.818548  0.597253  1
  La  La8  1  0.664979  0.169755  0.624355  1
  La  La9  1  0.164979  0.330245  0.875645  1
  La  La10  1  0.335021  0.830245  0.124355  1
  La  La11  1  0.835021  0.669755  0.375645  1
  La  La12  1  0.335021  0.830245  0.375645  1
  La  La13  1  0.835021  0.669755  0.124355  1
  La  La14  1  0.664979  0.169755  0.875645  1
  La  La15  1  0.164979  0.330245  0.624355  1
  Yb  Yb16  1  0.827492  0.504010  0.750000  1
  Yb  Yb17  1  0.327492  0.995990  0.750000  1
  Yb  Yb18  1  0.172508  0.495990  0.250000  1
  Yb  Yb19  1  0.672508  0.004010  0.250000  1
  Sn  Sn20  1  0.670608  0.960639  0.460851  1
  Sn  Sn21  1  0.170608  0.539361  0.039149  1
  Sn  Sn22  1  0.329392  0.039361  0.960851  1
  Sn  Sn23  1  0.829392  0.460639  0.539149  1
  Sn  Sn24  1  0.329392  0.039361  0.539149  1
  Sn  Sn25  1  0.829392  0.460639  0.960851  1
  Sn  Sn26  1  0.670608  0.960639  0.039149  1
  Sn  Sn27  1  0.170608  0.539361  0.460851  1
  Sn  Sn28  1  0.465966  0.385547  0.750000  1
  Sn  Sn29  1  0.965966  0.114453  0.750000  1
  Sn  Sn30  1  0.534034  0.614453  0.250000  1
  Sn  Sn31  1  0.034034  0.885547  0.250000  1
  Sn  Sn32  1  0.703480  0.865954  0.750000  1
  Sn  Sn33  1  0.203480  0.634046  0.750000  1
  Sn  Sn34  1  0.296520  0.134046  0.250000  1
  Sn  Sn35  1  0.796520  0.365954  0.250000  1
