# generated using pymatgen
data_Zr5Fe15(P3Ru)4
_symmetry_space_group_name_H-M   'P 1'
_cell_length_a   11.86289363
_cell_length_b   11.87840932
_cell_length_c   3.69219600
_cell_angle_alpha   90.00000000
_cell_angle_beta   90.00000000
_cell_angle_gamma   119.75279306
_symmetry_Int_Tables_number   1
_chemical_formula_structural   Zr5Fe15(P3Ru)4
_chemical_formula_sum   'Zr5 Fe15 P12 Ru4'
_cell_volume   451.69029323
_cell_formula_units_Z   1
loop_
 _symmetry_equiv_pos_site_id
 _symmetry_equiv_pos_as_xyz
  1  'x, y, z'
loop_
 _atom_site_type_symbol
 _atom_site_label
 _atom_site_symmetry_multiplicity
 _atom_site_fract_x
 _atom_site_fract_y
 _atom_site_fract_z
 _atom_site_occupancy
  Zr  Zr0  1  0.662461  0.333723  0.000000  1
  Zr  Zr1  1  0.332094  0.666622  0.000000  1
  Zr  Zr2  1  0.815236  0.995010  0.500000  1
  Zr  Zr3  1  0.187559  0.186057  0.500000  1
  Zr  Zr4  1  0.999484  0.815741  0.500000  1
  Fe  Fe5  1  0.622625  0.801760  0.000000  1
  Fe  Fe6  1  0.184161  0.377516  0.000000  1
  Fe  Fe7  1  0.374913  0.180120  0.000000  1
  Fe  Fe8  1  0.193977  0.819447  0.000000  1
  Fe  Fe9  1  0.804739  0.623988  0.000000  1
  Fe  Fe10  1  0.876403  0.517756  0.500000  1
  Fe  Fe11  1  0.485017  0.359842  0.500000  1
  Fe  Fe12  1  0.635433  0.123604  0.500000  1
  Fe  Fe13  1  0.126585  0.642538  0.500000  1
  Fe  Fe14  1  0.360449  0.485489  0.500000  1
  Fe  Fe15  1  0.513378  0.872977  0.500000  1
  Fe  Fe16  1  0.998881  0.998520  0.000000  1
  Fe  Fe17  1  0.718332  0.717949  0.500000  1
  Fe  Fe18  1  0.005513  0.284021  0.500000  1
  Fe  Fe19  1  0.279878  0.000067  0.500000  1
  P  P20  1  0.630110  0.991806  0.000000  1
  P  P21  1  0.363727  0.362659  0.000000  1
  P  P22  1  0.000446  0.639150  0.000000  1
  P  P23  1  0.689498  0.520442  0.500000  1
  P  P24  1  0.832091  0.316773  0.500000  1
  P  P25  1  0.309898  0.831304  0.500000  1
  P  P26  1  0.519473  0.688070  0.500000  1
  P  P27  1  0.180134  0.000041  0.000000  1
  P  P28  1  0.818637  0.817893  0.000000  1
  P  P29  1  0.008318  0.182682  0.000000  1
  P  P30  1  0.477850  0.168938  0.500000  1
  P  P31  1  0.170909  0.481754  0.500000  1
  Ru  Ru32  1  0.441792  0.998137  0.000000  1
  Ru  Ru33  1  0.555665  0.554219  0.000000  1
  Ru  Ru34  1  0.006108  0.449939  0.000000  1
  Ru  Ru35  1  0.818227  0.193444  0.000000  1
