# generated using pymatgen
data_Ho4SiPt12
_symmetry_space_group_name_H-M   'P 1'
_cell_length_a   7.29713785
_cell_length_b   7.29713616
_cell_length_c   7.29713700
_cell_angle_alpha   109.47121465
_cell_angle_beta   109.47120994
_cell_angle_gamma   109.47122819
_symmetry_Int_Tables_number   1
_chemical_formula_structural   Ho4SiPt12
_chemical_formula_sum   'Ho4 Si1 Pt12'
_cell_volume   299.11325485
_cell_formula_units_Z   1
loop_
 _symmetry_equiv_pos_site_id
 _symmetry_equiv_pos_as_xyz
  1  'x, y, z'
loop_
 _atom_site_type_symbol
 _atom_site_label
 _atom_site_symmetry_multiplicity
 _atom_site_fract_x
 _atom_site_fract_y
 _atom_site_fract_z
 _atom_site_occupancy
  Ho  Ho0  1  0.000000  0.000000  0.500000  1
  Ho  Ho1  1  0.000000  0.500000  0.000000  1
  Ho  Ho2  1  0.500000  0.000000  0.000000  1
  Ho  Ho3  1  0.500000  0.500000  0.500000  1
  Si  Si4  1  0.000000  0.000000  0.000000  1
  Pt  Pt5  1  0.750000  0.250000  0.500000  1
  Pt  Pt6  1  0.750000  0.500000  0.250000  1
  Pt  Pt7  1  0.500000  0.250000  0.750000  1
  Pt  Pt8  1  0.250000  0.500000  0.750000  1
  Pt  Pt9  1  0.250000  0.750000  0.500000  1
  Pt  Pt10  1  0.500000  0.750000  0.250000  1
  Pt  Pt11  1  0.721957  0.721957  0.000000  1
  Pt  Pt12  1  0.278043  0.000000  0.278043  1
  Pt  Pt13  1  0.000000  0.278043  0.278043  1
  Pt  Pt14  1  0.278043  0.278043  0.000000  1
  Pt  Pt15  1  0.721957  0.000000  0.721957  1
  Pt  Pt16  1  0.000000  0.721957  0.721957  1
