# generated using pymatgen
data_HoEr3B16Mo3W
_symmetry_space_group_name_H-M   'P 1'
_cell_length_a   3.60995300
_cell_length_b   6.01643401
_cell_length_c   11.62418811
_cell_angle_alpha   89.99526375
_cell_angle_beta   90.00000000
_cell_angle_gamma   90.00000000
_symmetry_Int_Tables_number   1
_chemical_formula_structural   HoEr3B16Mo3W
_chemical_formula_sum   'Ho1 Er3 B16 Mo3 W1'
_cell_volume   252.46625222
_cell_formula_units_Z   1
loop_
 _symmetry_equiv_pos_site_id
 _symmetry_equiv_pos_as_xyz
  1  'x, y, z'
loop_
 _atom_site_type_symbol
 _atom_site_label
 _atom_site_symmetry_multiplicity
 _atom_site_fract_x
 _atom_site_fract_y
 _atom_site_fract_z
 _atom_site_occupancy
  Ho  Ho0  1  0.000000  0.627049  0.350542  1
  Er  Er1  1  0.000000  0.372761  0.649794  1
  Er  Er2  1  0.000000  0.127464  0.149438  1
  Er  Er3  1  0.000000  0.873095  0.850271  1
  B  B4  1  0.500000  0.787973  0.186683  1
  B  B5  1  0.500000  0.212727  0.813505  1
  B  B6  1  0.500000  0.286880  0.313541  1
  B  B7  1  0.500000  0.712656  0.686645  1
  B  B8  1  0.500000  0.867504  0.031660  1
  B  B9  1  0.500000  0.133094  0.967774  1
  B  B10  1  0.500000  0.367091  0.468232  1
  B  B11  1  0.500000  0.632706  0.532114  1
  B  B12  1  0.500000  0.885691  0.452464  1
  B  B13  1  0.500000  0.114593  0.547864  1
  B  B14  1  0.500000  0.385227  0.047412  1
  B  B15  1  0.500000  0.614209  0.952076  1
  B  B16  1  0.500000  0.976574  0.306192  1
  B  B17  1  0.500000  0.023897  0.694002  1
  B  B18  1  0.500000  0.475536  0.193704  1
  B  B19  1  0.500000  0.523510  0.806145  1
  Mo  Mo20  1  0.000000  0.369183  0.915521  1
  Mo  Mo21  1  0.000000  0.130168  0.416032  1
  Mo  Mo22  1  0.000000  0.869828  0.584129  1
  W  W23  1  0.000000  0.630587  0.084258  1
