# generated using pymatgen
data_LiTb2HoAg2Ge3
_symmetry_space_group_name_H-M   'P 1'
_cell_length_a   7.13139262
_cell_length_b   7.14598069
_cell_length_c   4.26068900
_cell_angle_alpha   90.00000000
_cell_angle_beta   90.00000000
_cell_angle_gamma   120.45241896
_symmetry_Int_Tables_number   1
_chemical_formula_structural   LiTb2HoAg2Ge3
_chemical_formula_sum   'Li1 Tb2 Ho1 Ag2 Ge3'
_cell_volume   187.17534901
_cell_formula_units_Z   1
loop_
 _symmetry_equiv_pos_site_id
 _symmetry_equiv_pos_as_xyz
  1  'x, y, z'
loop_
 _atom_site_type_symbol
 _atom_site_label
 _atom_site_symmetry_multiplicity
 _atom_site_fract_x
 _atom_site_fract_y
 _atom_site_fract_z
 _atom_site_occupancy
  Li  Li0  1  0.766856  0.766086  0.000000  1
  Tb  Tb1  1  0.415895  0.416448  0.500000  1
  Tb  Tb2  1  0.579907  0.002829  0.500000  1
  Ho  Ho3  1  0.002326  0.580286  0.500000  1
  Ag  Ag4  1  0.243694  0.996920  0.000000  1
  Ag  Ag5  1  0.997159  0.244228  0.000000  1
  Ge  Ge6  1  0.668759  0.341427  0.000000  1
  Ge  Ge7  1  0.337603  0.666012  0.000000  1
  Ge  Ge8  1  0.987801  0.985766  0.500000  1
