# generated using pymatgen
data_TlFe3(NO3)8
_symmetry_space_group_name_H-M   'P 1'
_cell_length_a   7.84275113
_cell_length_b   7.84275196
_cell_length_c   7.84275100
_cell_angle_alpha   88.20694219
_cell_angle_beta   88.20694200
_cell_angle_gamma   88.20694267
_symmetry_Int_Tables_number   1
_chemical_formula_structural   TlFe3(NO3)8
_chemical_formula_sum   'Tl1 Fe3 N8 O24'
_cell_volume   481.70367123
_cell_formula_units_Z   1
loop_
 _symmetry_equiv_pos_site_id
 _symmetry_equiv_pos_as_xyz
  1  'x, y, z'
loop_
 _atom_site_type_symbol
 _atom_site_label
 _atom_site_symmetry_multiplicity
 _atom_site_fract_x
 _atom_site_fract_y
 _atom_site_fract_z
 _atom_site_occupancy
  Tl  Tl0  1  0.000000  0.000000  0.000000  1
  Fe  Fe1  1  0.500000  0.500000  0.000000  1
  Fe  Fe2  1  0.000000  0.500000  0.500000  1
  Fe  Fe3  1  0.500000  0.000000  0.500000  1
  N  N4  1  0.355734  0.192044  0.827000  1
  N  N5  1  0.827000  0.355734  0.192044  1
  N  N6  1  0.192044  0.827000  0.355734  1
  N  N7  1  0.676538  0.676538  0.676538  1
  N  N8  1  0.644266  0.807956  0.173000  1
  N  N9  1  0.173000  0.644266  0.807956  1
  N  N10  1  0.807956  0.173000  0.644266  1
  N  N11  1  0.323462  0.323462  0.323462  1
  O  O12  1  0.478190  0.294078  0.818648  1
  O  O13  1  0.818648  0.478190  0.294078  1
  O  O14  1  0.294078  0.818648  0.478190  1
  O  O15  1  0.243603  0.207350  0.944985  1
  O  O16  1  0.345123  0.077045  0.718775  1
  O  O17  1  0.718775  0.345123  0.077045  1
  O  O18  1  0.682332  0.557612  0.789153  1
  O  O19  1  0.207350  0.944985  0.243603  1
  O  O20  1  0.789153  0.682332  0.557612  1
  O  O21  1  0.944985  0.243603  0.207350  1
  O  O22  1  0.557612  0.789153  0.682332  1
  O  O23  1  0.077045  0.718775  0.345123  1
  O  O24  1  0.521810  0.705922  0.181352  1
  O  O25  1  0.181352  0.521810  0.705922  1
  O  O26  1  0.705922  0.181352  0.521810  1
  O  O27  1  0.756397  0.792650  0.055015  1
  O  O28  1  0.654877  0.922955  0.281225  1
  O  O29  1  0.281225  0.654877  0.922955  1
  O  O30  1  0.317668  0.442388  0.210847  1
  O  O31  1  0.792650  0.055015  0.756397  1
  O  O32  1  0.210847  0.317668  0.442388  1
  O  O33  1  0.055015  0.756397  0.792650  1
  O  O34  1  0.442388  0.210847  0.317668  1
  O  O35  1  0.922955  0.281225  0.654877  1
