# generated using pymatgen
data_Pr4Zn8Cd3Hg
_symmetry_space_group_name_H-M   'P 1'
_cell_length_a   4.58250800
_cell_length_b   7.45506653
_cell_length_c   10.24150228
_cell_angle_alpha   89.86357441
_cell_angle_beta   90.00000000
_cell_angle_gamma   90.00000000
_symmetry_Int_Tables_number   1
_chemical_formula_structural   Pr4Zn8Cd3Hg
_chemical_formula_sum   'Pr4 Zn8 Cd3 Hg1'
_cell_volume   349.87844704
_cell_formula_units_Z   1
loop_
 _symmetry_equiv_pos_site_id
 _symmetry_equiv_pos_as_xyz
  1  'x, y, z'
loop_
 _atom_site_type_symbol
 _atom_site_label
 _atom_site_symmetry_multiplicity
 _atom_site_fract_x
 _atom_site_fract_y
 _atom_site_fract_z
 _atom_site_occupancy
  Pr  Pr0  1  0.250000  0.311677  0.673879  1
  Pr  Pr1  1  0.250000  0.813455  0.824627  1
  Pr  Pr2  1  0.750000  0.688426  0.328345  1
  Pr  Pr3  1  0.750000  0.189152  0.171281  1
  Zn  Zn4  1  0.250000  0.901709  0.144869  1
  Zn  Zn5  1  0.250000  0.399948  0.355346  1
  Zn  Zn6  1  0.750000  0.100513  0.856356  1
  Zn  Zn7  1  0.750000  0.600465  0.644838  1
  Zn  Zn8  1  0.250000  0.182869  0.964749  1
  Zn  Zn9  1  0.250000  0.679835  0.533907  1
  Zn  Zn10  1  0.750000  0.815173  0.035113  1
  Zn  Zn11  1  0.750000  0.313094  0.464530  1
  Cd  Cd12  1  0.250000  0.526217  0.095835  1
  Cd  Cd13  1  0.250000  0.024455  0.404125  1
  Cd  Cd14  1  0.750000  0.475808  0.903464  1
  Hg  Hg15  1  0.750000  0.977204  0.598733  1
