# generated using pymatgen
data_Lu2Th(AlNi)3
_symmetry_space_group_name_H-M   'P 1'
_cell_length_a   6.98718376
_cell_length_b   7.09916988
_cell_length_c   3.80142000
_cell_angle_alpha   90.00000000
_cell_angle_beta   90.00000000
_cell_angle_gamma   120.53160478
_symmetry_Int_Tables_number   1
_chemical_formula_structural   Lu2Th(AlNi)3
_chemical_formula_sum   'Lu2 Th1 Al3 Ni3'
_cell_volume   162.41823124
_cell_formula_units_Z   1
loop_
 _symmetry_equiv_pos_site_id
 _symmetry_equiv_pos_as_xyz
  1  'x, y, z'
loop_
 _atom_site_type_symbol
 _atom_site_label
 _atom_site_symmetry_multiplicity
 _atom_site_fract_x
 _atom_site_fract_y
 _atom_site_fract_z
 _atom_site_occupancy
  Lu  Lu0  1  0.584524  0.584957  0.500000  1
  Lu  Lu1  1  0.415476  0.000433  0.500000  1
  Th  Th2  1  0.000000  0.421613  0.500000  1
  Al  Al3  1  0.000000  0.772186  0.000000  1
  Al  Al4  1  0.246802  0.235242  0.000000  1
  Al  Al5  1  0.753198  0.988440  0.000000  1
  Ni  Ni6  1  0.329685  0.663105  0.000000  1
  Ni  Ni7  1  0.670315  0.333418  0.000000  1
  Ni  Ni8  1  0.000000  0.000607  0.500000  1
