# generated using pymatgen
data_TbNp3U4F30
_symmetry_space_group_name_H-M   'P 1'
_cell_length_a   8.69536282
_cell_length_b   8.72301495
_cell_length_c   8.69536356
_cell_angle_alpha   100.53020527
_cell_angle_beta   99.94210497
_cell_angle_gamma   100.53019926
_symmetry_Int_Tables_number   1
_chemical_formula_structural   TbNp3U4F30
_chemical_formula_sum   'Tb1 Np3 U4 F30'
_cell_volume   622.86002472
_cell_formula_units_Z   1
loop_
 _symmetry_equiv_pos_site_id
 _symmetry_equiv_pos_as_xyz
  1  'x, y, z'
loop_
 _atom_site_type_symbol
 _atom_site_label
 _atom_site_symmetry_multiplicity
 _atom_site_fract_x
 _atom_site_fract_y
 _atom_site_fract_z
 _atom_site_occupancy
  Tb  Tb0  1  0.823348  0.250000  0.676652  1
  Np  Np1  1  0.750468  0.750000  0.749532  1
  Np  Np2  1  0.324787  0.177640  0.748804  1
  Np  Np3  1  0.751196  0.322360  0.175213  1
  U  U4  1  0.249915  0.250000  0.250085  1
  U  U5  1  0.179018  0.750000  0.320982  1
  U  U6  1  0.247898  0.675364  0.821167  1
  U  U7  1  0.678833  0.824636  0.252102  1
  F  F8  1  0.971740  0.534533  0.254368  1
  F  F9  1  0.816052  0.334818  0.442847  1
  F  F10  1  0.485855  0.716067  0.718764  1
  F  F11  1  0.340864  0.450132  0.826594  1
  F  F12  1  0.014485  0.783594  0.782805  1
  F  F13  1  0.751994  0.027870  0.462790  1
  F  F14  1  0.948202  0.839920  0.314914  1
  F  F15  1  0.216747  0.219026  0.994615  1
  F  F16  1  0.779398  0.007657  0.775394  1
  F  F17  1  0.320703  0.942077  0.842765  1
  F  F18  1  0.281399  0.286828  0.508144  1
  F  F19  1  0.445871  0.820860  0.346807  1
  F  F20  1  0.528278  0.250000  0.971722  1
  F  F21  1  0.283957  0.511220  0.278442  1
  F  F22  1  0.153193  0.679140  0.054129  1
  F  F23  1  0.843214  0.319765  0.947367  1
  F  F24  1  0.724606  0.492343  0.720602  1
  F  F25  1  0.462395  0.750000  0.037605  1
  F  F26  1  0.552633  0.180235  0.656786  1
  F  F27  1  0.717195  0.716406  0.485515  1
  F  F28  1  0.673406  0.049868  0.159136  1
  F  F29  1  0.221558  0.988780  0.216043  1
  F  F30  1  0.781236  0.783933  0.014145  1
  F  F31  1  0.057153  0.165182  0.683948  1
  F  F32  1  0.245632  0.965467  0.528260  1
  F  F33  1  0.991856  0.213172  0.218601  1
  F  F34  1  0.657235  0.557923  0.179297  1
  F  F35  1  0.505385  0.280974  0.283253  1
  F  F36  1  0.185086  0.660080  0.551798  1
  F  F37  1  0.037210  0.472130  0.748006  1
