# generated using pymatgen
data_Rb5Lu2InBr12
_symmetry_space_group_name_H-M   'P 1'
_cell_length_a   8.55886369
_cell_length_b   8.03847375
_cell_length_c   14.01993675
_cell_angle_alpha   55.58624576
_cell_angle_beta   89.92559715
_cell_angle_gamma   90.17710311
_symmetry_Int_Tables_number   1
_chemical_formula_structural   Rb5Lu2InBr12
_chemical_formula_sum   'Rb5 Lu2 In1 Br12'
_cell_volume   795.74334760
_cell_formula_units_Z   1
loop_
 _symmetry_equiv_pos_site_id
 _symmetry_equiv_pos_as_xyz
  1  'x, y, z'
loop_
 _atom_site_type_symbol
 _atom_site_label
 _atom_site_symmetry_multiplicity
 _atom_site_fract_x
 _atom_site_fract_y
 _atom_site_fract_z
 _atom_site_occupancy
  Rb  Rb0  1  0.500000  0.500000  0.000000  1
  Rb  Rb1  1  0.069376  0.723825  0.753619  1
  Rb  Rb2  1  0.930624  0.276175  0.246381  1
  Rb  Rb3  1  0.570190  0.277246  0.744841  1
  Rb  Rb4  1  0.429810  0.722754  0.255159  1
  Lu  Lu5  1  0.500000  0.000000  0.500000  1
  Lu  Lu6  1  0.000000  0.000000  0.000000  1
  In  In7  1  0.000000  0.500000  0.500000  1
  Br  Br8  1  0.771400  0.771421  0.567404  1
  Br  Br9  1  0.228600  0.228579  0.432596  1
  Br  Br10  1  0.271485  0.226325  0.931550  1
  Br  Br11  1  0.728515  0.773675  0.068450  1
  Br  Br12  1  0.449012  0.893864  0.721097  1
  Br  Br13  1  0.550988  0.106136  0.278903  1
  Br  Br14  1  0.950103  0.110317  0.776198  1
  Br  Br15  1  0.049897  0.889683  0.223802  1
  Br  Br16  1  0.326875  0.668141  0.549358  1
  Br  Br17  1  0.673125  0.331859  0.450642  1
  Br  Br18  1  0.831438  0.330624  0.950246  1
  Br  Br19  1  0.168562  0.669376  0.049754  1
