# generated using pymatgen
data_HoTm4(Hg2Pd)2
_symmetry_space_group_name_H-M   'P 1'
_cell_length_a   3.55907600
_cell_length_b   7.96158600
_cell_length_c   18.24297100
_cell_angle_alpha   90.00000000
_cell_angle_beta   90.00000000
_cell_angle_gamma   90.00000000
_symmetry_Int_Tables_number   1
_chemical_formula_structural   HoTm4(Hg2Pd)2
_chemical_formula_sum   'Ho2 Tm8 Hg8 Pd4'
_cell_volume   516.93081323
_cell_formula_units_Z   2
loop_
 _symmetry_equiv_pos_site_id
 _symmetry_equiv_pos_as_xyz
  1  'x, y, z'
loop_
 _atom_site_type_symbol
 _atom_site_label
 _atom_site_symmetry_multiplicity
 _atom_site_fract_x
 _atom_site_fract_y
 _atom_site_fract_z
 _atom_site_occupancy
  Ho  Ho0  1  0.000000  0.000000  0.000000  1
  Ho  Ho1  1  0.000000  0.500000  0.500000  1
  Tm  Tm2  1  0.000000  0.114414  0.415968  1
  Tm  Tm3  1  0.000000  0.885586  0.584032  1
  Tm  Tm4  1  0.000000  0.385586  0.915968  1
  Tm  Tm5  1  0.000000  0.614414  0.084032  1
  Tm  Tm6  1  0.000000  0.239087  0.215868  1
  Tm  Tm7  1  0.000000  0.760913  0.784132  1
  Tm  Tm8  1  0.000000  0.260913  0.715868  1
  Tm  Tm9  1  0.000000  0.739087  0.284132  1
  Hg  Hg10  1  0.500000  0.420800  0.352494  1
  Hg  Hg11  1  0.500000  0.579200  0.647506  1
  Hg  Hg12  1  0.500000  0.079200  0.852494  1
  Hg  Hg13  1  0.500000  0.920800  0.147506  1
  Hg  Hg14  1  0.500000  0.290793  0.064037  1
  Hg  Hg15  1  0.500000  0.709207  0.935963  1
  Hg  Hg16  1  0.500000  0.209207  0.564037  1
  Hg  Hg17  1  0.500000  0.790793  0.435963  1
  Pd  Pd18  1  0.500000  0.027020  0.303093  1
  Pd  Pd19  1  0.500000  0.972980  0.696907  1
  Pd  Pd20  1  0.500000  0.472980  0.803093  1
  Pd  Pd21  1  0.500000  0.527020  0.196907  1
