# generated using pymatgen
data_Hf10GaCuPb6
_symmetry_space_group_name_H-M   'P 1'
_cell_length_a   8.74287100
_cell_length_b   8.74286991
_cell_length_c   5.88417200
_cell_angle_alpha   90.00000000
_cell_angle_beta   90.00000000
_cell_angle_gamma   119.99999276
_symmetry_Int_Tables_number   1
_chemical_formula_structural   Hf10GaCuPb6
_chemical_formula_sum   'Hf10 Ga1 Cu1 Pb6'
_cell_volume   389.51493068
_cell_formula_units_Z   1
loop_
 _symmetry_equiv_pos_site_id
 _symmetry_equiv_pos_as_xyz
  1  'x, y, z'
loop_
 _atom_site_type_symbol
 _atom_site_label
 _atom_site_symmetry_multiplicity
 _atom_site_fract_x
 _atom_site_fract_y
 _atom_site_fract_z
 _atom_site_occupancy
  Hf  Hf0  1  0.666667  0.333333  0.000000  1
  Hf  Hf1  1  0.000000  0.260152  0.252477  1
  Hf  Hf2  1  0.739848  0.000000  0.747523  1
  Hf  Hf3  1  0.260152  0.260152  0.747523  1
  Hf  Hf4  1  0.333333  0.666667  0.500000  1
  Hf  Hf5  1  0.333333  0.666667  0.000000  1
  Hf  Hf6  1  0.000000  0.739848  0.747523  1
  Hf  Hf7  1  0.666667  0.333333  0.500000  1
  Hf  Hf8  1  0.739848  0.739848  0.252477  1
  Hf  Hf9  1  0.260152  0.000000  0.252477  1
  Ga  Ga10  1  0.000000  0.000000  0.000000  1
  Cu  Cu11  1  0.000000  0.000000  0.500000  1
  Pb  Pb12  1  0.612781  0.612781  0.750609  1
  Pb  Pb13  1  0.387219  0.000000  0.750609  1
  Pb  Pb14  1  0.000000  0.612781  0.249391  1
  Pb  Pb15  1  0.387219  0.387219  0.249391  1
  Pb  Pb16  1  0.000000  0.387219  0.750609  1
  Pb  Pb17  1  0.612781  0.000000  0.249391  1
