# generated using pymatgen
data_NaSr21Al5(Cd2Ga)3
_symmetry_space_group_name_H-M   'P 1'
_cell_length_a   12.33233389
_cell_length_b   12.34252611
_cell_length_c   12.33245000
_cell_angle_alpha   60.02722311
_cell_angle_beta   59.99983334
_cell_angle_gamma   60.02714446
_symmetry_Int_Tables_number   1
_chemical_formula_structural   NaSr21Al5(Cd2Ga)3
_chemical_formula_sum   'Na1 Sr21 Al5 Cd6 Ga3'
_cell_volume   1327.88807014
_cell_formula_units_Z   1
loop_
 _symmetry_equiv_pos_site_id
 _symmetry_equiv_pos_as_xyz
  1  'x, y, z'
loop_
 _atom_site_type_symbol
 _atom_site_label
 _atom_site_symmetry_multiplicity
 _atom_site_fract_x
 _atom_site_fract_y
 _atom_site_fract_z
 _atom_site_occupancy
  Na  Na0  1  0.500059  0.499823  0.500060  1
  Sr  Sr1  1  0.868477  0.868176  0.394869  1
  Sr  Sr2  1  0.601763  0.133664  0.132289  1
  Sr  Sr3  1  0.868293  0.395124  0.868290  1
  Sr  Sr4  1  0.132286  0.133663  0.132287  1
  Sr  Sr5  1  0.394874  0.868175  0.868476  1
  Sr  Sr6  1  0.868477  0.868177  0.868477  1
  Sr  Sr7  1  0.167033  0.832698  0.500135  1
  Sr  Sr8  1  0.834425  0.499251  0.499195  1
  Sr  Sr9  1  0.132286  0.133667  0.601762  1
  Sr  Sr10  1  0.835060  0.166814  0.499064  1
  Sr  Sr11  1  0.167129  0.499250  0.499195  1
  Sr  Sr12  1  0.133649  0.599051  0.133650  1
  Sr  Sr13  1  0.499193  0.499249  0.167130  1
  Sr  Sr14  1  0.499063  0.166813  0.835061  1
  Sr  Sr15  1  0.500134  0.832698  0.167035  1
  Sr  Sr16  1  0.499197  0.499248  0.834426  1
  Sr  Sr17  1  0.499063  0.166813  0.499064  1
  Sr  Sr18  1  0.167131  0.499250  0.834423  1
  Sr  Sr19  1  0.000188  0.999436  0.000189  1
  Sr  Sr20  1  0.500134  0.832700  0.500133  1
  Sr  Sr21  1  0.834424  0.499251  0.167131  1
  Al  Al22  1  0.694358  0.916930  0.694356  1
  Al  Al23  1  0.694328  0.694004  0.917341  1
  Al  Al24  1  0.694328  0.694004  0.694327  1
  Al  Al25  1  0.304120  0.087637  0.304123  1
  Al  Al26  1  0.917342  0.694004  0.694327  1
  Cd  Cd27  1  0.783638  0.216364  0.783638  1
  Cd  Cd28  1  0.783637  0.216365  0.216360  1
  Cd  Cd29  1  0.216121  0.783764  0.216121  1
  Cd  Cd30  1  0.216122  0.783761  0.783994  1
  Cd  Cd31  1  0.783993  0.783763  0.216122  1
  Cd  Cd32  1  0.216360  0.216364  0.783638  1
  Ga  Ga33  1  0.306968  0.306683  0.079381  1
  Ga  Ga34  1  0.079384  0.306683  0.306967  1
  Ga  Ga35  1  0.306966  0.306683  0.306967  1
