# generated using pymatgen
data_Na3Sr3InAs4
_symmetry_space_group_name_H-M   'P 1'
_cell_length_a   9.89187300
_cell_length_b   9.89187248
_cell_length_c   7.62145200
_cell_angle_alpha   90.00000000
_cell_angle_beta   90.00000000
_cell_angle_gamma   119.99999839
_symmetry_Int_Tables_number   1
_chemical_formula_structural   Na3Sr3InAs4
_chemical_formula_sum   'Na6 Sr6 In2 As8'
_cell_volume   645.84068277
_cell_formula_units_Z   2
loop_
 _symmetry_equiv_pos_site_id
 _symmetry_equiv_pos_as_xyz
  1  'x, y, z'
loop_
 _atom_site_type_symbol
 _atom_site_label
 _atom_site_symmetry_multiplicity
 _atom_site_fract_x
 _atom_site_fract_y
 _atom_site_fract_z
 _atom_site_occupancy
  Na  Na0  1  0.137163  0.862837  0.171585  1
  Na  Na1  1  0.274326  0.137163  0.671585  1
  Na  Na2  1  0.862837  0.725674  0.671585  1
  Na  Na3  1  0.137163  0.274326  0.171585  1
  Na  Na4  1  0.725674  0.862837  0.171585  1
  Na  Na5  1  0.862837  0.137163  0.671585  1
  Sr  Sr6  1  0.475578  0.951156  0.500692  1
  Sr  Sr7  1  0.524422  0.048844  0.000692  1
  Sr  Sr8  1  0.951156  0.475578  0.000692  1
  Sr  Sr9  1  0.475578  0.524422  0.500692  1
  Sr  Sr10  1  0.524422  0.475578  0.000692  1
  Sr  Sr11  1  0.048844  0.524422  0.500692  1
  In  In12  1  0.333333  0.666667  0.876383  1
  In  In13  1  0.666667  0.333333  0.376383  1
  As  As14  1  0.184332  0.815668  0.771309  1
  As  As15  1  0.368664  0.184332  0.271309  1
  As  As16  1  0.815668  0.631336  0.271309  1
  As  As17  1  0.184332  0.368664  0.771309  1
  As  As18  1  0.631336  0.815668  0.771309  1
  As  As19  1  0.815668  0.184332  0.271309  1
  As  As20  1  0.333333  0.666667  0.233541  1
  As  As21  1  0.666667  0.333333  0.733541  1
