# generated using pymatgen
data_Dy11Hg9Rh4
_symmetry_space_group_name_H-M   'P 1'
_cell_length_a   3.66804700
_cell_length_b   13.01243670
_cell_length_c   13.01243712
_cell_angle_alpha   112.28615915
_cell_angle_beta   90.00000000
_cell_angle_gamma   90.00000000
_symmetry_Int_Tables_number   1
_chemical_formula_structural   Dy11Hg9Rh4
_chemical_formula_sum   'Dy11 Hg9 Rh4'
_cell_volume   574.69228091
_cell_formula_units_Z   1
loop_
 _symmetry_equiv_pos_site_id
 _symmetry_equiv_pos_as_xyz
  1  'x, y, z'
loop_
 _atom_site_type_symbol
 _atom_site_label
 _atom_site_symmetry_multiplicity
 _atom_site_fract_x
 _atom_site_fract_y
 _atom_site_fract_z
 _atom_site_occupancy
  Dy  Dy0  1  0.000000  0.915659  0.582395  1
  Dy  Dy1  1  0.000000  0.084341  0.417605  1
  Dy  Dy2  1  0.000000  0.582395  0.915659  1
  Dy  Dy3  1  0.000000  0.417605  0.084341  1
  Dy  Dy4  1  0.000000  0.166962  0.833038  1
  Dy  Dy5  1  0.000000  0.833038  0.166962  1
  Dy  Dy6  1  0.000000  0.366185  0.633815  1
  Dy  Dy7  1  0.000000  0.633815  0.366185  1
  Dy  Dy8  1  0.000000  0.702113  0.702113  1
  Dy  Dy9  1  0.000000  0.297887  0.297887  1
  Dy  Dy10  1  0.000000  0.000000  0.000000  1
  Hg  Hg11  1  0.500000  0.148567  0.631419  1
  Hg  Hg12  1  0.500000  0.851433  0.368581  1
  Hg  Hg13  1  0.500000  0.631419  0.148567  1
  Hg  Hg14  1  0.500000  0.368581  0.851433  1
  Hg  Hg15  1  0.500000  0.938088  0.786959  1
  Hg  Hg16  1  0.500000  0.061912  0.213041  1
  Hg  Hg17  1  0.500000  0.786959  0.938088  1
  Hg  Hg18  1  0.500000  0.213041  0.061912  1
  Hg  Hg19  1  0.500000  0.500000  0.500000  1
  Rh  Rh20  1  0.500000  0.741690  0.548319  1
  Rh  Rh21  1  0.500000  0.258310  0.451681  1
  Rh  Rh22  1  0.500000  0.548319  0.741690  1
  Rh  Rh23  1  0.500000  0.451681  0.258310  1
