# generated using pymatgen
data_Ho4Al15(SiRh2)3
_symmetry_space_group_name_H-M   'P 1'
_cell_length_a   7.55511634
_cell_length_b   7.48734303
_cell_length_c   9.36964142
_cell_angle_alpha   89.95970553
_cell_angle_beta   89.93976733
_cell_angle_gamma   119.90590028
_symmetry_Int_Tables_number   1
_chemical_formula_structural   Ho4Al15(SiRh2)3
_chemical_formula_sum   'Ho4 Al15 Si3 Rh6'
_cell_volume   459.44426664
_cell_formula_units_Z   1
loop_
 _symmetry_equiv_pos_site_id
 _symmetry_equiv_pos_as_xyz
  1  'x, y, z'
loop_
 _atom_site_type_symbol
 _atom_site_label
 _atom_site_symmetry_multiplicity
 _atom_site_fract_x
 _atom_site_fract_y
 _atom_site_fract_z
 _atom_site_occupancy
  Ho  Ho0  1  0.993889  0.664262  0.247370  1
  Ho  Ho1  1  0.006625  0.342158  0.754258  1
  Ho  Ho2  1  0.676087  0.001784  0.247756  1
  Ho  Ho3  1  0.318422  0.990655  0.749631  1
  Al  Al4  1  0.128688  0.126289  0.249895  1
  Al  Al5  1  0.871683  0.871518  0.749188  1
  Al  Al6  1  0.338747  0.002581  0.422664  1
  Al  Al7  1  0.001573  0.330647  0.429472  1
  Al  Al8  1  0.666249  0.002393  0.576037  1
  Al  Al9  1  0.662068  0.998511  0.921806  1
  Al  Al10  1  0.338764  0.002663  0.077354  1
  Al  Al11  1  0.333066  0.330782  0.556375  1
  Al  Al12  1  0.663742  0.668148  0.445354  1
  Al  Al13  1  0.663323  0.667902  0.056123  1
  Al  Al14  1  0.335656  0.331419  0.944156  1
  Al  Al15  1  0.338013  0.551679  0.250241  1
  Al  Al16  1  0.661520  0.448790  0.750327  1
  Al  Al17  1  0.548454  0.343421  0.249876  1
  Al  Al18  1  0.455148  0.657785  0.749746  1
  Si  Si19  1  0.002729  0.329245  0.076568  1
  Si  Si20  1  0.996720  0.671628  0.930249  1
  Si  Si21  1  0.997933  0.665232  0.565536  1
  Rh  Rh22  1  0.689835  0.337656  0.001744  1
  Rh  Rh23  1  0.310593  0.662917  0.996959  1
  Rh  Rh24  1  0.319281  0.670525  0.502967  1
  Rh  Rh25  1  0.680130  0.335998  0.499232  1
  Rh  Rh26  1  0.000079  0.000288  0.999105  1
  Rh  Rh27  1  0.000989  0.993122  0.500012  1
