# generated using pymatgen
data_Tb16Dy4Si15Ag
_symmetry_space_group_name_H-M   'P 1'
_cell_length_a   7.49007699
_cell_length_b   7.71769772
_cell_length_c   14.69589343
_cell_angle_alpha   89.79251339
_cell_angle_beta   89.35257037
_cell_angle_gamma   90.16592724
_symmetry_Int_Tables_number   1
_chemical_formula_structural   Tb16Dy4Si15Ag
_chemical_formula_sum   'Tb16 Dy4 Si15 Ag1'
_cell_volume   849.44955292
_cell_formula_units_Z   1
loop_
 _symmetry_equiv_pos_site_id
 _symmetry_equiv_pos_as_xyz
  1  'x, y, z'
loop_
 _atom_site_type_symbol
 _atom_site_label
 _atom_site_symmetry_multiplicity
 _atom_site_fract_x
 _atom_site_fract_y
 _atom_site_fract_z
 _atom_site_occupancy
  Tb  Tb0  1  0.648163  0.991570  0.250132  1
  Tb  Tb1  1  0.149851  0.511317  0.247891  1
  Tb  Tb2  1  0.848268  0.488842  0.749577  1
  Tb  Tb3  1  0.349417  0.011528  0.750050  1
  Tb  Tb4  1  0.976341  0.823396  0.101579  1
  Tb  Tb5  1  0.471101  0.684029  0.401126  1
  Tb  Tb6  1  0.520104  0.314316  0.898342  1
  Tb  Tb7  1  0.030169  0.182598  0.598783  1
  Tb  Tb8  1  0.030335  0.175828  0.899412  1
  Tb  Tb9  1  0.530273  0.316103  0.598633  1
  Tb  Tb10  1  0.473138  0.683277  0.101190  1
  Tb  Tb11  1  0.968663  0.816416  0.399745  1
  Tb  Tb12  1  0.675156  0.825910  0.876171  1
  Tb  Tb13  1  0.181903  0.680478  0.621283  1
  Tb  Tb14  1  0.820719  0.323952  0.124189  1
  Tb  Tb15  1  0.317263  0.178476  0.377697  1
  Dy  Dy16  1  0.323296  0.178681  0.123640  1
  Dy  Dy17  1  0.819098  0.320305  0.377536  1
  Dy  Dy18  1  0.182315  0.675736  0.877672  1
  Dy  Dy19  1  0.682337  0.820939  0.622282  1
  Si  Si20  1  0.764914  0.627712  0.251977  1
  Si  Si21  1  0.265657  0.874369  0.251264  1
  Si  Si22  1  0.734958  0.124829  0.748252  1
  Si  Si23  1  0.232161  0.374517  0.747470  1
  Si  Si24  1  0.023235  0.105637  0.250544  1
  Si  Si25  1  0.524467  0.396022  0.252718  1
  Si  Si26  1  0.474594  0.604492  0.747983  1
  Si  Si27  1  0.975856  0.891635  0.748313  1
  Si  Si28  1  0.357342  0.971457  0.540319  1
  Si  Si29  1  0.648598  0.028881  0.041368  1
  Si  Si30  1  0.144315  0.470397  0.459842  1
  Si  Si31  1  0.159402  0.470025  0.041857  1
  Si  Si32  1  0.645706  0.028779  0.459631  1
  Si  Si33  1  0.350742  0.968566  0.961819  1
  Si  Si34  1  0.855303  0.529601  0.538487  1
  Ag  Ag35  1  0.844836  0.529385  0.961223  1
