# generated using pymatgen
data_Pr10Ga3SiSn2
_symmetry_space_group_name_H-M   'P 1'
_cell_length_a   8.17007394
_cell_length_b   9.19875868
_cell_length_c   8.17007394
_cell_angle_alpha   116.52625132
_cell_angle_beta   89.67460175
_cell_angle_gamma   116.52625132
_symmetry_Int_Tables_number   1
_chemical_formula_structural   Pr10Ga3SiSn2
_chemical_formula_sum   'Pr10 Ga3 Si1 Sn2'
_cell_volume   476.92897365
_cell_formula_units_Z   1
loop_
 _symmetry_equiv_pos_site_id
 _symmetry_equiv_pos_as_xyz
  1  'x, y, z'
loop_
 _atom_site_type_symbol
 _atom_site_label
 _atom_site_symmetry_multiplicity
 _atom_site_fract_x
 _atom_site_fract_y
 _atom_site_fract_z
 _atom_site_occupancy
  Pr  Pr0  1  0.002550  0.000000  0.003139  1
  Pr  Pr1  1  0.496861  0.000000  0.497450  1
  Pr  Pr2  1  0.529690  0.712315  0.682627  1
  Pr  Pr3  1  0.178870  0.713149  0.034281  1
  Pr  Pr4  1  0.689330  0.710450  0.185941  1
  Pr  Pr5  1  0.024511  0.710450  0.521122  1
  Pr  Pr6  1  0.465719  0.286851  0.321130  1
  Pr  Pr7  1  0.817373  0.287685  0.970310  1
  Pr  Pr8  1  0.314059  0.289550  0.810670  1
  Pr  Pr9  1  0.978878  0.289550  0.475489  1
  Ga  Ga10  1  0.880961  0.000000  0.619039  1
  Ga  Ga11  1  0.620842  0.000000  0.121918  1
  Ga  Ga12  1  0.378082  0.000000  0.879158  1
  Si  Si13  1  0.119290  0.000000  0.380710  1
  Sn  Sn14  1  0.751492  0.500000  0.748508  1
  Sn  Sn15  1  0.251492  0.500000  0.248508  1
