# generated using pymatgen
data_Tb3YV4(WO6)4
_symmetry_space_group_name_H-M   'P 1'
_cell_length_a   7.45194009
_cell_length_b   5.25766912
_cell_length_c   11.18278739
_cell_angle_alpha   89.97536859
_cell_angle_beta   89.98264767
_cell_angle_gamma   89.99866447
_symmetry_Int_Tables_number   1
_chemical_formula_structural   Tb3YV4(WO6)4
_chemical_formula_sum   'Tb3 Y1 V4 W4 O24'
_cell_volume   438.13970716
_cell_formula_units_Z   1
loop_
 _symmetry_equiv_pos_site_id
 _symmetry_equiv_pos_as_xyz
  1  'x, y, z'
loop_
 _atom_site_type_symbol
 _atom_site_label
 _atom_site_symmetry_multiplicity
 _atom_site_fract_x
 _atom_site_fract_y
 _atom_site_fract_z
 _atom_site_occupancy
  Tb  Tb0  1  0.753411  0.705218  0.454711  1
  Tb  Tb1  1  0.253385  0.794743  0.545237  1
  Tb  Tb2  1  0.753412  0.294805  0.954767  1
  Y  Y3  1  0.253347  0.204925  0.045127  1
  V  V4  1  0.506296  0.699614  0.133981  1
  V  V5  1  0.006291  0.199722  0.365909  1
  V  V6  1  0.506254  0.300254  0.634077  1
  V  V7  1  0.006331  0.800181  0.865952  1
  W  W8  1  0.998722  0.693713  0.143807  1
  W  W9  1  0.498578  0.193873  0.356088  1
  W  W10  1  0.998595  0.306278  0.643781  1
  W  W11  1  0.498444  0.805982  0.856208  1
  O  O12  1  0.543577  0.992665  0.019747  1
  O  O13  1  0.959015  0.984620  0.029600  1
  O  O14  1  0.755222  0.573403  0.116569  1
  O  O15  1  0.246269  0.814784  0.143170  1
  O  O16  1  0.070745  0.376292  0.206860  1
  O  O17  1  0.436984  0.358880  0.213420  1
  O  O18  1  0.937046  0.858632  0.286508  1
  O  O19  1  0.570612  0.876497  0.293222  1
  O  O20  1  0.746327  0.314292  0.356783  1
  O  O21  1  0.255181  0.073298  0.383413  1
  O  O22  1  0.459049  0.484761  0.470336  1
  O  O23  1  0.043699  0.492858  0.480440  1
  O  O24  1  0.543653  0.007211  0.519562  1
  O  O25  1  0.959038  0.015287  0.529719  1
  O  O26  1  0.755202  0.426760  0.616618  1
  O  O27  1  0.246296  0.185756  0.643192  1
  O  O28  1  0.070536  0.623707  0.706968  1
  O  O29  1  0.436994  0.641403  0.713529  1
  O  O30  1  0.937014  0.141415  0.786504  1
  O  O31  1  0.570549  0.123541  0.793084  1
  O  O32  1  0.746310  0.685837  0.856888  1
  O  O33  1  0.255206  0.927213  0.883524  1
  O  O34  1  0.458786  0.514821  0.970146  1
  O  O35  1  0.044020  0.506741  0.980549  1
