# generated using pymatgen
data_Nb4GaB4SbRu10
_symmetry_space_group_name_H-M   'P 1'
_cell_length_a   9.42754200
_cell_length_b   9.42754200
_cell_length_c   3.01450000
_cell_angle_alpha   90.00000000
_cell_angle_beta   90.00000000
_cell_angle_gamma   90.00000000
_symmetry_Int_Tables_number   1
_chemical_formula_structural   Nb4GaB4SbRu10
_chemical_formula_sum   'Nb4 Ga1 B4 Sb1 Ru10'
_cell_volume   267.92438343
_cell_formula_units_Z   1
loop_
 _symmetry_equiv_pos_site_id
 _symmetry_equiv_pos_as_xyz
  1  'x, y, z'
loop_
 _atom_site_type_symbol
 _atom_site_label
 _atom_site_symmetry_multiplicity
 _atom_site_fract_x
 _atom_site_fract_y
 _atom_site_fract_z
 _atom_site_occupancy
  Nb  Nb0  1  0.819282  0.673223  0.000000  1
  Nb  Nb1  1  0.180718  0.326777  0.000000  1
  Nb  Nb2  1  0.326777  0.819282  0.000000  1
  Nb  Nb3  1  0.673223  0.180718  0.000000  1
  Ga  Ga4  1  0.500000  0.500000  0.000000  1
  B  B5  1  0.617508  0.871662  0.000000  1
  B  B6  1  0.382492  0.128338  0.000000  1
  B  B7  1  0.128338  0.617508  0.000000  1
  B  B8  1  0.871662  0.382492  0.000000  1
  Sb  Sb9  1  0.000000  0.000000  0.000000  1
  Ru  Ru10  1  0.500000  0.000000  0.500000  1
  Ru  Ru11  1  0.000000  0.500000  0.500000  1
  Ru  Ru12  1  0.566920  0.715509  0.500000  1
  Ru  Ru13  1  0.433080  0.284491  0.500000  1
  Ru  Ru14  1  0.071450  0.779248  0.500000  1
  Ru  Ru15  1  0.928550  0.220752  0.500000  1
  Ru  Ru16  1  0.284491  0.566920  0.500000  1
  Ru  Ru17  1  0.715509  0.433080  0.500000  1
  Ru  Ru18  1  0.220752  0.071450  0.500000  1
  Ru  Ru19  1  0.779248  0.928550  0.500000  1
