# generated using pymatgen
data_Tb3Yb(Rh2O7)2
_symmetry_space_group_name_H-M   'P 1'
_cell_length_a   7.22349287
_cell_length_b   7.22695784
_cell_length_c   7.22349200
_cell_angle_alpha   60.01585366
_cell_angle_beta   59.99999481
_cell_angle_gamma   60.01585274
_symmetry_Int_Tables_number   1
_chemical_formula_structural   Tb3Yb(Rh2O7)2
_chemical_formula_sum   'Tb3 Yb1 Rh4 O14'
_cell_volume   266.70980090
_cell_formula_units_Z   1
loop_
 _symmetry_equiv_pos_site_id
 _symmetry_equiv_pos_as_xyz
  1  'x, y, z'
loop_
 _atom_site_type_symbol
 _atom_site_label
 _atom_site_symmetry_multiplicity
 _atom_site_fract_x
 _atom_site_fract_y
 _atom_site_fract_z
 _atom_site_occupancy
  Tb  Tb0  1  0.625000  0.625000  0.125000  1
  Tb  Tb1  1  0.625000  0.625000  0.625000  1
  Tb  Tb2  1  0.125000  0.625000  0.625000  1
  Yb  Yb3  1  0.625000  0.125000  0.625000  1
  Rh  Rh4  1  0.125000  0.125000  0.125000  1
  Rh  Rh5  1  0.625000  0.125000  0.125000  1
  Rh  Rh6  1  0.125000  0.625000  0.125000  1
  Rh  Rh7  1  0.125000  0.125000  0.625000  1
  O  O8  1  0.040061  0.460582  0.459296  1
  O  O9  1  0.790704  0.789418  0.209939  1
  O  O10  1  0.793085  0.211520  0.202311  1
  O  O11  1  0.456915  0.038480  0.456915  1
  O  O12  1  0.040061  0.460582  0.040061  1
  O  O13  1  0.751279  0.746163  0.751279  1
  O  O14  1  0.047689  0.038480  0.456915  1
  O  O15  1  0.209939  0.789418  0.209939  1
  O  O16  1  0.202311  0.211520  0.793085  1
  O  O17  1  0.498721  0.503837  0.498721  1
  O  O18  1  0.793085  0.211520  0.793085  1
  O  O19  1  0.456915  0.038480  0.047689  1
  O  O20  1  0.459296  0.460582  0.040061  1
  O  O21  1  0.209939  0.789418  0.790704  1
