# generated using pymatgen
data_TbTm3Ru4F28
_symmetry_space_group_name_H-M   'P 1'
_cell_length_a   5.53994755
_cell_length_b   8.80245782
_cell_length_c   11.86700093
_cell_angle_alpha   63.77761772
_cell_angle_beta   89.94932333
_cell_angle_gamma   89.97234241
_symmetry_Int_Tables_number   1
_chemical_formula_structural   TbTm3Ru4F28
_chemical_formula_sum   'Tb1 Tm3 Ru4 F28'
_cell_volume   519.13989630
_cell_formula_units_Z   1
loop_
 _symmetry_equiv_pos_site_id
 _symmetry_equiv_pos_as_xyz
  1  'x, y, z'
loop_
 _atom_site_type_symbol
 _atom_site_label
 _atom_site_symmetry_multiplicity
 _atom_site_fract_x
 _atom_site_fract_y
 _atom_site_fract_z
 _atom_site_occupancy
  Tb  Tb0  1  0.242367  0.811825  0.770108  1
  Tm  Tm1  1  0.257581  0.811071  0.270355  1
  Tm  Tm2  1  0.741570  0.193971  0.728220  1
  Tm  Tm3  1  0.757661  0.189519  0.229274  1
  Ru  Ru4  1  0.754121  0.726853  0.048128  1
  Ru  Ru5  1  0.245792  0.270736  0.955134  1
  Ru  Ru6  1  0.254859  0.273458  0.453425  1
  Ru  Ru7  1  0.746796  0.727385  0.543204  1
  F  F8  1  0.954418  0.702777  0.418251  1
  F  F9  1  0.044999  0.296482  0.578582  1
  F  F10  1  0.455729  0.295376  0.079602  1
  F  F11  1  0.548002  0.703068  0.922288  1
  F  F12  1  0.468834  0.731789  0.145644  1
  F  F13  1  0.530953  0.268496  0.856532  1
  F  F14  1  0.971509  0.267103  0.355139  1
  F  F15  1  0.032068  0.730772  0.639854  1
  F  F16  1  0.959048  0.750682  0.175573  1
  F  F17  1  0.039412  0.247540  0.827364  1
  F  F18  1  0.461346  0.249047  0.326463  1
  F  F19  1  0.546210  0.749440  0.672299  1
  F  F20  1  0.764088  0.485161  0.144017  1
  F  F21  1  0.233024  0.511481  0.858290  1
  F  F22  1  0.266168  0.514335  0.356606  1
  F  F23  1  0.735274  0.485737  0.640707  1
  F  F24  1  0.954288  0.282291  0.048086  1
  F  F25  1  0.045213  0.714957  0.956324  1
  F  F26  1  0.452975  0.716918  0.451710  1
  F  F27  1  0.545926  0.284571  0.546534  1
  F  F28  1  0.745968  0.966988  0.450933  1
  F  F29  1  0.254678  0.033640  0.547620  1
  F  F30  1  0.246325  0.031534  0.048513  1
  F  F31  1  0.754255  0.965683  0.955081  1
  F  F32  1  0.566804  0.976292  0.234908  1
  F  F33  1  0.431760  0.030948  0.766104  1
  F  F34  1  0.066955  0.024289  0.264876  1
  F  F35  1  0.923025  0.977782  0.734252  1
