# generated using pymatgen
data_Zr4Pd2Pt9Rh
_symmetry_space_group_name_H-M   'P 1'
_cell_length_a   5.71715292
_cell_length_b   5.73449165
_cell_length_c   9.34035811
_cell_angle_alpha   90.24667495
_cell_angle_beta   90.06470570
_cell_angle_gamma   119.90658837
_symmetry_Int_Tables_number   1
_chemical_formula_structural   Zr4Pd2Pt9Rh
_chemical_formula_sum   'Zr4 Pd2 Pt9 Rh1'
_cell_volume   265.44209034
_cell_formula_units_Z   1
loop_
 _symmetry_equiv_pos_site_id
 _symmetry_equiv_pos_as_xyz
  1  'x, y, z'
loop_
 _atom_site_type_symbol
 _atom_site_label
 _atom_site_symmetry_multiplicity
 _atom_site_fract_x
 _atom_site_fract_y
 _atom_site_fract_z
 _atom_site_occupancy
  Zr  Zr0  1  0.000000  0.000000  0.500000  1
  Zr  Zr1  1  0.000000  0.000000  0.000000  1
  Zr  Zr2  1  0.335544  0.671970  0.253529  1
  Zr  Zr3  1  0.664456  0.328030  0.746471  1
  Pd  Pd4  1  0.500000  0.500000  0.000000  1
  Pd  Pd5  1  0.500000  0.000000  0.000000  1
  Pt  Pt6  1  0.500000  0.500000  0.500000  1
  Pt  Pt7  1  0.000000  0.500000  0.500000  1
  Pt  Pt8  1  0.000000  0.500000  0.000000  1
  Pt  Pt9  1  0.829162  0.171714  0.249003  1
  Pt  Pt10  1  0.829212  0.659732  0.248492  1
  Pt  Pt11  1  0.340308  0.171136  0.249648  1
  Pt  Pt12  1  0.170838  0.828286  0.750997  1
  Pt  Pt13  1  0.170788  0.340268  0.751508  1
  Pt  Pt14  1  0.659692  0.828864  0.750352  1
  Rh  Rh15  1  0.500000  0.000000  0.500000  1
