# generated using pymatgen
data_ErLu11In2Tc3
_symmetry_space_group_name_H-M   'P 1'
_cell_length_a   8.30569569
_cell_length_b   8.30569553
_cell_length_c   8.31106156
_cell_angle_alpha   108.85376076
_cell_angle_beta   108.85376893
_cell_angle_gamma   110.68774403
_symmetry_Int_Tables_number   1
_chemical_formula_structural   ErLu11In2Tc3
_chemical_formula_sum   'Er1 Lu11 In2 Tc3'
_cell_volume   441.34003160
_cell_formula_units_Z   1
loop_
 _symmetry_equiv_pos_site_id
 _symmetry_equiv_pos_as_xyz
  1  'x, y, z'
loop_
 _atom_site_type_symbol
 _atom_site_label
 _atom_site_symmetry_multiplicity
 _atom_site_fract_x
 _atom_site_fract_y
 _atom_site_fract_z
 _atom_site_occupancy
  Er  Er0  1  0.304506  0.304506  0.609013  1
  Lu  Lu1  1  0.694800  0.694800  0.389599  1
  Lu  Lu2  1  0.695034  0.305239  0.000273  1
  Lu  Lu3  1  0.305239  0.695034  0.000273  1
  Lu  Lu4  1  0.189456  0.428838  0.238871  1
  Lu  Lu5  1  0.811162  0.571528  0.761022  1
  Lu  Lu6  1  0.189494  0.949859  0.761022  1
  Lu  Lu7  1  0.949859  0.189494  0.761022  1
  Lu  Lu8  1  0.810033  0.049416  0.238871  1
  Lu  Lu9  1  0.049416  0.810033  0.238871  1
  Lu  Lu10  1  0.428838  0.189456  0.238871  1
  Lu  Lu11  1  0.571528  0.811162  0.761022  1
  In  In12  1  0.000048  0.499965  0.500013  1
  In  In13  1  0.499965  0.000048  0.500013  1
  Tc  Tc14  1  0.370560  0.370560  0.000550  1
  Tc  Tc15  1  0.629989  0.629989  0.000550  1
  Tc  Tc16  1  0.000073  0.000073  0.000146  1
