# generated using pymatgen
data_Sc3RuPtRh
_symmetry_space_group_name_H-M   'P 1'
_cell_length_a   3.27801000
_cell_length_b   3.27801000
_cell_length_c   9.57031900
_cell_angle_alpha   90.00000000
_cell_angle_beta   90.00000000
_cell_angle_gamma   90.00000000
_symmetry_Int_Tables_number   1
_chemical_formula_structural   Sc3RuPtRh
_chemical_formula_sum   'Sc3 Ru1 Pt1 Rh1'
_cell_volume   102.83642306
_cell_formula_units_Z   1
loop_
 _symmetry_equiv_pos_site_id
 _symmetry_equiv_pos_as_xyz
  1  'x, y, z'
loop_
 _atom_site_type_symbol
 _atom_site_label
 _atom_site_symmetry_multiplicity
 _atom_site_fract_x
 _atom_site_fract_y
 _atom_site_fract_z
 _atom_site_occupancy
  Sc  Sc0  1  0.499999  0.499999  0.995478  1
  Sc  Sc1  1  0.499999  0.499999  0.328355  1
  Sc  Sc2  1  0.499999  0.499999  0.675696  1
  Ru  Ru3  1  0.000000  0.000000  0.832699  1
  Pt  Pt4  1  0.000000  0.000000  0.498571  1
  Rh  Rh5  1  0.000000  0.000000  0.169201  1
