# generated using pymatgen
data_Ho7Lu(SiPd)8
_symmetry_space_group_name_H-M   'P 1'
_cell_length_a   4.31196800
_cell_length_b   7.50510112
_cell_length_c   13.90259000
_cell_angle_alpha   90.03130041
_cell_angle_beta   90.00000000
_cell_angle_gamma   90.00000000
_symmetry_Int_Tables_number   1
_chemical_formula_structural   Ho7Lu(SiPd)8
_chemical_formula_sum   'Ho7 Lu1 Si8 Pd8'
_cell_volume   449.91215635
_cell_formula_units_Z   1
loop_
 _symmetry_equiv_pos_site_id
 _symmetry_equiv_pos_as_xyz
  1  'x, y, z'
loop_
 _atom_site_type_symbol
 _atom_site_label
 _atom_site_symmetry_multiplicity
 _atom_site_fract_x
 _atom_site_fract_y
 _atom_site_fract_z
 _atom_site_occupancy
  Ho  Ho0  1  0.000000  0.299869  0.000502  1
  Ho  Ho1  1  0.500000  0.700065  0.499723  1
  Ho  Ho2  1  0.000000  0.290051  0.499570  1
  Ho  Ho3  1  0.500000  0.709315  0.000290  1
  Ho  Ho4  1  0.500000  0.791887  0.250916  1
  Ho  Ho5  1  0.000000  0.209909  0.750653  1
  Ho  Ho6  1  0.500000  0.789983  0.749235  1
  Lu  Lu7  1  0.000000  0.211950  0.248975  1
  Si  Si8  1  0.000000  0.907592  0.593604  1
  Si  Si9  1  0.500000  0.092395  0.906446  1
  Si  Si10  1  0.000000  0.908129  0.405800  1
  Si  Si11  1  0.500000  0.092112  0.094193  1
  Si  Si12  1  0.000000  0.592400  0.143964  1
  Si  Si13  1  0.500000  0.406458  0.356347  1
  Si  Si14  1  0.000000  0.592313  0.856626  1
  Si  Si15  1  0.500000  0.407479  0.643040  1
  Pd  Pd16  1  0.500000  0.075285  0.608218  1
  Pd  Pd17  1  0.000000  0.924459  0.891704  1
  Pd  Pd18  1  0.500000  0.076567  0.390589  1
  Pd  Pd19  1  0.000000  0.925939  0.109126  1
  Pd  Pd20  1  0.500000  0.418667  0.157872  1
  Pd  Pd21  1  0.000000  0.577804  0.342038  1
  Pd  Pd22  1  0.500000  0.420657  0.843228  1
  Pd  Pd23  1  0.000000  0.578719  0.657340  1
