# generated using pymatgen
data_Ho3BiBRh6
_symmetry_space_group_name_H-M   'P 1'
_cell_length_a   5.85132200
_cell_length_b   5.85132293
_cell_length_c   13.87536500
_cell_angle_alpha   90.00000000
_cell_angle_beta   90.00000000
_cell_angle_gamma   120.00000602
_symmetry_Int_Tables_number   1
_chemical_formula_structural   Ho3BiBRh6
_chemical_formula_sum   'Ho6 Bi2 B2 Rh12'
_cell_volume   411.41780928
_cell_formula_units_Z   2
loop_
 _symmetry_equiv_pos_site_id
 _symmetry_equiv_pos_as_xyz
  1  'x, y, z'
loop_
 _atom_site_type_symbol
 _atom_site_label
 _atom_site_symmetry_multiplicity
 _atom_site_fract_x
 _atom_site_fract_y
 _atom_site_fract_z
 _atom_site_occupancy
  Ho  Ho0  1  0.000000  0.000000  0.750000  1
  Ho  Ho1  1  0.000000  0.000000  0.250000  1
  Ho  Ho2  1  0.333333  0.666667  0.413541  1
  Ho  Ho3  1  0.666667  0.333333  0.913541  1
  Ho  Ho4  1  0.666667  0.333333  0.586459  1
  Ho  Ho5  1  0.333333  0.666667  0.086459  1
  Bi  Bi6  1  0.333333  0.666667  0.750000  1
  Bi  Bi7  1  0.666667  0.333333  0.250000  1
  B  B8  1  0.000000  0.000000  0.500000  1
  B  B9  1  0.000000  0.000000  0.000000  1
  Rh  Rh10  1  0.342201  0.171102  0.413900  1
  Rh  Rh11  1  0.828898  0.171102  0.413900  1
  Rh  Rh12  1  0.828898  0.657799  0.413900  1
  Rh  Rh13  1  0.171102  0.342201  0.913900  1
  Rh  Rh14  1  0.657799  0.828898  0.586100  1
  Rh  Rh15  1  0.657799  0.828898  0.913900  1
  Rh  Rh16  1  0.342201  0.171102  0.086100  1
  Rh  Rh17  1  0.171102  0.342201  0.586100  1
  Rh  Rh18  1  0.171102  0.828898  0.586100  1
  Rh  Rh19  1  0.828898  0.171102  0.086100  1
  Rh  Rh20  1  0.828898  0.657799  0.086100  1
  Rh  Rh21  1  0.171102  0.828898  0.913900  1
