# generated using pymatgen
data_U2Nb3Co9As7
_symmetry_space_group_name_H-M   'P 1'
_cell_length_a   3.82175300
_cell_length_b   9.51876102
_cell_length_c   9.51876100
_cell_angle_alpha   119.99999830
_cell_angle_beta   90.00000000
_cell_angle_gamma   90.00000000
_symmetry_Int_Tables_number   1
_chemical_formula_structural   U2Nb3Co9As7
_chemical_formula_sum   'U2 Nb3 Co9 As7'
_cell_volume   299.88455616
_cell_formula_units_Z   1
loop_
 _symmetry_equiv_pos_site_id
 _symmetry_equiv_pos_as_xyz
  1  'x, y, z'
loop_
 _atom_site_type_symbol
 _atom_site_label
 _atom_site_symmetry_multiplicity
 _atom_site_fract_x
 _atom_site_fract_y
 _atom_site_fract_z
 _atom_site_occupancy
  U  U0  1  0.000000  0.666667  0.333333  1
  U  U1  1  0.500000  0.333333  0.666667  1
  Nb  Nb2  1  0.500000  0.776876  0.897418  1
  Nb  Nb3  1  0.500000  0.120542  0.223124  1
  Nb  Nb4  1  0.500000  0.102582  0.879458  1
  Co  Co5  1  0.000000  0.570815  0.937095  1
  Co  Co6  1  0.000000  0.366280  0.429185  1
  Co  Co7  1  0.000000  0.062905  0.633720  1
  Co  Co8  1  0.000000  0.874310  0.160133  1
  Co  Co9  1  0.000000  0.285823  0.125690  1
  Co  Co10  1  0.000000  0.839867  0.714177  1
  Co  Co11  1  0.500000  0.947832  0.384552  1
  Co  Co12  1  0.500000  0.436719  0.052168  1
  Co  Co13  1  0.500000  0.615448  0.563281  1
  As  As14  1  0.000000  0.000000  0.000000  1
  As  As15  1  0.500000  0.708224  0.123373  1
  As  As16  1  0.500000  0.415150  0.291776  1
  As  As17  1  0.500000  0.876627  0.584850  1
  As  As18  1  0.000000  0.581616  0.691957  1
  As  As19  1  0.000000  0.110342  0.418384  1
  As  As20  1  0.000000  0.308043  0.889658  1
