# generated using pymatgen
data_Ga3Ge4Rh3
_symmetry_space_group_name_H-M   'P 1'
_cell_length_a   7.63200925
_cell_length_b   7.63200758
_cell_length_c   7.63200900
_cell_angle_alpha   109.47123236
_cell_angle_beta   109.47122794
_cell_angle_gamma   109.47120649
_symmetry_Int_Tables_number   1
_chemical_formula_structural   Ga3Ge4Rh3
_chemical_formula_sum   'Ga6 Ge8 Rh6'
_cell_volume   342.21152993
_cell_formula_units_Z   2
loop_
 _symmetry_equiv_pos_site_id
 _symmetry_equiv_pos_as_xyz
  1  'x, y, z'
loop_
 _atom_site_type_symbol
 _atom_site_label
 _atom_site_symmetry_multiplicity
 _atom_site_fract_x
 _atom_site_fract_y
 _atom_site_fract_z
 _atom_site_occupancy
  Ga  Ga0  1  0.500000  0.750000  0.250000  1
  Ga  Ga1  1  0.500000  0.250000  0.750000  1
  Ga  Ga2  1  0.250000  0.500000  0.750000  1
  Ga  Ga3  1  0.750000  0.500000  0.250000  1
  Ga  Ga4  1  0.750000  0.250000  0.500000  1
  Ga  Ga5  1  0.250000  0.750000  0.500000  1
  Ge  Ge6  1  0.327009  0.327009  0.327009  1
  Ge  Ge7  1  0.672991  0.672991  0.672991  1
  Ge  Ge8  1  0.000000  0.000000  0.672991  1
  Ge  Ge9  1  0.000000  0.672991  0.000000  1
  Ge  Ge10  1  0.000000  0.000000  0.327009  1
  Ge  Ge11  1  0.000000  0.327009  0.000000  1
  Ge  Ge12  1  0.672991  0.000000  0.000000  1
  Ge  Ge13  1  0.327009  0.000000  0.000000  1
  Rh  Rh14  1  0.000000  0.340050  0.340050  1
  Rh  Rh15  1  0.000000  0.659950  0.659950  1
  Rh  Rh16  1  0.340050  0.000000  0.340050  1
  Rh  Rh17  1  0.659950  0.000000  0.659950  1
  Rh  Rh18  1  0.340050  0.340050  0.000000  1
  Rh  Rh19  1  0.659950  0.659950  0.000000  1
