# generated using pymatgen
data_Pr4SmYCoBr10
_symmetry_space_group_name_H-M   'P 1'
_cell_length_a   7.56787658
_cell_length_b   9.47431782
_cell_length_c   9.66183669
_cell_angle_alpha   108.14325869
_cell_angle_beta   95.17715907
_cell_angle_gamma   104.85984691
_symmetry_Int_Tables_number   1
_chemical_formula_structural   Pr4SmYCoBr10
_chemical_formula_sum   'Pr4 Sm1 Y1 Co1 Br10'
_cell_volume   625.29237339
_cell_formula_units_Z   1
loop_
 _symmetry_equiv_pos_site_id
 _symmetry_equiv_pos_as_xyz
  1  'x, y, z'
loop_
 _atom_site_type_symbol
 _atom_site_label
 _atom_site_symmetry_multiplicity
 _atom_site_fract_x
 _atom_site_fract_y
 _atom_site_fract_z
 _atom_site_occupancy
  Pr  Pr0  1  0.463866  0.784405  0.589164  1
  Pr  Pr1  1  0.533568  0.214790  0.409233  1
  Pr  Pr2  1  0.364075  0.447871  0.744124  1
  Pr  Pr3  1  0.632318  0.550331  0.254482  1
  Sm  Sm4  1  0.851466  0.627422  0.671941  1
  Y  Y5  1  0.152176  0.374829  0.330701  1
  Co  Co6  1  0.499753  0.499876  0.500191  1
  Br  Br7  1  0.412522  0.130339  0.669090  1
  Br  Br8  1  0.587239  0.869102  0.329958  1
  Br  Br9  1  0.050079  0.672704  0.417768  1
  Br  Br10  1  0.951451  0.322579  0.576226  1
  Br  Br11  1  0.263550  0.746132  0.839652  1
  Br  Br12  1  0.747222  0.256953  0.165361  1
  Br  Br13  1  0.253955  0.419587  0.061415  1
  Br  Br14  1  0.740629  0.577482  0.941353  1
  Br  Br15  1  0.844298  0.940691  0.763746  1
  Br  Br16  1  0.151832  0.064908  0.235595  1
