# generated using pymatgen
data_BaCd2GaAu3
_symmetry_space_group_name_H-M   'P 1'
_cell_length_a   4.66645600
_cell_length_b   7.88480558
_cell_length_c   9.14250800
_cell_angle_alpha   91.47103176
_cell_angle_beta   90.00000000
_cell_angle_gamma   90.00000000
_symmetry_Int_Tables_number   1
_chemical_formula_structural   BaCd2GaAu3
_chemical_formula_sum   'Ba2 Cd4 Ga2 Au6'
_cell_volume   336.27947462
_cell_formula_units_Z   2
loop_
 _symmetry_equiv_pos_site_id
 _symmetry_equiv_pos_as_xyz
  1  'x, y, z'
loop_
 _atom_site_type_symbol
 _atom_site_label
 _atom_site_symmetry_multiplicity
 _atom_site_fract_x
 _atom_site_fract_y
 _atom_site_fract_z
 _atom_site_occupancy
  Ba  Ba0  1  0.500000  0.007484  0.735963  1
  Ba  Ba1  1  0.000000  0.492516  0.264037  1
  Cd  Cd2  1  0.000000  0.688465  0.895626  1
  Cd  Cd3  1  0.000000  0.995946  0.365228  1
  Cd  Cd4  1  0.500000  0.811535  0.104374  1
  Cd  Cd5  1  0.500000  0.504054  0.634772  1
  Ga  Ga6  1  0.000000  0.312613  0.886673  1
  Ga  Ga7  1  0.500000  0.187387  0.113327  1
  Au  Au8  1  0.000000  0.721040  0.588349  1
  Au  Au9  1  0.500000  0.778960  0.411651  1
  Au  Au10  1  0.500000  0.471497  0.957776  1
  Au  Au11  1  0.000000  0.028503  0.042224  1
  Au  Au12  1  0.500000  0.221841  0.401409  1
  Au  Au13  1  0.000000  0.278159  0.598591  1
