# generated using pymatgen
data_Yb3HoIrRu3O14
_symmetry_space_group_name_H-M   'P 1'
_cell_length_a   7.22605104
_cell_length_b   7.22605170
_cell_length_c   7.19944200
_cell_angle_alpha   59.87766423
_cell_angle_beta   59.87765813
_cell_angle_gamma   60.00000606
_symmetry_Int_Tables_number   1
_chemical_formula_structural   Yb3HoIrRu3O14
_chemical_formula_sum   'Yb3 Ho1 Ir1 Ru3 O14'
_cell_volume   265.32635623
_cell_formula_units_Z   1
loop_
 _symmetry_equiv_pos_site_id
 _symmetry_equiv_pos_as_xyz
  1  'x, y, z'
loop_
 _atom_site_type_symbol
 _atom_site_label
 _atom_site_symmetry_multiplicity
 _atom_site_fract_x
 _atom_site_fract_y
 _atom_site_fract_z
 _atom_site_occupancy
  Yb  Yb0  1  0.625000  0.125000  0.625000  1
  Yb  Yb1  1  0.125000  0.625000  0.625000  1
  Yb  Yb2  1  0.625000  0.625000  0.625000  1
  Ho  Ho3  1  0.625000  0.625000  0.125000  1
  Ir  Ir4  1  0.125000  0.125000  0.625000  1
  Ru  Ru5  1  0.125000  0.625000  0.125000  1
  Ru  Ru6  1  0.625000  0.125000  0.125000  1
  Ru  Ru7  1  0.125000  0.125000  0.125000  1
  O  O8  1  0.451777  0.049216  0.449791  1
  O  O9  1  0.200784  0.798223  0.800209  1
  O  O10  1  0.799354  0.203735  0.197557  1
  O  O11  1  0.203735  0.799354  0.197557  1
  O  O12  1  0.799354  0.799354  0.197557  1
  O  O13  1  0.200784  0.200784  0.800209  1
  O  O14  1  0.450646  0.450646  0.052443  1
  O  O15  1  0.049216  0.451777  0.449791  1
  O  O16  1  0.450646  0.046265  0.052443  1
  O  O17  1  0.049216  0.049216  0.449791  1
  O  O18  1  0.798223  0.200784  0.800209  1
  O  O19  1  0.046265  0.450646  0.052443  1
  O  O20  1  0.503062  0.503062  0.490814  1
  O  O21  1  0.746938  0.746938  0.759186  1
