# generated using pymatgen
data_HoEr6Th(ReB6)4
_symmetry_space_group_name_H-M   'P 1'
_cell_length_a   3.68787200
_cell_length_b   9.16001336
_cell_length_c   11.55011701
_cell_angle_alpha   90.03316537
_cell_angle_beta   90.00000000
_cell_angle_gamma   90.00000000
_symmetry_Int_Tables_number   1
_chemical_formula_structural   HoEr6Th(ReB6)4
_chemical_formula_sum   'Ho1 Er6 Th1 Re4 B24'
_cell_volume   390.17393801
_cell_formula_units_Z   1
loop_
 _symmetry_equiv_pos_site_id
 _symmetry_equiv_pos_as_xyz
  1  'x, y, z'
loop_
 _atom_site_type_symbol
 _atom_site_label
 _atom_site_symmetry_multiplicity
 _atom_site_fract_x
 _atom_site_fract_y
 _atom_site_fract_z
 _atom_site_occupancy
  Ho  Ho0  1  0.000000  0.677992  0.587391  1
  Er  Er1  1  0.000000  0.823210  0.085023  1
  Er  Er2  1  0.000000  0.175975  0.914007  1
  Er  Er3  1  0.000000  0.941994  0.369436  1
  Er  Er4  1  0.000000  0.055895  0.631434  1
  Er  Er5  1  0.000000  0.443576  0.128006  1
  Er  Er6  1  0.000000  0.557454  0.870889  1
  Th  Th7  1  0.000000  0.322202  0.414079  1
  Re  Re8  1  0.000000  0.639660  0.320002  1
  Re  Re9  1  0.000000  0.361524  0.680942  1
  Re  Re10  1  0.000000  0.138141  0.177906  1
  Re  Re11  1  0.000000  0.861466  0.821191  1
  B  B12  1  0.500000  0.556005  0.432270  1
  B  B13  1  0.500000  0.447137  0.569829  1
  B  B14  1  0.500000  0.052816  0.065975  1
  B  B15  1  0.500000  0.946606  0.933097  1
  B  B16  1  0.500000  0.750627  0.418237  1
  B  B17  1  0.500000  0.250330  0.585285  1
  B  B18  1  0.500000  0.249012  0.079716  1
  B  B19  1  0.500000  0.750595  0.918695  1
  B  B20  1  0.500000  0.792531  0.264702  1
  B  B21  1  0.500000  0.207711  0.736552  1
  B  B22  1  0.500000  0.290638  0.231830  1
  B  B23  1  0.500000  0.707910  0.765797  1
  B  B24  1  0.500000  0.632049  0.183921  1
  B  B25  1  0.500000  0.369725  0.815835  1
  B  B26  1  0.500000  0.128822  0.312231  1
  B  B27  1  0.500000  0.869118  0.685929  1
  B  B28  1  0.500000  0.981460  0.210739  1
  B  B29  1  0.500000  0.017497  0.788683  1
  B  B30  1  0.500000  0.485384  0.285839  1
  B  B31  1  0.500000  0.518420  0.713866  1
  B  B32  1  0.500000  0.601115  0.027569  1
  B  B33  1  0.500000  0.399696  0.971599  1
  B  B34  1  0.500000  0.096414  0.473177  1
  B  B35  1  0.500000  0.899293  0.528320  1
