# generated using pymatgen
data_TmLu9(In2Co)4
_symmetry_space_group_name_H-M   'P 1'
_cell_length_a   3.49507700
_cell_length_b   7.85569449
_cell_length_c   17.80597612
_cell_angle_alpha   90.04064503
_cell_angle_beta   90.00000000
_cell_angle_gamma   90.00000000
_symmetry_Int_Tables_number   1
_chemical_formula_structural   TmLu9(In2Co)4
_chemical_formula_sum   'Tm1 Lu9 In8 Co4'
_cell_volume   488.88533607
_cell_formula_units_Z   1
loop_
 _symmetry_equiv_pos_site_id
 _symmetry_equiv_pos_as_xyz
  1  'x, y, z'
loop_
 _atom_site_type_symbol
 _atom_site_label
 _atom_site_symmetry_multiplicity
 _atom_site_fract_x
 _atom_site_fract_y
 _atom_site_fract_z
 _atom_site_occupancy
  Tm  Tm0  1  0.000000  0.500000  0.000000  1
  Lu  Lu1  1  0.000000  0.884527  0.090632  1
  Lu  Lu2  1  0.000000  0.752943  0.278314  1
  Lu  Lu3  1  0.000000  0.746964  0.778334  1
  Lu  Lu4  1  0.000000  0.384427  0.409525  1
  Lu  Lu5  1  0.000000  0.115473  0.909368  1
  Lu  Lu6  1  0.000000  0.247057  0.721686  1
  Lu  Lu7  1  0.000000  0.253036  0.221666  1
  Lu  Lu8  1  0.000000  0.615573  0.590475  1
  Lu  Lu9  1  0.000000  0.000000  0.500000  1
  In  In10  1  0.500000  0.205456  0.068221  1
  In  In11  1  0.500000  0.428215  0.848021  1
  In  In12  1  0.500000  0.571785  0.151979  1
  In  In13  1  0.500000  0.072109  0.347815  1
  In  In14  1  0.500000  0.927891  0.652185  1
  In  In15  1  0.500000  0.794544  0.931779  1
  In  In16  1  0.500000  0.705859  0.431696  1
  In  In17  1  0.500000  0.294141  0.568304  1
  Co  Co18  1  0.500000  0.976115  0.196357  1
  Co  Co19  1  0.500000  0.023885  0.803643  1
  Co  Co20  1  0.500000  0.523978  0.696333  1
  Co  Co21  1  0.500000  0.476022  0.303667  1
