# generated using pymatgen
data_Tc2IrRu5
_symmetry_space_group_name_H-M   'P 1'
_cell_length_a   5.47700800
_cell_length_b   5.48509131
_cell_length_c   4.33864900
_cell_angle_alpha   90.00000000
_cell_angle_beta   90.00000000
_cell_angle_gamma   119.95127483
_symmetry_Int_Tables_number   1
_chemical_formula_structural   Tc2IrRu5
_chemical_formula_sum   'Tc2 Ir1 Ru5'
_cell_volume   112.93418163
_cell_formula_units_Z   1
loop_
 _symmetry_equiv_pos_site_id
 _symmetry_equiv_pos_as_xyz
  1  'x, y, z'
loop_
 _atom_site_type_symbol
 _atom_site_label
 _atom_site_symmetry_multiplicity
 _atom_site_fract_x
 _atom_site_fract_y
 _atom_site_fract_z
 _atom_site_occupancy
  Tc  Tc0  1  0.335220  0.670441  0.750000  1
  Tc  Tc1  1  0.665931  0.331860  0.250000  1
  Ir  Ir2  1  0.167057  0.334115  0.250000  1
  Ru  Ru3  1  0.665423  0.834982  0.250000  1
  Ru  Ru4  1  0.169558  0.834982  0.250000  1
  Ru  Ru5  1  0.832935  0.665868  0.750000  1
  Ru  Ru6  1  0.334167  0.163876  0.750000  1
  Ru  Ru7  1  0.829710  0.163876  0.750000  1
