# generated using pymatgen
data_Dy4Lu(GaSb)2
_symmetry_space_group_name_H-M   'P 1'
_cell_length_a   8.62001757
_cell_length_b   8.62001859
_cell_length_c   7.89946500
_cell_angle_alpha   90.00000000
_cell_angle_beta   90.00000000
_cell_angle_gamma   125.51428761
_symmetry_Int_Tables_number   1
_chemical_formula_structural   Dy4Lu(GaSb)2
_chemical_formula_sum   'Dy8 Lu2 Ga4 Sb4'
_cell_volume   477.77431334
_cell_formula_units_Z   2
loop_
 _symmetry_equiv_pos_site_id
 _symmetry_equiv_pos_as_xyz
  1  'x, y, z'
loop_
 _atom_site_type_symbol
 _atom_site_label
 _atom_site_symmetry_multiplicity
 _atom_site_fract_x
 _atom_site_fract_y
 _atom_site_fract_z
 _atom_site_occupancy
  Dy  Dy0  1  0.037521  0.298290  0.333290  1
  Dy  Dy1  1  0.962479  0.701710  0.666710  1
  Dy  Dy2  1  0.462479  0.201710  0.833290  1
  Dy  Dy3  1  0.798290  0.537521  0.166710  1
  Dy  Dy4  1  0.537521  0.798290  0.166710  1
  Dy  Dy5  1  0.201710  0.462479  0.833290  1
  Dy  Dy6  1  0.701710  0.962479  0.666710  1
  Dy  Dy7  1  0.298290  0.037521  0.333290  1
  Lu  Lu8  1  0.000000  0.000000  0.000000  1
  Lu  Lu9  1  0.500000  0.500000  0.500000  1
  Ga  Ga10  1  0.372422  0.372422  0.127498  1
  Ga  Ga11  1  0.627578  0.627578  0.872502  1
  Ga  Ga12  1  0.127578  0.127578  0.627498  1
  Ga  Ga13  1  0.872422  0.872422  0.372502  1
  Sb  Sb14  1  0.795945  0.204055  0.000000  1
  Sb  Sb15  1  0.204055  0.795945  0.000000  1
  Sb  Sb16  1  0.704055  0.295945  0.500000  1
  Sb  Sb17  1  0.295945  0.704055  0.500000  1
