# generated using pymatgen
data_Sr4GaSi6Ag
_symmetry_space_group_name_H-M   'P 1'
_cell_length_a   8.68256598
_cell_length_b   8.43039816
_cell_length_c   6.27290477
_cell_angle_alpha   70.65594642
_cell_angle_beta   66.36858310
_cell_angle_gamma   42.97547164
_symmetry_Int_Tables_number   1
_chemical_formula_structural   Sr4GaSi6Ag
_chemical_formula_sum   'Sr4 Ga1 Si6 Ag1'
_cell_volume   286.22551992
_cell_formula_units_Z   1
loop_
 _symmetry_equiv_pos_site_id
 _symmetry_equiv_pos_as_xyz
  1  'x, y, z'
loop_
 _atom_site_type_symbol
 _atom_site_label
 _atom_site_symmetry_multiplicity
 _atom_site_fract_x
 _atom_site_fract_y
 _atom_site_fract_z
 _atom_site_occupancy
  Sr  Sr0  1  0.246782  0.753948  0.246053  1
  Sr  Sr1  1  0.249857  0.249856  0.250144  1
  Sr  Sr2  1  0.749856  0.749856  0.750145  1
  Sr  Sr3  1  0.753947  0.246782  0.753218  1
  Ga  Ga4  1  0.667555  0.667556  0.332445  1
  Si  Si5  1  0.838230  0.838230  0.161770  1
  Si  Si6  1  0.836550  0.323517  0.163450  1
  Si  Si7  1  0.672164  0.164236  0.327836  1
  Si  Si8  1  0.323517  0.836551  0.676483  1
  Si  Si9  1  0.164236  0.672165  0.835764  1
  Si  Si10  1  0.164065  0.164065  0.835935  1
  Ag  Ag11  1  0.333239  0.333239  0.666761  1
