# generated using pymatgen
data_V5BiMoPb7O24
_symmetry_space_group_name_H-M   'P 1'
_cell_length_a   9.64392686
_cell_length_b   9.60782985
_cell_length_c   9.62783812
_cell_angle_alpha   109.20798229
_cell_angle_beta   109.33263224
_cell_angle_gamma   109.74645194
_symmetry_Int_Tables_number   1
_chemical_formula_structural   V5BiMoPb7O24
_chemical_formula_sum   'V5 Bi1 Mo1 Pb7 O24'
_cell_volume   687.78844703
_cell_formula_units_Z   1
loop_
 _symmetry_equiv_pos_site_id
 _symmetry_equiv_pos_as_xyz
  1  'x, y, z'
loop_
 _atom_site_type_symbol
 _atom_site_label
 _atom_site_symmetry_multiplicity
 _atom_site_fract_x
 _atom_site_fract_y
 _atom_site_fract_z
 _atom_site_occupancy
  V  V0  1  0.375334  0.622513  0.747001  1
  V  V1  1  0.878658  0.253115  0.129156  1
  V  V2  1  0.622758  0.744538  0.374143  1
  V  V3  1  0.250415  0.126116  0.878087  1
  V  V4  1  0.744589  0.374171  0.621663  1
  Bi  Bi5  1  0.330244  0.343829  0.317778  1
  Mo  Mo6  1  0.128419  0.879569  0.250802  1
  Pb  Pb7  1  0.164965  0.495762  0.990260  1
  Pb  Pb8  1  0.002305  0.174669  0.509385  1
  Pb  Pb9  1  0.827870  0.833855  0.829055  1
  Pb  Pb10  1  0.520614  0.009936  0.168454  1
  Pb  Pb11  1  0.650060  0.483779  0.989549  1
  Pb  Pb12  1  0.507743  0.001478  0.673847  1
  Pb  Pb13  1  0.991523  0.658089  0.511185  1
  O  O14  1  0.305777  0.166210  0.088966  1
  O  O15  1  0.188936  0.265610  0.838476  1
  O  O16  1  0.920604  0.345526  0.654412  1
  O  O17  1  0.162788  0.092725  0.305267  1
  O  O18  1  0.806671  0.579325  0.649214  1
  O  O19  1  0.571888  0.230757  0.416865  1
  O  O20  1  0.275136  0.843144  0.190525  1
  O  O21  1  0.684315  0.345617  0.766214  1
  O  O22  1  0.343602  0.647586  0.920062  1
  O  O23  1  0.428731  0.158213  0.856126  1
  O  O24  1  0.231977  0.419010  0.567639  1
  O  O25  1  0.082151  0.920711  0.737592  1
  O  O26  1  0.089193  0.313137  0.164111  1
  O  O27  1  0.652738  0.811114  0.578146  1
  O  O28  1  0.645023  0.912031  0.334115  1
  O  O29  1  0.847064  0.423621  0.150865  1
  O  O30  1  0.417354  0.556519  0.235328  1
  O  O31  1  0.736887  0.079333  0.926647  1
  O  O32  1  0.841007  0.192687  0.270648  1
  O  O33  1  0.771802  0.691052  0.353626  1
  O  O34  1  0.579285  0.652814  0.807413  1
  O  O35  1  0.348365  0.770737  0.692292  1
  O  O36  1  0.918614  0.728956  0.074083  1
  O  O37  1  0.154592  0.852147  0.431002  1
