# generated using pymatgen
data_NdTh7(Si3Tc)4
_symmetry_space_group_name_H-M   'P 1'
_cell_length_a   8.37862700
_cell_length_b   8.37862776
_cell_length_c   8.15736900
_cell_angle_alpha   90.00000000
_cell_angle_beta   90.00000000
_cell_angle_gamma   119.99999304
_symmetry_Int_Tables_number   1
_chemical_formula_structural   NdTh7(Si3Tc)4
_chemical_formula_sum   'Nd1 Th7 Si12 Tc4'
_cell_volume   495.93701491
_cell_formula_units_Z   1
loop_
 _symmetry_equiv_pos_site_id
 _symmetry_equiv_pos_as_xyz
  1  'x, y, z'
loop_
 _atom_site_type_symbol
 _atom_site_label
 _atom_site_symmetry_multiplicity
 _atom_site_fract_x
 _atom_site_fract_y
 _atom_site_fract_z
 _atom_site_occupancy
  Nd  Nd0  1  0.000000  0.000000  0.250000  1
  Th  Th1  1  0.497203  0.502797  0.750000  1
  Th  Th2  1  0.503525  0.496475  0.250000  1
  Th  Th3  1  0.005594  0.502797  0.750000  1
  Th  Th4  1  0.992950  0.496475  0.250000  1
  Th  Th5  1  0.497203  0.994406  0.750000  1
  Th  Th6  1  0.503525  0.007050  0.250000  1
  Th  Th7  1  0.000000  0.000000  0.750000  1
  Si  Si8  1  0.834563  0.165437  0.001683  1
  Si  Si9  1  0.165826  0.834174  0.997480  1
  Si  Si10  1  0.330873  0.165437  0.001683  1
  Si  Si11  1  0.165826  0.834174  0.502520  1
  Si  Si12  1  0.668347  0.834174  0.997480  1
  Si  Si13  1  0.834563  0.165437  0.498317  1
  Si  Si14  1  0.834563  0.669127  0.001683  1
  Si  Si15  1  0.668347  0.834174  0.502520  1
  Si  Si16  1  0.165826  0.331653  0.997480  1
  Si  Si17  1  0.330873  0.165437  0.498317  1
  Si  Si18  1  0.165826  0.331653  0.502520  1
  Si  Si19  1  0.834563  0.669127  0.498317  1
  Tc  Tc20  1  0.666667  0.333333  0.978450  1
  Tc  Tc21  1  0.333333  0.666667  0.023002  1
  Tc  Tc22  1  0.333333  0.666667  0.476998  1
  Tc  Tc23  1  0.666667  0.333333  0.521550  1
