# generated using pymatgen
data_Pu4B16OsRu3
_symmetry_space_group_name_H-M   'P 1'
_cell_length_a   5.99873100
_cell_length_b   11.62132400
_cell_length_c   3.53812000
_cell_angle_alpha   90.00000000
_cell_angle_beta   90.00000000
_cell_angle_gamma   90.00137793
_symmetry_Int_Tables_number   1
_chemical_formula_structural   Pu4B16OsRu3
_chemical_formula_sum   'Pu4 B16 Os1 Ru3'
_cell_volume   246.65365491
_cell_formula_units_Z   1
loop_
 _symmetry_equiv_pos_site_id
 _symmetry_equiv_pos_as_xyz
  1  'x, y, z'
loop_
 _atom_site_type_symbol
 _atom_site_label
 _atom_site_symmetry_multiplicity
 _atom_site_fract_x
 _atom_site_fract_y
 _atom_site_fract_z
 _atom_site_occupancy
  Pu  Pu0  1  0.627270  0.350335  0.000000  1
  Pu  Pu1  1  0.373011  0.649634  0.000000  1
  Pu  Pu2  1  0.126859  0.150026  0.000000  1
  Pu  Pu3  1  0.872744  0.849790  0.000000  1
  B  B4  1  0.786390  0.186875  0.500000  1
  B  B5  1  0.213643  0.813203  0.500000  1
  B  B6  1  0.286358  0.313703  0.500000  1
  B  B7  1  0.713676  0.686307  0.500000  1
  B  B8  1  0.864547  0.031314  0.500000  1
  B  B9  1  0.135381  0.968540  0.500000  1
  B  B10  1  0.364658  0.468612  0.500000  1
  B  B11  1  0.635347  0.531562  0.500000  1
  B  B12  1  0.886458  0.453360  0.500000  1
  B  B13  1  0.113836  0.546790  0.500000  1
  B  B14  1  0.386300  0.046874  0.500000  1
  B  B15  1  0.613869  0.953255  0.500000  1
  B  B16  1  0.973617  0.308422  0.500000  1
  B  B17  1  0.026663  0.691690  0.500000  1
  B  B18  1  0.472912  0.191838  0.500000  1
  B  B19  1  0.526701  0.808075  0.500000  1
  Os  Os20  1  0.637825  0.091933  0.000000  1
  Ru  Ru21  1  0.361911  0.908030  0.000000  1
  Ru  Ru22  1  0.137200  0.408287  0.000000  1
  Ru  Ru23  1  0.862823  0.591546  0.000000  1
