# generated using pymatgen
data_Hf5Ti(SnRh2)6
_symmetry_space_group_name_H-M   'P 1'
_cell_length_a   4.29775500
_cell_length_b   7.35159100
_cell_length_c   12.86450200
_cell_angle_alpha   90.00000000
_cell_angle_beta   90.00001396
_cell_angle_gamma   90.00000000
_symmetry_Int_Tables_number   1
_chemical_formula_structural   Hf5Ti(SnRh2)6
_chemical_formula_sum   'Hf5 Ti1 Sn6 Rh12'
_cell_volume   406.45827576
_cell_formula_units_Z   1
loop_
 _symmetry_equiv_pos_site_id
 _symmetry_equiv_pos_as_xyz
  1  'x, y, z'
loop_
 _atom_site_type_symbol
 _atom_site_label
 _atom_site_symmetry_multiplicity
 _atom_site_fract_x
 _atom_site_fract_y
 _atom_site_fract_z
 _atom_site_occupancy
  Hf  Hf0  1  0.000001  0.499999  0.998867  1
  Hf  Hf1  1  0.500026  0.000000  0.165487  1
  Hf  Hf2  1  0.000013  0.499999  0.333307  1
  Hf  Hf3  1  0.500012  0.000000  0.501176  1
  Hf  Hf4  1  0.999987  0.499999  0.667819  1
  Ti  Ti5  1  0.499978  0.000000  0.833352  1
  Sn  Sn6  1  0.000008  0.000000  0.995271  1
  Sn  Sn7  1  0.500010  0.499999  0.165252  1
  Sn  Sn8  1  0.999917  0.000000  0.333224  1
  Sn  Sn9  1  0.500018  0.499999  0.501413  1
  Sn  Sn10  1  0.999989  0.000000  0.671418  1
  Sn  Sn11  1  0.499997  0.499999  0.833410  1
  Rh  Rh12  1  0.500001  0.247961  0.997482  1
  Rh  Rh13  1  0.500001  0.752039  0.997482  1
  Rh  Rh14  1  0.000018  0.248691  0.165542  1
  Rh  Rh15  1  0.000018  0.751309  0.165542  1
  Rh  Rh16  1  0.500024  0.250647  0.333317  1
  Rh  Rh17  1  0.500024  0.749353  0.333317  1
  Rh  Rh18  1  0.000002  0.248769  0.501104  1
  Rh  Rh19  1  0.000002  0.751231  0.501104  1
  Rh  Rh20  1  0.499983  0.247921  0.669206  1
  Rh  Rh21  1  0.499983  0.752079  0.669206  1
  Rh  Rh22  1  0.999989  0.245713  0.833350  1
  Rh  Rh23  1  0.999989  0.754287  0.833350  1
