# generated using pymatgen
data_Ca4V4Co3Ni(P2O9)4
_symmetry_space_group_name_H-M   'P 1'
_cell_length_a   6.47149500
_cell_length_b   7.49245200
_cell_length_c   14.26355600
_cell_angle_alpha   90.00000000
_cell_angle_beta   90.00000000
_cell_angle_gamma   90.00000000
_symmetry_Int_Tables_number   1
_chemical_formula_structural   Ca4V4Co3Ni(P2O9)4
_chemical_formula_sum   'Ca4 V4 Co3 Ni1 P8 O36'
_cell_volume   691.60225532
_cell_formula_units_Z   1
loop_
 _symmetry_equiv_pos_site_id
 _symmetry_equiv_pos_as_xyz
  1  'x, y, z'
loop_
 _atom_site_type_symbol
 _atom_site_label
 _atom_site_symmetry_multiplicity
 _atom_site_fract_x
 _atom_site_fract_y
 _atom_site_fract_z
 _atom_site_occupancy
  Ca  Ca0  1  0.750443  0.881668  0.779831  1
  Ca  Ca1  1  0.749990  0.618175  0.278849  1
  Ca  Ca2  1  0.249557  0.118332  0.220169  1
  Ca  Ca3  1  0.250010  0.381825  0.721151  1
  V  V4  1  0.750210  0.345604  0.882807  1
  V  V5  1  0.249790  0.654396  0.117193  1
  V  V6  1  0.250013  0.846690  0.617875  1
  V  V7  1  0.749987  0.153310  0.382125  1
  Co  Co8  1  0.500000  0.000000  0.000000  1
  Co  Co9  1  0.500000  0.500000  0.500000  1
  Co  Co10  1  0.000000  0.500000  0.500000  1
  Ni  Ni11  1  0.000000  0.000000  0.000000  1
  P  P12  1  0.249212  0.351709  0.937449  1
  P  P13  1  0.750788  0.648291  0.062551  1
  P  P14  1  0.749965  0.852884  0.563068  1
  P  P15  1  0.250035  0.147116  0.436932  1
  P  P16  1  0.749963  0.384400  0.692861  1
  P  P17  1  0.250037  0.615600  0.307139  1
  P  P18  1  0.249491  0.885141  0.808136  1
  P  P19  1  0.750509  0.114859  0.191864  1
  O  O20  1  0.052291  0.608417  0.366908  1
  O  O21  1  0.552250  0.391597  0.633079  1
  O  O22  1  0.947986  0.107217  0.132024  1
  O  O23  1  0.448359  0.893538  0.867593  1
  O  O24  1  0.947709  0.391583  0.633092  1
  O  O25  1  0.447750  0.608403  0.366921  1
  O  O26  1  0.052014  0.892783  0.867976  1
  O  O27  1  0.551641  0.106462  0.132407  1
  O  O28  1  0.250033  0.333604  0.483313  1
  O  O29  1  0.749967  0.666396  0.516687  1
  O  O30  1  0.752596  0.833716  0.015683  1
  O  O31  1  0.247404  0.166284  0.984317  1
  O  O32  1  0.753228  0.142642  0.939075  1
  O  O33  1  0.246772  0.857358  0.060925  1
  O  O34  1  0.249983  0.643328  0.561922  1
  O  O35  1  0.750017  0.356672  0.438078  1
  O  O36  1  0.749950  0.211865  0.755334  1
  O  O37  1  0.250050  0.788135  0.244666  1
  O  O38  1  0.249620  0.712486  0.745848  1
  O  O39  1  0.750380  0.287514  0.254152  1
  O  O40  1  0.437630  0.129900  0.369315  1
  O  O41  1  0.937631  0.870107  0.630644  1
  O  O42  1  0.562285  0.631916  0.129890  1
  O  O43  1  0.062146  0.370157  0.869478  1
  O  O44  1  0.562370  0.870100  0.630685  1
  O  O45  1  0.062369  0.129893  0.369356  1
  O  O46  1  0.437715  0.368084  0.870110  1
  O  O47  1  0.937854  0.629843  0.130522  1
  O  O48  1  0.750234  0.965659  0.269849  1
  O  O49  1  0.249766  0.034341  0.730151  1
  O  O50  1  0.250194  0.466077  0.229337  1
  O  O51  1  0.749806  0.533923  0.770663  1
  O  O52  1  0.749974  0.993204  0.486297  1
  O  O53  1  0.250026  0.006796  0.513703  1
  O  O54  1  0.250108  0.493294  0.013648  1
  O  O55  1  0.749892  0.506706  0.986352  1
