# generated using pymatgen
data_Ti3Nb3Co16Si6P
_symmetry_space_group_name_H-M   'P 1'
_cell_length_a   7.89317949
_cell_length_b   7.86743079
_cell_length_c   7.86911321
_cell_angle_alpha   60.24673567
_cell_angle_beta   59.88466385
_cell_angle_gamma   59.90579782
_symmetry_Int_Tables_number   1
_chemical_formula_structural   Ti3Nb3Co16Si6P
_chemical_formula_sum   'Ti3 Nb3 Co16 Si6 P1'
_cell_volume   345.62632905
_cell_formula_units_Z   1
loop_
 _symmetry_equiv_pos_site_id
 _symmetry_equiv_pos_as_xyz
  1  'x, y, z'
loop_
 _atom_site_type_symbol
 _atom_site_label
 _atom_site_symmetry_multiplicity
 _atom_site_fract_x
 _atom_site_fract_y
 _atom_site_fract_z
 _atom_site_occupancy
  Ti  Ti0  1  0.202608  0.204801  0.795199  1
  Ti  Ti1  1  0.797650  0.205224  0.794776  1
  Ti  Ti2  1  0.203462  0.795722  0.204278  1
  Nb  Nb3  1  0.201258  0.799414  0.798669  1
  Nb  Nb4  1  0.799486  0.797344  0.202656  1
  Nb  Nb5  1  0.799341  0.201331  0.200586  1
  Co  Co6  1  0.618149  0.619004  0.144052  1
  Co  Co7  1  0.166870  0.500672  0.166626  1
  Co  Co8  1  0.857492  0.379737  0.380679  1
  Co  Co9  1  0.497080  0.837550  0.837895  1
  Co  Co10  1  0.500755  0.163846  0.162657  1
  Co  Co11  1  0.834170  0.833374  0.499328  1
  Co  Co12  1  0.165549  0.166041  0.502666  1
  Co  Co13  1  0.141851  0.619785  0.619870  1
  Co  Co14  1  0.172525  0.162105  0.162450  1
  Co  Co15  1  0.381533  0.380206  0.856439  1
  Co  Co16  1  0.617909  0.619321  0.620263  1
  Co  Co17  1  0.381205  0.855948  0.380996  1
  Co  Co18  1  0.381506  0.380130  0.380215  1
  Co  Co19  1  0.827258  0.837343  0.836154  1
  Co  Co20  1  0.618179  0.143561  0.619794  1
  Co  Co21  1  0.834258  0.497334  0.833959  1
  Si  Si22  1  0.498424  0.001580  0.501647  1
  Si  Si23  1  0.500268  0.500390  0.999626  1
  Si  Si24  1  0.499401  0.499435  0.500565  1
  Si  Si25  1  0.000284  0.000374  0.499610  1
  Si  Si26  1  0.001651  0.498353  0.998420  1
  Si  Si27  1  0.001340  0.498554  0.501446  1
  P  P28  1  0.498540  0.001522  0.998478  1
