# generated using pymatgen
data_Tb3Tc2P6Rh7
_symmetry_space_group_name_H-M   'P 1'
_cell_length_a   3.96980700
_cell_length_b   11.21079400
_cell_length_c   12.69047800
_cell_angle_alpha   90.00000000
_cell_angle_beta   90.00000000
_cell_angle_gamma   90.00000000
_symmetry_Int_Tables_number   1
_chemical_formula_structural   Tb3Tc2P6Rh7
_chemical_formula_sum   'Tb6 Tc4 P12 Rh14'
_cell_volume   564.78577026
_cell_formula_units_Z   2
loop_
 _symmetry_equiv_pos_site_id
 _symmetry_equiv_pos_as_xyz
  1  'x, y, z'
loop_
 _atom_site_type_symbol
 _atom_site_label
 _atom_site_symmetry_multiplicity
 _atom_site_fract_x
 _atom_site_fract_y
 _atom_site_fract_z
 _atom_site_occupancy
  Tb  Tb0  1  0.000000  0.500000  0.519792  1
  Tb  Tb1  1  0.500000  0.000000  0.480208  1
  Tb  Tb2  1  0.500000  0.816291  0.203130  1
  Tb  Tb3  1  0.500000  0.183709  0.203130  1
  Tb  Tb4  1  0.000000  0.683709  0.796870  1
  Tb  Tb5  1  0.000000  0.316291  0.796870  1
  Tc  Tc6  1  0.500000  0.500000  0.157994  1
  Tc  Tc7  1  0.000000  0.000000  0.842006  1
  Tc  Tc8  1  0.000000  0.500000  0.985878  1
  Tc  Tc9  1  0.500000  0.000000  0.014122  1
  P  P10  1  0.500000  0.500000  0.877964  1
  P  P11  1  0.000000  0.000000  0.122036  1
  P  P12  1  0.500000  0.500000  0.342830  1
  P  P13  1  0.000000  0.000000  0.657170  1
  P  P14  1  0.500000  0.311971  0.618716  1
  P  P15  1  0.500000  0.688029  0.618716  1
  P  P16  1  0.000000  0.188029  0.381284  1
  P  P17  1  0.000000  0.811971  0.381284  1
  P  P18  1  0.500000  0.850611  0.892323  1
  P  P19  1  0.500000  0.149389  0.892323  1
  P  P20  1  0.000000  0.649389  0.107677  1
  P  P21  1  0.000000  0.350611  0.107677  1
  Rh  Rh22  1  0.500000  0.500000  0.694950  1
  Rh  Rh23  1  0.000000  0.000000  0.305050  1
  Rh  Rh24  1  0.500000  0.329957  0.983576  1
  Rh  Rh25  1  0.500000  0.670043  0.983576  1
  Rh  Rh26  1  0.000000  0.170043  0.016424  1
  Rh  Rh27  1  0.000000  0.829957  0.016424  1
  Rh  Rh28  1  0.500000  0.294460  0.430645  1
  Rh  Rh29  1  0.500000  0.705540  0.430645  1
  Rh  Rh30  1  0.000000  0.205540  0.569355  1
  Rh  Rh31  1  0.000000  0.794460  0.569355  1
  Rh  Rh32  1  0.500000  0.875835  0.709624  1
  Rh  Rh33  1  0.500000  0.124165  0.709624  1
  Rh  Rh34  1  0.000000  0.624165  0.290376  1
  Rh  Rh35  1  0.000000  0.375835  0.290376  1
