# generated using pymatgen
data_Hf8GaTe6
_symmetry_space_group_name_H-M   'P 1'
_cell_length_a   3.88051200
_cell_length_b   7.67625900
_cell_length_c   25.51920900
_cell_angle_alpha   90.00000000
_cell_angle_beta   90.00000000
_cell_angle_gamma   90.00000000
_symmetry_Int_Tables_number   1
_chemical_formula_structural   Hf8GaTe6
_chemical_formula_sum   'Hf16 Ga2 Te12'
_cell_volume   760.16148084
_cell_formula_units_Z   2
loop_
 _symmetry_equiv_pos_site_id
 _symmetry_equiv_pos_as_xyz
  1  'x, y, z'
loop_
 _atom_site_type_symbol
 _atom_site_label
 _atom_site_symmetry_multiplicity
 _atom_site_fract_x
 _atom_site_fract_y
 _atom_site_fract_z
 _atom_site_occupancy
  Hf  Hf0  1  0.000000  0.419626  0.000000  1
  Hf  Hf1  1  0.500000  0.446252  0.303255  1
  Hf  Hf2  1  0.000000  0.552860  0.596421  1
  Hf  Hf3  1  0.500000  0.447140  0.903579  1
  Hf  Hf4  1  0.500000  0.228628  0.569145  1
  Hf  Hf5  1  0.500000  0.580374  0.500000  1
  Hf  Hf6  1  0.000000  0.942041  0.500000  1
  Hf  Hf7  1  0.000000  0.771372  0.930855  1
  Hf  Hf8  1  0.500000  0.057959  0.000000  1
  Hf  Hf9  1  0.500000  0.228628  0.430855  1
  Hf  Hf10  1  0.000000  0.553748  0.803255  1
  Hf  Hf11  1  0.500000  0.447140  0.096421  1
  Hf  Hf12  1  0.000000  0.771372  0.069145  1
  Hf  Hf13  1  0.000000  0.553748  0.196745  1
  Hf  Hf14  1  0.000000  0.552860  0.403579  1
  Hf  Hf15  1  0.500000  0.446252  0.696745  1
  Ga  Ga16  1  0.500000  0.677647  0.000000  1
  Ga  Ga17  1  0.000000  0.322353  0.500000  1
  Te  Te18  1  0.000000  0.204086  0.343533  1
  Te  Te19  1  0.500000  0.279526  0.797391  1
  Te  Te20  1  0.500000  0.795914  0.843533  1
  Te  Te21  1  0.000000  0.720474  0.297391  1
  Te  Te22  1  0.500000  0.851795  0.582391  1
  Te  Te23  1  0.500000  0.279526  0.202609  1
  Te  Te24  1  0.500000  0.851795  0.417609  1
  Te  Te25  1  0.000000  0.720474  0.702609  1
  Te  Te26  1  0.000000  0.204086  0.656467  1
  Te  Te27  1  0.500000  0.795914  0.156467  1
  Te  Te28  1  0.000000  0.148205  0.917609  1
  Te  Te29  1  0.000000  0.148205  0.082391  1
