# generated using pymatgen
data_Zr6Zn17Ag6As
_symmetry_space_group_name_H-M   'P 1'
_cell_length_a   8.90223492
_cell_length_b   8.90170061
_cell_length_c   8.90170100
_cell_angle_alpha   60.00000228
_cell_angle_beta   60.00198767
_cell_angle_gamma   60.00198722
_symmetry_Int_Tables_number   1
_chemical_formula_structural   Zr6Zn17Ag6As
_chemical_formula_sum   'Zr6 Zn17 Ag6 As1'
_cell_volume   498.81912052
_cell_formula_units_Z   1
loop_
 _symmetry_equiv_pos_site_id
 _symmetry_equiv_pos_as_xyz
  1  'x, y, z'
loop_
 _atom_site_type_symbol
 _atom_site_label
 _atom_site_symmetry_multiplicity
 _atom_site_fract_x
 _atom_site_fract_y
 _atom_site_fract_z
 _atom_site_occupancy
  Zr  Zr0  1  0.707437  0.291820  0.291820  1
  Zr  Zr1  1  0.292563  0.708180  0.708180  1
  Zr  Zr2  1  0.292563  0.708180  0.291077  1
  Zr  Zr3  1  0.707437  0.291820  0.708923  1
  Zr  Zr4  1  0.292563  0.291077  0.708180  1
  Zr  Zr5  1  0.707437  0.708923  0.291820  1
  Zn  Zn6  1  0.633923  0.122026  0.122026  1
  Zn  Zn7  1  0.366077  0.877974  0.877974  1
  Zn  Zn8  1  0.500000  0.000000  0.000000  1
  Zn  Zn9  1  0.000000  0.500000  0.500000  1
  Zn  Zn10  1  0.000000  0.500000  0.000000  1
  Zn  Zn11  1  0.500000  0.000000  0.500000  1
  Zn  Zn12  1  0.000000  0.000000  0.500000  1
  Zn  Zn13  1  0.500000  0.500000  0.000000  1
  Zn  Zn14  1  0.336175  0.335125  0.335125  1
  Zn  Zn15  1  0.663825  0.664875  0.664875  1
  Zn  Zn16  1  0.336175  0.335125  0.993578  1
  Zn  Zn17  1  0.336175  0.993578  0.335125  1
  Zn  Zn18  1  0.663825  0.664875  0.006422  1
  Zn  Zn19  1  0.663825  0.006422  0.664875  1
  Zn  Zn20  1  0.993451  0.335517  0.335517  1
  Zn  Zn21  1  0.006549  0.664483  0.664483  1
  Zn  Zn22  1  0.000000  0.000000  0.000000  1
  Ag  Ag23  1  0.121530  0.120264  0.120264  1
  Ag  Ag24  1  0.878470  0.879736  0.879736  1
  Ag  Ag25  1  0.121530  0.120264  0.637942  1
  Ag  Ag26  1  0.121530  0.637942  0.120264  1
  Ag  Ag27  1  0.878470  0.879736  0.362058  1
  Ag  Ag28  1  0.878470  0.362058  0.879736  1
  As  As29  1  0.500000  0.500000  0.500000  1
