# generated using pymatgen
data_Ca8Tl3
_symmetry_space_group_name_H-M   'P 1'
_cell_length_a   9.54435061
_cell_length_b   9.57750751
_cell_length_c   9.66734100
_cell_angle_alpha   98.89030639
_cell_angle_beta   101.19613394
_cell_angle_gamma   119.76464599
_symmetry_Int_Tables_number   1
_chemical_formula_structural   Ca8Tl3
_chemical_formula_sum   'Ca16 Tl6'
_cell_volume   719.10250232
_cell_formula_units_Z   2
loop_
 _symmetry_equiv_pos_site_id
 _symmetry_equiv_pos_as_xyz
  1  'x, y, z'
loop_
 _atom_site_type_symbol
 _atom_site_label
 _atom_site_symmetry_multiplicity
 _atom_site_fract_x
 _atom_site_fract_y
 _atom_site_fract_z
 _atom_site_occupancy
  Ca  Ca0  1  0.122144  0.099639  0.354031  1
  Ca  Ca1  1  0.297627  0.003643  0.887468  1
  Ca  Ca2  1  0.959674  0.560263  0.669912  1
  Ca  Ca3  1  0.330180  0.379914  0.112772  1
  Ca  Ca4  1  0.540525  0.207776  0.294427  1
  Ca  Ca5  1  0.669820  0.620086  0.887228  1
  Ca  Ca6  1  0.877856  0.900361  0.645969  1
  Ca  Ca7  1  0.918231  0.268037  0.892077  1
  Ca  Ca8  1  0.227552  0.346782  0.704438  1
  Ca  Ca9  1  0.040326  0.439737  0.330088  1
  Ca  Ca10  1  0.459475  0.792224  0.705573  1
  Ca  Ca11  1  0.772448  0.653218  0.295562  1
  Ca  Ca12  1  0.531276  0.200955  0.648426  1
  Ca  Ca13  1  0.081769  0.731963  0.107923  1
  Ca  Ca14  1  0.468724  0.799045  0.351574  1
  Ca  Ca15  1  0.702373  0.996357  0.112532  1
  Tl  Tl16  1  0.675651  0.338079  0.024336  1
  Tl  Tl17  1  0.827543  0.163206  0.500163  1
  Tl  Tl18  1  0.324349  0.661921  0.975664  1
  Tl  Tl19  1  0.000000  0.000000  0.000000  1
  Tl  Tl20  1  0.172457  0.836794  0.499837  1
  Tl  Tl21  1  0.500000  0.500000  0.500000  1
