# generated using pymatgen
data_Dy12AlSi7Rh8
_symmetry_space_group_name_H-M   'P 1'
_cell_length_a   5.58536600
_cell_length_b   7.85367365
_cell_length_c   13.07636776
_cell_angle_alpha   89.83998407
_cell_angle_beta   90.00000000
_cell_angle_gamma   90.00000000
_symmetry_Int_Tables_number   1
_chemical_formula_structural   Dy12AlSi7Rh8
_chemical_formula_sum   'Dy12 Al1 Si7 Rh8'
_cell_volume   573.60102700
_cell_formula_units_Z   1
loop_
 _symmetry_equiv_pos_site_id
 _symmetry_equiv_pos_as_xyz
  1  'x, y, z'
loop_
 _atom_site_type_symbol
 _atom_site_label
 _atom_site_symmetry_multiplicity
 _atom_site_fract_x
 _atom_site_fract_y
 _atom_site_fract_z
 _atom_site_occupancy
  Dy  Dy0  1  0.631819  0.251516  0.251557  1
  Dy  Dy1  1  0.369104  0.748030  0.749102  1
  Dy  Dy2  1  0.369104  0.751970  0.250898  1
  Dy  Dy3  1  0.631819  0.248484  0.748443  1
  Dy  Dy4  1  0.144018  0.396610  0.103131  1
  Dy  Dy5  1  0.859668  0.607793  0.898015  1
  Dy  Dy6  1  0.860020  0.606888  0.601867  1
  Dy  Dy7  1  0.860020  0.893112  0.398133  1
  Dy  Dy8  1  0.140267  0.392984  0.398089  1
  Dy  Dy9  1  0.140267  0.107016  0.601911  1
  Dy  Dy10  1  0.144018  0.103390  0.896869  1
  Dy  Dy11  1  0.859668  0.892207  0.101985  1
  Al  Al12  1  0.629332  0.250000  0.000000  1
  Si  Si13  1  0.138143  0.107049  0.250618  1
  Si  Si14  1  0.862884  0.894758  0.748689  1
  Si  Si15  1  0.862884  0.605242  0.251311  1
  Si  Si16  1  0.138143  0.392951  0.749382  1
  Si  Si17  1  0.370393  0.750000  0.000000  1
  Si  Si18  1  0.375235  0.750000  0.500000  1
  Si  Si19  1  0.623159  0.250000  0.500000  1
  Rh  Rh20  1  0.361677  0.027245  0.093577  1
  Rh  Rh21  1  0.633967  0.962460  0.906754  1
  Rh  Rh22  1  0.633721  0.968309  0.591459  1
  Rh  Rh23  1  0.633721  0.531691  0.408541  1
  Rh  Rh24  1  0.365654  0.031677  0.408634  1
  Rh  Rh25  1  0.365654  0.468323  0.591366  1
  Rh  Rh26  1  0.361677  0.472755  0.906423  1
  Rh  Rh27  1  0.633967  0.537540  0.093246  1
