# generated using pymatgen
data_ErPaNi9Sn
_symmetry_space_group_name_H-M   'P 1'
_cell_length_a   8.51581583
_cell_length_b   8.51581650
_cell_length_c   8.51581651
_cell_angle_alpha   33.20704810
_cell_angle_beta   33.20705633
_cell_angle_gamma   33.20704336
_symmetry_Int_Tables_number   1
_chemical_formula_structural   ErPaNi9Sn
_chemical_formula_sum   'Er1 Pa1 Ni9 Sn1'
_cell_volume   164.89392294
_cell_formula_units_Z   1
loop_
 _symmetry_equiv_pos_site_id
 _symmetry_equiv_pos_as_xyz
  1  'x, y, z'
loop_
 _atom_site_type_symbol
 _atom_site_label
 _atom_site_symmetry_multiplicity
 _atom_site_fract_x
 _atom_site_fract_y
 _atom_site_fract_z
 _atom_site_occupancy
  Er  Er0  1  0.142490  0.142490  0.142490  1
  Pa  Pa1  1  0.994624  0.994624  0.994624  1
  Ni  Ni2  1  0.499728  0.499728  0.499728  1
  Ni  Ni3  1  0.667655  0.667655  0.667655  1
  Ni  Ni4  1  0.334431  0.334431  0.334431  1
  Ni  Ni5  1  0.416892  0.917646  0.416892  1
  Ni  Ni6  1  0.416892  0.416892  0.917646  1
  Ni  Ni7  1  0.917646  0.416892  0.416892  1
  Ni  Ni8  1  0.584071  0.081218  0.584071  1
  Ni  Ni9  1  0.584071  0.584071  0.081218  1
  Ni  Ni10  1  0.081218  0.584071  0.584071  1
  Sn  Sn11  1  0.860284  0.860284  0.860284  1
