# generated using pymatgen
data_Dy2HfRuF14
_symmetry_space_group_name_H-M   'P 1'
_cell_length_a   5.61989000
_cell_length_b   8.96216730
_cell_length_c   12.05719528
_cell_angle_alpha   63.14122562
_cell_angle_beta   90.00000000
_cell_angle_gamma   90.00000000
_symmetry_Int_Tables_number   1
_chemical_formula_structural   Dy2HfRuF14
_chemical_formula_sum   'Dy4 Hf2 Ru2 F28'
_cell_volume   541.76608350
_cell_formula_units_Z   2
loop_
 _symmetry_equiv_pos_site_id
 _symmetry_equiv_pos_as_xyz
  1  'x, y, z'
loop_
 _atom_site_type_symbol
 _atom_site_label
 _atom_site_symmetry_multiplicity
 _atom_site_fract_x
 _atom_site_fract_y
 _atom_site_fract_z
 _atom_site_occupancy
  Dy  Dy0  1  0.757251  0.810725  0.772449  1
  Dy  Dy1  1  0.257251  0.189275  0.727551  1
  Dy  Dy2  1  0.242378  0.185736  0.237920  1
  Dy  Dy3  1  0.742378  0.814264  0.262080  1
  Hf  Hf4  1  0.754689  0.272183  0.957534  1
  Hf  Hf5  1  0.254689  0.727817  0.542466  1
  Ru  Ru6  1  0.244081  0.726159  0.045481  1
  Ru  Ru7  1  0.744081  0.273841  0.454519  1
  F  F8  1  0.444542  0.706419  0.918466  1
  F  F9  1  0.944542  0.293581  0.581534  1
  F  F10  1  0.540002  0.290767  0.082556  1
  F  F11  1  0.040002  0.709233  0.417444  1
  F  F12  1  0.450817  0.278085  0.544631  1
  F  F13  1  0.950817  0.721915  0.955369  1
  F  F14  1  0.550173  0.721300  0.449514  1
  F  F15  1  0.050173  0.278700  0.050486  1
  F  F16  1  0.772027  0.521836  0.859808  1
  F  F17  1  0.272027  0.478164  0.640192  1
  F  F18  1  0.229199  0.487759  0.139271  1
  F  F19  1  0.729199  0.512241  0.360729  1
  F  F20  1  0.758645  0.023091  0.056643  1
  F  F21  1  0.258645  0.976909  0.443357  1
  F  F22  1  0.246497  0.963130  0.953141  1
  F  F23  1  0.746497  0.036870  0.546859  1
  F  F24  1  0.974614  0.735747  0.643406  1
  F  F25  1  0.474614  0.264253  0.856594  1
  F  F26  1  0.028012  0.274681  0.358594  1
  F  F27  1  0.528012  0.725319  0.141406  1
  F  F28  1  0.048052  0.744708  0.174930  1
  F  F29  1  0.548052  0.255292  0.325070  1
  F  F30  1  0.963471  0.247430  0.830102  1
  F  F31  1  0.463471  0.752570  0.669898  1
  F  F32  1  0.421127  0.972102  0.232978  1
  F  F33  1  0.921127  0.027898  0.267022  1
  F  F34  1  0.574423  0.027915  0.766765  1
  F  F35  1  0.074423  0.972085  0.733235  1
