# generated using pymatgen
data_Tb9Dy8Sc3Sn16
_symmetry_space_group_name_H-M   'P 1'
_cell_length_a   7.95824130
_cell_length_b   8.13606931
_cell_length_c   15.42708620
_cell_angle_alpha   90.01741005
_cell_angle_beta   90.07955212
_cell_angle_gamma   89.96682466
_symmetry_Int_Tables_number   1
_chemical_formula_structural   Tb9Dy8Sc3Sn16
_chemical_formula_sum   'Tb9 Dy8 Sc3 Sn16'
_cell_volume   998.88418682
_cell_formula_units_Z   1
loop_
 _symmetry_equiv_pos_site_id
 _symmetry_equiv_pos_as_xyz
  1  'x, y, z'
loop_
 _atom_site_type_symbol
 _atom_site_label
 _atom_site_symmetry_multiplicity
 _atom_site_fract_x
 _atom_site_fract_y
 _atom_site_fract_z
 _atom_site_occupancy
  Tb  Tb0  1  0.860267  0.662921  0.877759  1
  Tb  Tb1  1  0.517853  0.320417  0.904276  1
  Tb  Tb2  1  0.015006  0.178526  0.594671  1
  Tb  Tb3  1  0.483149  0.678553  0.403616  1
  Tb  Tb4  1  0.982707  0.821252  0.097029  1
  Tb  Tb5  1  0.483101  0.678790  0.097205  1
  Tb  Tb6  1  0.983899  0.820834  0.403791  1
  Tb  Tb7  1  0.516138  0.320432  0.594801  1
  Tb  Tb8  1  0.015526  0.178289  0.904421  1
  Dy  Dy9  1  0.360631  0.838129  0.876134  1
  Dy  Dy10  1  0.859113  0.662603  0.622655  1
  Dy  Dy11  1  0.640170  0.161698  0.375534  1
  Dy  Dy12  1  0.140277  0.338622  0.124832  1
  Dy  Dy13  1  0.638856  0.161961  0.125140  1
  Dy  Dy14  1  0.140583  0.338355  0.375050  1
  Dy  Dy15  1  0.360379  0.838199  0.623019  1
  Dy  Dy16  1  0.191403  0.502322  0.749990  1
  Sc  Sc17  1  0.692520  0.996817  0.749662  1
  Sc  Sc18  1  0.808045  0.497815  0.250448  1
  Sc  Sc19  1  0.307515  0.002022  0.249977  1
  Sn  Sn20  1  0.298686  0.036454  0.044067  1
  Sn  Sn21  1  0.799649  0.462561  0.455814  1
  Sn  Sn22  1  0.700129  0.963141  0.543053  1
  Sn  Sn23  1  0.202873  0.538326  0.959094  1
  Sn  Sn24  1  0.699520  0.964408  0.957067  1
  Sn  Sn25  1  0.199989  0.538903  0.540825  1
  Sn  Sn26  1  0.299518  0.036978  0.455318  1
  Sn  Sn27  1  0.798457  0.462162  0.044930  1
  Sn  Sn28  1  0.558885  0.620157  0.749585  1
  Sn  Sn29  1  0.051822  0.886392  0.749675  1
  Sn  Sn30  1  0.447229  0.384905  0.250551  1
  Sn  Sn31  1  0.947029  0.115655  0.250150  1
  Sn  Sn32  1  0.329779  0.147052  0.749357  1
  Sn  Sn33  1  0.821669  0.344399  0.749479  1
  Sn  Sn34  1  0.674024  0.845837  0.250726  1
  Sn  Sn35  1  0.173602  0.654111  0.250301  1
