# generated using pymatgen
data_MgV3Os4
_symmetry_space_group_name_H-M   'P 1'
_cell_length_a   4.29666178
_cell_length_b   4.29666199
_cell_length_c   7.43203005
_cell_angle_alpha   73.16367379
_cell_angle_beta   106.83632397
_cell_angle_gamma   119.99752571
_symmetry_Int_Tables_number   1
_chemical_formula_structural   MgV3Os4
_chemical_formula_sum   'Mg1 V3 Os4'
_cell_volume   111.98316962
_cell_formula_units_Z   1
loop_
 _symmetry_equiv_pos_site_id
 _symmetry_equiv_pos_as_xyz
  1  'x, y, z'
loop_
 _atom_site_type_symbol
 _atom_site_label
 _atom_site_symmetry_multiplicity
 _atom_site_fract_x
 _atom_site_fract_y
 _atom_site_fract_z
 _atom_site_occupancy
  Mg  Mg0  1  0.375000  0.625000  0.125000  1
  V  V1  1  0.123061  0.876939  0.369079  1
  V  V2  1  0.626939  0.373061  0.880921  1
  V  V3  1  0.875000  0.125000  0.625000  1
  Os  Os4  1  0.753440  0.246560  0.260167  1
  Os  Os5  1  0.246453  0.753547  0.739584  1
  Os  Os6  1  0.996560  0.003440  0.989833  1
  Os  Os7  1  0.503547  0.496453  0.510416  1
