# generated using pymatgen
data_TaNb23(As5P)2
_symmetry_space_group_name_H-M   'P 1'
_cell_length_a   3.50881900
_cell_length_b   11.94934156
_cell_length_c   14.88047216
_cell_angle_alpha   90.17393801
_cell_angle_beta   90.00000000
_cell_angle_gamma   90.00000000
_symmetry_Int_Tables_number   1
_chemical_formula_structural   TaNb23(As5P)2
_chemical_formula_sum   'Ta1 Nb23 As10 P2'
_cell_volume   623.90670309
_cell_formula_units_Z   1
loop_
 _symmetry_equiv_pos_site_id
 _symmetry_equiv_pos_as_xyz
  1  'x, y, z'
loop_
 _atom_site_type_symbol
 _atom_site_label
 _atom_site_symmetry_multiplicity
 _atom_site_fract_x
 _atom_site_fract_y
 _atom_site_fract_z
 _atom_site_occupancy
  Ta  Ta0  1  0.500000  0.030184  0.392687  1
  Nb  Nb1  1  0.000000  0.192272  0.300973  1
  Nb  Nb2  1  0.000000  0.527638  0.109552  1
  Nb  Nb3  1  0.500000  0.913445  0.078911  1
  Nb  Nb4  1  0.000000  0.884510  0.926505  1
  Nb  Nb5  1  0.000000  0.850685  0.480670  1
  Nb  Nb6  1  0.500000  0.689397  0.203928  1
  Nb  Nb7  1  0.500000  0.382037  0.570787  1
  Nb  Nb8  1  0.000000  0.591935  0.577742  1
  Nb  Nb9  1  0.500000  0.617970  0.429197  1
  Nb  Nb10  1  0.000000  0.083720  0.757859  1
  Nb  Nb11  1  0.500000  0.643887  0.976619  1
  Nb  Nb12  1  0.000000  0.150079  0.518586  1
  Nb  Nb13  1  0.000000  0.407847  0.422271  1
  Nb  Nb14  1  0.500000  0.413760  0.260202  1
  Nb  Nb15  1  0.500000  0.586097  0.739913  1
  Nb  Nb16  1  0.500000  0.969946  0.607407  1
  Nb  Nb17  1  0.500000  0.355997  0.023315  1
  Nb  Nb18  1  0.000000  0.115299  0.073604  1
  Nb  Nb19  1  0.500000  0.086520  0.921237  1
  Nb  Nb20  1  0.000000  0.472320  0.890590  1
  Nb  Nb21  1  0.000000  0.807367  0.698980  1
  Nb  Nb22  1  0.500000  0.310413  0.795893  1
  Nb  Nb23  1  0.000000  0.917221  0.243252  1
  As  As24  1  0.000000  0.425026  0.702115  1
  As  As25  1  0.000000  0.246163  0.916933  1
  As  As26  1  0.000000  0.311830  0.152827  1
  As  As27  1  0.000000  0.574909  0.297975  1
  As  As28  1  0.500000  0.186507  0.651042  1
  As  As29  1  0.000000  0.753713  0.082985  1
  As  As30  1  0.500000  0.813121  0.348809  1
  As  As31  1  0.000000  0.688180  0.847115  1
  As  As32  1  0.500000  0.077227  0.205082  1
  As  As33  1  0.500000  0.922875  0.794807  1
  P  P34  1  0.500000  0.746280  0.582892  1
  P  P35  1  0.500000  0.253622  0.416740  1
