# generated using pymatgen
data_La8Y3Lu9Si16
_symmetry_space_group_name_H-M   'P 1'
_cell_length_a   7.77275273
_cell_length_b   7.76699957
_cell_length_c   14.31868900
_cell_angle_alpha   89.83155739
_cell_angle_beta   89.87089784
_cell_angle_gamma   90.00248266
_symmetry_Int_Tables_number   1
_chemical_formula_structural   La8Y3Lu9Si16
_chemical_formula_sum   'La8 Y3 Lu9 Si16'
_cell_volume   864.42717228
_cell_formula_units_Z   1
loop_
 _symmetry_equiv_pos_site_id
 _symmetry_equiv_pos_as_xyz
  1  'x, y, z'
loop_
 _atom_site_type_symbol
 _atom_site_label
 _atom_site_symmetry_multiplicity
 _atom_site_fract_x
 _atom_site_fract_y
 _atom_site_fract_z
 _atom_site_occupancy
  La  La0  1  0.990658  0.644828  0.038406  1
  La  La1  1  0.008893  0.354693  0.542663  1
  La  La2  1  0.646432  0.992039  0.958764  1
  La  La3  1  0.147628  0.508745  0.788772  1
  La  La4  1  0.855385  0.492429  0.291132  1
  La  La5  1  0.506544  0.145235  0.207369  1
  La  La6  1  0.491641  0.854342  0.711377  1
  La  La7  1  0.355032  0.006557  0.461310  1
  Y  Y8  1  0.358716  0.492105  0.376869  1
  Y  Y9  1  0.857791  0.008184  0.375280  1
  Y  Y10  1  0.992710  0.140187  0.123114  1
  Lu  Lu11  1  0.005290  0.859396  0.626177  1
  Lu  Lu12  1  0.640109  0.505777  0.873532  1
  Lu  Lu13  1  0.493989  0.359554  0.627120  1
  Lu  Lu14  1  0.505617  0.641158  0.123150  1
  Lu  Lu15  1  0.141468  0.995157  0.874765  1
  Lu  Lu16  1  0.681856  0.680657  0.500981  1
  Lu  Lu17  1  0.820709  0.180915  0.749998  1
  Lu  Lu18  1  0.182334  0.817303  0.249848  1
  Lu  Lu19  1  0.320319  0.320075  0.998910  1
  Si  Si20  1  0.060769  0.711638  0.439042  1
  Si  Si21  1  0.937368  0.290767  0.934415  1
  Si  Si22  1  0.710155  0.062717  0.565440  1
  Si  Si23  1  0.211617  0.439473  0.185695  1
  Si  Si24  1  0.788751  0.562071  0.687012  1
  Si  Si25  1  0.437828  0.211722  0.813511  1
  Si  Si26  1  0.560955  0.787362  0.311440  1
  Si  Si27  1  0.289716  0.936289  0.061776  1
  Si  Si28  1  0.852246  0.796074  0.810932  1
  Si  Si29  1  0.151837  0.202085  0.308442  1
  Si  Si30  1  0.792964  0.846591  0.189136  1
  Si  Si31  1  0.295019  0.649971  0.563471  1
  Si  Si32  1  0.700753  0.352883  0.057505  1
  Si  Si33  1  0.650676  0.297919  0.444434  1
  Si  Si34  1  0.351670  0.704981  0.938262  1
  Si  Si35  1  0.204555  0.148125  0.689945  1
