# generated using pymatgen
data_Na3(BiPt)2
_symmetry_space_group_name_H-M   'P 1'
_cell_length_a   6.05434700
_cell_length_b   8.59229500
_cell_length_c   13.86790800
_cell_angle_alpha   90.00000000
_cell_angle_beta   90.00000000
_cell_angle_gamma   90.00000000
_symmetry_Int_Tables_number   1
_chemical_formula_structural   Na3(BiPt)2
_chemical_formula_sum   'Na12 Bi8 Pt8'
_cell_volume   721.41877340
_cell_formula_units_Z   4
loop_
 _symmetry_equiv_pos_site_id
 _symmetry_equiv_pos_as_xyz
  1  'x, y, z'
loop_
 _atom_site_type_symbol
 _atom_site_label
 _atom_site_symmetry_multiplicity
 _atom_site_fract_x
 _atom_site_fract_y
 _atom_site_fract_z
 _atom_site_occupancy
  Na  Na0  1  0.153998  0.610358  0.096598  1
  Na  Na1  1  0.153998  0.889642  0.903402  1
  Na  Na2  1  0.846002  0.110358  0.403402  1
  Na  Na3  1  0.846002  0.389642  0.596598  1
  Na  Na4  1  0.846002  0.389642  0.903402  1
  Na  Na5  1  0.846002  0.110358  0.096598  1
  Na  Na6  1  0.153998  0.889642  0.596598  1
  Na  Na7  1  0.153998  0.610358  0.403402  1
  Na  Na8  1  0.380551  0.247997  0.250000  1
  Na  Na9  1  0.380551  0.252003  0.750000  1
  Na  Na10  1  0.619449  0.747997  0.250000  1
  Na  Na11  1  0.619449  0.752003  0.750000  1
  Bi  Bi12  1  0.354829  0.250000  0.000000  1
  Bi  Bi13  1  0.645171  0.750000  0.500000  1
  Bi  Bi14  1  0.645171  0.750000  0.000000  1
  Bi  Bi15  1  0.354829  0.250000  0.500000  1
  Bi  Bi16  1  0.869488  0.407471  0.250000  1
  Bi  Bi17  1  0.869488  0.092529  0.750000  1
  Bi  Bi18  1  0.130512  0.907471  0.250000  1
  Bi  Bi19  1  0.130512  0.592529  0.750000  1
  Pt  Pt20  1  0.621999  0.458578  0.090918  1
  Pt  Pt21  1  0.621999  0.041422  0.909082  1
  Pt  Pt22  1  0.378001  0.958578  0.409082  1
  Pt  Pt23  1  0.378001  0.541422  0.590918  1
  Pt  Pt24  1  0.378001  0.541422  0.909082  1
  Pt  Pt25  1  0.378001  0.958578  0.090918  1
  Pt  Pt26  1  0.621999  0.041422  0.590918  1
  Pt  Pt27  1  0.621999  0.458578  0.409082  1
