# generated using pymatgen
data_LaTh(SiRh2)2
_symmetry_space_group_name_H-M   'P 1'
_cell_length_a   9.24815700
_cell_length_b   9.24815753
_cell_length_c   4.10440800
_cell_angle_alpha   90.00000000
_cell_angle_beta   90.00000000
_cell_angle_gamma   154.84600306
_symmetry_Int_Tables_number   1
_chemical_formula_structural   LaTh(SiRh2)2
_chemical_formula_sum   'La1 Th1 Si2 Rh4'
_cell_volume   149.21197577
_cell_formula_units_Z   1
loop_
 _symmetry_equiv_pos_site_id
 _symmetry_equiv_pos_as_xyz
  1  'x, y, z'
loop_
 _atom_site_type_symbol
 _atom_site_label
 _atom_site_symmetry_multiplicity
 _atom_site_fract_x
 _atom_site_fract_y
 _atom_site_fract_z
 _atom_site_occupancy
  La  La0  1  0.100030  0.899970  0.750000  1
  Th  Th1  1  0.900175  0.099825  0.250000  1
  Si  Si2  1  0.320638  0.679362  0.750000  1
  Si  Si3  1  0.679389  0.320611  0.250000  1
  Rh  Rh4  1  0.546614  0.453386  0.250000  1
  Rh  Rh5  1  0.450732  0.549268  0.750000  1
  Rh  Rh6  1  0.251037  0.748963  0.250000  1
  Rh  Rh7  1  0.751388  0.248612  0.750000  1
