# generated using pymatgen
data_Y12Al4Si4Ru3Rh5
_symmetry_space_group_name_H-M   'P 1'
_cell_length_a   5.57791093
_cell_length_b   7.84244382
_cell_length_c   13.42545629
_cell_angle_alpha   90.00858123
_cell_angle_beta   89.90742515
_cell_angle_gamma   89.77093573
_symmetry_Int_Tables_number   1
_chemical_formula_structural   Y12Al4Si4Ru3Rh5
_chemical_formula_sum   'Y12 Al4 Si4 Ru3 Rh5'
_cell_volume   587.28377584
_cell_formula_units_Z   1
loop_
 _symmetry_equiv_pos_site_id
 _symmetry_equiv_pos_as_xyz
  1  'x, y, z'
loop_
 _atom_site_type_symbol
 _atom_site_label
 _atom_site_symmetry_multiplicity
 _atom_site_fract_x
 _atom_site_fract_y
 _atom_site_fract_z
 _atom_site_occupancy
  Y  Y0  1  0.144243  0.594564  0.103901  1
  Y  Y1  1  0.145422  0.902955  0.896880  1
  Y  Y2  1  0.854999  0.094986  0.396178  1
  Y  Y3  1  0.855595  0.400633  0.602997  1
  Y  Y4  1  0.853738  0.397944  0.898391  1
  Y  Y5  1  0.853353  0.103306  0.101443  1
  Y  Y6  1  0.145469  0.899852  0.601237  1
  Y  Y7  1  0.145478  0.603552  0.396690  1
  Y  Y8  1  0.366886  0.236664  0.251641  1
  Y  Y9  1  0.367349  0.259319  0.750823  1
  Y  Y10  1  0.631111  0.737669  0.247794  1
  Y  Y11  1  0.633848  0.765253  0.751548  1
  Al  Al12  1  0.381921  0.250320  0.000484  1
  Al  Al13  1  0.620891  0.751244  0.500207  1
  Al  Al14  1  0.624188  0.749804  0.999518  1
  Al  Al15  1  0.375412  0.249722  0.499135  1
  Si  Si16  1  0.861766  0.387148  0.251247  1
  Si  Si17  1  0.864651  0.113663  0.749754  1
  Si  Si18  1  0.135056  0.887152  0.248928  1
  Si  Si19  1  0.137092  0.613145  0.749802  1
  Ru  Ru20  1  0.647231  0.470627  0.093693  1
  Ru  Ru21  1  0.648720  0.030832  0.906418  1
  Ru  Ru22  1  0.349827  0.967780  0.407112  1
  Rh  Rh23  1  0.354908  0.529663  0.593567  1
  Rh  Rh24  1  0.354238  0.531509  0.905583  1
  Rh  Rh25  1  0.352247  0.967137  0.092969  1
  Rh  Rh26  1  0.646952  0.034408  0.593737  1
  Rh  Rh27  1  0.647408  0.469153  0.408324  1
