# generated using pymatgen
data_Lu10Sc2Co4TcBi
_symmetry_space_group_name_H-M   'P 1'
_cell_length_a   8.08603570
_cell_length_b   8.07870670
_cell_length_c   8.07870793
_cell_angle_alpha   111.75476196
_cell_angle_beta   110.78374244
_cell_angle_gamma   105.89964642
_symmetry_Int_Tables_number   1
_chemical_formula_structural   Lu10Sc2Co4TcBi
_chemical_formula_sum   'Lu10 Sc2 Co4 Tc1 Bi1'
_cell_volume   405.22957233
_cell_formula_units_Z   1
loop_
 _symmetry_equiv_pos_site_id
 _symmetry_equiv_pos_as_xyz
  1  'x, y, z'
loop_
 _atom_site_type_symbol
 _atom_site_label
 _atom_site_symmetry_multiplicity
 _atom_site_fract_x
 _atom_site_fract_y
 _atom_site_fract_z
 _atom_site_occupancy
  Lu  Lu0  1  0.020413  0.220268  0.800146  1
  Lu  Lu1  1  0.979587  0.779732  0.199854  1
  Lu  Lu2  1  0.184395  0.278215  0.460384  1
  Lu  Lu3  1  0.815605  0.721785  0.539616  1
  Lu  Lu4  1  0.184395  0.724010  0.906180  1
  Lu  Lu5  1  0.815605  0.275990  0.093820  1
  Lu  Lu6  1  0.313757  0.616660  0.312280  1
  Lu  Lu7  1  0.686243  0.383340  0.687720  1
  Lu  Lu8  1  0.313757  0.001477  0.697098  1
  Lu  Lu9  1  0.686243  0.998523  0.302902  1
  Sc  Sc10  1  0.411417  0.213360  0.198056  1
  Sc  Sc11  1  0.588583  0.786640  0.801944  1
  Co  Co12  1  0.376081  0.002271  0.373810  1
  Co  Co13  1  0.623919  0.997729  0.626190  1
  Co  Co14  1  0.112578  0.611941  0.500637  1
  Co  Co15  1  0.887422  0.388059  0.499363  1
  Tc  Tc16  1  0.000000  0.000000  0.000000  1
  Bi  Bi17  1  0.500000  0.500000  0.000000  1
