# generated using pymatgen
data_Er3Tm3ReB14Os
_symmetry_space_group_name_H-M   'P 1'
_cell_length_a   7.97984319
_cell_length_b   7.97984292
_cell_length_c   9.27477422
_cell_angle_alpha   90.02431438
_cell_angle_beta   89.97568580
_cell_angle_gamma   154.61295633
_symmetry_Int_Tables_number   1
_chemical_formula_structural   Er3Tm3ReB14Os
_chemical_formula_sum   'Er3 Tm3 Re1 B14 Os1'
_cell_volume   253.20760219
_cell_formula_units_Z   1
loop_
 _symmetry_equiv_pos_site_id
 _symmetry_equiv_pos_as_xyz
  1  'x, y, z'
loop_
 _atom_site_type_symbol
 _atom_site_label
 _atom_site_symmetry_multiplicity
 _atom_site_fract_x
 _atom_site_fract_y
 _atom_site_fract_z
 _atom_site_occupancy
  Er  Er0  1  0.894192  0.105808  0.059435  1
  Er  Er1  1  0.244091  0.755909  0.250066  1
  Er  Er2  1  0.756255  0.243745  0.749953  1
  Tm  Tm3  1  0.105834  0.894166  0.560389  1
  Tm  Tm4  1  0.105806  0.894194  0.939554  1
  Tm  Tm5  1  0.894259  0.105741  0.440866  1
  Re  Re6  1  0.947910  0.052090  0.749751  1
  B  B7  1  0.454495  0.545505  0.250277  1
  B  B8  1  0.546237  0.453763  0.749973  1
  B  B9  1  0.726957  0.273043  0.034633  1
  B  B10  1  0.272177  0.727823  0.533529  1
  B  B11  1  0.272047  0.727953  0.966372  1
  B  B12  1  0.727156  0.272844  0.465316  1
  B  B13  1  0.631899  0.368101  0.349295  1
  B  B14  1  0.367558  0.632442  0.849209  1
  B  B15  1  0.367569  0.632431  0.650501  1
  B  B16  1  0.631894  0.368106  0.150722  1
  B  B17  1  0.519893  0.480107  0.404512  1
  B  B18  1  0.480290  0.519710  0.905145  1
  B  B19  1  0.480219  0.519781  0.594617  1
  B  B20  1  0.519990  0.480010  0.095707  1
  Os  Os21  1  0.053273  0.946727  0.250179  1
