# generated using pymatgen
data_Nd11In9(NiPd)2
_symmetry_space_group_name_H-M   'P 1'
_cell_length_a   13.48559697
_cell_length_b   13.53772755
_cell_length_c   3.78388200
_cell_angle_alpha   90.00000000
_cell_angle_beta   90.00000000
_cell_angle_gamma   111.29935782
_symmetry_Int_Tables_number   1
_chemical_formula_structural   Nd11In9(NiPd)2
_chemical_formula_sum   'Nd11 In9 Ni2 Pd2'
_cell_volume   643.61689331
_cell_formula_units_Z   1
loop_
 _symmetry_equiv_pos_site_id
 _symmetry_equiv_pos_as_xyz
  1  'x, y, z'
loop_
 _atom_site_type_symbol
 _atom_site_label
 _atom_site_symmetry_multiplicity
 _atom_site_fract_x
 _atom_site_fract_y
 _atom_site_fract_z
 _atom_site_occupancy
  Nd  Nd0  1  0.071396  0.417122  0.000000  1
  Nd  Nd1  1  0.928604  0.582878  0.000000  1
  Nd  Nd2  1  0.419945  0.076354  0.000000  1
  Nd  Nd3  1  0.580055  0.923646  0.000000  1
  Nd  Nd4  1  0.622327  0.368271  0.000000  1
  Nd  Nd5  1  0.377673  0.631729  0.000000  1
  Nd  Nd6  1  0.839617  0.157789  0.000000  1
  Nd  Nd7  1  0.160383  0.842211  0.000000  1
  Nd  Nd8  1  0.000000  0.000000  0.000000  1
  Nd  Nd9  1  0.314084  0.307680  0.000000  1
  Nd  Nd10  1  0.685916  0.692320  0.000000  1
  In  In11  1  0.837308  0.367505  0.500000  1
  In  In12  1  0.162692  0.632495  0.500000  1
  In  In13  1  0.367348  0.838325  0.500000  1
  In  In14  1  0.632652  0.161675  0.500000  1
  In  In15  1  0.078034  0.219423  0.500000  1
  In  In16  1  0.921966  0.780577  0.500000  1
  In  In17  1  0.220912  0.077876  0.500000  1
  In  In18  1  0.779088  0.922124  0.500000  1
  In  In19  1  0.500000  0.500000  0.500000  1
  Ni  Ni20  1  0.448266  0.244313  0.500000  1
  Ni  Ni21  1  0.551734  0.755687  0.500000  1
  Pd  Pd22  1  0.249879  0.450587  0.500000  1
  Pd  Pd23  1  0.750121  0.549413  0.500000  1
