# generated using pymatgen
data_Tb12TcRu2Rh
_symmetry_space_group_name_H-M   'P 1'
_cell_length_a   6.35626801
_cell_length_b   7.34047643
_cell_length_c   9.28032000
_cell_angle_alpha   90.00000000
_cell_angle_beta   90.00000000
_cell_angle_gamma   90.05050530
_symmetry_Int_Tables_number   1
_chemical_formula_structural   Tb12TcRu2Rh
_chemical_formula_sum   'Tb12 Tc1 Ru2 Rh1'
_cell_volume   433.00133194
_cell_formula_units_Z   1
loop_
 _symmetry_equiv_pos_site_id
 _symmetry_equiv_pos_as_xyz
  1  'x, y, z'
loop_
 _atom_site_type_symbol
 _atom_site_label
 _atom_site_symmetry_multiplicity
 _atom_site_fract_x
 _atom_site_fract_y
 _atom_site_fract_z
 _atom_site_occupancy
  Tb  Tb0  1  0.329576  0.678644  0.063993  1
  Tb  Tb1  1  0.167683  0.175299  0.435900  1
  Tb  Tb2  1  0.672384  0.323012  0.567383  1
  Tb  Tb3  1  0.832558  0.824029  0.936168  1
  Tb  Tb4  1  0.672384  0.323012  0.932617  1
  Tb  Tb5  1  0.832558  0.824029  0.563832  1
  Tb  Tb6  1  0.329576  0.678644  0.436007  1
  Tb  Tb7  1  0.167683  0.175299  0.064100  1
  Tb  Tb8  1  0.866014  0.540779  0.250000  1
  Tb  Tb9  1  0.631895  0.039216  0.250000  1
  Tb  Tb10  1  0.137052  0.458408  0.750000  1
  Tb  Tb11  1  0.364663  0.958311  0.750000  1
  Tc  Tc12  1  0.040213  0.886728  0.250000  1
  Ru  Ru13  1  0.957955  0.115982  0.750000  1
  Ru  Ru14  1  0.539876  0.612957  0.750000  1
  Rh  Rh15  1  0.457931  0.385652  0.250000  1
