# generated using pymatgen
data_Ca6AlGa3Ir4
_symmetry_space_group_name_H-M   'P 1'
_cell_length_a   5.81183800
_cell_length_b   7.84630800
_cell_length_c   13.79158700
_cell_angle_alpha   90.00000000
_cell_angle_beta   90.00000000
_cell_angle_gamma   90.00000000
_symmetry_Int_Tables_number   1
_chemical_formula_structural   Ca6AlGa3Ir4
_chemical_formula_sum   'Ca12 Al2 Ga6 Ir8'
_cell_volume   628.91665454
_cell_formula_units_Z   2
loop_
 _symmetry_equiv_pos_site_id
 _symmetry_equiv_pos_as_xyz
  1  'x, y, z'
loop_
 _atom_site_type_symbol
 _atom_site_label
 _atom_site_symmetry_multiplicity
 _atom_site_fract_x
 _atom_site_fract_y
 _atom_site_fract_z
 _atom_site_occupancy
  Ca  Ca0  1  0.142237  0.606136  0.095850  1
  Ca  Ca1  1  0.142237  0.893864  0.904150  1
  Ca  Ca2  1  0.857763  0.106136  0.404150  1
  Ca  Ca3  1  0.857763  0.393864  0.595850  1
  Ca  Ca4  1  0.859022  0.394360  0.903685  1
  Ca  Ca5  1  0.859022  0.105640  0.096315  1
  Ca  Ca6  1  0.140978  0.894360  0.596315  1
  Ca  Ca7  1  0.140978  0.605640  0.403685  1
  Ca  Ca8  1  0.374902  0.256340  0.249589  1
  Ca  Ca9  1  0.374902  0.243660  0.750411  1
  Ca  Ca10  1  0.625098  0.756340  0.250411  1
  Ca  Ca11  1  0.625098  0.743660  0.749589  1
  Al  Al12  1  0.405334  0.250000  0.000000  1
  Al  Al13  1  0.594666  0.750000  0.500000  1
  Ga  Ga14  1  0.601508  0.750000  0.000000  1
  Ga  Ga15  1  0.398492  0.250000  0.500000  1
  Ga  Ga16  1  0.843254  0.410694  0.249907  1
  Ga  Ga17  1  0.843254  0.089306  0.750093  1
  Ga  Ga18  1  0.156746  0.910694  0.250093  1
  Ga  Ga19  1  0.156746  0.589306  0.749907  1
  Ir  Ir20  1  0.639340  0.471529  0.093085  1
  Ir  Ir21  1  0.639340  0.028471  0.906915  1
  Ir  Ir22  1  0.360660  0.971529  0.406915  1
  Ir  Ir23  1  0.360660  0.528471  0.593085  1
  Ir  Ir24  1  0.357090  0.524856  0.907505  1
  Ir  Ir25  1  0.357090  0.975144  0.092495  1
  Ir  Ir26  1  0.642910  0.024856  0.592495  1
  Ir  Ir27  1  0.642910  0.475144  0.407505  1
