# generated using pymatgen
data_Pa4Zn4IrRh3
_symmetry_space_group_name_H-M   'P 1'
_cell_length_a   4.18945000
_cell_length_b   6.71407935
_cell_length_c   8.12716775
_cell_angle_alpha   90.08919665
_cell_angle_beta   90.00000000
_cell_angle_gamma   90.00000000
_symmetry_Int_Tables_number   1
_chemical_formula_structural   Pa4Zn4IrRh3
_chemical_formula_sum   'Pa4 Zn4 Ir1 Rh3'
_cell_volume   228.60313351
_cell_formula_units_Z   1
loop_
 _symmetry_equiv_pos_site_id
 _symmetry_equiv_pos_as_xyz
  1  'x, y, z'
loop_
 _atom_site_type_symbol
 _atom_site_label
 _atom_site_symmetry_multiplicity
 _atom_site_fract_x
 _atom_site_fract_y
 _atom_site_fract_z
 _atom_site_occupancy
  Pa  Pa0  1  0.250000  0.041044  0.311781  1
  Pa  Pa1  1  0.250000  0.540533  0.187599  1
  Pa  Pa2  1  0.750000  0.959520  0.688321  1
  Pa  Pa3  1  0.750000  0.458199  0.809375  1
  Zn  Zn4  1  0.250000  0.635991  0.560280  1
  Zn  Zn5  1  0.250000  0.132570  0.941143  1
  Zn  Zn6  1  0.750000  0.365318  0.438150  1
  Zn  Zn7  1  0.750000  0.866970  0.059853  1
  Ir  Ir8  1  0.250000  0.236505  0.620231  1
  Rh  Rh9  1  0.250000  0.732683  0.884100  1
  Rh  Rh10  1  0.750000  0.764840  0.381184  1
  Rh  Rh11  1  0.750000  0.265827  0.117985  1
