# generated using pymatgen
data_Ac4Re15Si8Mo
_symmetry_space_group_name_H-M   'P 1'
_cell_length_a   4.24860200
_cell_length_b   7.48437829
_cell_length_c   15.84936438
_cell_angle_alpha   90.04742236
_cell_angle_beta   90.00000000
_cell_angle_gamma   90.00000000
_symmetry_Int_Tables_number   1
_chemical_formula_structural   Ac4Re15Si8Mo
_chemical_formula_sum   'Ac4 Re15 Si8 Mo1'
_cell_volume   503.98020750
_cell_formula_units_Z   1
loop_
 _symmetry_equiv_pos_site_id
 _symmetry_equiv_pos_as_xyz
  1  'x, y, z'
loop_
 _atom_site_type_symbol
 _atom_site_label
 _atom_site_symmetry_multiplicity
 _atom_site_fract_x
 _atom_site_fract_y
 _atom_site_fract_z
 _atom_site_occupancy
  Ac  Ac0  1  0.000000  0.585967  0.115243  1
  Ac  Ac1  1  0.000000  0.418261  0.884228  1
  Ac  Ac2  1  0.500000  0.081303  0.385588  1
  Ac  Ac3  1  0.500000  0.919103  0.614759  1
  Re  Re4  1  0.000000  0.871524  0.943959  1
  Re  Re5  1  0.500000  0.627643  0.445253  1
  Re  Re6  1  0.500000  0.372288  0.554939  1
  Re  Re7  1  0.000000  0.729197  0.317168  1
  Re  Re8  1  0.000000  0.270683  0.682873  1
  Re  Re9  1  0.500000  0.226431  0.184770  1
  Re  Re10  1  0.500000  0.771189  0.815829  1
  Re  Re11  1  0.000000  0.439435  0.419171  1
  Re  Re12  1  0.000000  0.560501  0.581002  1
  Re  Re13  1  0.500000  0.937895  0.081424  1
  Re  Re14  1  0.500000  0.060502  0.917829  1
  Re  Re15  1  0.000000  0.999673  0.210742  1
  Re  Re16  1  0.000000  0.000839  0.789947  1
  Re  Re17  1  0.500000  0.498996  0.291554  1
  Re  Re18  1  0.500000  0.501011  0.708645  1
  Si  Si19  1  0.000000  0.806035  0.470574  1
  Si  Si20  1  0.000000  0.193643  0.529426  1
  Si  Si21  1  0.500000  0.303871  0.029980  1
  Si  Si22  1  0.500000  0.695606  0.969767  1
  Si  Si23  1  0.000000  0.302630  0.274515  1
  Si  Si24  1  0.000000  0.698730  0.725049  1
  Si  Si25  1  0.500000  0.801531  0.226269  1
  Si  Si26  1  0.500000  0.199352  0.773959  1
  Mo  Mo27  1  0.000000  0.126161  0.055536  1
