# generated using pymatgen
data_DyTm2Hf3Ga6(PdPt2)2
_symmetry_space_group_name_H-M   'P 1'
_cell_length_a   7.26779200
_cell_length_b   7.25875622
_cell_length_c   7.32399200
_cell_angle_alpha   90.00000000
_cell_angle_beta   90.00000000
_cell_angle_gamma   119.95580384
_symmetry_Int_Tables_number   1
_chemical_formula_structural   DyTm2Hf3Ga6(PdPt2)2
_chemical_formula_sum   'Dy1 Tm2 Hf3 Ga6 Pd2 Pt4'
_cell_volume   334.76221608
_cell_formula_units_Z   1
loop_
 _symmetry_equiv_pos_site_id
 _symmetry_equiv_pos_as_xyz
  1  'x, y, z'
loop_
 _atom_site_type_symbol
 _atom_site_label
 _atom_site_symmetry_multiplicity
 _atom_site_fract_x
 _atom_site_fract_y
 _atom_site_fract_z
 _atom_site_occupancy
  Dy  Dy0  1  0.001797  0.591181  0.750000  1
  Tm  Tm1  1  0.589883  0.997866  0.750000  1
  Tm  Tm2  1  0.408297  0.409856  0.750000  1
  Hf  Hf3  1  0.394228  0.392600  0.250000  1
  Hf  Hf4  1  0.998367  0.605527  0.250000  1
  Hf  Hf5  1  0.607413  0.001613  0.250000  1
  Ga  Ga6  1  0.263723  0.999782  0.007082  1
  Ga  Ga7  1  0.263723  0.999782  0.492918  1
  Ga  Ga8  1  0.000864  0.263693  0.492028  1
  Ga  Ga9  1  0.000864  0.263693  0.007972  1
  Ga  Ga10  1  0.735480  0.736865  0.007074  1
  Ga  Ga11  1  0.735480  0.736865  0.492926  1
  Pd  Pd12  1  0.999965  0.001847  0.750000  1
  Pd  Pd13  1  0.999998  0.999718  0.250000  1
  Pt  Pt14  1  0.665785  0.332678  0.474782  1
  Pt  Pt15  1  0.665785  0.332678  0.025218  1
  Pt  Pt16  1  0.334175  0.666878  0.030152  1
  Pt  Pt17  1  0.334175  0.666878  0.469848  1
