# generated using pymatgen
data_TaBe3(GaRh2)4
_symmetry_space_group_name_H-M   'P 1'
_cell_length_a   5.95990721
_cell_length_b   5.96566500
_cell_length_c   5.95993451
_cell_angle_alpha   90.00000000
_cell_angle_beta   89.96115181
_cell_angle_gamma   90.00000000
_symmetry_Int_Tables_number   1
_chemical_formula_structural   TaBe3(GaRh2)4
_chemical_formula_sum   'Ta1 Be3 Ga4 Rh8'
_cell_volume   211.90428944
_cell_formula_units_Z   1
loop_
 _symmetry_equiv_pos_site_id
 _symmetry_equiv_pos_as_xyz
  1  'x, y, z'
loop_
 _atom_site_type_symbol
 _atom_site_label
 _atom_site_symmetry_multiplicity
 _atom_site_fract_x
 _atom_site_fract_y
 _atom_site_fract_z
 _atom_site_occupancy
  Ta  Ta0  1  0.000245  0.250000  0.000033  1
  Be  Be1  1  0.500792  0.750000  0.499828  1
  Be  Be2  1  0.499254  0.250000  0.500204  1
  Be  Be3  1  0.999135  0.750000  0.999796  1
  Ga  Ga4  1  0.499919  0.250000  0.000031  1
  Ga  Ga5  1  0.500199  0.750000  0.999997  1
  Ga  Ga6  1  0.999851  0.750000  0.499985  1
  Ga  Ga7  1  0.000212  0.250000  0.500005  1
  Rh  Rh8  1  0.255503  0.505685  0.255470  1
  Rh  Rh9  1  0.255503  0.994314  0.255470  1
  Rh  Rh10  1  0.743258  0.994927  0.256798  1
  Rh  Rh11  1  0.743258  0.505072  0.256798  1
  Rh  Rh12  1  0.256833  0.505320  0.743225  1
  Rh  Rh13  1  0.256833  0.994681  0.743225  1
  Rh  Rh14  1  0.744602  0.994545  0.744567  1
  Rh  Rh15  1  0.744602  0.505456  0.744567  1
