# generated using pymatgen
data_CsNdDy6Er3(C2Br9)2
_symmetry_space_group_name_H-M   'P 1'
_cell_length_a   10.70048290
_cell_length_b   10.77599062
_cell_length_c   10.90582204
_cell_angle_alpha   113.22923163
_cell_angle_beta   87.57334285
_cell_angle_gamma   118.84685520
_symmetry_Int_Tables_number   1
_chemical_formula_structural   CsNdDy6Er3(C2Br9)2
_chemical_formula_sum   'Cs1 Nd1 Dy6 Er3 C4 Br18'
_cell_volume   994.94854313
_cell_formula_units_Z   1
loop_
 _symmetry_equiv_pos_site_id
 _symmetry_equiv_pos_as_xyz
  1  'x, y, z'
loop_
 _atom_site_type_symbol
 _atom_site_label
 _atom_site_symmetry_multiplicity
 _atom_site_fract_x
 _atom_site_fract_y
 _atom_site_fract_z
 _atom_site_occupancy
  Cs  Cs0  1  0.499727  0.999569  0.500610  1
  Nd  Nd1  1  0.882056  0.060313  0.999197  1
  Dy  Dy2  1  0.662563  0.715974  0.701478  1
  Dy  Dy3  1  0.283492  0.365473  0.013288  1
  Dy  Dy4  1  0.094280  0.407477  0.301579  1
  Dy  Dy5  1  0.962003  0.036773  0.334016  1
  Dy  Dy6  1  0.907207  0.591233  0.697825  1
  Dy  Dy7  1  0.110047  0.942651  0.000840  1
  Er  Er8  1  0.039219  0.961705  0.667787  1
  Er  Er9  1  0.338317  0.283295  0.297490  1
  Er  Er10  1  0.719556  0.635013  0.985618  1
  C  C11  1  0.161510  0.231031  0.127221  1
  C  C12  1  0.842616  0.767604  0.873225  1
  C  C13  1  0.921346  0.847179  0.793068  1
  C  C14  1  0.082933  0.151699  0.207768  1
  Br  Br15  1  0.453889  0.531446  0.834872  1
  Br  Br16  1  0.382194  0.041372  0.160948  1
  Br  Br17  1  0.780552  0.858326  0.502606  1
  Br  Br18  1  0.838365  0.324956  0.164072  1
  Br  Br19  1  0.549869  0.469983  0.166726  1
  Br  Br20  1  0.223124  0.141961  0.499394  1
  Br  Br21  1  0.312008  0.098500  0.829056  1
  Br  Br22  1  0.683736  0.894352  0.172850  1
  Br  Br23  1  0.973258  0.759929  0.170567  1
  Br  Br24  1  0.932359  0.301287  0.500341  1
  Br  Br25  1  0.030410  0.240292  0.822245  1
  Br  Br26  1  0.069017  0.700925  0.500857  1
  Br  Br27  1  0.260307  0.623617  0.187251  1
  Br  Br28  1  0.739198  0.376748  0.813728  1
  Br  Br29  1  0.637679  0.432506  0.498960  1
  Br  Br30  1  0.162106  0.690177  0.846905  1
  Br  Br31  1  0.603823  0.952859  0.829059  1
  Br  Br32  1  0.361232  0.563773  0.498550  1
