# generated using pymatgen
data_La2Dy4Y14Si15Pt
_symmetry_space_group_name_H-M   'P 1'
_cell_length_a   7.45952312
_cell_length_b   7.78484891
_cell_length_c   14.74756720
_cell_angle_alpha   89.62117615
_cell_angle_beta   89.95944040
_cell_angle_gamma   89.89878010
_symmetry_Int_Tables_number   1
_chemical_formula_structural   La2Dy4Y14Si15Pt
_chemical_formula_sum   'La2 Dy4 Y14 Si15 Pt1'
_cell_volume   856.38955204
_cell_formula_units_Z   1
loop_
 _symmetry_equiv_pos_site_id
 _symmetry_equiv_pos_as_xyz
  1  'x, y, z'
loop_
 _atom_site_type_symbol
 _atom_site_label
 _atom_site_symmetry_multiplicity
 _atom_site_fract_x
 _atom_site_fract_y
 _atom_site_fract_z
 _atom_site_occupancy
  La  La0  1  0.523098  0.570520  0.342281  1
  La  La1  1  0.023310  0.428608  0.657077  1
  Dy  Dy2  1  0.811116  0.575437  0.874922  1
  Dy  Dy3  1  0.318705  0.426792  0.125298  1
  Dy  Dy4  1  0.182401  0.928352  0.373088  1
  Dy  Dy5  1  0.681971  0.069632  0.627278  1
  Y  Y6  1  0.182804  0.928059  0.628663  1
  Y  Y7  1  0.682390  0.070788  0.371094  1
  Y  Y8  1  0.815784  0.571664  0.126379  1
  Y  Y9  1  0.321873  0.430646  0.873389  1
  Y  Y10  1  0.644550  0.235785  0.999525  1
  Y  Y11  1  0.155393  0.758913  0.000711  1
  Y  Y12  1  0.350436  0.262905  0.500096  1
  Y  Y13  1  0.850227  0.736338  0.499894  1
  Y  Y14  1  0.475063  0.932368  0.847114  1
  Y  Y15  1  0.973060  0.066407  0.152206  1
  Y  Y16  1  0.473202  0.933297  0.151900  1
  Y  Y17  1  0.971396  0.066935  0.849072  1
  Y  Y18  1  0.527719  0.565775  0.651813  1
  Y  Y19  1  0.027764  0.433855  0.347876  1
  Si  Si20  1  0.020493  0.350987  0.999878  1
  Si  Si21  1  0.476342  0.859070  0.501204  1
  Si  Si22  1  0.976545  0.140295  0.499006  1
  Si  Si23  1  0.650343  0.276566  0.790610  1
  Si  Si24  1  0.150024  0.722377  0.209222  1
  Si  Si25  1  0.351588  0.216097  0.287575  1
  Si  Si26  1  0.851979  0.783762  0.713007  1
  Si  Si27  1  0.361417  0.220164  0.710779  1
  Si  Si28  1  0.861160  0.779987  0.288650  1
  Si  Si29  1  0.645799  0.269403  0.206276  1
  Si  Si30  1  0.145179  0.728750  0.793409  1
  Si  Si31  1  0.770390  0.880343  0.000684  1
  Si  Si32  1  0.259529  0.125673  0.999620  1
  Si  Si33  1  0.234234  0.627432  0.501700  1
  Si  Si34  1  0.733333  0.373103  0.498542  1
  Pt  Pt35  1  0.519384  0.652912  0.000159  1
