# generated using pymatgen
data_Tb4HoRh2
_symmetry_space_group_name_H-M   'P 1'
_cell_length_a   6.42936577
_cell_length_b   7.16524965
_cell_length_c   8.69192675
_cell_angle_alpha   96.79318650
_cell_angle_beta   111.70617691
_cell_angle_gamma   90.00000090
_symmetry_Int_Tables_number   1
_chemical_formula_structural   Tb4HoRh2
_chemical_formula_sum   'Tb8 Ho2 Rh4'
_cell_volume   368.99973986
_cell_formula_units_Z   2
loop_
 _symmetry_equiv_pos_site_id
 _symmetry_equiv_pos_as_xyz
  1  'x, y, z'
loop_
 _atom_site_type_symbol
 _atom_site_label
 _atom_site_symmetry_multiplicity
 _atom_site_fract_x
 _atom_site_fract_y
 _atom_site_fract_z
 _atom_site_occupancy
  Tb  Tb0  1  0.979854  0.917590  0.187285  1
  Tb  Tb1  1  0.792569  0.582410  0.812715  1
  Tb  Tb2  1  0.020146  0.082410  0.812715  1
  Tb  Tb3  1  0.207431  0.417590  0.187285  1
  Tb  Tb4  1  0.645257  0.812699  0.436193  1
  Tb  Tb5  1  0.209066  0.687301  0.563807  1
  Tb  Tb6  1  0.354743  0.187301  0.563807  1
  Tb  Tb7  1  0.790934  0.312699  0.436193  1
  Ho  Ho8  1  0.424052  0.750000  0.000000  1
  Ho  Ho9  1  0.575948  0.250000  0.000000  1
  Rh  Rh10  1  0.816543  0.574256  0.219877  1
  Rh  Rh11  1  0.596665  0.925744  0.780123  1
  Rh  Rh12  1  0.183457  0.425744  0.780123  1
  Rh  Rh13  1  0.403335  0.074256  0.219877  1
