# generated using pymatgen
data_La8Al7GaRh8
_symmetry_space_group_name_H-M   'P 1'
_cell_length_a   4.28158400
_cell_length_b   7.28920192
_cell_length_c   16.17298883
_cell_angle_alpha   89.88070860
_cell_angle_beta   90.00000000
_cell_angle_gamma   90.00000000
_symmetry_Int_Tables_number   1
_chemical_formula_structural   La8Al7GaRh8
_chemical_formula_sum   'La8 Al7 Ga1 Rh8'
_cell_volume   504.74705654
_cell_formula_units_Z   1
loop_
 _symmetry_equiv_pos_site_id
 _symmetry_equiv_pos_as_xyz
  1  'x, y, z'
loop_
 _atom_site_type_symbol
 _atom_site_label
 _atom_site_symmetry_multiplicity
 _atom_site_fract_x
 _atom_site_fract_y
 _atom_site_fract_z
 _atom_site_occupancy
  La  La0  1  0.250000  0.514988  0.780327  1
  La  La1  1  0.750000  0.486220  0.220553  1
  La  La2  1  0.750000  0.981728  0.280872  1
  La  La3  1  0.250000  0.015237  0.719408  1
  La  La4  1  0.250000  0.655876  0.559623  1
  La  La5  1  0.750000  0.345907  0.438845  1
  La  La6  1  0.750000  0.845447  0.059944  1
  La  La7  1  0.250000  0.155232  0.939955  1
  Al  Al8  1  0.750000  0.343927  0.648107  1
  Al  Al9  1  0.750000  0.843766  0.851398  1
  Al  Al10  1  0.250000  0.156624  0.149283  1
  Al  Al11  1  0.250000  0.506139  0.060729  1
  Al  Al12  1  0.750000  0.494043  0.939813  1
  Al  Al13  1  0.750000  0.995674  0.560553  1
  Al  Al14  1  0.250000  0.006415  0.439674  1
  Ga  Ga15  1  0.250000  0.654028  0.351173  1
  Rh  Rh16  1  0.250000  0.774235  0.176974  1
  Rh  Rh17  1  0.750000  0.225429  0.821480  1
  Rh  Rh18  1  0.750000  0.725836  0.678062  1
  Rh  Rh19  1  0.250000  0.266997  0.320756  1
  Rh  Rh20  1  0.250000  0.715591  0.926990  1
  Rh  Rh21  1  0.750000  0.285321  0.073996  1
  Rh  Rh22  1  0.750000  0.787883  0.428813  1
  Rh  Rh23  1  0.250000  0.217458  0.572675  1
