# generated using pymatgen
data_Th4Mg2Ni3Pd
_symmetry_space_group_name_H-M   'P 1'
_cell_length_a   3.73461600
_cell_length_b   7.71103828
_cell_length_c   7.71103828
_cell_angle_alpha   90.91586089
_cell_angle_beta   90.00000000
_cell_angle_gamma   90.00000000
_symmetry_Int_Tables_number   1
_chemical_formula_structural   Th4Mg2Ni3Pd
_chemical_formula_sum   'Th4 Mg2 Ni3 Pd1'
_cell_volume   222.03231426
_cell_formula_units_Z   1
loop_
 _symmetry_equiv_pos_site_id
 _symmetry_equiv_pos_as_xyz
  1  'x, y, z'
loop_
 _atom_site_type_symbol
 _atom_site_label
 _atom_site_symmetry_multiplicity
 _atom_site_fract_x
 _atom_site_fract_y
 _atom_site_fract_z
 _atom_site_occupancy
  Th  Th0  1  0.500000  0.170300  0.683458  1
  Th  Th1  1  0.500000  0.816542  0.329700  1
  Th  Th2  1  0.500000  0.340073  0.159927  1
  Th  Th3  1  0.500000  0.675520  0.824480  1
  Mg  Mg4  1  0.000000  0.998370  0.002473  1
  Mg  Mg5  1  0.000000  0.497527  0.501630  1
  Ni  Ni6  1  0.000000  0.628567  0.125331  1
  Ni  Ni7  1  0.000000  0.374669  0.871433  1
  Ni  Ni8  1  0.000000  0.869247  0.630753  1
  Pd  Pd9  1  0.000000  0.129184  0.370816  1
