# generated using pymatgen
data_K4Tm9Lu3S20
_symmetry_space_group_name_H-M   'P 1'
_cell_length_a   3.89060300
_cell_length_b   11.74776358
_cell_length_c   20.89544400
_cell_angle_alpha   90.02972632
_cell_angle_beta   90.00000000
_cell_angle_gamma   90.00000000
_symmetry_Int_Tables_number   1
_chemical_formula_structural   K4Tm9Lu3S20
_chemical_formula_sum   'K4 Tm9 Lu3 S20'
_cell_volume   955.04461590
_cell_formula_units_Z   1
loop_
 _symmetry_equiv_pos_site_id
 _symmetry_equiv_pos_as_xyz
  1  'x, y, z'
loop_
 _atom_site_type_symbol
 _atom_site_label
 _atom_site_symmetry_multiplicity
 _atom_site_fract_x
 _atom_site_fract_y
 _atom_site_fract_z
 _atom_site_occupancy
  K  K0  1  0.250000  0.846777  0.097705  1
  K  K1  1  0.750000  0.153005  0.901953  1
  K  K2  1  0.750000  0.346603  0.402318  1
  K  K3  1  0.250000  0.653481  0.597550  1
  Tm  Tm4  1  0.750000  0.800010  0.827362  1
  Tm  Tm5  1  0.250000  0.199922  0.172843  1
  Tm  Tm6  1  0.250000  0.299794  0.672367  1
  Tm  Tm7  1  0.750000  0.700187  0.327622  1
  Tm  Tm8  1  0.250000  0.957190  0.697429  1
  Tm  Tm9  1  0.750000  0.042646  0.302707  1
  Tm  Tm10  1  0.750000  0.457274  0.802096  1
  Tm  Tm11  1  0.250000  0.543003  0.197571  1
  Tm  Tm12  1  0.750000  0.389875  0.052158  1
  Lu  Lu13  1  0.250000  0.610343  0.947467  1
  Lu  Lu14  1  0.250000  0.890052  0.447859  1
  Lu  Lu15  1  0.750000  0.109622  0.552482  1
  S  S16  1  0.250000  0.949943  0.568780  1
  S  S17  1  0.750000  0.049943  0.431413  1
  S  S18  1  0.750000  0.450636  0.930651  1
  S  S19  1  0.250000  0.551360  0.068724  1
  S  S20  1  0.750000  0.763835  0.954648  1
  S  S21  1  0.250000  0.234361  0.045392  1
  S  S22  1  0.250000  0.263315  0.545230  1
  S  S23  1  0.750000  0.736532  0.454947  1
  S  S24  1  0.250000  0.953242  0.826458  1
  S  S25  1  0.750000  0.046741  0.173679  1
  S  S26  1  0.750000  0.452990  0.673206  1
  S  S27  1  0.250000  0.546978  0.326664  1
  S  S28  1  0.750000  0.126849  0.682378  1
  S  S29  1  0.250000  0.873024  0.317780  1
  S  S30  1  0.250000  0.627207  0.817456  1
  S  S31  1  0.750000  0.373053  0.182961  1
  S  S32  1  0.750000  0.694686  0.198644  1
  S  S33  1  0.250000  0.305612  0.801382  1
  S  S34  1  0.250000  0.194405  0.301766  1
  S  S35  1  0.750000  0.805503  0.698352  1
