# generated using pymatgen
data_Eu6Al24Ir5Os3
_symmetry_space_group_name_H-M   'P 1'
_cell_length_a   8.89142100
_cell_length_b   8.90005692
_cell_length_c   9.70694740
_cell_angle_alpha   90.14998714
_cell_angle_beta   90.00000000
_cell_angle_gamma   119.96790347
_symmetry_Int_Tables_number   1
_chemical_formula_structural   Eu6Al24Ir5Os3
_chemical_formula_sum   'Eu6 Al24 Ir5 Os3'
_cell_volume   665.45034561
_cell_formula_units_Z   1
loop_
 _symmetry_equiv_pos_site_id
 _symmetry_equiv_pos_as_xyz
  1  'x, y, z'
loop_
 _atom_site_type_symbol
 _atom_site_label
 _atom_site_symmetry_multiplicity
 _atom_site_fract_x
 _atom_site_fract_y
 _atom_site_fract_z
 _atom_site_occupancy
  Eu  Eu0  1  0.191994  0.383989  0.250356  1
  Eu  Eu1  1  0.808006  0.616011  0.749644  1
  Eu  Eu2  1  0.615035  0.808367  0.250797  1
  Eu  Eu3  1  0.384965  0.191633  0.749203  1
  Eu  Eu4  1  0.193331  0.808367  0.250797  1
  Eu  Eu5  1  0.806669  0.191633  0.749203  1
  Al  Al6  1  0.333325  0.666650  0.010295  1
  Al  Al7  1  0.666675  0.333350  0.989705  1
  Al  Al8  1  0.665920  0.331840  0.510064  1
  Al  Al9  1  0.334080  0.668160  0.489936  1
  Al  Al10  1  0.162588  0.325175  0.575092  1
  Al  Al11  1  0.837412  0.674825  0.424908  1
  Al  Al12  1  0.674573  0.838595  0.574229  1
  Al  Al13  1  0.837635  0.675271  0.075315  1
  Al  Al14  1  0.325427  0.161405  0.425771  1
  Al  Al15  1  0.162365  0.324729  0.924685  1
  Al  Al16  1  0.164023  0.838595  0.574229  1
  Al  Al17  1  0.325184  0.162919  0.074529  1
  Al  Al18  1  0.835977  0.161405  0.425771  1
  Al  Al19  1  0.674816  0.837081  0.925471  1
  Al  Al20  1  0.837734  0.162919  0.074529  1
  Al  Al21  1  0.162266  0.837081  0.925471  1
  Al  Al22  1  0.563031  0.126062  0.250729  1
  Al  Al23  1  0.436969  0.873938  0.749271  1
  Al  Al24  1  0.874405  0.437619  0.249614  1
  Al  Al25  1  0.125595  0.562381  0.750386  1
  Al  Al26  1  0.563213  0.437619  0.249614  1
  Al  Al27  1  0.436787  0.562381  0.750386  1
  Al  Al28  1  0.000104  0.000207  0.250054  1
  Al  Al29  1  0.999896  0.999793  0.749946  1
  Ir  Ir30  1  0.500000  0.000000  0.000000  1
  Ir  Ir31  1  0.000000  0.500000  0.000000  1
  Ir  Ir32  1  0.500000  0.500000  0.000000  1
  Ir  Ir33  1  0.000000  0.500000  0.500000  1
  Ir  Ir34  1  0.500000  0.500000  0.500000  1
  Os  Os35  1  0.500000  0.000000  0.500000  1
  Os  Os36  1  0.000000  0.000000  0.000000  1
  Os  Os37  1  0.000000  0.000000  0.500000  1
