# generated using pymatgen
data_Ta6MnFe(BRu2)4
_symmetry_space_group_name_H-M   'P 1'
_cell_length_a   9.29595306
_cell_length_b   9.29595306
_cell_length_c   3.02751900
_cell_angle_alpha   90.00000000
_cell_angle_beta   90.00000000
_cell_angle_gamma   90.44806429
_symmetry_Int_Tables_number   1
_chemical_formula_structural   Ta6MnFe(BRu2)4
_chemical_formula_sum   'Ta6 Mn1 Fe1 B4 Ru8'
_cell_volume   261.61427755
_cell_formula_units_Z   1
loop_
 _symmetry_equiv_pos_site_id
 _symmetry_equiv_pos_as_xyz
  1  'x, y, z'
loop_
 _atom_site_type_symbol
 _atom_site_label
 _atom_site_symmetry_multiplicity
 _atom_site_fract_x
 _atom_site_fract_y
 _atom_site_fract_z
 _atom_site_occupancy
  Ta  Ta0  1  0.828013  0.671987  0.000000  1
  Ta  Ta1  1  0.171987  0.328013  0.000000  1
  Ta  Ta2  1  0.330320  0.830320  0.000000  1
  Ta  Ta3  1  0.669680  0.169680  0.000000  1
  Ta  Ta4  1  0.500000  0.500000  0.000000  1
  Ta  Ta5  1  0.000000  0.000000  0.000000  1
  Mn  Mn6  1  0.500000  0.000000  0.500000  1
  Fe  Fe7  1  0.000000  0.500000  0.500000  1
  B  B8  1  0.612120  0.887880  0.000000  1
  B  B9  1  0.387880  0.112120  0.000000  1
  B  B10  1  0.111403  0.611403  0.000000  1
  B  B11  1  0.888597  0.388597  0.000000  1
  Ru  Ru12  1  0.570107  0.720478  0.500000  1
  Ru  Ru13  1  0.429893  0.279522  0.500000  1
  Ru  Ru14  1  0.069485  0.777331  0.500000  1
  Ru  Ru15  1  0.930515  0.222669  0.500000  1
  Ru  Ru16  1  0.277331  0.569485  0.500000  1
  Ru  Ru17  1  0.722669  0.430515  0.500000  1
  Ru  Ru18  1  0.220478  0.070107  0.500000  1
  Ru  Ru19  1  0.779522  0.929893  0.500000  1
