# generated using pymatgen
data_Cr5HPd15
_symmetry_space_group_name_H-M   'P 1'
_cell_length_a   3.93575800
_cell_length_b   3.93575800
_cell_length_c   19.58495000
_cell_angle_alpha   90.00000000
_cell_angle_beta   90.00000000
_cell_angle_gamma   90.00000000
_symmetry_Int_Tables_number   1
_chemical_formula_structural   Cr5HPd15
_chemical_formula_sum   'Cr5 H1 Pd15'
_cell_volume   303.37461690
_cell_formula_units_Z   1
loop_
 _symmetry_equiv_pos_site_id
 _symmetry_equiv_pos_as_xyz
  1  'x, y, z'
loop_
 _atom_site_type_symbol
 _atom_site_label
 _atom_site_symmetry_multiplicity
 _atom_site_fract_x
 _atom_site_fract_y
 _atom_site_fract_z
 _atom_site_occupancy
  Cr  Cr0  1  0.000000  0.000000  0.995330  1
  Cr  Cr1  1  0.000000  0.000000  0.204670  1
  Cr  Cr2  1  0.000000  0.000000  0.402533  1
  Cr  Cr3  1  0.000000  0.000000  0.600000  1
  Cr  Cr4  1  0.000000  0.000000  0.797467  1
  H  H5  1  0.500000  0.500000  0.100000  1
  Pd  Pd6  1  0.000000  0.500000  0.100000  1
  Pd  Pd7  1  0.000000  0.500000  0.303418  1
  Pd  Pd8  1  0.000000  0.500000  0.501571  1
  Pd  Pd9  1  0.000000  0.500000  0.698429  1
  Pd  Pd10  1  0.000000  0.500000  0.896582  1
  Pd  Pd11  1  0.500000  0.500000  0.996708  1
  Pd  Pd12  1  0.500000  0.500000  0.203292  1
  Pd  Pd13  1  0.500000  0.500000  0.402766  1
  Pd  Pd14  1  0.500000  0.500000  0.600000  1
  Pd  Pd15  1  0.500000  0.500000  0.797234  1
  Pd  Pd16  1  0.500000  0.000000  0.100000  1
  Pd  Pd17  1  0.500000  0.000000  0.303418  1
  Pd  Pd18  1  0.500000  0.000000  0.501571  1
  Pd  Pd19  1  0.500000  0.000000  0.698429  1
  Pd  Pd20  1  0.500000  0.000000  0.896582  1
