# generated using pymatgen
data_Ca2HoCu6Ni7B2
_symmetry_space_group_name_H-M   'P 1'
_cell_length_a   5.03289036
_cell_length_b   5.04114110
_cell_length_c   10.92231500
_cell_angle_alpha   90.00000000
_cell_angle_beta   90.00000000
_cell_angle_gamma   120.05424259
_symmetry_Int_Tables_number   1
_chemical_formula_structural   Ca2HoCu6Ni7B2
_chemical_formula_sum   'Ca2 Ho1 Cu6 Ni7 B2'
_cell_volume   239.85789291
_cell_formula_units_Z   1
loop_
 _symmetry_equiv_pos_site_id
 _symmetry_equiv_pos_as_xyz
  1  'x, y, z'
loop_
 _atom_site_type_symbol
 _atom_site_label
 _atom_site_symmetry_multiplicity
 _atom_site_fract_x
 _atom_site_fract_y
 _atom_site_fract_z
 _atom_site_occupancy
  Ca  Ca0  1  0.000000  0.000000  0.677689  1
  Ca  Ca1  1  0.000000  0.000000  0.322311  1
  Ho  Ho2  1  0.000000  0.000000  0.000000  1
  Cu  Cu3  1  0.500000  0.500000  0.500000  1
  Cu  Cu4  1  0.500000  0.000000  0.500000  1
  Cu  Cu5  1  0.670927  0.335463  0.684832  1
  Cu  Cu6  1  0.329073  0.664537  0.684832  1
  Cu  Cu7  1  0.329073  0.664537  0.315168  1
  Cu  Cu8  1  0.670927  0.335463  0.315168  1
  Ni  Ni9  1  0.000000  0.500000  0.500000  1
  Ni  Ni10  1  0.500000  0.500000  0.872089  1
  Ni  Ni11  1  0.500000  0.000000  0.872089  1
  Ni  Ni12  1  0.000000  0.500000  0.872210  1
  Ni  Ni13  1  0.500000  0.500000  0.127911  1
  Ni  Ni14  1  0.500000  0.000000  0.127911  1
  Ni  Ni15  1  0.000000  0.500000  0.127790  1
  B  B16  1  0.665942  0.332971  0.000000  1
  B  B17  1  0.334058  0.667029  0.000000  1
