# generated using pymatgen
data_Yb11Lu(CuSi)12
_symmetry_space_group_name_H-M   'P 1'
_cell_length_a   4.24662700
_cell_length_b   7.17634385
_cell_length_c   20.64401400
_cell_angle_alpha   90.31557635
_cell_angle_beta   90.00000000
_cell_angle_gamma   90.00000000
_symmetry_Int_Tables_number   1
_chemical_formula_structural   Yb11Lu(CuSi)12
_chemical_formula_sum   'Yb11 Lu1 Cu12 Si12'
_cell_volume   629.12205973
_cell_formula_units_Z   1
loop_
 _symmetry_equiv_pos_site_id
 _symmetry_equiv_pos_as_xyz
  1  'x, y, z'
loop_
 _atom_site_type_symbol
 _atom_site_label
 _atom_site_symmetry_multiplicity
 _atom_site_fract_x
 _atom_site_fract_y
 _atom_site_fract_z
 _atom_site_occupancy
  Yb  Yb0  1  0.250000  0.709974  0.002682  1
  Yb  Yb1  1  0.750000  0.289173  0.996996  1
  Yb  Yb2  1  0.750000  0.206928  0.497803  1
  Yb  Yb3  1  0.250000  0.794934  0.503533  1
  Yb  Yb4  1  0.250000  0.797797  0.165667  1
  Yb  Yb5  1  0.750000  0.208242  0.833053  1
  Yb  Yb6  1  0.750000  0.298657  0.333328  1
  Yb  Yb7  1  0.250000  0.703722  0.666685  1
  Yb  Yb8  1  0.250000  0.699313  0.333078  1
  Yb  Yb9  1  0.750000  0.298529  0.667009  1
  Yb  Yb10  1  0.750000  0.199886  0.166000  1
  Lu  Lu11  1  0.250000  0.794530  0.833463  1
  Cu  Cu12  1  0.250000  0.412675  0.096224  1
  Cu  Cu13  1  0.750000  0.584501  0.901964  1
  Cu  Cu14  1  0.750000  0.913477  0.402891  1
  Cu  Cu15  1  0.250000  0.088076  0.598542  1
  Cu  Cu16  1  0.250000  0.410912  0.235371  1
  Cu  Cu17  1  0.750000  0.589824  0.765701  1
  Cu  Cu18  1  0.750000  0.911743  0.264192  1
  Cu  Cu19  1  0.250000  0.087818  0.737758  1
  Cu  Cu20  1  0.250000  0.417179  0.438534  1
  Cu  Cu21  1  0.750000  0.583987  0.562779  1
  Cu  Cu22  1  0.750000  0.915788  0.062908  1
  Cu  Cu23  1  0.250000  0.081068  0.936751  1
  Si  Si24  1  0.250000  0.087924  0.064448  1
  Si  Si25  1  0.750000  0.907050  0.927329  1
  Si  Si26  1  0.750000  0.589704  0.434931  1
  Si  Si27  1  0.250000  0.411110  0.566268  1
  Si  Si28  1  0.250000  0.080454  0.272922  1
  Si  Si29  1  0.750000  0.918057  0.730816  1
  Si  Si30  1  0.750000  0.580611  0.226236  1
  Si  Si31  1  0.250000  0.423611  0.773108  1
  Si  Si32  1  0.250000  0.083412  0.394440  1
  Si  Si33  1  0.750000  0.917469  0.607311  1
  Si  Si34  1  0.750000  0.582529  0.104841  1
  Si  Si35  1  0.250000  0.419334  0.894434  1
