# generated using pymatgen
data_LaPrMgCoO6
_symmetry_space_group_name_H-M   'P 1'
_cell_length_a   5.40147276
_cell_length_b   5.43983196
_cell_length_c   5.47637592
_cell_angle_alpha   119.48232874
_cell_angle_beta   119.11693857
_cell_angle_gamma   90.09067890
_symmetry_Int_Tables_number   1
_chemical_formula_structural   LaPrMgCoO6
_chemical_formula_sum   'La1 Pr1 Mg1 Co1 O6'
_cell_volume   116.06378559
_cell_formula_units_Z   1
loop_
 _symmetry_equiv_pos_site_id
 _symmetry_equiv_pos_as_xyz
  1  'x, y, z'
loop_
 _atom_site_type_symbol
 _atom_site_label
 _atom_site_symmetry_multiplicity
 _atom_site_fract_x
 _atom_site_fract_y
 _atom_site_fract_z
 _atom_site_occupancy
  La  La0  1  0.750396  0.746611  0.499262  1
  Pr  Pr1  1  0.249817  0.256340  0.500913  1
  Mg  Mg2  1  0.500232  0.000176  0.000049  1
  Co  Co3  1  0.999805  0.499720  0.999921  1
  O  O4  1  0.296156  0.694757  0.012435  1
  O  O5  1  0.179939  0.202039  0.981176  1
  O  O6  1  0.699602  0.301480  0.979638  1
  O  O7  1  0.824494  0.802094  0.026720  1
  O  O8  1  0.243071  0.715513  0.484663  1
  O  O9  1  0.756491  0.281270  0.515224  1
