# generated using pymatgen
data_Dy7Tm3(IrPt2)2
_symmetry_space_group_name_H-M   'P 1'
_cell_length_a   11.03989727
_cell_length_b   11.02227800
_cell_length_c   6.30910515
_cell_angle_alpha   90.00000000
_cell_angle_beta   89.97477576
_cell_angle_gamma   90.00000000
_symmetry_Int_Tables_number   1
_chemical_formula_structural   Dy7Tm3(IrPt2)2
_chemical_formula_sum   'Dy14 Tm6 Ir4 Pt8'
_cell_volume   767.72223013
_cell_formula_units_Z   2
loop_
 _symmetry_equiv_pos_site_id
 _symmetry_equiv_pos_as_xyz
  1  'x, y, z'
loop_
 _atom_site_type_symbol
 _atom_site_label
 _atom_site_symmetry_multiplicity
 _atom_site_fract_x
 _atom_site_fract_y
 _atom_site_fract_z
 _atom_site_occupancy
  Dy  Dy0  1  0.293510  0.087240  0.374051  1
  Dy  Dy1  1  0.293510  0.912760  0.874051  1
  Dy  Dy2  1  0.706316  0.086989  0.874407  1
  Dy  Dy3  1  0.706316  0.913011  0.374407  1
  Dy  Dy4  1  0.586962  0.793772  0.874462  1
  Dy  Dy5  1  0.586962  0.206228  0.374462  1
  Dy  Dy6  1  0.412931  0.793711  0.374507  1
  Dy  Dy7  1  0.412931  0.206289  0.874507  1
  Dy  Dy8  1  0.205920  0.413185  0.625565  1
  Dy  Dy9  1  0.205920  0.586815  0.125565  1
  Dy  Dy10  1  0.794279  0.412604  0.125606  1
  Dy  Dy11  1  0.794279  0.587396  0.625606  1
  Dy  Dy12  1  0.913357  0.706066  0.125423  1
  Dy  Dy13  1  0.913357  0.293934  0.625423  1
  Tm  Tm14  1  0.086876  0.705359  0.625093  1
  Tm  Tm15  1  0.086876  0.294641  0.125093  1
  Tm  Tm16  1  0.000151  0.999604  0.500201  1
  Tm  Tm17  1  0.000151  0.000396  0.000201  1
  Tm  Tm18  1  0.499998  0.500091  0.000128  1
  Tm  Tm19  1  0.499998  0.499909  0.500128  1
  Ir  Ir20  1  0.499932  0.000037  0.120712  1
  Ir  Ir21  1  0.499932  0.999963  0.620712  1
  Ir  Ir22  1  0.000519  0.499856  0.879212  1
  Ir  Ir23  1  0.000519  0.500144  0.379212  1
  Pt  Pt24  1  0.848050  0.152567  0.249613  1
  Pt  Pt25  1  0.848050  0.847433  0.749613  1
  Pt  Pt26  1  0.151974  0.152964  0.751341  1
  Pt  Pt27  1  0.151974  0.847036  0.251341  1
  Pt  Pt28  1  0.652302  0.347586  0.749964  1
  Pt  Pt29  1  0.652302  0.652414  0.249964  1
  Pt  Pt30  1  0.346921  0.347431  0.249716  1
  Pt  Pt31  1  0.346921  0.652569  0.749716  1
