# generated using pymatgen
data_Np2B8RuRh
_symmetry_space_group_name_H-M   'P 1'
_cell_length_a   3.50191500
_cell_length_b   6.00242256
_cell_length_c   11.63450444
_cell_angle_alpha   90.03723836
_cell_angle_beta   90.00000000
_cell_angle_gamma   90.00000000
_symmetry_Int_Tables_number   1
_chemical_formula_structural   Np2B8RuRh
_chemical_formula_sum   'Np4 B16 Ru2 Rh2'
_cell_volume   244.55692468
_cell_formula_units_Z   2
loop_
 _symmetry_equiv_pos_site_id
 _symmetry_equiv_pos_as_xyz
  1  'x, y, z'
loop_
 _atom_site_type_symbol
 _atom_site_label
 _atom_site_symmetry_multiplicity
 _atom_site_fract_x
 _atom_site_fract_y
 _atom_site_fract_z
 _atom_site_occupancy
  Np  Np0  1  0.000000  0.627785  0.649184  1
  Np  Np1  1  0.000000  0.372215  0.350816  1
  Np  Np2  1  0.000000  0.129018  0.849332  1
  Np  Np3  1  0.000000  0.870982  0.150668  1
  B  B4  1  0.500000  0.972451  0.691799  1
  B  B5  1  0.500000  0.027549  0.308201  1
  B  B6  1  0.500000  0.474484  0.807080  1
  B  B7  1  0.500000  0.525516  0.192920  1
  B  B8  1  0.500000  0.789056  0.811947  1
  B  B9  1  0.500000  0.210944  0.188053  1
  B  B10  1  0.500000  0.288401  0.686953  1
  B  B11  1  0.500000  0.711599  0.313047  1
  B  B12  1  0.500000  0.866676  0.967719  1
  B  B13  1  0.500000  0.133324  0.032281  1
  B  B14  1  0.500000  0.365903  0.531996  1
  B  B15  1  0.500000  0.634097  0.468004  1
  B  B16  1  0.500000  0.885577  0.546659  1
  B  B17  1  0.500000  0.114423  0.453341  1
  B  B18  1  0.500000  0.384632  0.952591  1
  B  B19  1  0.500000  0.615368  0.047409  1
  Ru  Ru20  1  0.000000  0.138362  0.591636  1
  Ru  Ru21  1  0.000000  0.861638  0.408364  1
  Rh  Rh22  1  0.000000  0.638112  0.907650  1
  Rh  Rh23  1  0.000000  0.361888  0.092350  1
