# generated using pymatgen
data_YbSm(Al5Os)4
_symmetry_space_group_name_H-M   'P 1'
_cell_length_a   6.88356698
_cell_length_b   6.88356670
_cell_length_c   9.18495300
_cell_angle_alpha   90.00000000
_cell_angle_beta   90.00000000
_cell_angle_gamma   96.50804021
_symmetry_Int_Tables_number   1
_chemical_formula_structural   YbSm(Al5Os)4
_chemical_formula_sum   'Yb1 Sm1 Al20 Os4'
_cell_volume   432.41060761
_cell_formula_units_Z   1
loop_
 _symmetry_equiv_pos_site_id
 _symmetry_equiv_pos_as_xyz
  1  'x, y, z'
loop_
 _atom_site_type_symbol
 _atom_site_label
 _atom_site_symmetry_multiplicity
 _atom_site_fract_x
 _atom_site_fract_y
 _atom_site_fract_z
 _atom_site_occupancy
  Yb  Yb0  1  0.373201  0.626799  0.250000  1
  Sm  Sm1  1  0.626516  0.373484  0.750000  1
  Al  Al2  1  0.281347  0.017494  0.750000  1
  Al  Al3  1  0.021630  0.283938  0.250000  1
  Al  Al4  1  0.716062  0.978370  0.250000  1
  Al  Al5  1  0.982506  0.718653  0.750000  1
  Al  Al6  1  0.876709  0.123291  0.950900  1
  Al  Al7  1  0.123537  0.876463  0.042651  1
  Al  Al8  1  0.876709  0.123291  0.549100  1
  Al  Al9  1  0.123537  0.876463  0.457349  1
  Al  Al10  1  0.644747  0.915514  0.750000  1
  Al  Al11  1  0.914157  0.643936  0.250000  1
  Al  Al12  1  0.356064  0.085843  0.250000  1
  Al  Al13  1  0.084486  0.355253  0.750000  1
  Al  Al14  1  0.343863  0.656137  0.899335  1
  Al  Al15  1  0.659137  0.340863  0.101986  1
  Al  Al16  1  0.343863  0.656137  0.600665  1
  Al  Al17  1  0.659137  0.340863  0.398014  1
  Al  Al18  1  0.723599  0.725201  0.000603  1
  Al  Al19  1  0.723599  0.725201  0.499397  1
  Al  Al20  1  0.274799  0.276401  0.000603  1
  Al  Al21  1  0.274799  0.276401  0.499397  1
  Os  Os22  1  0.499127  0.001129  0.000628  1
  Os  Os23  1  0.998871  0.500873  0.000628  1
  Os  Os24  1  0.499127  0.001129  0.499372  1
  Os  Os25  1  0.998871  0.500873  0.499372  1
