# generated using pymatgen
data_Sr2LiPt2
_symmetry_space_group_name_H-M   'P 1'
_cell_length_a   5.90039299
_cell_length_b   5.90039323
_cell_length_c   5.90039325
_cell_angle_alpha   136.10975241
_cell_angle_beta   120.25491530
_cell_angle_gamma   77.02551236
_symmetry_Int_Tables_number   1
_chemical_formula_structural   Sr2LiPt2
_chemical_formula_sum   'Sr2 Li1 Pt2'
_cell_volume   119.67600856
_cell_formula_units_Z   1
loop_
 _symmetry_equiv_pos_site_id
 _symmetry_equiv_pos_as_xyz
  1  'x, y, z'
loop_
 _atom_site_type_symbol
 _atom_site_label
 _atom_site_symmetry_multiplicity
 _atom_site_fract_x
 _atom_site_fract_y
 _atom_site_fract_z
 _atom_site_occupancy
  Sr  Sr0  1  0.695288  0.195288  0.500000  1
  Sr  Sr1  1  0.304712  0.804712  0.500000  1
  Li  Li2  1  0.000000  0.000000  0.000000  1
  Pt  Pt3  1  0.746559  0.500000  0.246559  1
  Pt  Pt4  1  0.253441  0.500000  0.753441  1
