# generated using pymatgen
data_Tb3Cu4Si3Ge
_symmetry_space_group_name_H-M   'P 1'
_cell_length_a   7.91153887
_cell_length_b   7.91153983
_cell_length_c   7.91154015
_cell_angle_alpha   149.45366745
_cell_angle_beta   130.84552335
_cell_angle_gamma   58.98648093
_symmetry_Int_Tables_number   1
_chemical_formula_structural   Tb3Cu4Si3Ge
_chemical_formula_sum   'Tb3 Cu4 Si3 Ge1'
_cell_volume   188.89869991
_cell_formula_units_Z   1
loop_
 _symmetry_equiv_pos_site_id
 _symmetry_equiv_pos_as_xyz
  1  'x, y, z'
loop_
 _atom_site_type_symbol
 _atom_site_label
 _atom_site_symmetry_multiplicity
 _atom_site_fract_x
 _atom_site_fract_y
 _atom_site_fract_z
 _atom_site_occupancy
  Tb  Tb0  1  0.871100  0.869782  0.001318  1
  Tb  Tb1  1  0.131536  0.130218  0.001318  1
  Tb  Tb2  1  0.498297  0.000000  0.498297  1
  Cu  Cu3  1  0.516830  0.327628  0.189203  1
  Cu  Cu4  1  0.861576  0.672372  0.189203  1
  Cu  Cu5  1  0.141792  0.331762  0.810030  1
  Cu  Cu6  1  0.478268  0.668238  0.810030  1
  Si  Si7  1  0.188361  0.500000  0.688361  1
  Si  Si8  1  0.284062  0.784168  0.499894  1
  Si  Si9  1  0.715726  0.215832  0.499894  1
  Ge  Ge10  1  0.812452  0.500000  0.312452  1
