# generated using pymatgen
data_Dy3Tm2Ta3(P3Ir4)4
_symmetry_space_group_name_H-M   'P 1'
_cell_length_a   12.75815300
_cell_length_b   12.75815309
_cell_length_c   3.98699700
_cell_angle_alpha   90.00000000
_cell_angle_beta   90.00000000
_cell_angle_gamma   119.99999716
_symmetry_Int_Tables_number   1
_chemical_formula_structural   Dy3Tm2Ta3(P3Ir4)4
_chemical_formula_sum   'Dy3 Tm2 Ta3 P12 Ir16'
_cell_volume   562.02051460
_cell_formula_units_Z   1
loop_
 _symmetry_equiv_pos_site_id
 _symmetry_equiv_pos_as_xyz
  1  'x, y, z'
loop_
 _atom_site_type_symbol
 _atom_site_label
 _atom_site_symmetry_multiplicity
 _atom_site_fract_x
 _atom_site_fract_y
 _atom_site_fract_z
 _atom_site_occupancy
  Dy  Dy0  1  0.000000  0.813764  0.000000  1
  Dy  Dy1  1  0.186236  0.186236  0.000000  1
  Dy  Dy2  1  0.813764  0.000000  0.000000  1
  Tm  Tm3  1  0.333333  0.666667  0.500000  1
  Tm  Tm4  1  0.666667  0.333333  0.500000  1
  Ta  Ta5  1  0.000000  0.453013  0.500000  1
  Ta  Ta6  1  0.546987  0.546987  0.500000  1
  Ta  Ta7  1  0.453013  0.000000  0.500000  1
  P  P8  1  0.000000  0.643308  0.500000  1
  P  P9  1  0.356692  0.356692  0.500000  1
  P  P10  1  0.643308  0.000000  0.500000  1
  P  P11  1  0.516875  0.684895  0.000000  1
  P  P12  1  0.315105  0.831980  0.000000  1
  P  P13  1  0.168020  0.483125  0.000000  1
  P  P14  1  0.483125  0.168020  0.000000  1
  P  P15  1  0.684895  0.516875  0.000000  1
  P  P16  1  0.831980  0.315105  0.000000  1
  P  P17  1  0.000000  0.176263  0.500000  1
  P  P18  1  0.823737  0.823737  0.500000  1
  P  P19  1  0.176263  0.000000  0.500000  1
  Ir  Ir20  1  0.506193  0.863073  0.000000  1
  Ir  Ir21  1  0.136927  0.643123  0.000000  1
  Ir  Ir22  1  0.356877  0.493807  0.000000  1
  Ir  Ir23  1  0.493807  0.356877  0.000000  1
  Ir  Ir24  1  0.863073  0.506193  0.000000  1
  Ir  Ir25  1  0.643123  0.136927  0.000000  1
  Ir  Ir26  1  0.000000  0.283748  0.000000  1
  Ir  Ir27  1  0.716252  0.716252  0.000000  1
  Ir  Ir28  1  0.283748  0.000000  0.000000  1
  Ir  Ir29  1  0.626666  0.804455  0.500000  1
  Ir  Ir30  1  0.195545  0.822212  0.500000  1
  Ir  Ir31  1  0.177788  0.373334  0.500000  1
  Ir  Ir32  1  0.373334  0.177788  0.500000  1
  Ir  Ir33  1  0.804455  0.626666  0.500000  1
  Ir  Ir34  1  0.822212  0.195545  0.500000  1
  Ir  Ir35  1  0.000000  0.000000  0.500000  1
