# generated using pymatgen
data_LiEr5(Rh2Pb)6
_symmetry_space_group_name_H-M   'P 1'
_cell_length_a   4.56190700
_cell_length_b   7.10906700
_cell_length_c   13.65177200
_cell_angle_alpha   90.00000000
_cell_angle_beta   90.00178145
_cell_angle_gamma   90.00000000
_symmetry_Int_Tables_number   1
_chemical_formula_structural   LiEr5(Rh2Pb)6
_chemical_formula_sum   'Li1 Er5 Rh12 Pb6'
_cell_volume   442.73928672
_cell_formula_units_Z   1
loop_
 _symmetry_equiv_pos_site_id
 _symmetry_equiv_pos_as_xyz
  1  'x, y, z'
loop_
 _atom_site_type_symbol
 _atom_site_label
 _atom_site_symmetry_multiplicity
 _atom_site_fract_x
 _atom_site_fract_y
 _atom_site_fract_z
 _atom_site_occupancy
  Li  Li0  1  0.500131  0.500000  0.833369  1
  Er  Er1  1  0.000009  0.000000  0.997322  1
  Er  Er2  1  0.499825  0.500000  0.164066  1
  Er  Er3  1  0.999838  0.000000  0.333313  1
  Er  Er4  1  0.500023  0.500000  0.502588  1
  Er  Er5  1  0.000167  0.000000  0.669368  1
  Rh  Rh6  1  0.499993  0.255331  0.997073  1
  Rh  Rh7  1  0.499993  0.744668  0.997073  1
  Rh  Rh8  1  0.999784  0.250773  0.165911  1
  Rh  Rh9  1  0.999784  0.749226  0.165911  1
  Rh  Rh10  1  0.499794  0.250449  0.333340  1
  Rh  Rh11  1  0.499794  0.749551  0.333340  1
  Rh  Rh12  1  0.000004  0.250735  0.500781  1
  Rh  Rh13  1  0.000004  0.749264  0.500781  1
  Rh  Rh14  1  0.500215  0.255378  0.669548  1
  Rh  Rh15  1  0.500215  0.744622  0.669548  1
  Rh  Rh16  1  0.000186  0.251422  0.833333  1
  Rh  Rh17  1  0.000186  0.748577  0.833333  1
  Pb  Pb18  1  0.999966  0.500000  0.991593  1
  Pb  Pb19  1  0.499886  0.000000  0.163667  1
  Pb  Pb20  1  0.999851  0.500000  0.333408  1
  Pb  Pb21  1  0.500005  0.000000  0.502998  1
  Pb  Pb22  1  0.000208  0.500000  0.675094  1
  Pb  Pb23  1  0.500139  0.000000  0.833244  1
