# generated using pymatgen
data_Pr5GeIrO12
_symmetry_space_group_name_H-M   'P 1'
_cell_length_a   7.10638353
_cell_length_b   7.10638388
_cell_length_c   7.62682518
_cell_angle_alpha   74.55451486
_cell_angle_beta   74.55452010
_cell_angle_gamma   50.75496802
_symmetry_Int_Tables_number   1
_chemical_formula_structural   Pr5GeIrO12
_chemical_formula_sum   'Pr5 Ge1 Ir1 O12'
_cell_volume   285.03321833
_cell_formula_units_Z   1
loop_
 _symmetry_equiv_pos_site_id
 _symmetry_equiv_pos_as_xyz
  1  'x, y, z'
loop_
 _atom_site_type_symbol
 _atom_site_label
 _atom_site_symmetry_multiplicity
 _atom_site_fract_x
 _atom_site_fract_y
 _atom_site_fract_z
 _atom_site_occupancy
  Pr  Pr0  1  0.311519  0.300353  0.357756  1
  Pr  Pr1  1  0.699647  0.688481  0.642244  1
  Pr  Pr2  1  0.692447  0.696136  0.164983  1
  Pr  Pr3  1  0.303864  0.307553  0.835017  1
  Pr  Pr4  1  0.999705  0.000295  0.500000  1
  Ge  Ge5  1  0.756288  0.243712  0.000000  1
  Ir  Ir6  1  0.243592  0.756408  0.000000  1
  O  O7  1  0.096912  0.597129  0.576883  1
  O  O8  1  0.991643  0.006866  0.170180  1
  O  O9  1  0.402871  0.903088  0.423117  1
  O  O10  1  0.506312  0.494939  0.169519  1
  O  O11  1  0.099703  0.585081  0.078071  1
  O  O12  1  0.906676  0.403969  0.420728  1
  O  O13  1  0.993134  0.008357  0.829820  1
  O  O14  1  0.596031  0.093323  0.579272  1
  O  O15  1  0.505061  0.493688  0.830481  1
  O  O16  1  0.583418  0.103744  0.076790  1
  O  O17  1  0.414919  0.900297  0.921929  1
  O  O18  1  0.896256  0.416582  0.923210  1
