# generated using pymatgen
data_Pr7NdSi12Rh3Au
_symmetry_space_group_name_H-M   'P 1'
_cell_length_a   8.28619200
_cell_length_b   8.28738561
_cell_length_c   8.56741701
_cell_angle_alpha   89.99644461
_cell_angle_beta   90.00006801
_cell_angle_gamma   119.99524263
_symmetry_Int_Tables_number   1
_chemical_formula_structural   Pr7NdSi12Rh3Au
_chemical_formula_sum   'Pr7 Nd1 Si12 Rh3 Au1'
_cell_volume   509.53484995
_cell_formula_units_Z   1
loop_
 _symmetry_equiv_pos_site_id
 _symmetry_equiv_pos_as_xyz
  1  'x, y, z'
loop_
 _atom_site_type_symbol
 _atom_site_label
 _atom_site_symmetry_multiplicity
 _atom_site_fract_x
 _atom_site_fract_y
 _atom_site_fract_z
 _atom_site_occupancy
  Pr  Pr0  1  0.999983  0.999970  0.748980  1
  Pr  Pr1  1  0.999996  0.999995  0.251899  1
  Pr  Pr2  1  0.496100  0.503914  0.745140  1
  Pr  Pr3  1  0.496075  0.992151  0.745106  1
  Pr  Pr4  1  0.007814  0.503913  0.745142  1
  Pr  Pr5  1  0.499100  0.500944  0.254733  1
  Pr  Pr6  1  0.001841  0.500940  0.254736  1
  Nd  Nd7  1  0.499017  0.998034  0.255007  1
  Si  Si8  1  0.838645  0.161005  0.001401  1
  Si  Si9  1  0.838893  0.677783  0.001203  1
  Si  Si10  1  0.322361  0.161006  0.001401  1
  Si  Si11  1  0.832435  0.167082  0.498732  1
  Si  Si12  1  0.832770  0.665540  0.499055  1
  Si  Si13  1  0.334647  0.167081  0.498732  1
  Si  Si14  1  0.166473  0.833982  0.500686  1
  Si  Si15  1  0.667509  0.833981  0.500685  1
  Si  Si16  1  0.166170  0.332343  0.501029  1
  Si  Si17  1  0.168805  0.831623  0.999400  1
  Si  Si18  1  0.662818  0.831622  0.999401  1
  Si  Si19  1  0.168533  0.337065  0.999104  1
  Rh  Rh20  1  0.666505  0.333012  0.505837  1
  Rh  Rh21  1  0.333535  0.667068  0.492703  1
  Rh  Rh22  1  0.333528  0.667052  0.005681  1
  Au  Au23  1  0.666445  0.332895  0.994207  1
