# generated using pymatgen
data_Er2ZrPtF14
_symmetry_space_group_name_H-M   'P 1'
_cell_length_a   5.61529952
_cell_length_b   8.94310868
_cell_length_c   12.03016012
_cell_angle_alpha   62.41756062
_cell_angle_beta   90.12584743
_cell_angle_gamma   90.11783962
_symmetry_Int_Tables_number   1
_chemical_formula_structural   Er2ZrPtF14
_chemical_formula_sum   'Er4 Zr2 Pt2 F28'
_cell_volume   535.46927616
_cell_formula_units_Z   2
loop_
 _symmetry_equiv_pos_site_id
 _symmetry_equiv_pos_as_xyz
  1  'x, y, z'
loop_
 _atom_site_type_symbol
 _atom_site_label
 _atom_site_symmetry_multiplicity
 _atom_site_fract_x
 _atom_site_fract_y
 _atom_site_fract_z
 _atom_site_occupancy
  Er  Er0  1  0.256864  0.813436  0.270727  1
  Er  Er1  1  0.743136  0.186564  0.729273  1
  Er  Er2  1  0.760044  0.180386  0.241206  1
  Er  Er3  1  0.239956  0.819614  0.758794  1
  Zr  Zr4  1  0.754979  0.725247  0.044268  1
  Zr  Zr5  1  0.245021  0.274753  0.955732  1
  Pt  Pt6  1  0.259507  0.273234  0.455993  1
  Pt  Pt7  1  0.740493  0.726766  0.544007  1
  F  F8  1  0.936570  0.703660  0.417617  1
  F  F9  1  0.063430  0.296340  0.582383  1
  F  F10  1  0.464754  0.290712  0.084362  1
  F  F11  1  0.535246  0.709288  0.915638  1
  F  F12  1  0.476285  0.730985  0.150120  1
  F  F13  1  0.523715  0.269015  0.849880  1
  F  F14  1  0.969230  0.270748  0.364896  1
  F  F15  1  0.030770  0.729252  0.635104  1
  F  F16  1  0.963842  0.749709  0.175049  1
  F  F17  1  0.036158  0.250291  0.824951  1
  F  F18  1  0.452120  0.258213  0.324019  1
  F  F19  1  0.547880  0.741787  0.675981  1
  F  F20  1  0.781962  0.470105  0.144256  1
  F  F21  1  0.218038  0.529895  0.855744  1
  F  F22  1  0.266050  0.521355  0.359212  1
  F  F23  1  0.733950  0.478645  0.640788  1
  F  F24  1  0.943171  0.271554  0.053396  1
  F  F25  1  0.056829  0.728446  0.946604  1
  F  F26  1  0.442981  0.715228  0.460240  1
  F  F27  1  0.557019  0.284772  0.539760  1
  F  F28  1  0.739486  0.974792  0.452575  1
  F  F29  1  0.260514  0.025208  0.547425  1
  F  F30  1  0.243178  0.019491  0.062264  1
  F  F31  1  0.756822  0.980509  0.937736  1
  F  F32  1  0.576964  0.969506  0.239128  1
  F  F33  1  0.423036  0.030494  0.760872  1
  F  F34  1  0.079257  0.026256  0.273255  1
  F  F35  1  0.920743  0.973744  0.726745  1
