# generated using pymatgen
data_TmNp2(SnRu)3
_symmetry_space_group_name_H-M   'P 1'
_cell_length_a   7.45264338
_cell_length_b   7.15308687
_cell_length_c   4.01377100
_cell_angle_alpha   90.00000000
_cell_angle_beta   90.00000000
_cell_angle_gamma   118.67904600
_symmetry_Int_Tables_number   1
_chemical_formula_structural   TmNp2(SnRu)3
_chemical_formula_sum   'Tm1 Np2 Sn3 Ru3'
_cell_volume   187.72206234
_cell_formula_units_Z   1
loop_
 _symmetry_equiv_pos_site_id
 _symmetry_equiv_pos_as_xyz
  1  'x, y, z'
loop_
 _atom_site_type_symbol
 _atom_site_label
 _atom_site_symmetry_multiplicity
 _atom_site_fract_x
 _atom_site_fract_y
 _atom_site_fract_z
 _atom_site_occupancy
  Tm  Tm0  1  0.000000  0.409228  0.500000  1
  Np  Np1  1  0.585059  0.584842  0.500000  1
  Np  Np2  1  0.414941  0.999784  0.500000  1
  Sn  Sn3  1  0.000000  0.730786  0.000000  1
  Sn  Sn4  1  0.239964  0.254433  0.000000  1
  Sn  Sn5  1  0.760036  0.014469  0.000000  1
  Ru  Ru6  1  0.363443  0.693352  0.000000  1
  Ru  Ru7  1  0.636557  0.329908  0.000000  1
  Ru  Ru8  1  0.000000  0.983200  0.500000  1
