# generated using pymatgen
data_Nd4Sc4Cr(B8Ru)3
_symmetry_space_group_name_H-M   'P 1'
_cell_length_a   3.59853800
_cell_length_b   9.06922467
_cell_length_c   11.50295943
_cell_angle_alpha   89.94961296
_cell_angle_beta   90.00000000
_cell_angle_gamma   90.00000000
_symmetry_Int_Tables_number   1
_chemical_formula_structural   Nd4Sc4Cr(B8Ru)3
_chemical_formula_sum   'Nd4 Sc4 Cr1 B24 Ru3'
_cell_volume   375.40985896
_cell_formula_units_Z   1
loop_
 _symmetry_equiv_pos_site_id
 _symmetry_equiv_pos_as_xyz
  1  'x, y, z'
loop_
 _atom_site_type_symbol
 _atom_site_label
 _atom_site_symmetry_multiplicity
 _atom_site_fract_x
 _atom_site_fract_y
 _atom_site_fract_z
 _atom_site_occupancy
  Nd  Nd0  1  0.000000  0.821758  0.084314  1
  Nd  Nd1  1  0.000000  0.179871  0.913851  1
  Nd  Nd2  1  0.000000  0.321735  0.417017  1
  Nd  Nd3  1  0.000000  0.677434  0.585988  1
  Sc  Sc4  1  0.000000  0.444279  0.128153  1
  Sc  Sc5  1  0.000000  0.554045  0.871123  1
  Sc  Sc6  1  0.000000  0.943824  0.372811  1
  Sc  Sc7  1  0.000000  0.056678  0.627516  1
  Cr  Cr8  1  0.000000  0.358987  0.682674  1
  B  B9  1  0.500000  0.057048  0.069948  1
  B  B10  1  0.500000  0.943425  0.929292  1
  B  B11  1  0.500000  0.556495  0.430121  1
  B  B12  1  0.500000  0.443668  0.570655  1
  B  B13  1  0.500000  0.253950  0.083986  1
  B  B14  1  0.500000  0.745918  0.915603  1
  B  B15  1  0.500000  0.753379  0.415972  1
  B  B16  1  0.500000  0.246621  0.584445  1
  B  B17  1  0.500000  0.293119  0.234613  1
  B  B18  1  0.500000  0.706276  0.765782  1
  B  B19  1  0.500000  0.793356  0.265515  1
  B  B20  1  0.500000  0.206599  0.733960  1
  B  B21  1  0.500000  0.128150  0.316939  1
  B  B22  1  0.500000  0.871989  0.683522  1
  B  B23  1  0.500000  0.628481  0.183052  1
  B  B24  1  0.500000  0.371536  0.816137  1
  B  B25  1  0.500000  0.483762  0.284703  1
  B  B26  1  0.500000  0.516529  0.715509  1
  B  B27  1  0.500000  0.983684  0.215341  1
  B  B28  1  0.500000  0.016809  0.784042  1
  B  B29  1  0.500000  0.096349  0.473975  1
  B  B30  1  0.500000  0.903022  0.525840  1
  B  B31  1  0.500000  0.596408  0.025879  1
  B  B32  1  0.500000  0.403384  0.974523  1
  Ru  Ru33  1  0.000000  0.141054  0.182953  1
  Ru  Ru34  1  0.000000  0.858699  0.817683  1
  Ru  Ru35  1  0.000000  0.641679  0.316563  1
