# generated using pymatgen
data_Ho2TmMg3Pb2Au
_symmetry_space_group_name_H-M   'P 1'
_cell_length_a   7.54505210
_cell_length_b   7.54505348
_cell_length_c   4.49016100
_cell_angle_alpha   90.00000000
_cell_angle_beta   90.00000000
_cell_angle_gamma   119.93824763
_symmetry_Int_Tables_number   1
_chemical_formula_structural   Ho2TmMg3Pb2Au
_chemical_formula_sum   'Ho2 Tm1 Mg3 Pb2 Au1'
_cell_volume   221.50677665
_cell_formula_units_Z   1
loop_
 _symmetry_equiv_pos_site_id
 _symmetry_equiv_pos_as_xyz
  1  'x, y, z'
loop_
 _atom_site_type_symbol
 _atom_site_label
 _atom_site_symmetry_multiplicity
 _atom_site_fract_x
 _atom_site_fract_y
 _atom_site_fract_z
 _atom_site_occupancy
  Ho  Ho0  1  0.596023  0.999798  0.000000  1
  Ho  Ho1  1  0.999798  0.596023  0.000000  1
  Tm  Tm2  1  0.403013  0.403013  0.000000  1
  Mg  Mg3  1  0.233408  0.000305  0.500000  1
  Mg  Mg4  1  0.000305  0.233408  0.500000  1
  Mg  Mg5  1  0.766584  0.766584  0.500000  1
  Pb  Pb6  1  0.333719  0.666048  0.500000  1
  Pb  Pb7  1  0.666048  0.333719  0.500000  1
  Au  Au8  1  0.001102  0.001102  0.000000  1
