# generated using pymatgen
data_Pr5YHo2(Si3Rh)4
_symmetry_space_group_name_H-M   'P 1'
_cell_length_a   8.25508559
_cell_length_b   8.25508570
_cell_length_c   8.23405200
_cell_angle_alpha   90.00000000
_cell_angle_beta   90.00000000
_cell_angle_gamma   120.04335018
_symmetry_Int_Tables_number   1
_chemical_formula_structural   Pr5YHo2(Si3Rh)4
_chemical_formula_sum   'Pr5 Y1 Ho2 Si12 Rh4'
_cell_volume   485.73290747
_cell_formula_units_Z   1
loop_
 _symmetry_equiv_pos_site_id
 _symmetry_equiv_pos_as_xyz
  1  'x, y, z'
loop_
 _atom_site_type_symbol
 _atom_site_label
 _atom_site_symmetry_multiplicity
 _atom_site_fract_x
 _atom_site_fract_y
 _atom_site_fract_z
 _atom_site_occupancy
  Pr  Pr0  1  0.000002  0.999998  0.250000  1
  Pr  Pr1  1  0.000009  0.999991  0.750000  1
  Pr  Pr2  1  0.505240  0.494760  0.250000  1
  Pr  Pr3  1  0.505245  0.010503  0.250000  1
  Pr  Pr4  1  0.989497  0.494755  0.250000  1
  Y  Y5  1  0.492264  0.507736  0.750000  1
  Ho  Ho6  1  0.492359  0.984805  0.750000  1
  Ho  Ho7  1  0.015195  0.507641  0.750000  1
  Si  Si8  1  0.167059  0.832941  0.507769  1
  Si  Si9  1  0.166882  0.334049  0.507561  1
  Si  Si10  1  0.665951  0.833118  0.507561  1
  Si  Si11  1  0.831506  0.168494  0.505644  1
  Si  Si12  1  0.831637  0.663056  0.505502  1
  Si  Si13  1  0.336944  0.168363  0.505502  1
  Si  Si14  1  0.831506  0.168494  0.994356  1
  Si  Si15  1  0.831637  0.663056  0.994498  1
  Si  Si16  1  0.336944  0.168363  0.994498  1
  Si  Si17  1  0.167059  0.832941  0.992231  1
  Si  Si18  1  0.166882  0.334049  0.992439  1
  Si  Si19  1  0.665951  0.833118  0.992439  1
  Rh  Rh20  1  0.333149  0.666851  0.490756  1
  Rh  Rh21  1  0.666963  0.333037  0.546261  1
  Rh  Rh22  1  0.666963  0.333037  0.953739  1
  Rh  Rh23  1  0.333149  0.666851  0.009244  1
