# generated using pymatgen
data_Nd10AgGeBi6
_symmetry_space_group_name_H-M   'P 1'
_cell_length_a   9.67712700
_cell_length_b   9.67712777
_cell_length_c   6.70386800
_cell_angle_alpha   90.00000000
_cell_angle_beta   90.00000000
_cell_angle_gamma   119.99999394
_symmetry_Int_Tables_number   1
_chemical_formula_structural   Nd10AgGeBi6
_chemical_formula_sum   'Nd10 Ag1 Ge1 Bi6'
_cell_volume   543.68709999
_cell_formula_units_Z   1
loop_
 _symmetry_equiv_pos_site_id
 _symmetry_equiv_pos_as_xyz
  1  'x, y, z'
loop_
 _atom_site_type_symbol
 _atom_site_label
 _atom_site_symmetry_multiplicity
 _atom_site_fract_x
 _atom_site_fract_y
 _atom_site_fract_z
 _atom_site_occupancy
  Nd  Nd0  1  0.666667  0.333333  0.000000  1
  Nd  Nd1  1  0.333333  0.666667  0.000000  1
  Nd  Nd2  1  0.333333  0.666667  0.500000  1
  Nd  Nd3  1  0.666667  0.333333  0.500000  1
  Nd  Nd4  1  0.741941  0.741941  0.762128  1
  Nd  Nd5  1  0.258059  0.000000  0.762128  1
  Nd  Nd6  1  0.000000  0.258059  0.762128  1
  Nd  Nd7  1  0.258059  0.258059  0.237872  1
  Nd  Nd8  1  0.741941  0.000000  0.237872  1
  Nd  Nd9  1  0.000000  0.741941  0.237872  1
  Ag  Ag10  1  0.000000  0.000000  0.500000  1
  Ge  Ge11  1  0.000000  0.000000  0.000000  1
  Bi  Bi12  1  0.386716  0.386716  0.748683  1
  Bi  Bi13  1  0.613284  0.000000  0.748683  1
  Bi  Bi14  1  0.000000  0.613284  0.748683  1
  Bi  Bi15  1  0.613284  0.613284  0.251317  1
  Bi  Bi16  1  0.386716  0.000000  0.251317  1
  Bi  Bi17  1  0.000000  0.386716  0.251317  1
