# generated using pymatgen
data_TbBP3N7
_symmetry_space_group_name_H-M   'P 1'
_cell_length_a   7.40180387
_cell_length_b   7.40180437
_cell_length_c   5.14461700
_cell_angle_alpha   77.86805112
_cell_angle_beta   77.86803446
_cell_angle_gamma   68.46196414
_symmetry_Int_Tables_number   1
_chemical_formula_structural   TbBP3N7
_chemical_formula_sum   'Tb2 B2 P6 N14'
_cell_volume   253.56389849
_cell_formula_units_Z   2
loop_
 _symmetry_equiv_pos_site_id
 _symmetry_equiv_pos_as_xyz
  1  'x, y, z'
loop_
 _atom_site_type_symbol
 _atom_site_label
 _atom_site_symmetry_multiplicity
 _atom_site_fract_x
 _atom_site_fract_y
 _atom_site_fract_z
 _atom_site_occupancy
  Tb  Tb0  1  0.785429  0.214571  0.250000  1
  Tb  Tb1  1  0.197950  0.802050  0.750000  1
  B  B2  1  0.318828  0.459084  0.286212  1
  B  B3  1  0.540916  0.681172  0.213788  1
  P  P4  1  0.093278  0.261121  0.703287  1
  P  P5  1  0.738879  0.906722  0.796713  1
  P  P6  1  0.920513  0.731370  0.289240  1
  P  P7  1  0.268630  0.079487  0.210760  1
  P  P8  1  0.439171  0.313170  0.791124  1
  P  P9  1  0.686830  0.560829  0.708876  1
  N  N10  1  0.254119  0.379610  0.609548  1
  N  N11  1  0.620390  0.745881  0.890452  1
  N  N12  1  0.745978  0.624544  0.381284  1
  N  N13  1  0.375456  0.254022  0.118716  1
  N  N14  1  0.872361  0.385667  0.825560  1
  N  N15  1  0.614333  0.127639  0.674440  1
  N  N16  1  0.139123  0.612775  0.173933  1
  N  N17  1  0.387225  0.860877  0.326067  1
  N  N18  1  0.917848  0.832818  0.550395  1
  N  N19  1  0.167182  0.082152  0.949605  1
  N  N20  1  0.506351  0.493649  0.250000  1
  N  N21  1  0.490342  0.509658  0.750000  1
  N  N22  1  0.836411  0.917546  0.047958  1
  N  N23  1  0.082454  0.163589  0.452042  1
