# generated using pymatgen
data_Ho5Tm(Be2Ni7)2
_symmetry_space_group_name_H-M   'P 1'
_cell_length_a   5.01158237
_cell_length_b   5.00086314
_cell_length_c   15.07609452
_cell_angle_alpha   90.05042469
_cell_angle_beta   89.98430550
_cell_angle_gamma   120.02623918
_symmetry_Int_Tables_number   1
_chemical_formula_structural   Ho5Tm(Be2Ni7)2
_chemical_formula_sum   'Ho5 Tm1 Be4 Ni14'
_cell_volume   327.13292701
_cell_formula_units_Z   1
loop_
 _symmetry_equiv_pos_site_id
 _symmetry_equiv_pos_as_xyz
  1  'x, y, z'
loop_
 _atom_site_type_symbol
 _atom_site_label
 _atom_site_symmetry_multiplicity
 _atom_site_fract_x
 _atom_site_fract_y
 _atom_site_fract_z
 _atom_site_occupancy
  Ho  Ho0  1  0.333482  0.666540  0.961020  1
  Ho  Ho1  1  0.332819  0.665725  0.539443  1
  Ho  Ho2  1  0.666537  0.332706  0.459796  1
  Ho  Ho3  1  0.666538  0.333223  0.249188  1
  Ho  Ho4  1  0.333542  0.666767  0.750242  1
  Tm  Tm5  1  0.667066  0.333338  0.039548  1
  Be  Be6  1  0.667555  0.333753  0.750160  1
  Be  Be7  1  0.331966  0.665695  0.249834  1
  Be  Be8  1  0.000439  0.001073  0.750718  1
  Be  Be9  1  0.000283  0.000868  0.249620  1
  Ni  Ni10  1  0.834986  0.668415  0.637101  1
  Ni  Ni11  1  0.832889  0.166704  0.636461  1
  Ni  Ni12  1  0.334943  0.167674  0.636929  1
  Ni  Ni13  1  0.167404  0.334524  0.364003  1
  Ni  Ni14  1  0.165148  0.834030  0.363272  1
  Ni  Ni15  1  0.665493  0.833574  0.362814  1
  Ni  Ni16  1  0.166338  0.332807  0.135496  1
  Ni  Ni17  1  0.167119  0.832931  0.135954  1
  Ni  Ni18  1  0.665743  0.831710  0.136032  1
  Ni  Ni19  1  0.833725  0.666277  0.863946  1
  Ni  Ni20  1  0.832107  0.166489  0.864131  1
  Ni  Ni21  1  0.334715  0.167607  0.863923  1
  Ni  Ni22  1  0.998307  0.997606  0.500263  1
  Ni  Ni23  1  0.000856  0.999963  0.000106  1
