# generated using pymatgen
data_Tm16In6CuRe
_symmetry_space_group_name_H-M   'P 1'
_cell_length_a   10.33042800
_cell_length_b   10.33042793
_cell_length_c   6.87258500
_cell_angle_alpha   90.00000000
_cell_angle_beta   90.00000000
_cell_angle_gamma   120.00000022
_symmetry_Int_Tables_number   1
_chemical_formula_structural   Tm16In6CuRe
_chemical_formula_sum   'Tm16 In6 Cu1 Re1'
_cell_volume   635.16619810
_cell_formula_units_Z   1
loop_
 _symmetry_equiv_pos_site_id
 _symmetry_equiv_pos_as_xyz
  1  'x, y, z'
loop_
 _atom_site_type_symbol
 _atom_site_label
 _atom_site_symmetry_multiplicity
 _atom_site_fract_x
 _atom_site_fract_y
 _atom_site_fract_z
 _atom_site_occupancy
  Tm  Tm0  1  0.532252  0.064505  0.514990  1
  Tm  Tm1  1  0.935495  0.467748  0.514990  1
  Tm  Tm2  1  0.532252  0.467748  0.514990  1
  Tm  Tm3  1  0.476077  0.952152  0.020742  1
  Tm  Tm4  1  0.047848  0.523923  0.020742  1
  Tm  Tm5  1  0.476077  0.523923  0.020742  1
  Tm  Tm6  1  0.177115  0.354229  0.725395  1
  Tm  Tm7  1  0.645771  0.822885  0.725395  1
  Tm  Tm8  1  0.177115  0.822885  0.725395  1
  Tm  Tm9  1  0.824680  0.649361  0.224258  1
  Tm  Tm10  1  0.350639  0.175320  0.224258  1
  Tm  Tm11  1  0.824680  0.175320  0.224258  1
  Tm  Tm12  1  0.666667  0.333333  0.880289  1
  Tm  Tm13  1  0.333333  0.666667  0.392086  1
  Tm  Tm14  1  0.000000  0.000000  0.504086  1
  Tm  Tm15  1  0.000000  0.000000  0.996040  1
  In  In16  1  0.839042  0.678083  0.757537  1
  In  In17  1  0.321917  0.160958  0.757537  1
  In  In18  1  0.839042  0.160958  0.757537  1
  In  In19  1  0.165257  0.330513  0.258015  1
  In  In20  1  0.669487  0.834743  0.258015  1
  In  In21  1  0.165257  0.834743  0.258015  1
  Cu  Cu22  1  0.333333  0.666667  0.799460  1
  Re  Re23  1  0.666667  0.333333  0.283237  1
