# generated using pymatgen
data_RbSm(TaBr3)6
_symmetry_space_group_name_H-M   'P 1'
_cell_length_a   10.79621364
_cell_length_b   10.79621360
_cell_length_c   10.79621360
_cell_angle_alpha   55.42577414
_cell_angle_beta   55.42577614
_cell_angle_gamma   55.42578420
_symmetry_Int_Tables_number   1
_chemical_formula_structural   RbSm(TaBr3)6
_chemical_formula_sum   'Rb1 Sm1 Ta6 Br18'
_cell_volume   795.28135188
_cell_formula_units_Z   1
loop_
 _symmetry_equiv_pos_site_id
 _symmetry_equiv_pos_as_xyz
  1  'x, y, z'
loop_
 _atom_site_type_symbol
 _atom_site_label
 _atom_site_symmetry_multiplicity
 _atom_site_fract_x
 _atom_site_fract_y
 _atom_site_fract_z
 _atom_site_occupancy
  Rb  Rb0  1  0.221583  0.221583  0.221583  1
  Sm  Sm1  1  0.498166  0.498166  0.498166  1
  Ta  Ta2  1  0.811666  0.140162  0.918254  1
  Ta  Ta3  1  0.918254  0.811666  0.140162  1
  Ta  Ta4  1  0.140162  0.918254  0.811666  1
  Ta  Ta5  1  0.189331  0.860304  0.081090  1
  Ta  Ta6  1  0.081090  0.189331  0.860304  1
  Ta  Ta7  1  0.860304  0.081090  0.189331  1
  Br  Br8  1  0.864155  0.410385  0.727022  1
  Br  Br9  1  0.727022  0.864155  0.410385  1
  Br  Br10  1  0.410385  0.727022  0.864155  1
  Br  Br11  1  0.135102  0.589716  0.275308  1
  Br  Br12  1  0.275308  0.135102  0.589716  1
  Br  Br13  1  0.589716  0.275308  0.135102  1
  Br  Br14  1  0.534294  0.338324  0.809365  1
  Br  Br15  1  0.809365  0.534294  0.338324  1
  Br  Br16  1  0.338324  0.809365  0.534294  1
  Br  Br17  1  0.462937  0.663388  0.192171  1
  Br  Br18  1  0.192171  0.462937  0.663388  1
  Br  Br19  1  0.663388  0.192171  0.462937  1
  Br  Br20  1  0.664485  0.937900  0.071307  1
  Br  Br21  1  0.071307  0.664485  0.937900  1
  Br  Br22  1  0.937900  0.071307  0.664485  1
  Br  Br23  1  0.338624  0.061048  0.925053  1
  Br  Br24  1  0.925053  0.338624  0.061048  1
  Br  Br25  1  0.061048  0.925053  0.338624  1
