# generated using pymatgen
data_Th8Si12PdRu3
_symmetry_space_group_name_H-M   'P 1'
_cell_length_a   8.28131400
_cell_length_b   8.28131547
_cell_length_c   8.39261100
_cell_angle_alpha   90.00000000
_cell_angle_beta   90.00000000
_cell_angle_gamma   119.99999412
_symmetry_Int_Tables_number   1
_chemical_formula_structural   Th8Si12PdRu3
_chemical_formula_sum   'Th8 Si12 Pd1 Ru3'
_cell_volume   498.45543116
_cell_formula_units_Z   1
loop_
 _symmetry_equiv_pos_site_id
 _symmetry_equiv_pos_as_xyz
  1  'x, y, z'
loop_
 _atom_site_type_symbol
 _atom_site_label
 _atom_site_symmetry_multiplicity
 _atom_site_fract_x
 _atom_site_fract_y
 _atom_site_fract_z
 _atom_site_occupancy
  Th  Th0  1  0.496601  0.503399  0.754427  1
  Th  Th1  1  0.496854  0.503146  0.245518  1
  Th  Th2  1  0.006796  0.503399  0.754427  1
  Th  Th3  1  0.006292  0.503146  0.245518  1
  Th  Th4  1  0.496601  0.993204  0.754427  1
  Th  Th5  1  0.496854  0.993708  0.245518  1
  Th  Th6  1  0.000000  0.000000  0.751075  1
  Th  Th7  1  0.000000  0.000000  0.248978  1
  Si  Si8  1  0.833795  0.166205  0.999804  1
  Si  Si9  1  0.165446  0.834554  0.000183  1
  Si  Si10  1  0.332412  0.166205  0.999804  1
  Si  Si11  1  0.166825  0.833175  0.499730  1
  Si  Si12  1  0.669108  0.834554  0.000183  1
  Si  Si13  1  0.835292  0.164708  0.500142  1
  Si  Si14  1  0.833795  0.667588  0.999804  1
  Si  Si15  1  0.666349  0.833175  0.499730  1
  Si  Si16  1  0.165446  0.330892  0.000183  1
  Si  Si17  1  0.329418  0.164708  0.500142  1
  Si  Si18  1  0.166825  0.333651  0.499730  1
  Si  Si19  1  0.835292  0.670582  0.500142  1
  Pd  Pd20  1  0.666667  0.333333  0.500433  1
  Ru  Ru21  1  0.666667  0.333333  0.999912  1
  Ru  Ru22  1  0.333333  0.666667  0.000310  1
  Ru  Ru23  1  0.333333  0.666667  0.499882  1
