# generated using pymatgen
data_Sc20AlSi9As2
_symmetry_space_group_name_H-M   'P 1'
_cell_length_a   5.82734900
_cell_length_b   7.93809312
_cell_length_c   13.76867131
_cell_angle_alpha   90.11217606
_cell_angle_beta   90.00000000
_cell_angle_gamma   90.00000000
_symmetry_Int_Tables_number   1
_chemical_formula_structural   Sc20AlSi9As2
_chemical_formula_sum   'Sc20 Al1 Si9 As2'
_cell_volume   636.91051326
_cell_formula_units_Z   1
loop_
 _symmetry_equiv_pos_site_id
 _symmetry_equiv_pos_as_xyz
  1  'x, y, z'
loop_
 _atom_site_type_symbol
 _atom_site_label
 _atom_site_symmetry_multiplicity
 _atom_site_fract_x
 _atom_site_fract_y
 _atom_site_fract_z
 _atom_site_occupancy
  Sc  Sc0  1  0.752355  0.004094  0.665173  1
  Sc  Sc1  1  0.751719  0.500788  0.168158  1
  Sc  Sc2  1  0.752614  0.495570  0.833090  1
  Sc  Sc3  1  0.751628  0.001563  0.332354  1
  Sc  Sc4  1  0.247386  0.495570  0.833090  1
  Sc  Sc5  1  0.248372  0.001563  0.332354  1
  Sc  Sc6  1  0.247645  0.004094  0.665173  1
  Sc  Sc7  1  0.248281  0.500788  0.168158  1
  Sc  Sc8  1  0.500000  0.259002  0.499612  1
  Sc  Sc9  1  0.500000  0.757129  0.002282  1
  Sc  Sc10  1  0.500000  0.615462  0.618467  1
  Sc  Sc11  1  0.500000  0.118713  0.123559  1
  Sc  Sc12  1  0.500000  0.121908  0.877672  1
  Sc  Sc13  1  0.500000  0.619423  0.376712  1
  Sc  Sc14  1  0.000000  0.743961  0.500152  1
  Sc  Sc15  1  0.000000  0.244440  0.000473  1
  Sc  Sc16  1  0.000000  0.879755  0.880687  1
  Sc  Sc17  1  0.000000  0.380401  0.378523  1
  Sc  Sc18  1  0.000000  0.379911  0.621516  1
  Sc  Sc19  1  0.000000  0.878417  0.122601  1
  Al  Al20  1  0.500000  0.799532  0.799593  1
  Si  Si21  1  0.500000  0.303284  0.302365  1
  Si  Si22  1  0.500000  0.303470  0.696706  1
  Si  Si23  1  0.500000  0.803066  0.198344  1
  Si  Si24  1  0.000000  0.608404  0.001139  1
  Si  Si25  1  0.000000  0.110878  0.498795  1
  Si  Si26  1  0.000000  0.699000  0.698608  1
  Si  Si27  1  0.000000  0.197256  0.197126  1
  Si  Si28  1  0.000000  0.195552  0.803601  1
  Si  Si29  1  0.000000  0.697883  0.303589  1
  As  As30  1  0.500000  0.388967  0.001428  1
  As  As31  1  0.500000  0.890145  0.498892  1
