# generated using pymatgen
data_Zr2CrRe3
_symmetry_space_group_name_H-M   'P 1'
_cell_length_a   5.18889492
_cell_length_b   5.32540747
_cell_length_c   8.63720000
_cell_angle_alpha   90.00000000
_cell_angle_beta   90.00000000
_cell_angle_gamma   120.87416613
_symmetry_Int_Tables_number   1
_chemical_formula_structural   Zr2CrRe3
_chemical_formula_sum   'Zr4 Cr2 Re6'
_cell_volume   204.85094366
_cell_formula_units_Z   2
loop_
 _symmetry_equiv_pos_site_id
 _symmetry_equiv_pos_as_xyz
  1  'x, y, z'
loop_
 _atom_site_type_symbol
 _atom_site_label
 _atom_site_symmetry_multiplicity
 _atom_site_fract_x
 _atom_site_fract_y
 _atom_site_fract_z
 _atom_site_occupancy
  Zr  Zr0  1  0.335303  0.667652  0.438625  1
  Zr  Zr1  1  0.664697  0.332348  0.938625  1
  Zr  Zr2  1  0.664697  0.332348  0.561375  1
  Zr  Zr3  1  0.335303  0.667652  0.061375  1
  Cr  Cr4  1  0.660479  0.830240  0.750000  1
  Cr  Cr5  1  0.339521  0.169760  0.250000  1
  Re  Re6  1  0.827131  0.170839  0.250000  1
  Re  Re7  1  0.172869  0.343708  0.750000  1
  Re  Re8  1  0.172869  0.829161  0.750000  1
  Re  Re9  1  0.827131  0.656292  0.250000  1
  Re  Re10  1  0.000000  0.000000  0.500000  1
  Re  Re11  1  0.000000  0.000000  0.000000  1
