# generated using pymatgen
data_Pr3NdYP12Ru19
_symmetry_space_group_name_H-M   'P 1'
_cell_length_a   12.64183700
_cell_length_b   12.64183762
_cell_length_c   4.01965500
_cell_angle_alpha   90.00000000
_cell_angle_beta   90.00000000
_cell_angle_gamma   119.99999575
_symmetry_Int_Tables_number   1
_chemical_formula_structural   Pr3NdYP12Ru19
_chemical_formula_sum   'Pr3 Nd1 Y1 P12 Ru19'
_cell_volume   556.33940838
_cell_formula_units_Z   1
loop_
 _symmetry_equiv_pos_site_id
 _symmetry_equiv_pos_as_xyz
  1  'x, y, z'
loop_
 _atom_site_type_symbol
 _atom_site_label
 _atom_site_symmetry_multiplicity
 _atom_site_fract_x
 _atom_site_fract_y
 _atom_site_fract_z
 _atom_site_occupancy
  Pr  Pr0  1  0.999742  0.183757  0.500000  1
  Pr  Pr1  1  0.816243  0.815984  0.500000  1
  Pr  Pr2  1  0.184016  0.000258  0.500000  1
  Nd  Nd3  1  0.666667  0.333333  0.000000  1
  Y  Y4  1  0.333333  0.666667  0.000000  1
  P  P5  1  0.001095  0.812387  0.000000  1
  P  P6  1  0.187613  0.188706  0.000000  1
  P  P7  1  0.811294  0.998905  0.000000  1
  P  P8  1  0.694592  0.170820  0.500000  1
  P  P9  1  0.829180  0.523773  0.500000  1
  P  P10  1  0.476227  0.305408  0.500000  1
  P  P11  1  0.173715  0.695148  0.500000  1
  P  P12  1  0.521433  0.826285  0.500000  1
  P  P13  1  0.304852  0.478567  0.500000  1
  P  P14  1  0.999714  0.374646  0.000000  1
  P  P15  1  0.625354  0.625068  0.000000  1
  P  P16  1  0.374932  0.000286  0.000000  1
  Ru  Ru17  1  0.000170  0.554459  0.000000  1
  Ru  Ru18  1  0.445541  0.445711  0.000000  1
  Ru  Ru19  1  0.554289  0.999830  0.000000  1
  Ru  Ru20  1  0.001297  0.714301  0.500000  1
  Ru  Ru21  1  0.285699  0.286996  0.500000  1
  Ru  Ru22  1  0.713004  0.998703  0.500000  1
  Ru  Ru23  1  0.805152  0.183902  0.000000  1
  Ru  Ru24  1  0.816098  0.621250  0.000000  1
  Ru  Ru25  1  0.378750  0.194848  0.000000  1
  Ru  Ru26  1  0.185978  0.804923  0.000000  1
  Ru  Ru27  1  0.618947  0.814022  0.000000  1
  Ru  Ru28  1  0.195077  0.381053  0.000000  1
  Ru  Ru29  1  0.875983  0.366917  0.500000  1
  Ru  Ru30  1  0.633083  0.509067  0.500000  1
  Ru  Ru31  1  0.490933  0.124017  0.500000  1
  Ru  Ru32  1  0.367690  0.873794  0.500000  1
  Ru  Ru33  1  0.506105  0.632310  0.500000  1
  Ru  Ru34  1  0.126206  0.493895  0.500000  1
  Ru  Ru35  1  0.000000  0.000000  0.000000  1
