# generated using pymatgen
data_Eu2CdSnAu2
_symmetry_space_group_name_H-M   'P 1'
_cell_length_a   4.69695000
_cell_length_b   7.60021700
_cell_length_c   8.65416800
_cell_angle_alpha   90.00000000
_cell_angle_beta   90.00000000
_cell_angle_gamma   90.00000000
_symmetry_Int_Tables_number   1
_chemical_formula_structural   Eu2CdSnAu2
_chemical_formula_sum   'Eu4 Cd2 Sn2 Au4'
_cell_volume   308.93509800
_cell_formula_units_Z   2
loop_
 _symmetry_equiv_pos_site_id
 _symmetry_equiv_pos_as_xyz
  1  'x, y, z'
loop_
 _atom_site_type_symbol
 _atom_site_label
 _atom_site_symmetry_multiplicity
 _atom_site_fract_x
 _atom_site_fract_y
 _atom_site_fract_z
 _atom_site_occupancy
  Eu  Eu0  1  0.750000  0.475184  0.809485  1
  Eu  Eu1  1  0.250000  0.026285  0.314706  1
  Eu  Eu2  1  0.750000  0.975184  0.690515  1
  Eu  Eu3  1  0.250000  0.526285  0.185294  1
  Cd  Cd4  1  0.750000  0.336679  0.432375  1
  Cd  Cd5  1  0.750000  0.836679  0.067625  1
  Sn  Sn6  1  0.250000  0.656063  0.562263  1
  Sn  Sn7  1  0.250000  0.156063  0.937737  1
  Au  Au8  1  0.250000  0.771651  0.881669  1
  Au  Au9  1  0.250000  0.271651  0.618331  1
  Au  Au10  1  0.750000  0.734139  0.386929  1
  Au  Au11  1  0.750000  0.234139  0.113071  1
