# generated using pymatgen
data_Tm2MnAl20FeRh2
_symmetry_space_group_name_H-M   'P 1'
_cell_length_a   6.79489321
_cell_length_b   6.80193420
_cell_length_c   9.06858848
_cell_angle_alpha   90.32108129
_cell_angle_beta   90.46760152
_cell_angle_gamma   96.76542999
_symmetry_Int_Tables_number   1
_chemical_formula_structural   Tm2MnAl20FeRh2
_chemical_formula_sum   'Tm2 Mn1 Al20 Fe1 Rh2'
_cell_volume   416.19430236
_cell_formula_units_Z   1
loop_
 _symmetry_equiv_pos_site_id
 _symmetry_equiv_pos_as_xyz
  1  'x, y, z'
loop_
 _atom_site_type_symbol
 _atom_site_label
 _atom_site_symmetry_multiplicity
 _atom_site_fract_x
 _atom_site_fract_y
 _atom_site_fract_z
 _atom_site_occupancy
  Tm  Tm0  1  0.871566  0.127375  0.749788  1
  Tm  Tm1  1  0.128434  0.872625  0.250212  1
  Mn  Mn2  1  0.500000  0.000000  0.500000  1
  Al  Al3  1  0.620037  0.372142  0.549444  1
  Al  Al4  1  0.379963  0.627858  0.450556  1
  Al  Al5  1  0.372443  0.620293  0.049584  1
  Al  Al6  1  0.627557  0.379707  0.950416  1
  Al  Al7  1  0.228739  0.220986  0.496021  1
  Al  Al8  1  0.771261  0.779014  0.503979  1
  Al  Al9  1  0.778853  0.771293  0.003814  1
  Al  Al10  1  0.221147  0.228707  0.996186  1
  Al  Al11  1  0.848905  0.160061  0.099501  1
  Al  Al12  1  0.151095  0.839939  0.900499  1
  Al  Al13  1  0.159872  0.848864  0.599128  1
  Al  Al14  1  0.840128  0.151136  0.400872  1
  Al  Al15  1  0.860860  0.586047  0.753886  1
  Al  Al16  1  0.139140  0.413953  0.246114  1
  Al  Al17  1  0.414055  0.139241  0.746140  1
  Al  Al18  1  0.585945  0.860759  0.253860  1
  Al  Al19  1  0.222248  0.479267  0.755149  1
  Al  Al20  1  0.777752  0.520733  0.244851  1
  Al  Al21  1  0.520914  0.777850  0.744736  1
  Al  Al22  1  0.479086  0.222150  0.255264  1
  Fe  Fe23  1  0.000000  0.500000  0.000000  1
  Rh  Rh24  1  0.000000  0.500000  0.500000  1
  Rh  Rh25  1  0.500000  0.000000  0.000000  1
