# generated using pymatgen
data_Nd3Pa(CuP2)4
_symmetry_space_group_name_H-M   'P 1'
_cell_length_a   3.80122000
_cell_length_b   3.83959830
_cell_length_c   19.66651999
_cell_angle_alpha   89.09904745
_cell_angle_beta   90.00000000
_cell_angle_gamma   90.00000000
_symmetry_Int_Tables_number   1
_chemical_formula_structural   Nd3Pa(CuP2)4
_chemical_formula_sum   'Nd3 Pa1 Cu4 P8'
_cell_volume   287.00047798
_cell_formula_units_Z   1
loop_
 _symmetry_equiv_pos_site_id
 _symmetry_equiv_pos_as_xyz
  1  'x, y, z'
loop_
 _atom_site_type_symbol
 _atom_site_label
 _atom_site_symmetry_multiplicity
 _atom_site_fract_x
 _atom_site_fract_y
 _atom_site_fract_z
 _atom_site_occupancy
  Nd  Nd0  1  0.250000  0.713658  0.380004  1
  Nd  Nd1  1  0.250000  0.768301  0.888773  1
  Nd  Nd2  1  0.750000  0.287264  0.620050  1
  Pa  Pa3  1  0.750000  0.231365  0.114472  1
  Cu  Cu4  1  0.250000  0.217451  0.244792  1
  Cu  Cu5  1  0.750000  0.782977  0.753423  1
  Cu  Cu6  1  0.250000  0.282451  0.753186  1
  Cu  Cu7  1  0.750000  0.718321  0.244767  1
  P  P8  1  0.750000  0.816919  0.500945  1
  P  P9  1  0.750000  0.743320  0.007522  1
  P  P10  1  0.250000  0.184951  0.496565  1
  P  P11  1  0.250000  0.251086  0.007242  1
  P  P12  1  0.250000  0.725921  0.165621  1
  P  P13  1  0.750000  0.214430  0.316717  1
  P  P14  1  0.750000  0.275855  0.827149  1
  P  P15  1  0.250000  0.785733  0.678772  1
