# generated using pymatgen
data_NdTh2Al2PdPt3
_symmetry_space_group_name_H-M   'P 1'
_cell_length_a   7.29828359
_cell_length_b   7.29828364
_cell_length_c   4.05203700
_cell_angle_alpha   90.00000000
_cell_angle_beta   90.00000000
_cell_angle_gamma   116.70729457
_symmetry_Int_Tables_number   1
_chemical_formula_structural   NdTh2Al2PdPt3
_chemical_formula_sum   'Nd1 Th2 Al2 Pd1 Pt3'
_cell_volume   192.80535895
_cell_formula_units_Z   1
loop_
 _symmetry_equiv_pos_site_id
 _symmetry_equiv_pos_as_xyz
  1  'x, y, z'
loop_
 _atom_site_type_symbol
 _atom_site_label
 _atom_site_symmetry_multiplicity
 _atom_site_fract_x
 _atom_site_fract_y
 _atom_site_fract_z
 _atom_site_occupancy
  Nd  Nd0  1  0.417800  0.417800  0.500000  1
  Th  Th1  1  0.597253  0.981418  0.500000  1
  Th  Th2  1  0.981418  0.597253  0.500000  1
  Al  Al3  1  0.240221  0.004983  0.000000  1
  Al  Al4  1  0.004983  0.240221  0.000000  1
  Pd  Pd5  1  0.759388  0.759388  0.000000  1
  Pt  Pt6  1  0.665440  0.299932  0.000000  1
  Pt  Pt7  1  0.299932  0.665440  0.000000  1
  Pt  Pt8  1  0.033565  0.033565  0.500000  1
