# generated using pymatgen
data_ErScCo12AsP6
_symmetry_space_group_name_H-M   'P 1'
_cell_length_a   9.03587500
_cell_length_b   9.03587536
_cell_length_c   3.55120500
_cell_angle_alpha   90.00000000
_cell_angle_beta   90.00000000
_cell_angle_gamma   119.99999502
_symmetry_Int_Tables_number   1
_chemical_formula_structural   ErScCo12AsP6
_chemical_formula_sum   'Er1 Sc1 Co12 As1 P6'
_cell_volume   251.10007535
_cell_formula_units_Z   1
loop_
 _symmetry_equiv_pos_site_id
 _symmetry_equiv_pos_as_xyz
  1  'x, y, z'
loop_
 _atom_site_type_symbol
 _atom_site_label
 _atom_site_symmetry_multiplicity
 _atom_site_fract_x
 _atom_site_fract_y
 _atom_site_fract_z
 _atom_site_occupancy
  Er  Er0  1  0.666667  0.333333  0.500000  1
  Sc  Sc1  1  0.333333  0.666667  0.000000  1
  Co  Co2  1  0.124975  0.839977  0.000000  1
  Co  Co3  1  0.383823  0.441387  0.500000  1
  Co  Co4  1  0.715002  0.875025  0.000000  1
  Co  Co5  1  0.558613  0.942436  0.500000  1
  Co  Co6  1  0.250947  0.109639  0.500000  1
  Co  Co7  1  0.858692  0.749053  0.500000  1
  Co  Co8  1  0.890361  0.141308  0.500000  1
  Co  Co9  1  0.940271  0.377219  0.000000  1
  Co  Co10  1  0.622781  0.563053  0.000000  1
  Co  Co11  1  0.436947  0.059729  0.000000  1
  Co  Co12  1  0.057564  0.616177  0.500000  1
  Co  Co13  1  0.160023  0.284998  0.000000  1
  As  As14  1  0.000000  0.000000  0.000000  1
  P  P15  1  0.590610  0.707822  0.500000  1
  P  P16  1  0.706651  0.113909  0.000000  1
  P  P17  1  0.886091  0.592742  0.000000  1
  P  P18  1  0.407258  0.293349  0.000000  1
  P  P19  1  0.292178  0.882789  0.500000  1
  P  P20  1  0.117211  0.409390  0.500000  1
