# generated using pymatgen
data_Ti12ReTc6Ir5
_symmetry_space_group_name_H-M   'P 1'
_cell_length_a   4.39106000
_cell_length_b   6.21000400
_cell_length_c   13.19243600
_cell_angle_alpha   90.00000000
_cell_angle_beta   90.00003042
_cell_angle_gamma   90.00000000
_symmetry_Int_Tables_number   1
_chemical_formula_structural   Ti12ReTc6Ir5
_chemical_formula_sum   'Ti12 Re1 Tc6 Ir5'
_cell_volume   359.73794323
_cell_formula_units_Z   1
loop_
 _symmetry_equiv_pos_site_id
 _symmetry_equiv_pos_as_xyz
  1  'x, y, z'
loop_
 _atom_site_type_symbol
 _atom_site_label
 _atom_site_symmetry_multiplicity
 _atom_site_fract_x
 _atom_site_fract_y
 _atom_site_fract_z
 _atom_site_occupancy
  Ti  Ti0  1  0.500000  0.253205  0.000000  1
  Ti  Ti1  1  0.500000  0.746796  0.000000  1
  Ti  Ti2  1  0.000074  0.251572  0.164457  1
  Ti  Ti3  1  0.000074  0.748428  0.164457  1
  Ti  Ti4  1  0.500085  0.250452  0.332791  1
  Ti  Ti5  1  0.500085  0.749549  0.332791  1
  Ti  Ti6  1  0.000000  0.249543  0.500000  1
  Ti  Ti7  1  0.000000  0.750456  0.500000  1
  Ti  Ti8  1  0.499914  0.250452  0.667209  1
  Ti  Ti9  1  0.499914  0.749549  0.667209  1
  Ti  Ti10  1  0.999926  0.251572  0.835542  1
  Ti  Ti11  1  0.999926  0.748428  0.835542  1
  Re  Re12  1  0.000000  0.500000  0.000000  1
  Tc  Tc13  1  0.000000  0.000000  0.000000  1
  Tc  Tc14  1  0.500078  0.500000  0.169020  1
  Tc  Tc15  1  0.000093  0.000000  0.334174  1
  Tc  Tc16  1  0.500000  0.500000  0.500000  1
  Tc  Tc17  1  0.999907  0.000000  0.665825  1
  Tc  Tc18  1  0.499922  0.500000  0.830979  1
  Ir  Ir19  1  0.500091  0.000000  0.167476  1
  Ir  Ir20  1  0.000096  0.500000  0.334295  1
  Ir  Ir21  1  0.500000  0.000000  0.500000  1
  Ir  Ir22  1  0.999903  0.500000  0.665706  1
  Ir  Ir23  1  0.499909  0.000000  0.832524  1
