# generated using pymatgen
data_La4In4Sn12IrRh7
_symmetry_space_group_name_H-M   'P 1'
_cell_length_a   4.60866700
_cell_length_b   7.17000101
_cell_length_c   18.80775902
_cell_angle_alpha   89.99488694
_cell_angle_beta   90.00000000
_cell_angle_gamma   90.00000000
_symmetry_Int_Tables_number   1
_chemical_formula_structural   La4In4Sn12IrRh7
_chemical_formula_sum   'La4 In4 Sn12 Ir1 Rh7'
_cell_volume   621.48635187
_cell_formula_units_Z   1
loop_
 _symmetry_equiv_pos_site_id
 _symmetry_equiv_pos_as_xyz
  1  'x, y, z'
loop_
 _atom_site_type_symbol
 _atom_site_label
 _atom_site_symmetry_multiplicity
 _atom_site_fract_x
 _atom_site_fract_y
 _atom_site_fract_z
 _atom_site_occupancy
  La  La0  1  0.250000  0.001315  0.859555  1
  La  La1  1  0.250000  0.498741  0.359421  1
  La  La2  1  0.750000  0.998929  0.140313  1
  La  La3  1  0.750000  0.501348  0.640501  1
  In  In4  1  0.250000  0.309479  0.180043  1
  In  In5  1  0.250000  0.190719  0.680002  1
  In  In6  1  0.750000  0.690711  0.820025  1
  In  In7  1  0.750000  0.809250  0.320035  1
  Sn  Sn8  1  0.250000  0.724136  0.198721  1
  Sn  Sn9  1  0.250000  0.775877  0.698749  1
  Sn  Sn10  1  0.750000  0.275798  0.801302  1
  Sn  Sn11  1  0.750000  0.224131  0.301256  1
  Sn  Sn12  1  0.250000  0.861764  0.032639  1
  Sn  Sn13  1  0.250000  0.637945  0.532541  1
  Sn  Sn14  1  0.750000  0.137367  0.967257  1
  Sn  Sn15  1  0.750000  0.362055  0.467472  1
  Sn  Sn16  1  0.250000  0.522510  0.928141  1
  Sn  Sn17  1  0.250000  0.977846  0.428062  1
  Sn  Sn18  1  0.750000  0.477954  0.071893  1
  Sn  Sn19  1  0.750000  0.022230  0.571950  1
  Ir  Ir20  1  0.250000  0.254004  0.032008  1
  Rh  Rh21  1  0.250000  0.245462  0.531780  1
  Rh  Rh22  1  0.750000  0.746148  0.968190  1
  Rh  Rh23  1  0.750000  0.754435  0.468230  1
  Rh  Rh24  1  0.250000  0.028609  0.284344  1
  Rh  Rh25  1  0.250000  0.471443  0.784367  1
  Rh  Rh26  1  0.750000  0.971357  0.715594  1
  Rh  Rh27  1  0.750000  0.528436  0.215609  1
