# generated using pymatgen
data_La4Nd6TcIr3
_symmetry_space_group_name_H-M   'P 1'
_cell_length_a   9.14579755
_cell_length_b   9.04814261
_cell_length_c   7.39437016
_cell_angle_alpha   84.13996062
_cell_angle_beta   84.00952076
_cell_angle_gamma   43.06256168
_symmetry_Int_Tables_number   1
_chemical_formula_structural   La4Nd6TcIr3
_chemical_formula_sum   'La4 Nd6 Tc1 Ir3'
_cell_volume   415.22217699
_cell_formula_units_Z   1
loop_
 _symmetry_equiv_pos_site_id
 _symmetry_equiv_pos_as_xyz
  1  'x, y, z'
loop_
 _atom_site_type_symbol
 _atom_site_label
 _atom_site_symmetry_multiplicity
 _atom_site_fract_x
 _atom_site_fract_y
 _atom_site_fract_z
 _atom_site_occupancy
  La  La0  1  0.018525  0.792107  0.904317  1
  La  La1  1  0.201900  0.983704  0.588066  1
  La  La2  1  0.986557  0.199523  0.088338  1
  La  La3  1  0.805001  0.005371  0.412773  1
  Nd  Nd4  1  0.355032  0.212741  0.817082  1
  Nd  Nd5  1  0.792368  0.639707  0.682704  1
  Nd  Nd6  1  0.643998  0.788477  0.181743  1
  Nd  Nd7  1  0.213916  0.358007  0.317083  1
  Nd  Nd8  1  0.572239  0.428296  0.750920  1
  Nd  Nd9  1  0.430696  0.567136  0.251151  1
  Tc  Tc10  1  0.155649  0.629011  0.583229  1
  Ir  Ir11  1  0.403981  0.822787  0.924095  1
  Ir  Ir12  1  0.822177  0.398973  0.420203  1
  Ir  Ir13  1  0.597961  0.174161  0.078296  1
