# generated using pymatgen
data_LuTh(MgIr4)2
_symmetry_space_group_name_H-M   'P 1'
_cell_length_a   5.32284700
_cell_length_b   5.32284612
_cell_length_c   8.62223300
_cell_angle_alpha   90.00000000
_cell_angle_beta   90.00000000
_cell_angle_gamma   119.99999923
_symmetry_Int_Tables_number   1
_chemical_formula_structural   LuTh(MgIr4)2
_chemical_formula_sum   'Lu1 Th1 Mg2 Ir8'
_cell_volume   211.56230218
_cell_formula_units_Z   1
loop_
 _symmetry_equiv_pos_site_id
 _symmetry_equiv_pos_as_xyz
  1  'x, y, z'
loop_
 _atom_site_type_symbol
 _atom_site_label
 _atom_site_symmetry_multiplicity
 _atom_site_fract_x
 _atom_site_fract_y
 _atom_site_fract_z
 _atom_site_occupancy
  Lu  Lu0  1  0.666667  0.333333  0.567383  1
  Th  Th1  1  0.333333  0.666667  0.071313  1
  Mg  Mg2  1  0.666667  0.333333  0.925679  1
  Mg  Mg3  1  0.333333  0.666667  0.448859  1
  Ir  Ir4  1  0.000000  0.000000  0.994717  1
  Ir  Ir5  1  0.000000  0.000000  0.496750  1
  Ir  Ir6  1  0.829184  0.658369  0.252185  1
  Ir  Ir7  1  0.170032  0.829968  0.746247  1
  Ir  Ir8  1  0.659936  0.829968  0.746247  1
  Ir  Ir9  1  0.341631  0.170816  0.252185  1
  Ir  Ir10  1  0.829184  0.170816  0.252185  1
  Ir  Ir11  1  0.170032  0.340064  0.746247  1
