# generated using pymatgen
data_Li6HfZn5Pt12
_symmetry_space_group_name_H-M   'P 1'
_cell_length_a   4.04013100
_cell_length_b   7.02995100
_cell_length_c   12.12418400
_cell_angle_alpha   90.00000000
_cell_angle_beta   90.00001891
_cell_angle_gamma   90.00000000
_symmetry_Int_Tables_number   1
_chemical_formula_structural   Li6HfZn5Pt12
_chemical_formula_sum   'Li6 Hf1 Zn5 Pt12'
_cell_volume   344.35013996
_cell_formula_units_Z   1
loop_
 _symmetry_equiv_pos_site_id
 _symmetry_equiv_pos_as_xyz
  1  'x, y, z'
loop_
 _atom_site_type_symbol
 _atom_site_label
 _atom_site_symmetry_multiplicity
 _atom_site_fract_x
 _atom_site_fract_y
 _atom_site_fract_z
 _atom_site_occupancy
  Li  Li0  1  0.999999  0.000000  0.010869  1
  Li  Li1  1  0.500008  0.499999  0.171738  1
  Li  Li2  1  0.000002  0.000000  0.333331  1
  Li  Li3  1  0.499998  0.499999  0.494928  1
  Li  Li4  1  0.999996  0.000000  0.655804  1
  Li  Li5  1  0.499994  0.499999  0.833335  1
  Hf  Hf6  1  0.499997  0.000000  0.833337  1
  Zn  Zn7  1  0.000000  0.499999  0.005100  1
  Zn  Zn8  1  0.500004  0.000000  0.169659  1
  Zn  Zn9  1  0.000004  0.499999  0.333334  1
  Zn  Zn10  1  0.499999  0.000000  0.497008  1
  Zn  Zn11  1  0.999997  0.499999  0.661566  1
  Pt  Pt12  1  0.500000  0.252261  0.002979  1
  Pt  Pt13  1  0.500000  0.747739  0.002979  1
  Pt  Pt14  1  0.000004  0.250367  0.167706  1
  Pt  Pt15  1  0.000004  0.749633  0.167706  1
  Pt  Pt16  1  0.500004  0.249957  0.333332  1
  Pt  Pt17  1  0.500004  0.750043  0.333332  1
  Pt  Pt18  1  0.000000  0.250366  0.498958  1
  Pt  Pt19  1  0.000000  0.749634  0.498958  1
  Pt  Pt20  1  0.499997  0.252259  0.663689  1
  Pt  Pt21  1  0.499997  0.747741  0.663689  1
  Pt  Pt22  1  0.999996  0.258298  0.833333  1
  Pt  Pt23  1  0.999996  0.741702  0.833333  1
