# generated using pymatgen
data_YHo5(SiPd5)2
_symmetry_space_group_name_H-M   'P 1'
_cell_length_a   8.21531319
_cell_length_b   8.21598492
_cell_length_c   8.21598509
_cell_angle_alpha   127.48345640
_cell_angle_beta   125.64575277
_cell_angle_gamma   78.97294469
_symmetry_Int_Tables_number   1
_chemical_formula_structural   YHo5(SiPd5)2
_chemical_formula_sum   'Y1 Ho5 Si2 Pd10'
_cell_volume   345.93825490
_cell_formula_units_Z   1
loop_
 _symmetry_equiv_pos_site_id
 _symmetry_equiv_pos_as_xyz
  1  'x, y, z'
loop_
 _atom_site_type_symbol
 _atom_site_label
 _atom_site_symmetry_multiplicity
 _atom_site_fract_x
 _atom_site_fract_y
 _atom_site_fract_z
 _atom_site_occupancy
  Y  Y0  1  0.226703  0.449929  0.776773  1
  Ho  Ho1  1  0.774385  0.550025  0.224360  1
  Ho  Ho2  1  0.825903  0.049970  0.775933  1
  Ho  Ho3  1  0.174157  0.950096  0.224060  1
  Ho  Ho4  1  0.390861  0.249875  0.140986  1
  Ho  Ho5  1  0.609707  0.750075  0.859632  1
  Si  Si6  1  0.781214  0.250115  0.531100  1
  Si  Si7  1  0.219110  0.749987  0.469123  1
  Pd  Pd8  1  0.167194  0.398654  0.353489  1
  Pd  Pd9  1  0.831723  0.186936  0.230539  1
  Pd  Pd10  1  0.456170  0.100265  0.768365  1
  Pd  Pd11  1  0.544386  0.312368  0.644838  1
  Pd  Pd12  1  0.999508  0.500257  0.000300  1
  Pd  Pd13  1  0.999508  0.999208  0.499251  1
  Pd  Pd14  1  0.456170  0.687805  0.355905  1
  Pd  Pd15  1  0.544386  0.899547  0.232018  1
  Pd  Pd16  1  0.167194  0.813705  0.768540  1
  Pd  Pd17  1  0.831723  0.601184  0.644787  1
