# generated using pymatgen
data_CaErReTcB8
_symmetry_space_group_name_H-M   'P 1'
_cell_length_a   3.58629800
_cell_length_b   5.97921561
_cell_length_c   11.56404262
_cell_angle_alpha   89.89034147
_cell_angle_beta   90.00000000
_cell_angle_gamma   90.00000000
_symmetry_Int_Tables_number   1
_chemical_formula_structural   CaErReTcB8
_chemical_formula_sum   'Ca2 Er2 Re2 Tc2 B16'
_cell_volume   247.97019076
_cell_formula_units_Z   2
loop_
 _symmetry_equiv_pos_site_id
 _symmetry_equiv_pos_as_xyz
  1  'x, y, z'
loop_
 _atom_site_type_symbol
 _atom_site_label
 _atom_site_symmetry_multiplicity
 _atom_site_fract_x
 _atom_site_fract_y
 _atom_site_fract_z
 _atom_site_occupancy
  Ca  Ca0  1  0.500000  0.872219  0.150292  1
  Ca  Ca1  1  0.500000  0.127781  0.849708  1
  Er  Er2  1  0.500000  0.372436  0.349328  1
  Er  Er3  1  0.500000  0.627564  0.650672  1
  Re  Re4  1  0.500000  0.369303  0.084888  1
  Re  Re5  1  0.500000  0.630697  0.915112  1
  Tc  Tc6  1  0.500000  0.867247  0.415182  1
  Tc  Tc7  1  0.500000  0.132753  0.584818  1
  B  B8  1  0.000000  0.521570  0.193024  1
  B  B9  1  0.000000  0.478430  0.806976  1
  B  B10  1  0.000000  0.023066  0.307869  1
  B  B11  1  0.000000  0.976934  0.692131  1
  B  B12  1  0.000000  0.613865  0.047308  1
  B  B13  1  0.000000  0.386135  0.952692  1
  B  B14  1  0.000000  0.113325  0.452318  1
  B  B15  1  0.000000  0.886675  0.547682  1
  B  B16  1  0.000000  0.635391  0.468671  1
  B  B17  1  0.000000  0.364609  0.531329  1
  B  B18  1  0.000000  0.134975  0.032294  1
  B  B19  1  0.000000  0.865025  0.967706  1
  B  B20  1  0.000000  0.713586  0.315482  1
  B  B21  1  0.000000  0.286414  0.684518  1
  B  B22  1  0.000000  0.213463  0.185291  1
  B  B23  1  0.000000  0.786537  0.814709  1
