# generated using pymatgen
data_SmLu3(ZnGa)4
_symmetry_space_group_name_H-M   'P 1'
_cell_length_a   4.41327300
_cell_length_b   7.59391206
_cell_length_c   7.10625807
_cell_angle_alpha   90.00052405
_cell_angle_beta   90.00000000
_cell_angle_gamma   90.00000000
_symmetry_Int_Tables_number   1
_chemical_formula_structural   SmLu3(ZnGa)4
_chemical_formula_sum   'Sm1 Lu3 Zn4 Ga4'
_cell_volume   238.15918315
_cell_formula_units_Z   1
loop_
 _symmetry_equiv_pos_site_id
 _symmetry_equiv_pos_as_xyz
  1  'x, y, z'
loop_
 _atom_site_type_symbol
 _atom_site_label
 _atom_site_symmetry_multiplicity
 _atom_site_fract_x
 _atom_site_fract_y
 _atom_site_fract_z
 _atom_site_occupancy
  Sm  Sm0  1  0.750000  0.759023  0.000918  1
  Lu  Lu1  1  0.250000  0.256096  0.501531  1
  Lu  Lu2  1  0.250000  0.242406  0.001148  1
  Lu  Lu3  1  0.750000  0.742444  0.501467  1
  Zn  Zn4  1  0.250000  0.919492  0.241485  1
  Zn  Zn5  1  0.250000  0.581496  0.714432  1
  Zn  Zn6  1  0.750000  0.084367  0.700217  1
  Zn  Zn7  1  0.750000  0.414452  0.209029  1
  Ga  Ga8  1  0.250000  0.919970  0.765520  1
  Ga  Ga9  1  0.250000  0.581101  0.284032  1
  Ga  Ga10  1  0.750000  0.086149  0.293179  1
  Ga  Ga11  1  0.750000  0.413005  0.787041  1
