# generated using pymatgen
data_Tm10In8NiAg3
_symmetry_space_group_name_H-M   'P 1'
_cell_length_a   3.62471300
_cell_length_b   8.10600320
_cell_length_c   18.16592984
_cell_angle_alpha   90.02536854
_cell_angle_beta   90.00000000
_cell_angle_gamma   90.00000000
_symmetry_Int_Tables_number   1
_chemical_formula_structural   Tm10In8NiAg3
_chemical_formula_sum   'Tm10 In8 Ni1 Ag3'
_cell_volume   533.75012069
_cell_formula_units_Z   1
loop_
 _symmetry_equiv_pos_site_id
 _symmetry_equiv_pos_as_xyz
  1  'x, y, z'
loop_
 _atom_site_type_symbol
 _atom_site_label
 _atom_site_symmetry_multiplicity
 _atom_site_fract_x
 _atom_site_fract_y
 _atom_site_fract_z
 _atom_site_occupancy
  Tm  Tm0  1  0.000000  0.498623  0.498376  1
  Tm  Tm1  1  0.000000  0.001345  0.001867  1
  Tm  Tm2  1  0.000000  0.766471  0.283608  1
  Tm  Tm3  1  0.000000  0.264272  0.712948  1
  Tm  Tm4  1  0.000000  0.763803  0.784826  1
  Tm  Tm5  1  0.000000  0.218397  0.224904  1
  Tm  Tm6  1  0.000000  0.621054  0.079552  1
  Tm  Tm7  1  0.000000  0.375712  0.924206  1
  Tm  Tm8  1  0.000000  0.875595  0.575287  1
  Tm  Tm9  1  0.000000  0.115494  0.411434  1
  In  In10  1  0.500000  0.709713  0.933309  1
  In  In11  1  0.500000  0.289162  0.072350  1
  In  In12  1  0.500000  0.792038  0.429951  1
  In  In13  1  0.500000  0.205063  0.563300  1
  In  In14  1  0.500000  0.584242  0.648290  1
  In  In15  1  0.500000  0.423208  0.350900  1
  In  In16  1  0.500000  0.920165  0.150740  1
  In  In17  1  0.500000  0.084159  0.851063  1
  Ni  Ni18  1  0.500000  0.025752  0.304684  1
  Ag  Ag19  1  0.500000  0.526348  0.199383  1
  Ag  Ag20  1  0.500000  0.468994  0.804129  1
  Ag  Ag21  1  0.500000  0.970387  0.694894  1
