# generated using pymatgen
data_Pr19NdSi15P
_symmetry_space_group_name_H-M   'P 1'
_cell_length_a   7.90726640
_cell_length_b   7.90843158
_cell_length_c   15.37137966
_cell_angle_alpha   89.91773176
_cell_angle_beta   89.85869596
_cell_angle_gamma   90.11590961
_symmetry_Int_Tables_number   1
_chemical_formula_structural   Pr19NdSi15P
_chemical_formula_sum   'Pr19 Nd1 Si15 P1'
_cell_volume   961.22912470
_cell_formula_units_Z   1
loop_
 _symmetry_equiv_pos_site_id
 _symmetry_equiv_pos_as_xyz
  1  'x, y, z'
loop_
 _atom_site_type_symbol
 _atom_site_label
 _atom_site_symmetry_multiplicity
 _atom_site_fract_x
 _atom_site_fract_y
 _atom_site_fract_z
 _atom_site_occupancy
  Pr  Pr0  1  0.189150  0.809491  0.249978  1
  Pr  Pr1  1  0.807698  0.190884  0.750045  1
  Pr  Pr2  1  0.689481  0.689385  0.499653  1
  Pr  Pr3  1  0.381065  0.009036  0.444850  1
  Pr  Pr4  1  0.488009  0.879309  0.697517  1
  Pr  Pr5  1  0.511673  0.122019  0.196834  1
  Pr  Pr6  1  0.877713  0.487882  0.302639  1
  Pr  Pr7  1  0.123255  0.508444  0.802349  1
  Pr  Pr8  1  0.622895  0.988300  0.946607  1
  Pr  Pr9  1  0.010341  0.376548  0.553838  1
  Pr  Pr10  1  0.988767  0.620865  0.052398  1
  Pr  Pr11  1  0.129284  0.984293  0.874721  1
  Pr  Pr12  1  0.519190  0.627620  0.125456  1
  Pr  Pr13  1  0.476368  0.367842  0.627613  1
  Pr  Pr14  1  0.627612  0.518352  0.872868  1
  Pr  Pr15  1  0.371526  0.479885  0.374893  1
  Pr  Pr16  1  0.873609  0.018950  0.377004  1
  Pr  Pr17  1  0.981291  0.127841  0.123449  1
  Pr  Pr18  1  0.022835  0.878158  0.624704  1
  Nd  Nd19  1  0.311226  0.310367  0.999720  1
  Si  Si20  1  0.330913  0.695763  0.951686  1
  Si  Si21  1  0.668423  0.304476  0.453924  1
  Si  Si22  1  0.696387  0.332355  0.047027  1
  Si  Si23  1  0.303387  0.667617  0.548749  1
  Si  Si24  1  0.803709  0.832300  0.202637  1
  Si  Si25  1  0.168512  0.196265  0.296761  1
  Si  Si26  1  0.834080  0.803969  0.796782  1
  Si  Si27  1  0.287753  0.921112  0.058887  1
  Si  Si28  1  0.578584  0.787740  0.309199  1
  Si  Si29  1  0.424336  0.211249  0.811905  1
  Si  Si30  1  0.788826  0.579789  0.689219  1
  Si  Si31  1  0.211934  0.421986  0.190069  1
  Si  Si32  1  0.709570  0.076867  0.560191  1
  Si  Si33  1  0.923315  0.288417  0.940163  1
  Si  Si34  1  0.078294  0.711027  0.441487  1
  P  P35  1  0.188989  0.173599  0.704177  1
