# generated using pymatgen
data_Y4SiSn5Ir7
_symmetry_space_group_name_H-M   'P 1'
_cell_length_a   7.54185420
_cell_length_b   7.54185389
_cell_length_c   7.54185509
_cell_angle_alpha   109.31599152
_cell_angle_beta   109.54890047
_cell_angle_gamma   109.54888043
_symmetry_Int_Tables_number   1
_chemical_formula_structural   Y4SiSn5Ir7
_chemical_formula_sum   'Y4 Si1 Sn5 Ir7'
_cell_volume   330.22515583
_cell_formula_units_Z   1
loop_
 _symmetry_equiv_pos_site_id
 _symmetry_equiv_pos_as_xyz
  1  'x, y, z'
loop_
 _atom_site_type_symbol
 _atom_site_label
 _atom_site_symmetry_multiplicity
 _atom_site_fract_x
 _atom_site_fract_y
 _atom_site_fract_z
 _atom_site_occupancy
  Y  Y0  1  0.000000  0.989242  0.528696  1
  Y  Y1  1  0.000000  0.528696  0.989242  1
  Y  Y2  1  0.460546  0.989242  0.989242  1
  Y  Y3  1  0.539454  0.528696  0.528696  1
  Si  Si4  1  0.000000  0.649612  0.649612  1
  Sn  Sn5  1  0.686275  0.699685  0.013410  1
  Sn  Sn6  1  0.313725  0.013410  0.327135  1
  Sn  Sn7  1  0.000000  0.293311  0.293311  1
  Sn  Sn8  1  0.313725  0.327135  0.013410  1
  Sn  Sn9  1  0.686275  0.013410  0.699685  1
  Ir  Ir10  1  0.756281  0.254177  0.497896  1
  Ir  Ir11  1  0.756281  0.497896  0.254177  1
  Ir  Ir12  1  0.500000  0.259886  0.759886  1
  Ir  Ir13  1  0.243719  0.497896  0.741615  1
  Ir  Ir14  1  0.243719  0.741615  0.497896  1
  Ir  Ir15  1  0.500000  0.759886  0.259886  1
  Ir  Ir16  1  0.000000  0.956206  0.956206  1
