# generated using pymatgen
data_TmHf3(Al3Ir)6
_symmetry_space_group_name_H-M   'P 1'
_cell_length_a   7.49391960
_cell_length_b   7.48664130
_cell_length_c   9.28105700
_cell_angle_alpha   90.00000000
_cell_angle_beta   90.00000000
_cell_angle_gamma   119.81305988
_symmetry_Int_Tables_number   1
_chemical_formula_structural   TmHf3(Al3Ir)6
_chemical_formula_sum   'Tm1 Hf3 Al18 Ir6'
_cell_volume   451.79263125
_cell_formula_units_Z   1
loop_
 _symmetry_equiv_pos_site_id
 _symmetry_equiv_pos_as_xyz
  1  'x, y, z'
loop_
 _atom_site_type_symbol
 _atom_site_label
 _atom_site_symmetry_multiplicity
 _atom_site_fract_x
 _atom_site_fract_y
 _atom_site_fract_z
 _atom_site_occupancy
  Tm  Tm0  1  0.329378  0.005314  0.750000  1
  Hf  Hf1  1  0.994517  0.671178  0.250000  1
  Hf  Hf2  1  0.005343  0.329625  0.750000  1
  Hf  Hf3  1  0.671169  0.994533  0.250000  1
  Al  Al4  1  0.123089  0.123898  0.250000  1
  Al  Al5  1  0.872717  0.875716  0.750000  1
  Al  Al6  1  0.997706  0.334419  0.077272  1
  Al  Al7  1  0.000160  0.663125  0.924666  1
  Al  Al8  1  0.000160  0.663125  0.575334  1
  Al  Al9  1  0.334646  0.998140  0.420302  1
  Al  Al10  1  0.997706  0.334419  0.422728  1
  Al  Al11  1  0.667781  0.002272  0.575368  1
  Al  Al12  1  0.667781  0.002272  0.924632  1
  Al  Al13  1  0.334646  0.998140  0.079698  1
  Al  Al14  1  0.331156  0.333297  0.557365  1
  Al  Al15  1  0.668378  0.668316  0.440107  1
  Al  Al16  1  0.668378  0.668316  0.059893  1
  Al  Al17  1  0.331156  0.333297  0.942635  1
  Al  Al18  1  0.338666  0.552160  0.250000  1
  Al  Al19  1  0.665306  0.452006  0.750000  1
  Al  Al20  1  0.553055  0.339415  0.250000  1
  Al  Al21  1  0.447470  0.657417  0.750000  1
  Ir  Ir22  1  0.672917  0.327566  0.001073  1
  Ir  Ir23  1  0.327745  0.673297  0.001330  1
  Ir  Ir24  1  0.327745  0.673297  0.498670  1
  Ir  Ir25  1  0.672917  0.327566  0.498927  1
  Ir  Ir26  1  0.999156  0.998935  0.001258  1
  Ir  Ir27  1  0.999156  0.998935  0.498742  1
