# generated using pymatgen
data_LaNdAl6(PbO4)4
_symmetry_space_group_name_H-M   'P 1'
_cell_length_a   9.65664501
_cell_length_b   9.65664501
_cell_length_c   9.65672200
_cell_angle_alpha   90.00000000
_cell_angle_beta   90.00000000
_cell_angle_gamma   89.99566869
_symmetry_Int_Tables_number   1
_chemical_formula_structural   LaNdAl6(PbO4)4
_chemical_formula_sum   'La2 Nd2 Al12 Pb8 O32'
_cell_volume   900.49697967
_cell_formula_units_Z   2
loop_
 _symmetry_equiv_pos_site_id
 _symmetry_equiv_pos_as_xyz
  1  'x, y, z'
loop_
 _atom_site_type_symbol
 _atom_site_label
 _atom_site_symmetry_multiplicity
 _atom_site_fract_x
 _atom_site_fract_y
 _atom_site_fract_z
 _atom_site_occupancy
  La  La0  1  0.000000  0.000000  0.000000  1
  La  La1  1  0.500000  0.500000  0.000000  1
  Nd  Nd2  1  0.500000  0.000000  0.500000  1
  Nd  Nd3  1  0.000000  0.500000  0.500000  1
  Al  Al4  1  0.750000  0.250000  0.000000  1
  Al  Al5  1  0.250000  0.750000  0.000000  1
  Al  Al6  1  0.749479  0.999997  0.250821  1
  Al  Al7  1  0.750521  0.500003  0.250821  1
  Al  Al8  1  0.999997  0.749479  0.250821  1
  Al  Al9  1  0.500003  0.750521  0.250821  1
  Al  Al10  1  0.750000  0.250000  0.500000  1
  Al  Al11  1  0.250000  0.750000  0.500000  1
  Al  Al12  1  0.250521  0.000003  0.749179  1
  Al  Al13  1  0.000003  0.250521  0.749179  1
  Al  Al14  1  0.499997  0.249479  0.749179  1
  Al  Al15  1  0.249479  0.499997  0.749179  1
  Pb  Pb16  1  0.383035  0.116965  0.118311  1
  Pb  Pb17  1  0.116965  0.383035  0.118311  1
  Pb  Pb18  1  0.117883  0.117883  0.383498  1
  Pb  Pb19  1  0.382117  0.382117  0.383498  1
  Pb  Pb20  1  0.617883  0.617883  0.616502  1
  Pb  Pb21  1  0.882118  0.882118  0.616502  1
  Pb  Pb22  1  0.883036  0.616965  0.881690  1
  Pb  Pb23  1  0.616965  0.883036  0.881690  1
  O  O24  1  0.761661  0.094688  0.095204  1
  O  O25  1  0.738338  0.405311  0.095204  1
  O  O26  1  0.405311  0.738338  0.095204  1
  O  O27  1  0.094688  0.761661  0.095204  1
  O  O28  1  0.141462  0.141462  0.141852  1
  O  O29  1  0.358538  0.358538  0.141852  1
  O  O30  1  0.595209  0.595209  0.238741  1
  O  O31  1  0.904790  0.904790  0.238741  1
  O  O32  1  0.906625  0.593374  0.264419  1
  O  O33  1  0.593374  0.906625  0.264419  1
  O  O34  1  0.359433  0.140567  0.359804  1
  O  O35  1  0.140567  0.359433  0.359804  1
  O  O36  1  0.735998  0.093903  0.406615  1
  O  O37  1  0.764001  0.406096  0.406615  1
  O  O38  1  0.093903  0.735998  0.406615  1
  O  O39  1  0.406096  0.764001  0.406615  1
  O  O40  1  0.593903  0.235999  0.593384  1
  O  O41  1  0.906096  0.264001  0.593384  1
  O  O42  1  0.235999  0.593903  0.593384  1
  O  O43  1  0.264001  0.906096  0.593384  1
  O  O44  1  0.859433  0.640567  0.640196  1
  O  O45  1  0.640567  0.859433  0.640196  1
  O  O46  1  0.406625  0.093374  0.735580  1
  O  O47  1  0.093374  0.406625  0.735580  1
  O  O48  1  0.095209  0.095209  0.761259  1
  O  O49  1  0.404790  0.404790  0.761259  1
  O  O50  1  0.641462  0.641462  0.858148  1
  O  O51  1  0.858538  0.858538  0.858148  1
  O  O52  1  0.905311  0.238339  0.904795  1
  O  O53  1  0.594688  0.261661  0.904795  1
  O  O54  1  0.261661  0.594688  0.904795  1
  O  O55  1  0.238339  0.905311  0.904795  1
