# generated using pymatgen
data_Nd2Ga9FePd2
_symmetry_space_group_name_H-M   'P 1'
_cell_length_a   7.67581596
_cell_length_b   7.67581542
_cell_length_c   9.63624100
_cell_angle_alpha   90.00000000
_cell_angle_beta   90.00000000
_cell_angle_gamma   119.89092790
_symmetry_Int_Tables_number   1
_chemical_formula_structural   Nd2Ga9FePd2
_chemical_formula_sum   'Nd4 Ga18 Fe2 Pd4'
_cell_volume   492.22496630
_cell_formula_units_Z   2
loop_
 _symmetry_equiv_pos_site_id
 _symmetry_equiv_pos_as_xyz
  1  'x, y, z'
loop_
 _atom_site_type_symbol
 _atom_site_label
 _atom_site_symmetry_multiplicity
 _atom_site_fract_x
 _atom_site_fract_y
 _atom_site_fract_z
 _atom_site_occupancy
  Nd  Nd0  1  0.996118  0.660285  0.250000  1
  Nd  Nd1  1  0.003882  0.339715  0.750000  1
  Nd  Nd2  1  0.660285  0.996118  0.250000  1
  Nd  Nd3  1  0.339715  0.003882  0.750000  1
  Ga  Ga4  1  0.109690  0.109690  0.250000  1
  Ga  Ga5  1  0.890310  0.890310  0.750000  1
  Ga  Ga6  1  0.001355  0.320787  0.076355  1
  Ga  Ga7  1  0.998645  0.679213  0.923645  1
  Ga  Ga8  1  0.998645  0.679213  0.576355  1
  Ga  Ga9  1  0.320787  0.001355  0.423645  1
  Ga  Ga10  1  0.001355  0.320787  0.423645  1
  Ga  Ga11  1  0.679213  0.998645  0.576355  1
  Ga  Ga12  1  0.679213  0.998645  0.923645  1
  Ga  Ga13  1  0.320787  0.001355  0.076355  1
  Ga  Ga14  1  0.320896  0.320896  0.558197  1
  Ga  Ga15  1  0.679104  0.679105  0.441803  1
  Ga  Ga16  1  0.679104  0.679105  0.058197  1
  Ga  Ga17  1  0.320896  0.320896  0.941803  1
  Ga  Ga18  1  0.341409  0.539599  0.250000  1
  Ga  Ga19  1  0.658591  0.460401  0.750000  1
  Ga  Ga20  1  0.539599  0.341409  0.250000  1
  Ga  Ga21  1  0.460401  0.658591  0.750000  1
  Fe  Fe22  1  0.000000  0.000000  0.000000  1
  Fe  Fe23  1  0.000000  0.000000  0.500000  1
  Pd  Pd24  1  0.670934  0.329066  0.000000  1
  Pd  Pd25  1  0.329066  0.670934  0.000000  1
  Pd  Pd26  1  0.329066  0.670934  0.500000  1
  Pd  Pd27  1  0.670934  0.329066  0.500000  1
