# generated using pymatgen
data_Li4YNi9As5P2
_symmetry_space_group_name_H-M   'P 1'
_cell_length_a   9.37650006
_cell_length_b   9.38261867
_cell_length_c   3.76173400
_cell_angle_alpha   90.00000000
_cell_angle_beta   90.00000000
_cell_angle_gamma   119.92364542
_symmetry_Int_Tables_number   1
_chemical_formula_structural   Li4YNi9As5P2
_chemical_formula_sum   'Li4 Y1 Ni9 As5 P2'
_cell_volume   286.82511257
_cell_formula_units_Z   1
loop_
 _symmetry_equiv_pos_site_id
 _symmetry_equiv_pos_as_xyz
  1  'x, y, z'
loop_
 _atom_site_type_symbol
 _atom_site_label
 _atom_site_symmetry_multiplicity
 _atom_site_fract_x
 _atom_site_fract_y
 _atom_site_fract_z
 _atom_site_occupancy
  Li  Li0  1  0.895886  0.786384  0.500000  1
  Li  Li1  1  0.896914  0.113290  0.500000  1
  Li  Li2  1  0.215344  0.102479  0.500000  1
  Li  Li3  1  0.666890  0.333977  0.500000  1
  Y  Y4  1  0.329033  0.665856  0.000000  1
  Ni  Ni5  1  0.711224  0.882879  0.000000  1
  Ni  Ni6  1  0.166878  0.293288  0.000000  1
  Ni  Ni7  1  0.124374  0.831038  0.000000  1
  Ni  Ni8  1  0.623265  0.569985  0.000000  1
  Ni  Ni9  1  0.955687  0.379359  0.000000  1
  Ni  Ni10  1  0.421043  0.043553  0.000000  1
  Ni  Ni11  1  0.554153  0.953659  0.500000  1
  Ni  Ni12  1  0.382697  0.435082  0.500000  1
  Ni  Ni13  1  0.056247  0.610063  0.500000  1
  As  As14  1  0.592879  0.713885  0.500000  1
  As  As15  1  0.001162  0.001110  0.000000  1
  As  As16  1  0.877750  0.577072  0.000000  1
  As  As17  1  0.700760  0.126946  0.000000  1
  As  As18  1  0.420380  0.295998  0.000000  1
  P  P19  1  0.122751  0.408375  0.500000  1
  P  P20  1  0.284682  0.875725  0.500000  1
