# generated using pymatgen
data_AgOs2Cl11
_symmetry_space_group_name_H-M   'P 1'
_cell_length_a   7.32850403
_cell_length_b   6.92985409
_cell_length_c   17.66793050
_cell_angle_alpha   77.24676799
_cell_angle_beta   78.18105445
_cell_angle_gamma   89.06193272
_symmetry_Int_Tables_number   1
_chemical_formula_structural   AgOs2Cl11
_chemical_formula_sum   'Ag2 Os4 Cl22'
_cell_volume   856.19395298
_cell_formula_units_Z   2
loop_
 _symmetry_equiv_pos_site_id
 _symmetry_equiv_pos_as_xyz
  1  'x, y, z'
loop_
 _atom_site_type_symbol
 _atom_site_label
 _atom_site_symmetry_multiplicity
 _atom_site_fract_x
 _atom_site_fract_y
 _atom_site_fract_z
 _atom_site_occupancy
  Ag  Ag0  1  0.769834  0.780735  0.498794  1
  Ag  Ag1  1  0.230166  0.219265  0.501206  1
  Os  Os2  1  0.301829  0.821795  0.364856  1
  Os  Os3  1  0.698171  0.178205  0.635144  1
  Os  Os4  1  0.842401  0.332563  0.084156  1
  Os  Os5  1  0.157599  0.667437  0.915844  1
  Cl  Cl6  1  0.238547  0.844047  0.500402  1
  Cl  Cl7  1  0.761453  0.155953  0.499598  1
  Cl  Cl8  1  0.594118  0.956961  0.350544  1
  Cl  Cl9  1  0.405882  0.043039  0.649456  1
  Cl  Cl10  1  0.428279  0.506339  0.402538  1
  Cl  Cl11  1  0.571721  0.493661  0.597462  1
  Cl  Cl12  1  0.354714  0.797329  0.236559  1
  Cl  Cl13  1  0.645286  0.202671  0.763441  1
  Cl  Cl14  1  0.006198  0.665042  0.388347  1
  Cl  Cl15  1  0.993802  0.334958  0.611653  1
  Cl  Cl16  1  0.176326  0.127324  0.335231  1
  Cl  Cl17  1  0.823674  0.872676  0.664769  1
  Cl  Cl18  1  0.886983  0.025553  0.150623  1
  Cl  Cl19  1  0.113017  0.974447  0.849377  1
  Cl  Cl20  1  0.551849  0.370150  0.150546  1
  Cl  Cl21  1  0.448151  0.629850  0.849454  1
  Cl  Cl22  1  0.726099  0.211574  0.992197  1
  Cl  Cl23  1  0.273901  0.788426  0.007803  1
  Cl  Cl24  1  0.969852  0.472754  0.168058  1
  Cl  Cl25  1  0.030148  0.527246  0.831942  1
  Cl  Cl26  1  0.156112  0.336023  0.001105  1
  Cl  Cl27  1  0.843888  0.663977  0.998895  1
