# generated using pymatgen
data_TbDy2Er5(CdIr)2
_symmetry_space_group_name_H-M   'P 1'
_cell_length_a   9.59277130
_cell_length_b   9.59277173
_cell_length_c   9.59223900
_cell_angle_alpha   60.00183359
_cell_angle_beta   60.00183214
_cell_angle_gamma   59.99632236
_symmetry_Int_Tables_number   1
_chemical_formula_structural   TbDy2Er5(CdIr)2
_chemical_formula_sum   'Tb2 Dy4 Er10 Cd4 Ir4'
_cell_volume   624.15600364
_cell_formula_units_Z   2
loop_
 _symmetry_equiv_pos_site_id
 _symmetry_equiv_pos_as_xyz
  1  'x, y, z'
loop_
 _atom_site_type_symbol
 _atom_site_label
 _atom_site_symmetry_multiplicity
 _atom_site_fract_x
 _atom_site_fract_y
 _atom_site_fract_z
 _atom_site_occupancy
  Tb  Tb0  1  0.811774  0.811774  0.188226  1
  Tb  Tb1  1  0.188226  0.188226  0.811774  1
  Dy  Dy2  1  0.188395  0.811605  0.811605  1
  Dy  Dy3  1  0.811605  0.188395  0.188395  1
  Dy  Dy4  1  0.811605  0.188395  0.811605  1
  Dy  Dy5  1  0.188395  0.811605  0.188395  1
  Er  Er6  1  0.598664  0.598664  0.598815  1
  Er  Er7  1  0.598664  0.598664  0.203857  1
  Er  Er8  1  0.598815  0.203857  0.598664  1
  Er  Er9  1  0.203857  0.598815  0.598664  1
  Er  Er10  1  0.061371  0.438629  0.438629  1
  Er  Er11  1  0.438629  0.061371  0.061371  1
  Er  Er12  1  0.438629  0.061371  0.438629  1
  Er  Er13  1  0.061371  0.438629  0.061371  1
  Er  Er14  1  0.438647  0.438647  0.061353  1
  Er  Er15  1  0.061353  0.061353  0.438647  1
  Cd  Cd16  1  0.830815  0.830815  0.830639  1
  Cd  Cd17  1  0.830815  0.830815  0.507732  1
  Cd  Cd18  1  0.830639  0.507732  0.830815  1
  Cd  Cd19  1  0.507732  0.830639  0.830815  1
  Ir  Ir20  1  0.391769  0.391769  0.391613  1
  Ir  Ir21  1  0.391769  0.391769  0.824849  1
  Ir  Ir22  1  0.391613  0.824849  0.391769  1
  Ir  Ir23  1  0.824849  0.391613  0.391769  1
