# generated using pymatgen
data_Lu16In4OsRh3
_symmetry_space_group_name_H-M   'P 1'
_cell_length_a   9.49624431
_cell_length_b   9.49624513
_cell_length_c   9.49624483
_cell_angle_alpha   59.60667814
_cell_angle_beta   59.60667623
_cell_angle_gamma   59.60667701
_symmetry_Int_Tables_number   1
_chemical_formula_structural   Lu16In4OsRh3
_chemical_formula_sum   'Lu16 In4 Os1 Rh3'
_cell_volume   600.12388062
_cell_formula_units_Z   1
loop_
 _symmetry_equiv_pos_site_id
 _symmetry_equiv_pos_as_xyz
  1  'x, y, z'
loop_
 _atom_site_type_symbol
 _atom_site_label
 _atom_site_symmetry_multiplicity
 _atom_site_fract_x
 _atom_site_fract_y
 _atom_site_fract_z
 _atom_site_occupancy
  Lu  Lu0  1  0.599898  0.599898  0.599898  1
  Lu  Lu1  1  0.598723  0.598723  0.204186  1
  Lu  Lu2  1  0.598723  0.204186  0.598723  1
  Lu  Lu3  1  0.204186  0.598723  0.598723  1
  Lu  Lu4  1  0.058740  0.441007  0.441007  1
  Lu  Lu5  1  0.440225  0.058719  0.058719  1
  Lu  Lu6  1  0.441007  0.058740  0.441007  1
  Lu  Lu7  1  0.058719  0.440225  0.058719  1
  Lu  Lu8  1  0.441007  0.441007  0.058740  1
  Lu  Lu9  1  0.058719  0.058719  0.440225  1
  Lu  Lu10  1  0.188427  0.811225  0.811225  1
  Lu  Lu11  1  0.804841  0.191837  0.191837  1
  Lu  Lu12  1  0.811225  0.188427  0.811225  1
  Lu  Lu13  1  0.191837  0.804841  0.191837  1
  Lu  Lu14  1  0.811225  0.811225  0.188427  1
  Lu  Lu15  1  0.191837  0.191837  0.804841  1
  In  In16  1  0.833470  0.833470  0.833470  1
  In  In17  1  0.833774  0.833774  0.499464  1
  In  In18  1  0.833774  0.499464  0.833774  1
  In  In19  1  0.499464  0.833774  0.833774  1
  Os  Os20  1  0.390465  0.390465  0.390465  1
  Rh  Rh21  1  0.391878  0.391878  0.825957  1
  Rh  Rh22  1  0.391878  0.825957  0.391878  1
  Rh  Rh23  1  0.825957  0.391878  0.391878  1
