# generated using pymatgen
data_Li2Nd3HoPt3
_symmetry_space_group_name_H-M   'P 1'
_cell_length_a   7.63065400
_cell_length_b   7.57517656
_cell_length_c   4.16810100
_cell_angle_alpha   90.00000000
_cell_angle_beta   90.00000000
_cell_angle_gamma   120.24255935
_symmetry_Int_Tables_number   1
_chemical_formula_structural   Li2Nd3HoPt3
_chemical_formula_sum   'Li2 Nd3 Ho1 Pt3'
_cell_volume   208.14054718
_cell_formula_units_Z   1
loop_
 _symmetry_equiv_pos_site_id
 _symmetry_equiv_pos_as_xyz
  1  'x, y, z'
loop_
 _atom_site_type_symbol
 _atom_site_label
 _atom_site_symmetry_multiplicity
 _atom_site_fract_x
 _atom_site_fract_y
 _atom_site_fract_z
 _atom_site_occupancy
  Li  Li0  1  0.002808  0.242407  0.500000  1
  Li  Li1  1  0.760401  0.757593  0.500000  1
  Nd  Nd2  1  0.417065  0.439453  0.000000  1
  Nd  Nd3  1  0.613680  0.000000  0.000000  1
  Nd  Nd4  1  0.977612  0.560547  0.000000  1
  Ho  Ho5  1  0.241885  0.000000  0.500000  1
  Pt  Pt6  1  0.653862  0.323768  0.500000  1
  Pt  Pt7  1  0.002592  0.000000  0.000000  1
  Pt  Pt8  1  0.330095  0.676232  0.500000  1
