# generated using pymatgen
data_Ca7Pr(DyIr2)2
_symmetry_space_group_name_H-M   'P 1'
_cell_length_a   6.61972171
_cell_length_b   7.46461247
_cell_length_c   8.65148697
_cell_angle_alpha   97.35109765
_cell_angle_beta   111.74222886
_cell_angle_gamma   89.67069857
_symmetry_Int_Tables_number   1
_chemical_formula_structural   Ca7Pr(DyIr2)2
_chemical_formula_sum   'Ca7 Pr1 Dy2 Ir4'
_cell_volume   393.42258771
_cell_formula_units_Z   1
loop_
 _symmetry_equiv_pos_site_id
 _symmetry_equiv_pos_as_xyz
  1  'x, y, z'
loop_
 _atom_site_type_symbol
 _atom_site_label
 _atom_site_symmetry_multiplicity
 _atom_site_fract_x
 _atom_site_fract_y
 _atom_site_fract_z
 _atom_site_occupancy
  Ca  Ca0  1  0.978749  0.423525  0.178736  1
  Ca  Ca1  1  0.202784  0.917780  0.180354  1
  Ca  Ca2  1  0.021268  0.581190  0.826402  1
  Ca  Ca3  1  0.203644  0.180807  0.567619  1
  Ca  Ca4  1  0.636583  0.318333  0.434342  1
  Ca  Ca5  1  0.797776  0.820298  0.431421  1
  Ca  Ca6  1  0.366847  0.682604  0.565763  1
  Pr  Pr7  1  0.803938  0.080772  0.829994  1
  Dy  Dy8  1  0.431735  0.253286  0.002370  1
  Dy  Dy9  1  0.560208  0.746695  0.997560  1
  Ir  Ir10  1  0.600056  0.420041  0.790309  1
  Ir  Ir11  1  0.802621  0.072484  0.190998  1
  Ir  Ir12  1  0.405873  0.575093  0.211003  1
  Ir  Ir13  1  0.187917  0.927094  0.793129  1
