# generated using pymatgen
data_Pu3Np(VN2)4
_symmetry_space_group_name_H-M   'P 1'
_cell_length_a   3.20635800
_cell_length_b   5.47060235
_cell_length_c   10.51334312
_cell_angle_alpha   89.98813437
_cell_angle_beta   90.00000000
_cell_angle_gamma   90.00000000
_symmetry_Int_Tables_number   1
_chemical_formula_structural   Pu3Np(VN2)4
_chemical_formula_sum   'Pu3 Np1 V4 N8'
_cell_volume   184.41149466
_cell_formula_units_Z   1
loop_
 _symmetry_equiv_pos_site_id
 _symmetry_equiv_pos_as_xyz
  1  'x, y, z'
loop_
 _atom_site_type_symbol
 _atom_site_label
 _atom_site_symmetry_multiplicity
 _atom_site_fract_x
 _atom_site_fract_y
 _atom_site_fract_z
 _atom_site_occupancy
  Pu  Pu0  1  0.750000  0.080358  0.857280  1
  Pu  Pu1  1  0.750000  0.580248  0.642766  1
  Pu  Pu2  1  0.250000  0.919610  0.142239  1
  Np  Np3  1  0.250000  0.422654  0.359113  1
  V  V4  1  0.250000  0.077670  0.597915  1
  V  V5  1  0.750000  0.421082  0.098871  1
  V  V6  1  0.250000  0.578330  0.901067  1
  V  V7  1  0.750000  0.922124  0.400599  1
  N  N8  1  0.250000  0.336480  0.746319  1
  N  N9  1  0.750000  0.164091  0.246885  1
  N  N10  1  0.250000  0.267008  0.009913  1
  N  N11  1  0.750000  0.661115  0.255292  1
  N  N12  1  0.250000  0.836966  0.753536  1
  N  N13  1  0.750000  0.732046  0.989677  1
  N  N14  1  0.750000  0.235767  0.508624  1
  N  N15  1  0.250000  0.764450  0.489903  1
