# generated using pymatgen
data_Dy3Er(Al3Rh)6
_symmetry_space_group_name_H-M   'P 1'
_cell_length_a   7.54879382
_cell_length_b   7.55108549
_cell_length_c   9.47410500
_cell_angle_alpha   90.00000000
_cell_angle_beta   90.00000000
_cell_angle_gamma   119.35152256
_symmetry_Int_Tables_number   1
_chemical_formula_structural   Dy3Er(Al3Rh)6
_chemical_formula_sum   'Dy3 Er1 Al18 Rh6'
_cell_volume   470.71359330
_cell_formula_units_Z   1
loop_
 _symmetry_equiv_pos_site_id
 _symmetry_equiv_pos_as_xyz
  1  'x, y, z'
loop_
 _atom_site_type_symbol
 _atom_site_label
 _atom_site_symmetry_multiplicity
 _atom_site_fract_x
 _atom_site_fract_y
 _atom_site_fract_z
 _atom_site_occupancy
  Dy  Dy0  1  0.994358  0.671949  0.750000  1
  Dy  Dy1  1  0.005713  0.328012  0.250000  1
  Dy  Dy2  1  0.671907  0.994224  0.750000  1
  Er  Er3  1  0.327649  0.005745  0.250000  1
  Al  Al4  1  0.129382  0.129091  0.750000  1
  Al  Al5  1  0.871269  0.870999  0.250000  1
  Al  Al6  1  0.000868  0.335481  0.574500  1
  Al  Al7  1  0.999643  0.664865  0.425109  1
  Al  Al8  1  0.999643  0.664865  0.074891  1
  Al  Al9  1  0.335453  0.000752  0.926160  1
  Al  Al10  1  0.000868  0.335481  0.925500  1
  Al  Al11  1  0.664041  0.999282  0.074974  1
  Al  Al12  1  0.664041  0.999282  0.425026  1
  Al  Al13  1  0.335453  0.000752  0.573840  1
  Al  Al14  1  0.333061  0.332777  0.049475  1
  Al  Al15  1  0.666935  0.666909  0.951639  1
  Al  Al16  1  0.666935  0.666909  0.548361  1
  Al  Al17  1  0.333061  0.332777  0.450525  1
  Al  Al18  1  0.340214  0.549968  0.750000  1
  Al  Al19  1  0.659458  0.449499  0.250000  1
  Al  Al20  1  0.549905  0.339885  0.750000  1
  Al  Al21  1  0.449943  0.660465  0.250000  1
  Rh  Rh22  1  0.671990  0.327470  0.499713  1
  Rh  Rh23  1  0.327888  0.672360  0.499724  1
  Rh  Rh24  1  0.327888  0.672360  0.000276  1
  Rh  Rh25  1  0.671990  0.327470  0.000287  1
  Rh  Rh26  1  0.000222  0.000184  0.499543  1
  Rh  Rh27  1  0.000222  0.000184  0.000457  1
