# generated using pymatgen
data_LiTm12Th4Mg3Co4
_symmetry_space_group_name_H-M   'P 1'
_cell_length_a   9.52067390
_cell_length_b   9.52067407
_cell_length_c   9.52067402
_cell_angle_alpha   59.66487662
_cell_angle_beta   59.66487494
_cell_angle_gamma   59.66487109
_symmetry_Int_Tables_number   1
_chemical_formula_structural   LiTm12Th4Mg3Co4
_chemical_formula_sum   'Li1 Tm12 Th4 Mg3 Co4'
_cell_volume   605.57608812
_cell_formula_units_Z   1
loop_
 _symmetry_equiv_pos_site_id
 _symmetry_equiv_pos_as_xyz
  1  'x, y, z'
loop_
 _atom_site_type_symbol
 _atom_site_label
 _atom_site_symmetry_multiplicity
 _atom_site_fract_x
 _atom_site_fract_y
 _atom_site_fract_z
 _atom_site_occupancy
  Li  Li0  1  0.578273  0.578273  0.578273  1
  Tm  Tm1  1  0.812902  0.186364  0.186364  1
  Tm  Tm2  1  0.183415  0.815697  0.815697  1
  Tm  Tm3  1  0.186364  0.812902  0.186364  1
  Tm  Tm4  1  0.815697  0.183415  0.815697  1
  Tm  Tm5  1  0.186364  0.186364  0.812902  1
  Tm  Tm6  1  0.815697  0.815697  0.183415  1
  Tm  Tm7  1  0.933957  0.566447  0.566447  1
  Tm  Tm8  1  0.565740  0.934642  0.934642  1
  Tm  Tm9  1  0.566447  0.933957  0.566447  1
  Tm  Tm10  1  0.934642  0.565740  0.934642  1
  Tm  Tm11  1  0.566447  0.566447  0.933957  1
  Tm  Tm12  1  0.934642  0.934642  0.565740  1
  Th  Th13  1  0.345145  0.345145  0.345145  1
  Th  Th14  1  0.345375  0.345375  0.964625  1
  Th  Th15  1  0.345375  0.964625  0.345375  1
  Th  Th16  1  0.964625  0.345375  0.345375  1
  Mg  Mg17  1  0.579713  0.579713  0.260238  1
  Mg  Mg18  1  0.579713  0.260238  0.579713  1
  Mg  Mg19  1  0.260238  0.579713  0.579713  1
  Co  Co20  1  0.144316  0.144316  0.144316  1
  Co  Co21  1  0.143860  0.143860  0.567192  1
  Co  Co22  1  0.143860  0.567192  0.143860  1
  Co  Co23  1  0.567192  0.143860  0.143860  1
