# generated using pymatgen
data_La2Pr3Pt19
_symmetry_space_group_name_H-M   'P 1'
_cell_length_a   5.48058938
_cell_length_b   5.48059459
_cell_length_c   18.12629724
_cell_angle_alpha   81.31959125
_cell_angle_beta   81.31955019
_cell_angle_gamma   59.98135068
_symmetry_Int_Tables_number   1
_chemical_formula_structural   La2Pr3Pt19
_chemical_formula_sum   'La2 Pr3 Pt19'
_cell_volume   464.21293380
_cell_formula_units_Z   1
loop_
 _symmetry_equiv_pos_site_id
 _symmetry_equiv_pos_as_xyz
  1  'x, y, z'
loop_
 _atom_site_type_symbol
 _atom_site_label
 _atom_site_symmetry_multiplicity
 _atom_site_fract_x
 _atom_site_fract_y
 _atom_site_fract_z
 _atom_site_occupancy
  La  La0  1  0.000085  0.000085  0.999781  1
  La  La1  1  0.922568  0.922570  0.232206  1
  Pr  Pr2  1  0.077290  0.077291  0.768110  1
  Pr  Pr3  1  0.847894  0.847894  0.456356  1
  Pr  Pr4  1  0.152068  0.152068  0.543791  1
  Pt  Pt5  1  0.499991  0.499991  0.499939  1
  Pt  Pt6  1  0.749864  0.749865  0.750601  1
  Pt  Pt7  1  0.250124  0.250125  0.249432  1
  Pt  Pt8  1  0.667126  0.667126  0.999720  1
  Pt  Pt9  1  0.332850  0.332851  0.000231  1
  Pt  Pt10  1  0.584056  0.584053  0.248341  1
  Pt  Pt11  1  0.415969  0.415970  0.751649  1
  Pt  Pt12  1  0.373404  0.373403  0.374905  1
  Pt  Pt13  1  0.877522  0.373744  0.374987  1
  Pt  Pt14  1  0.373744  0.877521  0.374987  1
  Pt  Pt15  1  0.626522  0.626523  0.625184  1
  Pt  Pt16  1  0.122482  0.626248  0.625102  1
  Pt  Pt17  1  0.626249  0.122482  0.625102  1
  Pt  Pt18  1  0.458941  0.458941  0.123495  1
  Pt  Pt19  1  0.959083  0.458123  0.123405  1
  Pt  Pt20  1  0.458123  0.959084  0.123405  1
  Pt  Pt21  1  0.541072  0.541072  0.876358  1
  Pt  Pt22  1  0.041002  0.541970  0.876456  1
  Pt  Pt23  1  0.541970  0.041002  0.876456  1
