# generated using pymatgen
data_Tb2Ni17H3
_symmetry_space_group_name_H-M   'P 1'
_cell_length_a   6.28898260
_cell_length_b   6.28898297
_cell_length_c   6.28898407
_cell_angle_alpha   83.47203211
_cell_angle_beta   83.47202833
_cell_angle_gamma   83.47202206
_symmetry_Int_Tables_number   1
_chemical_formula_structural   Tb2Ni17H3
_chemical_formula_sum   'Tb2 Ni17 H3'
_cell_volume   244.23995544
_cell_formula_units_Z   1
loop_
 _symmetry_equiv_pos_site_id
 _symmetry_equiv_pos_as_xyz
  1  'x, y, z'
loop_
 _atom_site_type_symbol
 _atom_site_label
 _atom_site_symmetry_multiplicity
 _atom_site_fract_x
 _atom_site_fract_y
 _atom_site_fract_z
 _atom_site_occupancy
  Tb  Tb0  1  0.659158  0.659158  0.659158  1
  Tb  Tb1  1  0.340842  0.340842  0.340842  1
  Ni  Ni2  1  0.000000  0.000000  0.500000  1
  Ni  Ni3  1  0.000000  0.500000  0.000000  1
  Ni  Ni4  1  0.500000  0.000000  0.000000  1
  Ni  Ni5  1  0.289489  0.710511  0.000000  1
  Ni  Ni6  1  0.710511  0.000000  0.289489  1
  Ni  Ni7  1  0.000000  0.289489  0.710511  1
  Ni  Ni8  1  0.289489  0.000000  0.710511  1
  Ni  Ni9  1  0.000000  0.710511  0.289489  1
  Ni  Ni10  1  0.710511  0.289489  0.000000  1
  Ni  Ni11  1  0.346298  0.346298  0.849646  1
  Ni  Ni12  1  0.346298  0.849646  0.346298  1
  Ni  Ni13  1  0.849646  0.346298  0.346298  1
  Ni  Ni14  1  0.653702  0.653702  0.150354  1
  Ni  Ni15  1  0.653702  0.150354  0.653702  1
  Ni  Ni16  1  0.150354  0.653702  0.653702  1
  Ni  Ni17  1  0.900866  0.900866  0.900866  1
  Ni  Ni18  1  0.099134  0.099134  0.099134  1
  H  H19  1  0.500000  0.500000  0.000000  1
  H  H20  1  0.500000  0.000000  0.500000  1
  H  H21  1  0.000000  0.500000  0.500000  1
