# generated using pymatgen
data_Sr2CuRh3
_symmetry_space_group_name_H-M   'P 1'
_cell_length_a   5.51220736
_cell_length_b   5.43452899
_cell_length_c   5.51220800
_cell_angle_alpha   59.52604638
_cell_angle_beta   60.00000818
_cell_angle_gamma   59.52603654
_symmetry_Int_Tables_number   1
_chemical_formula_structural   Sr2CuRh3
_chemical_formula_sum   'Sr2 Cu1 Rh3'
_cell_volume   115.91760877
_cell_formula_units_Z   1
loop_
 _symmetry_equiv_pos_site_id
 _symmetry_equiv_pos_as_xyz
  1  'x, y, z'
loop_
 _atom_site_type_symbol
 _atom_site_label
 _atom_site_symmetry_multiplicity
 _atom_site_fract_x
 _atom_site_fract_y
 _atom_site_fract_z
 _atom_site_occupancy
  Sr  Sr0  1  0.249281  0.252158  0.249281  1
  Sr  Sr1  1  0.000719  0.997842  0.000719  1
  Cu  Cu2  1  0.625000  0.125000  0.625000  1
  Rh  Rh3  1  0.625000  0.625000  0.125000  1
  Rh  Rh4  1  0.125000  0.625000  0.625000  1
  Rh  Rh5  1  0.625000  0.625000  0.625000  1
