# generated using pymatgen
data_CeLu5(Al3Co)8
_symmetry_space_group_name_H-M   'P 1'
_cell_length_a   8.63638917
_cell_length_b   8.63638811
_cell_length_c   9.25519000
_cell_angle_alpha   90.00000000
_cell_angle_beta   90.00000000
_cell_angle_gamma   119.94022540
_symmetry_Int_Tables_number   1
_chemical_formula_structural   CeLu5(Al3Co)8
_chemical_formula_sum   'Ce1 Lu5 Al24 Co8'
_cell_volume   598.19337490
_cell_formula_units_Z   1
loop_
 _symmetry_equiv_pos_site_id
 _symmetry_equiv_pos_as_xyz
  1  'x, y, z'
loop_
 _atom_site_type_symbol
 _atom_site_label
 _atom_site_symmetry_multiplicity
 _atom_site_fract_x
 _atom_site_fract_y
 _atom_site_fract_z
 _atom_site_occupancy
  Ce  Ce0  1  0.807089  0.192911  0.750000  1
  Lu  Lu1  1  0.195781  0.804219  0.250000  1
  Lu  Lu2  1  0.392949  0.196442  0.750000  1
  Lu  Lu3  1  0.606196  0.803256  0.250000  1
  Lu  Lu4  1  0.803558  0.607051  0.750000  1
  Lu  Lu5  1  0.196744  0.393804  0.250000  1
  Al  Al6  1  0.441339  0.558661  0.750000  1
  Al  Al7  1  0.558805  0.441195  0.250000  1
  Al  Al8  1  0.122005  0.562931  0.750000  1
  Al  Al9  1  0.882600  0.442230  0.250000  1
  Al  Al10  1  0.437069  0.877995  0.750000  1
  Al  Al11  1  0.557770  0.117400  0.250000  1
  Al  Al12  1  0.837806  0.162194  0.421691  1
  Al  Al13  1  0.162190  0.837810  0.573931  1
  Al  Al14  1  0.324007  0.161932  0.424060  1
  Al  Al15  1  0.162190  0.837810  0.926069  1
  Al  Al16  1  0.674059  0.834448  0.573852  1
  Al  Al17  1  0.837806  0.162194  0.078309  1
  Al  Al18  1  0.838068  0.675993  0.424060  1
  Al  Al19  1  0.674059  0.834448  0.926148  1
  Al  Al20  1  0.165552  0.325941  0.573852  1
  Al  Al21  1  0.324007  0.161932  0.075940  1
  Al  Al22  1  0.165552  0.325941  0.926148  1
  Al  Al23  1  0.838068  0.675993  0.075940  1
  Al  Al24  1  0.665016  0.334984  0.982131  1
  Al  Al25  1  0.332658  0.667342  0.021780  1
  Al  Al26  1  0.332658  0.667342  0.478220  1
  Al  Al27  1  0.665016  0.334984  0.517869  1
  Al  Al28  1  0.003065  0.996935  0.750000  1
  Al  Al29  1  0.999907  0.000093  0.250000  1
  Co  Co30  1  0.498852  0.501148  0.001310  1
  Co  Co31  1  0.999495  0.500232  0.999801  1
  Co  Co32  1  0.498852  0.501148  0.498690  1
  Co  Co33  1  0.499768  0.000505  0.999801  1
  Co  Co34  1  0.999495  0.500232  0.500199  1
  Co  Co35  1  0.499768  0.000505  0.500199  1
  Co  Co36  1  0.000090  0.999910  0.000030  1
  Co  Co37  1  0.000090  0.999910  0.499970  1
