# generated using pymatgen
data_Ca20Cd3Ni8Hg
_symmetry_space_group_name_H-M   'P 1'
_cell_length_a   7.65799900
_cell_length_b   7.65799900
_cell_length_c   14.94427900
_cell_angle_alpha   90.00000000
_cell_angle_beta   90.00000000
_cell_angle_gamma   90.00000000
_symmetry_Int_Tables_number   1
_chemical_formula_structural   Ca20Cd3Ni8Hg
_chemical_formula_sum   'Ca20 Cd3 Ni8 Hg1'
_cell_volume   876.40647507
_cell_formula_units_Z   1
loop_
 _symmetry_equiv_pos_site_id
 _symmetry_equiv_pos_as_xyz
  1  'x, y, z'
loop_
 _atom_site_type_symbol
 _atom_site_label
 _atom_site_symmetry_multiplicity
 _atom_site_fract_x
 _atom_site_fract_y
 _atom_site_fract_z
 _atom_site_occupancy
  Ca  Ca0  1  0.673972  0.167460  0.114731  1
  Ca  Ca1  1  0.171091  0.670178  0.618915  1
  Ca  Ca2  1  0.326028  0.832540  0.114731  1
  Ca  Ca3  1  0.828909  0.329822  0.618915  1
  Ca  Ca4  1  0.832540  0.673972  0.114731  1
  Ca  Ca5  1  0.329822  0.171091  0.618915  1
  Ca  Ca6  1  0.167460  0.326028  0.114731  1
  Ca  Ca7  1  0.670178  0.828909  0.618915  1
  Ca  Ca8  1  0.832540  0.326028  0.885269  1
  Ca  Ca9  1  0.329822  0.828909  0.381085  1
  Ca  Ca10  1  0.167460  0.673972  0.885269  1
  Ca  Ca11  1  0.670178  0.171091  0.381085  1
  Ca  Ca12  1  0.673972  0.832540  0.885269  1
  Ca  Ca13  1  0.171091  0.329822  0.381085  1
  Ca  Ca14  1  0.326028  0.167460  0.885269  1
  Ca  Ca15  1  0.828909  0.670178  0.381085  1
  Ca  Ca16  1  0.500000  0.500000  0.754618  1
  Ca  Ca17  1  0.000000  0.000000  0.249112  1
  Ca  Ca18  1  0.000000  0.000000  0.750888  1
  Ca  Ca19  1  0.500000  0.500000  0.245382  1
  Cd  Cd20  1  0.500000  0.500000  0.500000  1
  Cd  Cd21  1  0.500000  0.500000  0.000000  1
  Cd  Cd22  1  0.000000  0.000000  0.500000  1
  Ni  Ni23  1  0.609956  0.110102  0.751891  1
  Ni  Ni24  1  0.110102  0.609956  0.248109  1
  Ni  Ni25  1  0.889898  0.390044  0.248109  1
  Ni  Ni26  1  0.390044  0.889898  0.751891  1
  Ni  Ni27  1  0.889898  0.609956  0.751891  1
  Ni  Ni28  1  0.390044  0.110102  0.248109  1
  Ni  Ni29  1  0.110102  0.390044  0.751891  1
  Ni  Ni30  1  0.609956  0.889898  0.248109  1
  Hg  Hg31  1  0.000000  0.000000  0.000000  1
