# generated using pymatgen
data_Tb3Dy3Tm10Cd4Pd3Pt
_symmetry_space_group_name_H-M   'P 1'
_cell_length_a   9.61048909
_cell_length_b   9.60982476
_cell_length_c   9.61265900
_cell_angle_alpha   59.99466694
_cell_angle_beta   60.01860970
_cell_angle_gamma   60.01706014
_symmetry_Int_Tables_number   1
_chemical_formula_structural   Tb3Dy3Tm10Cd4Pd3Pt
_chemical_formula_sum   'Tb3 Dy3 Tm10 Cd4 Pd3 Pt1'
_cell_volume   627.89785907
_cell_formula_units_Z   1
loop_
 _symmetry_equiv_pos_site_id
 _symmetry_equiv_pos_as_xyz
  1  'x, y, z'
loop_
 _atom_site_type_symbol
 _atom_site_label
 _atom_site_symmetry_multiplicity
 _atom_site_fract_x
 _atom_site_fract_y
 _atom_site_fract_z
 _atom_site_occupancy
  Tb  Tb0  1  0.935282  0.565054  0.564827  1
  Tb  Tb1  1  0.564943  0.935380  0.935716  1
  Tb  Tb2  1  0.566112  0.934437  0.564994  1
  Dy  Dy3  1  0.936489  0.563557  0.936411  1
  Dy  Dy4  1  0.564392  0.563212  0.936365  1
  Dy  Dy5  1  0.935934  0.935486  0.564263  1
  Tm  Tm6  1  0.354464  0.349874  0.352081  1
  Tm  Tm7  1  0.356908  0.352498  0.938056  1
  Tm  Tm8  1  0.354479  0.943544  0.352122  1
  Tm  Tm9  1  0.937102  0.353524  0.355851  1
  Tm  Tm10  1  0.810152  0.189442  0.188348  1
  Tm  Tm11  1  0.188412  0.810651  0.811463  1
  Tm  Tm12  1  0.189682  0.810372  0.189546  1
  Tm  Tm13  1  0.810298  0.188440  0.812882  1
  Tm  Tm14  1  0.188408  0.189579  0.811390  1
  Tm  Tm15  1  0.809988  0.812060  0.188429  1
  Cd  Cd16  1  0.580878  0.581764  0.581301  1
  Cd  Cd17  1  0.580981  0.581714  0.255301  1
  Cd  Cd18  1  0.581259  0.256055  0.580924  1
  Cd  Cd19  1  0.255387  0.581887  0.581078  1
  Pd  Pd20  1  0.143214  0.145571  0.143883  1
  Pd  Pd21  1  0.142244  0.144124  0.569078  1
  Pd  Pd22  1  0.143499  0.567378  0.143528  1
  Pt  Pt23  1  0.569493  0.144400  0.142168  1
