# generated using pymatgen
data_Sr3Yb(Si5Pt3)2
_symmetry_space_group_name_H-M   'P 1'
_cell_length_a   8.37667749
_cell_length_b   8.38389933
_cell_length_c   8.38389903
_cell_angle_alpha   138.07795428
_cell_angle_beta   105.22524224
_cell_angle_gamma   89.63054098
_symmetry_Int_Tables_number   1
_chemical_formula_structural   Sr3Yb(Si5Pt3)2
_chemical_formula_sum   'Sr3 Yb1 Si10 Pt6'
_cell_volume   362.90726268
_cell_formula_units_Z   1
loop_
 _symmetry_equiv_pos_site_id
 _symmetry_equiv_pos_as_xyz
  1  'x, y, z'
loop_
 _atom_site_type_symbol
 _atom_site_label
 _atom_site_symmetry_multiplicity
 _atom_site_fract_x
 _atom_site_fract_y
 _atom_site_fract_z
 _atom_site_occupancy
  Sr  Sr0  1  0.135575  0.371204  0.764371  1
  Sr  Sr1  1  0.393643  0.129001  0.264642  1
  Sr  Sr2  1  0.606672  0.870744  0.735929  1
  Yb  Yb3  1  0.863684  0.629358  0.234326  1
  Si  Si4  1  0.502169  0.751247  0.251746  1
  Si  Si5  1  0.502169  0.250423  0.750922  1
  Si  Si6  1  0.228588  0.978941  0.748045  1
  Si  Si7  1  0.769718  0.518688  0.751975  1
  Si  Si8  1  0.769718  0.017742  0.251030  1
  Si  Si9  1  0.228588  0.480544  0.249647  1
  Si  Si10  1  0.031572  0.884787  0.146783  1
  Si  Si11  1  0.965020  0.113412  0.851607  1
  Si  Si12  1  0.741697  0.389632  0.352066  1
  Si  Si13  1  0.260710  0.613202  0.647509  1
  Pt  Pt14  1  0.999652  0.750868  0.748221  1
  Pt  Pt15  1  0.999652  0.251431  0.248784  1
  Pt  Pt16  1  0.249406  0.862762  0.386645  1
  Pt  Pt17  1  0.749839  0.135060  0.614778  1
  Pt  Pt18  1  0.478511  0.366036  0.112474  1
  Pt  Pt19  1  0.523417  0.634918  0.888498  1
