# generated using pymatgen
data_Ac5GaBi2
_symmetry_space_group_name_H-M   'P 1'
_cell_length_a   8.96815400
_cell_length_b   10.14968400
_cell_length_c   13.25461600
_cell_angle_alpha   90.00000000
_cell_angle_beta   90.00000000
_cell_angle_gamma   90.00000000
_symmetry_Int_Tables_number   1
_chemical_formula_structural   Ac5GaBi2
_chemical_formula_sum   'Ac20 Ga4 Bi8'
_cell_volume   1206.48722787
_cell_formula_units_Z   4
loop_
 _symmetry_equiv_pos_site_id
 _symmetry_equiv_pos_as_xyz
  1  'x, y, z'
loop_
 _atom_site_type_symbol
 _atom_site_label
 _atom_site_symmetry_multiplicity
 _atom_site_fract_x
 _atom_site_fract_y
 _atom_site_fract_z
 _atom_site_occupancy
  Ac  Ac0  1  0.167982  0.750000  0.216248  1
  Ac  Ac1  1  0.332018  0.750000  0.716248  1
  Ac  Ac2  1  0.832018  0.250000  0.783752  1
  Ac  Ac3  1  0.667982  0.250000  0.283752  1
  Ac  Ac4  1  0.469475  0.750000  0.002039  1
  Ac  Ac5  1  0.030525  0.750000  0.502039  1
  Ac  Ac6  1  0.530525  0.250000  0.997961  1
  Ac  Ac7  1  0.969475  0.250000  0.497961  1
  Ac  Ac8  1  0.644323  0.750000  0.293040  1
  Ac  Ac9  1  0.855677  0.750000  0.793040  1
  Ac  Ac10  1  0.355677  0.250000  0.706960  1
  Ac  Ac11  1  0.144323  0.250000  0.206960  1
  Ac  Ac12  1  0.815532  0.545550  0.062270  1
  Ac  Ac13  1  0.684468  0.954450  0.562270  1
  Ac  Ac14  1  0.184468  0.045550  0.937730  1
  Ac  Ac15  1  0.315532  0.454450  0.437730  1
  Ac  Ac16  1  0.184468  0.454450  0.937730  1
  Ac  Ac17  1  0.315532  0.045550  0.437730  1
  Ac  Ac18  1  0.815532  0.954450  0.062270  1
  Ac  Ac19  1  0.684468  0.545550  0.562270  1
  Ga  Ga20  1  0.412969  0.750000  0.476840  1
  Ga  Ga21  1  0.087031  0.750000  0.976840  1
  Ga  Ga22  1  0.587031  0.250000  0.523160  1
  Ga  Ga23  1  0.912969  0.250000  0.023160  1
  Bi  Bi24  1  0.931553  0.508031  0.325099  1
  Bi  Bi25  1  0.568447  0.991969  0.825099  1
  Bi  Bi26  1  0.068447  0.008031  0.674901  1
  Bi  Bi27  1  0.431553  0.491969  0.174901  1
  Bi  Bi28  1  0.068447  0.491969  0.674901  1
  Bi  Bi29  1  0.431553  0.008031  0.174901  1
  Bi  Bi30  1  0.931553  0.991969  0.325099  1
  Bi  Bi31  1  0.568447  0.508031  0.825099  1
