# generated using pymatgen
data_NdSm2Bi(Mo2O7)2
_symmetry_space_group_name_H-M   'P 1'
_cell_length_a   7.52699741
_cell_length_b   7.46107400
_cell_length_c   7.47351667
_cell_angle_alpha   119.40232359
_cell_angle_beta   120.31592721
_cell_angle_gamma   90.12711730
_symmetry_Int_Tables_number   1
_chemical_formula_structural   NdSm2Bi(Mo2O7)2
_chemical_formula_sum   'Nd1 Sm2 Bi1 Mo4 O14'
_cell_volume   297.69281812
_cell_formula_units_Z   1
loop_
 _symmetry_equiv_pos_site_id
 _symmetry_equiv_pos_as_xyz
  1  'x, y, z'
loop_
 _atom_site_type_symbol
 _atom_site_label
 _atom_site_symmetry_multiplicity
 _atom_site_fract_x
 _atom_site_fract_y
 _atom_site_fract_z
 _atom_site_occupancy
  Nd  Nd0  1  0.375000  0.625000  0.250000  1
  Sm  Sm1  1  0.875000  0.625000  0.250000  1
  Sm  Sm2  1  0.375000  0.125000  0.750000  1
  Bi  Bi3  1  0.375000  0.625000  0.750000  1
  Mo  Mo4  1  0.875000  0.625000  0.750000  1
  Mo  Mo5  1  0.375000  0.125000  0.250000  1
  Mo  Mo6  1  0.875000  0.125000  0.250000  1
  Mo  Mo7  1  0.875000  0.125000  0.750000  1
  O  O8  1  0.780953  0.201879  0.995048  1
  O  O9  1  0.547237  0.462261  0.497896  1
  O  O10  1  0.209447  0.207710  0.999003  1
  O  O11  1  0.955744  0.457708  0.497053  1
  O  O12  1  0.798209  0.795184  0.579332  1
  O  O13  1  0.536490  0.033501  0.081988  1
  O  O14  1  0.246816  0.753457  0.498287  1
  O  O15  1  0.951791  0.454816  0.920668  1
  O  O16  1  0.969047  0.048121  0.504952  1
  O  O17  1  0.540553  0.042290  0.500997  1
  O  O18  1  0.213510  0.216499  0.418012  1
  O  O19  1  0.503184  0.496543  0.001713  1
  O  O20  1  0.794256  0.792292  0.002947  1
  O  O21  1  0.202763  0.787739  0.002104  1
