# generated using pymatgen
data_La4Nd(GeC)2
_symmetry_space_group_name_H-M   'P 1'
_cell_length_a   8.28699100
_cell_length_b   12.98009900
_cell_length_c   4.27533100
_cell_angle_alpha   90.00000000
_cell_angle_beta   90.00000000
_cell_angle_gamma   90.00000000
_symmetry_Int_Tables_number   1
_chemical_formula_structural   La4Nd(GeC)2
_chemical_formula_sum   'La8 Nd2 Ge4 C4'
_cell_volume   459.88009869
_cell_formula_units_Z   2
loop_
 _symmetry_equiv_pos_site_id
 _symmetry_equiv_pos_as_xyz
  1  'x, y, z'
loop_
 _atom_site_type_symbol
 _atom_site_label
 _atom_site_symmetry_multiplicity
 _atom_site_fract_x
 _atom_site_fract_y
 _atom_site_fract_z
 _atom_site_occupancy
  La  La0  1  0.174418  0.211687  0.000000  1
  La  La1  1  0.674419  0.288313  0.000000  1
  La  La2  1  0.325582  0.711687  0.000000  1
  La  La3  1  0.825582  0.788313  0.000000  1
  La  La4  1  0.831686  0.060271  0.499998  1
  La  La5  1  0.331686  0.439729  0.499998  1
  La  La6  1  0.668315  0.560271  0.499998  1
  La  La7  1  0.168315  0.939729  0.499998  1
  Nd  Nd8  1  0.500000  0.000000  0.000000  1
  Nd  Nd9  1  0.000000  0.500000  0.000000  1
  Ge  Ge10  1  0.453556  0.167773  0.499998  1
  Ge  Ge11  1  0.953556  0.332227  0.499998  1
  Ge  Ge12  1  0.046443  0.667773  0.499998  1
  Ge  Ge13  1  0.546445  0.832227  0.499998  1
  C  C14  1  0.039442  0.046712  0.000000  1
  C  C15  1  0.539441  0.453288  0.000000  1
  C  C16  1  0.460558  0.546712  0.000000  1
  C  C17  1  0.960559  0.953288  0.000000  1
