# generated using pymatgen
data_Er6B14OsW
_symmetry_space_group_name_H-M   'P 1'
_cell_length_a   8.04591000
_cell_length_b   8.04590973
_cell_length_c   9.34189100
_cell_angle_alpha   90.00000000
_cell_angle_beta   90.00000000
_cell_angle_gamma   155.05539520
_symmetry_Int_Tables_number   1
_chemical_formula_structural   Er6B14OsW
_chemical_formula_sum   'Er6 B14 Os1 W1'
_cell_volume   255.05379480
_cell_formula_units_Z   1
loop_
 _symmetry_equiv_pos_site_id
 _symmetry_equiv_pos_as_xyz
  1  'x, y, z'
loop_
 _atom_site_type_symbol
 _atom_site_label
 _atom_site_symmetry_multiplicity
 _atom_site_fract_x
 _atom_site_fract_y
 _atom_site_fract_z
 _atom_site_occupancy
  Er  Er0  1  0.893783  0.106217  0.437973  1
  Er  Er1  1  0.107300  0.892700  0.558395  1
  Er  Er2  1  0.893783  0.106217  0.062027  1
  Er  Er3  1  0.107300  0.892700  0.941605  1
  Er  Er4  1  0.243779  0.756221  0.250000  1
  Er  Er5  1  0.754725  0.245275  0.750000  1
  B  B6  1  0.726716  0.273284  0.464734  1
  B  B7  1  0.271600  0.728400  0.532125  1
  B  B8  1  0.726716  0.273284  0.035266  1
  B  B9  1  0.271600  0.728400  0.967875  1
  B  B10  1  0.632048  0.367952  0.150753  1
  B  B11  1  0.365072  0.634928  0.853020  1
  B  B12  1  0.632048  0.367952  0.349247  1
  B  B13  1  0.365072  0.634928  0.646980  1
  B  B14  1  0.520668  0.479332  0.096050  1
  B  B15  1  0.480901  0.519099  0.909623  1
  B  B16  1  0.520668  0.479332  0.403950  1
  B  B17  1  0.480901  0.519099  0.590377  1
  B  B18  1  0.456380  0.543620  0.250000  1
  B  B19  1  0.547226  0.452774  0.750000  1
  Os  Os20  1  0.053918  0.946082  0.250000  1
  W  W21  1  0.947799  0.052201  0.750000  1
