# generated using pymatgen
data_La2Nd2SiOs3I2
_symmetry_space_group_name_H-M   'P 1'
_cell_length_a   4.28090200
_cell_length_b   4.28090260
_cell_length_c   17.83326600
_cell_angle_alpha   90.00000000
_cell_angle_beta   90.00000000
_cell_angle_gamma   120.00001081
_symmetry_Int_Tables_number   1
_chemical_formula_structural   La2Nd2SiOs3I2
_chemical_formula_sum   'La2 Nd2 Si1 Os3 I2'
_cell_volume   283.02976108
_cell_formula_units_Z   1
loop_
 _symmetry_equiv_pos_site_id
 _symmetry_equiv_pos_as_xyz
  1  'x, y, z'
loop_
 _atom_site_type_symbol
 _atom_site_label
 _atom_site_symmetry_multiplicity
 _atom_site_fract_x
 _atom_site_fract_y
 _atom_site_fract_z
 _atom_site_occupancy
  La  La0  1  0.000000  0.000000  0.606722  1
  La  La1  1  0.000000  0.000000  0.396464  1
  Nd  Nd2  1  0.000000  0.000000  0.108752  1
  Nd  Nd3  1  0.000000  0.000000  0.889921  1
  Si  Si4  1  0.333333  0.666667  0.501931  1
  Os  Os5  1  0.666667  0.333333  0.498981  1
  Os  Os6  1  0.666667  0.333333  0.009140  1
  Os  Os7  1  0.333333  0.666667  0.989776  1
  I  I8  1  0.333333  0.666667  0.249360  1
  I  I9  1  0.666667  0.333333  0.748952  1
