# generated using pymatgen
data_Y4Ga18(RuPt)3
_symmetry_space_group_name_H-M   'P 1'
_cell_length_a   7.59735498
_cell_length_b   7.59735419
_cell_length_c   9.53728902
_cell_angle_alpha   89.96145612
_cell_angle_beta   89.96145293
_cell_angle_gamma   119.46419916
_symmetry_Int_Tables_number   1
_chemical_formula_structural   Y4Ga18(RuPt)3
_chemical_formula_sum   'Y4 Ga18 Ru3 Pt3'
_cell_volume   479.29129841
_cell_formula_units_Z   1
loop_
 _symmetry_equiv_pos_site_id
 _symmetry_equiv_pos_as_xyz
  1  'x, y, z'
loop_
 _atom_site_type_symbol
 _atom_site_label
 _atom_site_symmetry_multiplicity
 _atom_site_fract_x
 _atom_site_fract_y
 _atom_site_fract_z
 _atom_site_occupancy
  Y  Y0  1  0.999565  0.670797  0.251167  1
  Y  Y1  1  0.002468  0.331209  0.748721  1
  Y  Y2  1  0.668791  0.997532  0.251279  1
  Y  Y3  1  0.329203  0.000435  0.748833  1
  Ga  Ga4  1  0.122232  0.123728  0.250157  1
  Ga  Ga5  1  0.876272  0.877768  0.749843  1
  Ga  Ga6  1  0.999784  0.330235  0.081757  1
  Ga  Ga7  1  0.999230  0.670353  0.917217  1
  Ga  Ga8  1  0.993224  0.664252  0.580577  1
  Ga  Ga9  1  0.335748  0.006776  0.419423  1
  Ga  Ga10  1  0.996855  0.331923  0.418828  1
  Ga  Ga11  1  0.668077  0.003145  0.581172  1
  Ga  Ga12  1  0.669765  0.000216  0.918243  1
  Ga  Ga13  1  0.329647  0.000770  0.082783  1
  Ga  Ga14  1  0.330489  0.324270  0.563005  1
  Ga  Ga15  1  0.675730  0.669511  0.436995  1
  Ga  Ga16  1  0.673725  0.673865  0.066945  1
  Ga  Ga17  1  0.326135  0.326275  0.933055  1
  Ga  Ga18  1  0.342132  0.543485  0.250526  1
  Ga  Ga19  1  0.656852  0.450225  0.745959  1
  Ga  Ga20  1  0.549775  0.343148  0.254041  1
  Ga  Ga21  1  0.456515  0.657868  0.749474  1
  Ru  Ru22  1  0.672035  0.327965  0.500000  1
  Ru  Ru23  1  0.999742  0.000258  0.000000  1
  Ru  Ru24  1  0.999054  0.000946  0.500000  1
  Pt  Pt25  1  0.670836  0.329164  0.000000  1
  Pt  Pt26  1  0.328516  0.671484  0.000000  1
  Pt  Pt27  1  0.327602  0.672398  0.500000  1
