# generated using pymatgen
data_YHo3(InRh2)4
_symmetry_space_group_name_H-M   'P 1'
_cell_length_a   6.35879600
_cell_length_b   6.35874400
_cell_length_c   7.22695700
_cell_angle_alpha   90.00019062
_cell_angle_beta   89.99955149
_cell_angle_gamma   89.99767529
_symmetry_Int_Tables_number   1
_chemical_formula_structural   YHo3(InRh2)4
_chemical_formula_sum   'Y1 Ho3 In4 Rh8'
_cell_volume   292.21446073
_cell_formula_units_Z   1
loop_
 _symmetry_equiv_pos_site_id
 _symmetry_equiv_pos_as_xyz
  1  'x, y, z'
loop_
 _atom_site_type_symbol
 _atom_site_label
 _atom_site_symmetry_multiplicity
 _atom_site_fract_x
 _atom_site_fract_y
 _atom_site_fract_z
 _atom_site_occupancy
  Y  Y0  1  0.249958  0.750016  0.500007  1
  Ho  Ho1  1  0.749953  0.249994  0.000011  1
  Ho  Ho2  1  0.250047  0.749997  0.000005  1
  Ho  Ho3  1  0.750041  0.249999  0.499977  1
  In  In4  1  0.249978  0.249997  0.999998  1
  In  In5  1  0.750023  0.750000  0.999999  1
  In  In6  1  0.250029  0.250000  0.499993  1
  In  In7  1  0.749974  0.750002  0.500010  1
  Rh  Rh8  1  0.999468  0.000527  0.249279  1
  Rh  Rh9  1  0.999465  0.499480  0.249276  1
  Rh  Rh10  1  0.500515  0.000531  0.249328  1
  Rh  Rh11  1  0.500507  0.499475  0.249338  1
  Rh  Rh12  1  0.500549  0.000528  0.750674  1
  Rh  Rh13  1  0.500547  0.499469  0.750668  1
  Rh  Rh14  1  0.999473  0.000527  0.750717  1
  Rh  Rh15  1  0.999473  0.499458  0.750722  1
