# generated using pymatgen
data_Ca3HoSc6(Si5Ir2)4
_symmetry_space_group_name_H-M   'P 1'
_cell_length_a   12.53334578
_cell_length_b   12.53334543
_cell_length_c   4.16088700
_cell_angle_alpha   90.00000000
_cell_angle_beta   90.00000000
_cell_angle_gamma   90.06297665
_symmetry_Int_Tables_number   1
_chemical_formula_structural   Ca3HoSc6(Si5Ir2)4
_chemical_formula_sum   'Ca3 Ho1 Sc6 Si20 Ir8'
_cell_volume   653.61150804
_cell_formula_units_Z   1
loop_
 _symmetry_equiv_pos_site_id
 _symmetry_equiv_pos_as_xyz
  1  'x, y, z'
loop_
 _atom_site_type_symbol
 _atom_site_label
 _atom_site_symmetry_multiplicity
 _atom_site_fract_x
 _atom_site_fract_y
 _atom_site_fract_z
 _atom_site_occupancy
  Ca  Ca0  1  0.116006  0.615680  0.500000  1
  Ca  Ca1  1  0.884320  0.383994  0.500000  1
  Ca  Ca2  1  0.614761  0.885239  0.500000  1
  Ho  Ho3  1  0.383883  0.116117  0.500000  1
  Sc  Sc4  1  0.673305  0.172506  0.500000  1
  Sc  Sc5  1  0.327494  0.826695  0.500000  1
  Sc  Sc6  1  0.174289  0.325711  0.500000  1
  Sc  Sc7  1  0.827161  0.672839  0.500000  1
  Sc  Sc8  1  0.000386  0.999930  0.000000  1
  Sc  Sc9  1  0.500070  0.499614  0.000000  1
  Si  Si10  1  0.567706  0.068080  0.000000  1
  Si  Si11  1  0.431920  0.932294  0.000000  1
  Si  Si12  1  0.068775  0.431225  0.000000  1
  Si  Si13  1  0.931585  0.568415  0.000000  1
  Si  Si14  1  0.200814  0.165300  0.000000  1
  Si  Si15  1  0.799126  0.835178  0.000000  1
  Si  Si16  1  0.165524  0.800416  0.000000  1
  Si  Si17  1  0.699584  0.334476  0.000000  1
  Si  Si18  1  0.834668  0.200742  0.000000  1
  Si  Si19  1  0.299258  0.665332  0.000000  1
  Si  Si20  1  0.664822  0.700874  0.000000  1
  Si  Si21  1  0.334700  0.299186  0.000000  1
  Si  Si22  1  0.008181  0.149309  0.500000  1
  Si  Si23  1  0.992014  0.850447  0.500000  1
  Si  Si24  1  0.151018  0.991481  0.500000  1
  Si  Si25  1  0.508519  0.348982  0.500000  1
  Si  Si26  1  0.849880  0.009768  0.500000  1
  Si  Si27  1  0.490232  0.650120  0.500000  1
  Si  Si28  1  0.649553  0.507986  0.500000  1
  Si  Si29  1  0.350691  0.491819  0.500000  1
  Ir  Ir30  1  0.022464  0.242261  0.000000  1
  Ir  Ir31  1  0.977786  0.757707  0.000000  1
  Ir  Ir32  1  0.244451  0.980083  0.000000  1
  Ir  Ir33  1  0.519917  0.255549  0.000000  1
  Ir  Ir34  1  0.756985  0.021881  0.000000  1
  Ir  Ir35  1  0.478119  0.743015  0.000000  1
  Ir  Ir36  1  0.742293  0.522214  0.000000  1
  Ir  Ir37  1  0.257739  0.477536  0.000000  1
