# generated using pymatgen
data_Sr2CdSi3
_symmetry_space_group_name_H-M   'P 1'
_cell_length_a   12.03473127
_cell_length_b   10.33798417
_cell_length_c   8.60662061
_cell_angle_alpha   78.29111608
_cell_angle_beta   57.26044404
_cell_angle_gamma   44.44844539
_symmetry_Int_Tables_number   1
_chemical_formula_structural   Sr2CdSi3
_chemical_formula_sum   'Sr8 Cd4 Si12'
_cell_volume   599.45637238
_cell_formula_units_Z   4
loop_
 _symmetry_equiv_pos_site_id
 _symmetry_equiv_pos_as_xyz
  1  'x, y, z'
loop_
 _atom_site_type_symbol
 _atom_site_label
 _atom_site_symmetry_multiplicity
 _atom_site_fract_x
 _atom_site_fract_y
 _atom_site_fract_z
 _atom_site_occupancy
  Sr  Sr0  1  0.123874  0.123874  0.876126  1
  Sr  Sr1  1  0.876127  0.876127  0.123873  1
  Sr  Sr2  1  0.126127  0.126127  0.373873  1
  Sr  Sr3  1  0.373874  0.373874  0.126126  1
  Sr  Sr4  1  0.622567  0.622568  0.377433  1
  Sr  Sr5  1  0.377433  0.377433  0.622567  1
  Sr  Sr6  1  0.627433  0.627433  0.872567  1
  Sr  Sr7  1  0.872568  0.872568  0.627432  1
  Cd  Cd8  1  0.082213  0.417787  0.082213  1
  Cd  Cd9  1  0.832213  0.167787  0.832213  1
  Cd  Cd10  1  0.167787  0.832213  0.167787  1
  Cd  Cd11  1  0.417787  0.082213  0.417787  1
  Si  Si12  1  0.913792  0.594330  0.427562  1
  Si  Si13  1  0.064316  0.427562  0.594330  1
  Si  Si14  1  0.427562  0.064316  0.913792  1
  Si  Si15  1  0.594330  0.913792  0.064316  1
  Si  Si16  1  0.336208  0.655670  0.822438  1
  Si  Si17  1  0.655670  0.336208  0.185684  1
  Si  Si18  1  0.822438  0.185684  0.336208  1
  Si  Si19  1  0.185684  0.822438  0.655670  1
  Si  Si20  1  0.910660  0.589341  0.910659  1
  Si  Si21  1  0.589341  0.910660  0.589340  1
  Si  Si22  1  0.339341  0.660660  0.339341  1
  Si  Si23  1  0.660659  0.339341  0.660659  1
