# generated using pymatgen
data_YHo5(Si3Os2)2
_symmetry_space_group_name_H-M   'P 1'
_cell_length_a   5.74130490
_cell_length_b   5.74130406
_cell_length_c   13.67724100
_cell_angle_alpha   90.00000000
_cell_angle_beta   90.00000000
_cell_angle_gamma   137.22534935
_symmetry_Int_Tables_number   1
_chemical_formula_structural   YHo5(Si3Os2)2
_chemical_formula_sum   'Y1 Ho5 Si6 Os4'
_cell_volume   306.17097238
_cell_formula_units_Z   1
loop_
 _symmetry_equiv_pos_site_id
 _symmetry_equiv_pos_as_xyz
  1  'x, y, z'
loop_
 _atom_site_type_symbol
 _atom_site_label
 _atom_site_symmetry_multiplicity
 _atom_site_fract_x
 _atom_site_fract_y
 _atom_site_fract_z
 _atom_site_occupancy
  Y  Y0  1  0.640608  0.359392  0.250000  1
  Ho  Ho1  1  0.358919  0.641081  0.750000  1
  Ho  Ho2  1  0.924243  0.075757  0.115477  1
  Ho  Ho3  1  0.075710  0.924290  0.884364  1
  Ho  Ho4  1  0.075710  0.924290  0.615636  1
  Ho  Ho5  1  0.924243  0.075757  0.384523  1
  Si  Si6  1  0.325948  0.674052  0.250000  1
  Si  Si7  1  0.674307  0.325693  0.750000  1
  Si  Si8  1  0.616630  0.383370  0.037588  1
  Si  Si9  1  0.383362  0.616638  0.962206  1
  Si  Si10  1  0.383362  0.616638  0.537794  1
  Si  Si11  1  0.616630  0.383370  0.462412  1
  Os  Os12  1  0.786783  0.213217  0.582145  1
  Os  Os13  1  0.213382  0.786618  0.418199  1
  Os  Os14  1  0.213382  0.786618  0.081801  1
  Os  Os15  1  0.786783  0.213217  0.917855  1
