# generated using pymatgen
data_Hf3Sc(BiRh5)2
_symmetry_space_group_name_H-M   'P 1'
_cell_length_a   4.15428100
_cell_length_b   5.71580256
_cell_length_c   11.22468710
_cell_angle_alpha   89.94928470
_cell_angle_beta   90.00000000
_cell_angle_gamma   90.00000000
_symmetry_Int_Tables_number   1
_chemical_formula_structural   Hf3Sc(BiRh5)2
_chemical_formula_sum   'Hf3 Sc1 Bi2 Rh10'
_cell_volume   266.53065170
_cell_formula_units_Z   1
loop_
 _symmetry_equiv_pos_site_id
 _symmetry_equiv_pos_as_xyz
  1  'x, y, z'
loop_
 _atom_site_type_symbol
 _atom_site_label
 _atom_site_symmetry_multiplicity
 _atom_site_fract_x
 _atom_site_fract_y
 _atom_site_fract_z
 _atom_site_occupancy
  Hf  Hf0  1  0.500000  0.825208  0.357529  1
  Hf  Hf1  1  0.500000  0.676898  0.853329  1
  Hf  Hf2  1  0.500000  0.325670  0.143610  1
  Sc  Sc3  1  0.500000  0.176998  0.643937  1
  Bi  Bi4  1  0.000000  0.493444  0.502427  1
  Bi  Bi5  1  0.000000  0.999571  0.999362  1
  Rh  Rh6  1  0.500000  0.209358  0.884924  1
  Rh  Rh7  1  0.500000  0.792097  0.117177  1
  Rh  Rh8  1  0.500000  0.709323  0.616192  1
  Rh  Rh9  1  0.500000  0.293216  0.380815  1
  Rh  Rh10  1  0.000000  0.441206  0.751128  1
  Rh  Rh11  1  0.000000  0.561713  0.251058  1
  Rh  Rh12  1  0.000000  0.995616  0.498224  1
  Rh  Rh13  1  0.000000  0.500345  0.000209  1
  Rh  Rh14  1  0.000000  0.061513  0.248559  1
  Rh  Rh15  1  0.000000  0.937824  0.751520  1
