# generated using pymatgen
data_Er2Tm6Tc3OsC8
_symmetry_space_group_name_H-M   'P 1'
_cell_length_a   5.03089800
_cell_length_b   6.48911326
_cell_length_c   9.74243634
_cell_angle_alpha   89.83731385
_cell_angle_beta   90.00000000
_cell_angle_gamma   90.00000000
_symmetry_Int_Tables_number   1
_chemical_formula_structural   Er2Tm6Tc3OsC8
_chemical_formula_sum   'Er2 Tm6 Tc3 Os1 C8'
_cell_volume   318.05094683
_cell_formula_units_Z   1
loop_
 _symmetry_equiv_pos_site_id
 _symmetry_equiv_pos_as_xyz
  1  'x, y, z'
loop_
 _atom_site_type_symbol
 _atom_site_label
 _atom_site_symmetry_multiplicity
 _atom_site_fract_x
 _atom_site_fract_y
 _atom_site_fract_z
 _atom_site_occupancy
  Er  Er0  1  0.250000  0.532398  0.216921  1
  Er  Er1  1  0.250000  0.031819  0.283285  1
  Tm  Tm2  1  0.250000  0.675756  0.557987  1
  Tm  Tm3  1  0.750000  0.323705  0.441716  1
  Tm  Tm4  1  0.750000  0.824650  0.058049  1
  Tm  Tm5  1  0.250000  0.175194  0.942295  1
  Tm  Tm6  1  0.750000  0.465389  0.782752  1
  Tm  Tm7  1  0.750000  0.967049  0.715098  1
  Tc  Tc8  1  0.250000  0.716635  0.867448  1
  Tc  Tc9  1  0.750000  0.283647  0.131293  1
  Tc  Tc10  1  0.750000  0.782932  0.368523  1
  Os  Os11  1  0.250000  0.216768  0.632693  1
  C  C12  1  0.250000  0.449647  0.758766  1
  C  C13  1  0.750000  0.550687  0.241431  1
  C  C14  1  0.750000  0.050645  0.259316  1
  C  C15  1  0.250000  0.950811  0.741332  1
  C  C16  1  0.250000  0.825412  0.051501  1
  C  C17  1  0.750000  0.175692  0.946640  1
  C  C18  1  0.750000  0.675199  0.554096  1
  C  C19  1  0.250000  0.325964  0.448856  1
