# generated using pymatgen
data_Ho3Tm5(Ge4Mo3)4
_symmetry_space_group_name_H-M   'P 1'
_cell_length_a   6.90408401
_cell_length_b   7.04209210
_cell_length_c   13.09826275
_cell_angle_alpha   90.02739917
_cell_angle_beta   89.99816591
_cell_angle_gamma   89.99707916
_symmetry_Int_Tables_number   1
_chemical_formula_structural   Ho3Tm5(Ge4Mo3)4
_chemical_formula_sum   'Ho3 Tm5 Ge16 Mo12'
_cell_volume   636.82692291
_cell_formula_units_Z   1
loop_
 _symmetry_equiv_pos_site_id
 _symmetry_equiv_pos_as_xyz
  1  'x, y, z'
loop_
 _atom_site_type_symbol
 _atom_site_label
 _atom_site_symmetry_multiplicity
 _atom_site_fract_x
 _atom_site_fract_y
 _atom_site_fract_z
 _atom_site_occupancy
  Ho  Ho0  1  0.009777  0.830196  0.592214  1
  Ho  Ho1  1  0.490300  0.330262  0.408019  1
  Ho  Ho2  1  0.990378  0.169857  0.091768  1
  Tm  Tm3  1  0.489775  0.329684  0.092208  1
  Tm  Tm4  1  0.989594  0.170317  0.407513  1
  Tm  Tm5  1  0.510317  0.670479  0.592321  1
  Tm  Tm6  1  0.010420  0.829462  0.907574  1
  Tm  Tm7  1  0.510299  0.670198  0.907991  1
  Ge  Ge8  1  0.669486  0.044712  0.547746  1
  Ge  Ge9  1  0.170606  0.455946  0.952150  1
  Ge  Ge10  1  0.330814  0.954763  0.047594  1
  Ge  Ge11  1  0.830640  0.544964  0.452160  1
  Ge  Ge12  1  0.329729  0.954780  0.452081  1
  Ge  Ge13  1  0.829409  0.545287  0.047637  1
  Ge  Ge14  1  0.670145  0.044291  0.952109  1
  Ge  Ge15  1  0.170324  0.454899  0.547882  1
  Ge  Ge16  1  0.529707  0.369032  0.750042  1
  Ge  Ge17  1  0.029830  0.131649  0.750397  1
  Ge  Ge18  1  0.470113  0.631829  0.249756  1
  Ge  Ge19  1  0.970017  0.868097  0.250156  1
  Ge  Ge20  1  0.808789  0.644539  0.750357  1
  Ge  Ge21  1  0.310019  0.854916  0.750380  1
  Ge  Ge22  1  0.190297  0.355771  0.249966  1
  Ge  Ge23  1  0.690189  0.144054  0.249789  1
  Mo  Mo24  1  0.829849  0.343283  0.626584  1
  Mo  Mo25  1  0.330044  0.156809  0.873599  1
  Mo  Mo26  1  0.170199  0.656827  0.126347  1
  Mo  Mo27  1  0.669997  0.843150  0.373426  1
  Mo  Mo28  1  0.170080  0.656725  0.373177  1
  Mo  Mo29  1  0.669970  0.842883  0.126550  1
  Mo  Mo30  1  0.829342  0.343564  0.873496  1
  Mo  Mo31  1  0.329844  0.156690  0.626937  1
  Mo  Mo32  1  0.665592  0.003803  0.750137  1
  Mo  Mo33  1  0.165741  0.496412  0.750169  1
  Mo  Mo34  1  0.334139  0.996094  0.249917  1
  Mo  Mo35  1  0.834228  0.503774  0.249853  1
