# generated using pymatgen
data_BaSc6Sn23Ir6
_symmetry_space_group_name_H-M   'P 1'
_cell_length_a   9.74806900
_cell_length_b   9.74806891
_cell_length_c   9.97389700
_cell_angle_alpha   90.00000000
_cell_angle_beta   90.00000000
_cell_angle_gamma   120.00000370
_symmetry_Int_Tables_number   1
_chemical_formula_structural   BaSc6Sn23Ir6
_chemical_formula_sum   'Ba1 Sc6 Sn23 Ir6'
_cell_volume   820.79117759
_cell_formula_units_Z   1
loop_
 _symmetry_equiv_pos_site_id
 _symmetry_equiv_pos_as_xyz
  1  'x, y, z'
loop_
 _atom_site_type_symbol
 _atom_site_label
 _atom_site_symmetry_multiplicity
 _atom_site_fract_x
 _atom_site_fract_y
 _atom_site_fract_z
 _atom_site_occupancy
  Ba  Ba0  1  0.000000  0.000000  0.000000  1
  Sc  Sc1  1  0.486800  0.513200  0.306555  1
  Sc  Sc2  1  0.513200  0.486800  0.693445  1
  Sc  Sc3  1  0.486800  0.973599  0.306555  1
  Sc  Sc4  1  0.513200  0.026401  0.693445  1
  Sc  Sc5  1  0.026401  0.513200  0.306555  1
  Sc  Sc6  1  0.973599  0.486800  0.693445  1
  Sn  Sn7  1  0.355047  0.000000  0.000000  1
  Sn  Sn8  1  0.644953  0.000000  0.000000  1
  Sn  Sn9  1  0.000000  0.355047  0.000000  1
  Sn  Sn10  1  0.000000  0.644953  0.000000  1
  Sn  Sn11  1  0.644953  0.644953  0.000000  1
  Sn  Sn12  1  0.355047  0.355047  0.000000  1
  Sn  Sn13  1  0.333333  0.666667  0.834612  1
  Sn  Sn14  1  0.666667  0.333333  0.165388  1
  Sn  Sn15  1  0.000000  0.000000  0.500000  1
  Sn  Sn16  1  0.774915  0.225085  0.462345  1
  Sn  Sn17  1  0.225085  0.774915  0.537655  1
  Sn  Sn18  1  0.774915  0.549831  0.462345  1
  Sn  Sn19  1  0.225085  0.450169  0.537655  1
  Sn  Sn20  1  0.450169  0.225085  0.462345  1
  Sn  Sn21  1  0.549831  0.774915  0.537655  1
  Sn  Sn22  1  0.333333  0.666667  0.140265  1
  Sn  Sn23  1  0.666667  0.333333  0.859735  1
  Sn  Sn24  1  0.123298  0.876702  0.288282  1
  Sn  Sn25  1  0.876702  0.123298  0.711718  1
  Sn  Sn26  1  0.123298  0.246599  0.288282  1
  Sn  Sn27  1  0.876702  0.753401  0.711718  1
  Sn  Sn28  1  0.753401  0.876702  0.288282  1
  Sn  Sn29  1  0.246599  0.123298  0.711718  1
  Ir  Ir30  1  0.826842  0.173158  0.205057  1
  Ir  Ir31  1  0.173158  0.826842  0.794943  1
  Ir  Ir32  1  0.826842  0.653682  0.205057  1
  Ir  Ir33  1  0.173158  0.346318  0.794943  1
  Ir  Ir34  1  0.346318  0.173158  0.205057  1
  Ir  Ir35  1  0.653682  0.826842  0.794943  1
