# generated using pymatgen
data_Tb6YbPtI12
_symmetry_space_group_name_H-M   'P 1'
_cell_length_a   9.81697051
_cell_length_b   9.81696969
_cell_length_c   9.81697156
_cell_angle_alpha   107.09181601
_cell_angle_beta   107.09181583
_cell_angle_gamma   107.09182143
_symmetry_Int_Tables_number   1
_chemical_formula_structural   Tb6YbPtI12
_chemical_formula_sum   'Tb6 Yb1 Pt1 I12'
_cell_volume   785.93101501
_cell_formula_units_Z   1
loop_
 _symmetry_equiv_pos_site_id
 _symmetry_equiv_pos_as_xyz
  1  'x, y, z'
loop_
 _atom_site_type_symbol
 _atom_site_label
 _atom_site_symmetry_multiplicity
 _atom_site_fract_x
 _atom_site_fract_y
 _atom_site_fract_z
 _atom_site_occupancy
  Tb  Tb0  1  0.099806  0.029024  0.304029  1
  Tb  Tb1  1  0.304029  0.099806  0.029024  1
  Tb  Tb2  1  0.029024  0.304029  0.099806  1
  Tb  Tb3  1  0.900194  0.970976  0.695971  1
  Tb  Tb4  1  0.695971  0.900194  0.970976  1
  Tb  Tb5  1  0.970976  0.695971  0.900194  1
  Yb  Yb6  1  0.500000  0.500000  0.500000  1
  Pt  Pt7  1  0.000000  0.000000  0.000000  1
  I  I8  1  0.073557  0.680079  0.224716  1
  I  I9  1  0.224716  0.073557  0.680079  1
  I  I10  1  0.680079  0.224716  0.073557  1
  I  I11  1  0.926443  0.319921  0.775284  1
  I  I12  1  0.775284  0.926443  0.319921  1
  I  I13  1  0.319921  0.775284  0.926443  1
  I  I14  1  0.462443  0.154400  0.384957  1
  I  I15  1  0.384957  0.462443  0.154400  1
  I  I16  1  0.154400  0.384957  0.462443  1
  I  I17  1  0.537557  0.845600  0.615043  1
  I  I18  1  0.615043  0.537557  0.845600  1
  I  I19  1  0.845600  0.615043  0.537557  1
