# generated using pymatgen
data_La4Al18Os2PtRh3
_symmetry_space_group_name_H-M   'P 1'
_cell_length_a   7.66606590
_cell_length_b   7.66606710
_cell_length_c   9.72398968
_cell_angle_alpha   90.04341913
_cell_angle_beta   90.04342055
_cell_angle_gamma   118.53805982
_symmetry_Int_Tables_number   1
_chemical_formula_structural   La4Al18Os2PtRh3
_chemical_formula_sum   'La4 Al18 Os2 Pt1 Rh3'
_cell_volume   502.03144545
_cell_formula_units_Z   1
loop_
 _symmetry_equiv_pos_site_id
 _symmetry_equiv_pos_as_xyz
  1  'x, y, z'
loop_
 _atom_site_type_symbol
 _atom_site_label
 _atom_site_symmetry_multiplicity
 _atom_site_fract_x
 _atom_site_fract_y
 _atom_site_fract_z
 _atom_site_occupancy
  La  La0  1  0.993482  0.678254  0.250156  1
  La  La1  1  0.006636  0.321509  0.749882  1
  La  La2  1  0.678491  0.993364  0.250118  1
  La  La3  1  0.321746  0.006518  0.749844  1
  Al  Al4  1  0.138017  0.137630  0.249776  1
  Al  Al5  1  0.862370  0.861983  0.750224  1
  Al  Al6  1  0.006697  0.337208  0.073571  1
  Al  Al7  1  0.998829  0.665505  0.926371  1
  Al  Al8  1  0.995463  0.662148  0.572829  1
  Al  Al9  1  0.337852  0.004537  0.427171  1
  Al  Al10  1  0.004799  0.337632  0.427090  1
  Al  Al11  1  0.662368  0.995201  0.572910  1
  Al  Al12  1  0.662792  0.993303  0.926429  1
  Al  Al13  1  0.334495  0.001171  0.073629  1
  Al  Al14  1  0.332811  0.332944  0.536964  1
  Al  Al15  1  0.667056  0.667189  0.463036  1
  Al  Al16  1  0.666801  0.670129  0.037489  1
  Al  Al17  1  0.329871  0.333199  0.962511  1
  Al  Al18  1  0.340991  0.548904  0.249763  1
  Al  Al19  1  0.659281  0.453001  0.747506  1
  Al  Al20  1  0.546999  0.340719  0.252494  1
  Al  Al21  1  0.451096  0.659009  0.750237  1
  Os  Os22  1  0.000201  0.999799  0.000000  1
  Os  Os23  1  0.000115  0.999885  0.500000  1
  Pt  Pt24  1  0.670624  0.329376  0.000000  1
  Rh  Rh25  1  0.329847  0.670153  0.000000  1
  Rh  Rh26  1  0.330116  0.669884  0.500000  1
  Rh  Rh27  1  0.670152  0.329848  0.500000  1
