# generated using pymatgen
data_CePrY2(AsPt)4
_symmetry_space_group_name_H-M   'P 1'
_cell_length_a   4.30400400
_cell_length_b   4.30400281
_cell_length_c   15.76790700
_cell_angle_alpha   90.00000000
_cell_angle_beta   90.00000000
_cell_angle_gamma   119.99999381
_symmetry_Int_Tables_number   1
_chemical_formula_structural   CePrY2(AsPt)4
_chemical_formula_sum   'Ce1 Pr1 Y2 As4 Pt4'
_cell_volume   252.95887469
_cell_formula_units_Z   1
loop_
 _symmetry_equiv_pos_site_id
 _symmetry_equiv_pos_as_xyz
  1  'x, y, z'
loop_
 _atom_site_type_symbol
 _atom_site_label
 _atom_site_symmetry_multiplicity
 _atom_site_fract_x
 _atom_site_fract_y
 _atom_site_fract_z
 _atom_site_occupancy
  Ce  Ce0  1  0.000000  0.000000  0.500000  1
  Pr  Pr1  1  0.000000  0.000000  0.000000  1
  Y  Y2  1  0.000000  0.000000  0.250166  1
  Y  Y3  1  0.000000  0.000000  0.749834  1
  As  As4  1  0.333333  0.666667  0.880316  1
  As  As5  1  0.666667  0.333333  0.386080  1
  As  As6  1  0.666667  0.333333  0.119684  1
  As  As7  1  0.333333  0.666667  0.613920  1
  Pt  Pt8  1  0.333333  0.666667  0.360872  1
  Pt  Pt9  1  0.666667  0.333333  0.855057  1
  Pt  Pt10  1  0.666667  0.333333  0.639128  1
  Pt  Pt11  1  0.333333  0.666667  0.144943  1
