# generated using pymatgen
data_YbEu2PdAu
_symmetry_space_group_name_H-M   'P 1'
_cell_length_a   7.96640482
_cell_length_b   7.96640496
_cell_length_c   7.96640500
_cell_angle_alpha   70.67888620
_cell_angle_beta   70.67889348
_cell_angle_gamma   70.67889637
_symmetry_Int_Tables_number   1
_chemical_formula_structural   YbEu2PdAu
_chemical_formula_sum   'Yb3 Eu6 Pd3 Au3'
_cell_volume   436.09614306
_cell_formula_units_Z   3
loop_
 _symmetry_equiv_pos_site_id
 _symmetry_equiv_pos_as_xyz
  1  'x, y, z'
loop_
 _atom_site_type_symbol
 _atom_site_label
 _atom_site_symmetry_multiplicity
 _atom_site_fract_x
 _atom_site_fract_y
 _atom_site_fract_z
 _atom_site_occupancy
  Yb  Yb0  1  0.997369  0.997369  0.997369  1
  Yb  Yb1  1  0.806762  0.806762  0.806762  1
  Yb  Yb2  1  0.198658  0.198658  0.198658  1
  Eu  Eu3  1  0.331480  0.604616  0.843568  1
  Eu  Eu4  1  0.843568  0.331480  0.604616  1
  Eu  Eu5  1  0.604616  0.843568  0.331480  1
  Eu  Eu6  1  0.665351  0.398238  0.154166  1
  Eu  Eu7  1  0.154166  0.665351  0.398238  1
  Eu  Eu8  1  0.398238  0.154166  0.665351  1
  Pd  Pd9  1  0.153624  0.959395  0.588726  1
  Pd  Pd10  1  0.588726  0.153624  0.959395  1
  Pd  Pd11  1  0.959395  0.588726  0.153624  1
  Au  Au12  1  0.847336  0.039622  0.411088  1
  Au  Au13  1  0.411088  0.847336  0.039622  1
  Au  Au14  1  0.039622  0.411088  0.847336  1
