# generated using pymatgen
data_NaLi2HoB28
_symmetry_space_group_name_H-M   'P 1'
_cell_length_a   7.27379483
_cell_length_b   7.27379250
_cell_length_c   7.27379353
_cell_angle_alpha   132.19184469
_cell_angle_beta   111.10691494
_cell_angle_gamma   88.18201454
_symmetry_Int_Tables_number   1
_chemical_formula_structural   NaLi2HoB28
_chemical_formula_sum   'Na1 Li2 Ho1 B28'
_cell_volume   253.41027693
_cell_formula_units_Z   1
loop_
 _symmetry_equiv_pos_site_id
 _symmetry_equiv_pos_as_xyz
  1  'x, y, z'
loop_
 _atom_site_type_symbol
 _atom_site_label
 _atom_site_symmetry_multiplicity
 _atom_site_fract_x
 _atom_site_fract_y
 _atom_site_fract_z
 _atom_site_occupancy
  Na  Na0  1  0.387683  0.750000  0.637683  1
  Li  Li1  1  0.006839  0.506318  0.013157  1
  Li  Li2  1  0.006839  0.993682  0.500521  1
  Ho  Ho3  1  0.616021  0.250000  0.366021  1
  B  B4  1  0.977719  0.349308  0.628412  1
  B  B5  1  0.627258  0.331102  0.795236  1
  B  B6  1  0.803051  0.833677  0.969373  1
  B  B7  1  0.635695  0.666323  0.969373  1
  B  B8  1  0.193738  0.165444  0.028295  1
  B  B9  1  0.778375  0.781412  0.678543  1
  B  B10  1  0.964134  0.667977  0.795236  1
  B  B11  1  0.983858  0.611442  0.372415  1
  B  B12  1  0.964134  0.168898  0.296157  1
  B  B13  1  0.033016  0.834404  0.711680  1
  B  B14  1  0.362852  0.334556  0.028295  1
  B  B15  1  0.075761  0.909717  0.166044  1
  B  B16  1  0.627258  0.832023  0.296157  1
  B  B17  1  0.397131  0.718588  0.996963  1
  B  B18  1  0.238447  0.412788  0.825658  1
  B  B19  1  0.218876  0.214448  0.319493  1
  B  B20  1  0.260972  0.888558  0.372415  1
  B  B21  1  0.912870  0.087212  0.825658  1
  B  B22  1  0.397131  0.400168  0.678543  1
  B  B23  1  0.218876  0.899383  0.004428  1
  B  B24  1  0.778375  0.099832  0.996963  1
  B  B25  1  0.605044  0.285552  0.004428  1
  B  B26  1  0.605044  0.600617  0.319493  1
  B  B27  1  0.033016  0.321336  0.198612  1
  B  B28  1  0.756327  0.590283  0.166044  1
  B  B29  1  0.779106  0.150692  0.628412  1
  B  B30  1  0.377277  0.178664  0.711680  1
  B  B31  1  0.377277  0.665596  0.198612  1
