# generated using pymatgen
data_Dy7Y(HoBi)12
_symmetry_space_group_name_H-M   'P 1'
_cell_length_a   8.25367030
_cell_length_b   9.49718300
_cell_length_c   12.06490043
_cell_angle_alpha   90.00000000
_cell_angle_beta   89.96931204
_cell_angle_gamma   90.00000000
_symmetry_Int_Tables_number   1
_chemical_formula_structural   Dy7Y(HoBi)12
_chemical_formula_sum   'Dy7 Y1 Ho12 Bi12'
_cell_volume   945.72659639
_cell_formula_units_Z   1
loop_
 _symmetry_equiv_pos_site_id
 _symmetry_equiv_pos_as_xyz
  1  'x, y, z'
loop_
 _atom_site_type_symbol
 _atom_site_label
 _atom_site_symmetry_multiplicity
 _atom_site_fract_x
 _atom_site_fract_y
 _atom_site_fract_z
 _atom_site_occupancy
  Dy  Dy0  1  0.186354  0.750000  0.718837  1
  Dy  Dy1  1  0.686461  0.750000  0.781232  1
  Dy  Dy2  1  0.813590  0.250000  0.281181  1
  Dy  Dy3  1  0.313567  0.250000  0.218759  1
  Dy  Dy4  1  0.354039  0.750000  0.215565  1
  Dy  Dy5  1  0.854049  0.750000  0.284397  1
  Dy  Dy6  1  0.645937  0.250000  0.784454  1
  Y  Y7  1  0.146026  0.250000  0.715357  1
  Ho  Ho8  1  0.025957  0.750000  0.988691  1
  Ho  Ho9  1  0.525959  0.750000  0.511297  1
  Ho  Ho10  1  0.974055  0.250000  0.011339  1
  Ho  Ho11  1  0.474069  0.250000  0.488704  1
  Ho  Ho12  1  0.306494  0.436196  0.940233  1
  Ho  Ho13  1  0.806314  0.063868  0.559897  1
  Ho  Ho14  1  0.693562  0.936177  0.059888  1
  Ho  Ho15  1  0.193592  0.563890  0.440064  1
  Ho  Ho16  1  0.693562  0.563823  0.059888  1
  Ho  Ho17  1  0.193592  0.936110  0.440064  1
  Ho  Ho18  1  0.306494  0.063804  0.940233  1
  Ho  Ho19  1  0.806314  0.436132  0.559897  1
  Bi  Bi20  1  0.433685  0.003797  0.673629  1
  Bi  Bi21  1  0.933522  0.496255  0.826350  1
  Bi  Bi22  1  0.566450  0.503870  0.326368  1
  Bi  Bi23  1  0.066404  0.996195  0.173699  1
  Bi  Bi24  1  0.566450  0.996130  0.326368  1
  Bi  Bi25  1  0.066404  0.503805  0.173699  1
  Bi  Bi26  1  0.433685  0.496203  0.673629  1
  Bi  Bi27  1  0.933522  0.003745  0.826350  1
  Bi  Bi28  1  0.409035  0.750000  0.957898  1
  Bi  Bi29  1  0.909035  0.750000  0.542121  1
  Bi  Bi30  1  0.590979  0.250000  0.042048  1
  Bi  Bi31  1  0.090841  0.250000  0.457868  1
