# generated using pymatgen
data_Pr7Dy13Sn9Bi7
_symmetry_space_group_name_H-M   'P 1'
_cell_length_a   8.27483781
_cell_length_b   8.27644711
_cell_length_c   15.64605100
_cell_angle_alpha   90.07997856
_cell_angle_beta   90.18431286
_cell_angle_gamma   89.93648294
_symmetry_Int_Tables_number   1
_chemical_formula_structural   Pr7Dy13Sn9Bi7
_chemical_formula_sum   'Pr7 Dy13 Sn9 Bi7'
_cell_volume   1071.53223635
_cell_formula_units_Z   1
loop_
 _symmetry_equiv_pos_site_id
 _symmetry_equiv_pos_as_xyz
  1  'x, y, z'
loop_
 _atom_site_type_symbol
 _atom_site_label
 _atom_site_symmetry_multiplicity
 _atom_site_fract_x
 _atom_site_fract_y
 _atom_site_fract_z
 _atom_site_occupancy
  Pr  Pr0  1  0.026085  0.177996  0.603868  1
  Pr  Pr1  1  0.474581  0.677792  0.397539  1
  Pr  Pr2  1  0.972609  0.819584  0.101521  1
  Pr  Pr3  1  0.479615  0.673033  0.100729  1
  Pr  Pr4  1  0.974669  0.822303  0.397680  1
  Pr  Pr5  1  0.524689  0.322287  0.601478  1
  Pr  Pr6  1  0.023065  0.179397  0.899044  1
  Dy  Dy7  1  0.363503  0.839965  0.873985  1
  Dy  Dy8  1  0.862508  0.659076  0.627176  1
  Dy  Dy9  1  0.635195  0.159919  0.373368  1
  Dy  Dy10  1  0.128955  0.340227  0.125650  1
  Dy  Dy11  1  0.636703  0.165011  0.124633  1
  Dy  Dy12  1  0.136036  0.340253  0.373397  1
  Dy  Dy13  1  0.364094  0.841173  0.628621  1
  Dy  Dy14  1  0.863585  0.657605  0.875570  1
  Dy  Dy15  1  0.535581  0.329016  0.895845  1
  Dy  Dy16  1  0.194753  0.499607  0.750561  1
  Dy  Dy17  1  0.694932  0.001238  0.750981  1
  Dy  Dy18  1  0.805010  0.499924  0.246066  1
  Dy  Dy19  1  0.305109  0.999319  0.248910  1
  Sn  Sn20  1  0.790232  0.458967  0.040243  1
  Sn  Sn21  1  0.559780  0.624483  0.751196  1
  Sn  Sn22  1  0.059298  0.873385  0.751175  1
  Sn  Sn23  1  0.438166  0.373055  0.249834  1
  Sn  Sn24  1  0.938920  0.125472  0.250443  1
  Sn  Sn25  1  0.335431  0.147961  0.753665  1
  Sn  Sn26  1  0.829110  0.355498  0.750825  1
  Sn  Sn27  1  0.669126  0.857088  0.249552  1
  Sn  Sn28  1  0.169883  0.643655  0.249748  1
  Bi  Bi29  1  0.291322  0.038023  0.043143  1
  Bi  Bi30  1  0.792226  0.460668  0.456717  1
  Bi  Bi31  1  0.707714  0.960999  0.543268  1
  Bi  Bi32  1  0.213553  0.532451  0.956347  1
  Bi  Bi33  1  0.704843  0.963935  0.956227  1
  Bi  Bi34  1  0.207023  0.540564  0.543157  1
  Bi  Bi35  1  0.292098  0.039076  0.457837  1
