# generated using pymatgen
data_Sm3Y3(PtRh8)2
_symmetry_space_group_name_H-M   'P 1'
_cell_length_a   5.31855700
_cell_length_b   5.31855721
_cell_length_c   17.59086000
_cell_angle_alpha   90.00000000
_cell_angle_beta   90.00000000
_cell_angle_gamma   119.99999250
_symmetry_Int_Tables_number   1
_chemical_formula_structural   Sm3Y3(PtRh8)2
_chemical_formula_sum   'Sm3 Y3 Pt2 Rh16'
_cell_volume   430.92867061
_cell_formula_units_Z   1
loop_
 _symmetry_equiv_pos_site_id
 _symmetry_equiv_pos_as_xyz
  1  'x, y, z'
loop_
 _atom_site_type_symbol
 _atom_site_label
 _atom_site_symmetry_multiplicity
 _atom_site_fract_x
 _atom_site_fract_y
 _atom_site_fract_z
 _atom_site_occupancy
  Sm  Sm0  1  0.333333  0.666667  0.957264  1
  Sm  Sm1  1  0.333333  0.666667  0.749747  1
  Sm  Sm2  1  0.666667  0.333333  0.250010  1
  Y  Y3  1  0.666667  0.333333  0.043396  1
  Y  Y4  1  0.666667  0.333333  0.456971  1
  Y  Y5  1  0.333333  0.666667  0.542982  1
  Pt  Pt6  1  0.000000  0.000000  0.499994  1
  Pt  Pt7  1  0.000000  0.000000  0.000189  1
  Rh  Rh8  1  0.167631  0.832369  0.373610  1
  Rh  Rh9  1  0.167631  0.335264  0.373610  1
  Rh  Rh10  1  0.664736  0.832369  0.373610  1
  Rh  Rh11  1  0.832330  0.167670  0.626371  1
  Rh  Rh12  1  0.832330  0.664659  0.626371  1
  Rh  Rh13  1  0.335341  0.167670  0.626371  1
  Rh  Rh14  1  0.832439  0.167561  0.873146  1
  Rh  Rh15  1  0.832439  0.664877  0.873146  1
  Rh  Rh16  1  0.335123  0.167561  0.873146  1
  Rh  Rh17  1  0.167527  0.832473  0.126692  1
  Rh  Rh18  1  0.167527  0.335054  0.126692  1
  Rh  Rh19  1  0.664946  0.832473  0.126692  1
  Rh  Rh20  1  0.333333  0.666667  0.250111  1
  Rh  Rh21  1  0.666667  0.333333  0.749876  1
  Rh  Rh22  1  0.000000  0.000000  0.250210  1
  Rh  Rh23  1  0.000000  0.000000  0.749792  1
