# generated using pymatgen
data_Gd8Si12HgIr3
_symmetry_space_group_name_H-M   'P 1'
_cell_length_a   8.24286800
_cell_length_b   8.24286619
_cell_length_c   8.00837000
_cell_angle_alpha   90.00000000
_cell_angle_beta   90.00000000
_cell_angle_gamma   120.00000726
_symmetry_Int_Tables_number   1
_chemical_formula_structural   Gd8Si12HgIr3
_chemical_formula_sum   'Gd8 Si12 Hg1 Ir3'
_cell_volume   471.22825725
_cell_formula_units_Z   1
loop_
 _symmetry_equiv_pos_site_id
 _symmetry_equiv_pos_as_xyz
  1  'x, y, z'
loop_
 _atom_site_type_symbol
 _atom_site_label
 _atom_site_symmetry_multiplicity
 _atom_site_fract_x
 _atom_site_fract_y
 _atom_site_fract_z
 _atom_site_occupancy
  Gd  Gd0  1  0.515721  0.031441  0.242297  1
  Gd  Gd1  1  0.492075  0.984151  0.754480  1
  Gd  Gd2  1  0.968559  0.484279  0.242297  1
  Gd  Gd3  1  0.015849  0.507925  0.754480  1
  Gd  Gd4  1  0.515721  0.484279  0.242297  1
  Gd  Gd5  1  0.492075  0.507925  0.754480  1
  Gd  Gd6  1  0.000000  0.000000  0.252706  1
  Gd  Gd7  1  0.000000  0.000000  0.756396  1
  Si  Si8  1  0.166860  0.333719  0.005860  1
  Si  Si9  1  0.834380  0.668760  0.995357  1
  Si  Si10  1  0.666281  0.833140  0.005860  1
  Si  Si11  1  0.830746  0.661493  0.498438  1
  Si  Si12  1  0.331240  0.165620  0.995357  1
  Si  Si13  1  0.157592  0.315184  0.511124  1
  Si  Si14  1  0.166860  0.833140  0.005860  1
  Si  Si15  1  0.338507  0.169254  0.498438  1
  Si  Si16  1  0.834380  0.165620  0.995357  1
  Si  Si17  1  0.684816  0.842408  0.511124  1
  Si  Si18  1  0.830746  0.169254  0.498438  1
  Si  Si19  1  0.157592  0.842408  0.511124  1
  Hg  Hg20  1  0.333333  0.666667  0.434021  1
  Ir  Ir21  1  0.333333  0.666667  0.028129  1
  Ir  Ir22  1  0.666667  0.333333  0.964300  1
  Ir  Ir23  1  0.666667  0.333333  0.541779  1
