# generated using pymatgen
data_Pa2Be23Pd3
_symmetry_space_group_name_H-M   'P 1'
_cell_length_a   7.37623500
_cell_length_b   7.37623394
_cell_length_c   7.50282150
_cell_angle_alpha   119.44343429
_cell_angle_beta   90.00000000
_cell_angle_gamma   120.00000026
_symmetry_Int_Tables_number   1
_chemical_formula_structural   Pa2Be23Pd3
_chemical_formula_sum   'Pa2 Be23 Pd3'
_cell_volume   291.05949178
_cell_formula_units_Z   1
loop_
 _symmetry_equiv_pos_site_id
 _symmetry_equiv_pos_as_xyz
  1  'x, y, z'
loop_
 _atom_site_type_symbol
 _atom_site_label
 _atom_site_symmetry_multiplicity
 _atom_site_fract_x
 _atom_site_fract_y
 _atom_site_fract_z
 _atom_site_occupancy
  Pa  Pa0  1  0.754864  0.509729  0.264593  1
  Pa  Pa1  1  0.249406  0.498811  0.748217  1
  Be  Be2  1  0.998702  0.997403  0.996105  1
  Be  Be3  1  0.435530  0.008173  0.229422  1
  Be  Be4  1  0.221249  0.656780  0.229422  1
  Be  Be5  1  0.572642  0.793892  0.229422  1
  Be  Be6  1  0.292770  0.231977  0.303476  1
  Be  Be7  1  0.071497  0.364267  0.303476  1
  Be  Be8  1  0.939207  0.010705  0.303476  1
  Be  Be9  1  0.212704  0.002031  0.440578  1
  Be  Be10  1  0.789327  0.227874  0.440578  1
  Be  Be11  1  0.438546  0.651251  0.440578  1
  Be  Be12  1  0.501417  0.002833  0.504250  1
  Be  Be13  1  0.790774  0.002493  0.563659  1
  Be  Be14  1  0.561166  0.351939  0.563659  1
  Be  Be15  1  0.211719  0.772885  0.563659  1
  Be  Be16  1  0.055079  0.991382  0.695940  1
  Be  Be17  1  0.936302  0.640862  0.695940  1
  Be  Be18  1  0.704559  0.759637  0.695940  1
  Be  Be19  1  0.558692  0.993551  0.772026  1
  Be  Be20  1  0.434858  0.213333  0.772026  1
  Be  Be21  1  0.778476  0.337168  0.772026  1
  Be  Be22  1  0.304479  0.989670  0.934659  1
  Be  Be23  1  0.944989  0.249468  0.934659  1
  Be  Be24  1  0.685191  0.630181  0.934659  1
  Pd  Pd25  1  0.697476  0.009525  0.055850  1
  Pd  Pd26  1  0.312049  0.358374  0.055850  1
  Pd  Pd27  1  0.046325  0.743801  0.055850  1
