# generated using pymatgen
data_Sr2Fe3CoAs4
_symmetry_space_group_name_H-M   'P 1'
_cell_length_a   5.57960900
_cell_length_b   6.53479965
_cell_length_c   5.57221809
_cell_angle_alpha   64.88505434
_cell_angle_beta   89.99990758
_cell_angle_gamma   89.99994325
_symmetry_Int_Tables_number   1
_chemical_formula_structural   Sr2Fe3CoAs4
_chemical_formula_sum   'Sr2 Fe3 Co1 As4'
_cell_volume   183.96386050
_cell_formula_units_Z   1
loop_
 _symmetry_equiv_pos_site_id
 _symmetry_equiv_pos_as_xyz
  1  'x, y, z'
loop_
 _atom_site_type_symbol
 _atom_site_label
 _atom_site_symmetry_multiplicity
 _atom_site_fract_x
 _atom_site_fract_y
 _atom_site_fract_z
 _atom_site_occupancy
  Sr  Sr0  1  0.498211  0.000000  0.500000  1
  Sr  Sr1  1  0.001827  0.000000  0.999999  1
  Fe  Fe2  1  0.750184  0.500000  0.000000  1
  Fe  Fe3  1  0.749805  0.500001  0.500000  1
  Fe  Fe4  1  0.250272  0.499999  0.500001  1
  Co  Co5  1  0.249843  0.500001  0.000000  1
  As  As6  1  0.501708  0.707212  0.148135  1
  As  As7  1  0.998221  0.707142  0.645513  1
  As  As8  1  0.998221  0.292857  0.354487  1
  As  As9  1  0.501708  0.292788  0.851865  1
