# generated using pymatgen
data_NdDy5(Ni2Rh7)2
_symmetry_space_group_name_H-M   'P 1'
_cell_length_a   5.30084600
_cell_length_b   5.30084574
_cell_length_c   16.95635200
_cell_angle_alpha   90.00000000
_cell_angle_beta   90.00000000
_cell_angle_gamma   120.00000161
_symmetry_Int_Tables_number   1
_chemical_formula_structural   NdDy5(Ni2Rh7)2
_chemical_formula_sum   'Nd1 Dy5 Ni4 Rh14'
_cell_volume   412.62297096
_cell_formula_units_Z   1
loop_
 _symmetry_equiv_pos_site_id
 _symmetry_equiv_pos_as_xyz
  1  'x, y, z'
loop_
 _atom_site_type_symbol
 _atom_site_label
 _atom_site_symmetry_multiplicity
 _atom_site_fract_x
 _atom_site_fract_y
 _atom_site_fract_z
 _atom_site_occupancy
  Nd  Nd0  1  0.666667  0.333333  0.250000  1
  Dy  Dy1  1  0.333333  0.666667  0.541363  1
  Dy  Dy2  1  0.666667  0.333333  0.040222  1
  Dy  Dy3  1  0.666667  0.333333  0.459778  1
  Dy  Dy4  1  0.333333  0.666667  0.958637  1
  Dy  Dy5  1  0.333333  0.666667  0.750000  1
  Ni  Ni6  1  0.000000  0.000000  0.250000  1
  Ni  Ni7  1  0.000000  0.000000  0.750000  1
  Ni  Ni8  1  0.333333  0.666667  0.250000  1
  Ni  Ni9  1  0.666667  0.333333  0.750000  1
  Rh  Rh10  1  0.167748  0.335494  0.128578  1
  Rh  Rh11  1  0.832178  0.664357  0.629874  1
  Rh  Rh12  1  0.664506  0.832252  0.128578  1
  Rh  Rh13  1  0.167748  0.832252  0.128578  1
  Rh  Rh14  1  0.832178  0.167822  0.629874  1
  Rh  Rh15  1  0.335643  0.167822  0.629874  1
  Rh  Rh16  1  0.832178  0.664357  0.870126  1
  Rh  Rh17  1  0.832178  0.167822  0.870126  1
  Rh  Rh18  1  0.335643  0.167822  0.870126  1
  Rh  Rh19  1  0.664506  0.832252  0.371422  1
  Rh  Rh20  1  0.167748  0.832252  0.371422  1
  Rh  Rh21  1  0.167748  0.335494  0.371422  1
  Rh  Rh22  1  0.000000  0.000000  0.999386  1
  Rh  Rh23  1  0.000000  0.000000  0.500614  1
