# generated using pymatgen
data_Zr15Nb5Si15B
_symmetry_space_group_name_H-M   'P 1'
_cell_length_a   7.03178069
_cell_length_b   7.03057447
_cell_length_c   12.88739559
_cell_angle_alpha   90.16220229
_cell_angle_beta   90.33333220
_cell_angle_gamma   89.79709586
_symmetry_Int_Tables_number   1
_chemical_formula_structural   Zr15Nb5Si15B
_chemical_formula_sum   'Zr15 Nb5 Si15 B1'
_cell_volume   637.10278266
_cell_formula_units_Z   1
loop_
 _symmetry_equiv_pos_site_id
 _symmetry_equiv_pos_as_xyz
  1  'x, y, z'
loop_
 _atom_site_type_symbol
 _atom_site_label
 _atom_site_symmetry_multiplicity
 _atom_site_fract_x
 _atom_site_fract_y
 _atom_site_fract_z
 _atom_site_occupancy
  Zr  Zr0  1  0.865693  0.984995  0.378721  1
  Zr  Zr1  1  0.004175  0.145744  0.129017  1
  Zr  Zr2  1  0.996245  0.850490  0.620401  1
  Zr  Zr3  1  0.644775  0.497394  0.875559  1
  Zr  Zr4  1  0.498464  0.356661  0.621909  1
  Zr  Zr5  1  0.498639  0.644520  0.124880  1
  Zr  Zr6  1  0.145432  0.002254  0.872824  1
  Zr  Zr7  1  0.000365  0.651627  0.035329  1
  Zr  Zr8  1  0.002186  0.358385  0.529557  1
  Zr  Zr9  1  0.650952  0.997401  0.965920  1
  Zr  Zr10  1  0.149496  0.500041  0.783882  1
  Zr  Zr11  1  0.859166  0.508159  0.291609  1
  Zr  Zr12  1  0.501747  0.152097  0.218976  1
  Zr  Zr13  1  0.495654  0.845385  0.712390  1
  Zr  Zr14  1  0.345091  0.998146  0.464956  1
  Nb  Nb15  1  0.348462  0.512100  0.376385  1
  Nb  Nb16  1  0.675926  0.672154  0.498401  1
  Nb  Nb17  1  0.822776  0.174925  0.749046  1
  Nb  Nb18  1  0.176794  0.821807  0.255193  1
  Nb  Nb19  1  0.325019  0.324307  0.001085  1
  Si  Si20  1  0.951277  0.300203  0.936777  1
  Si  Si21  1  0.696617  0.050432  0.562846  1
  Si  Si22  1  0.202196  0.450888  0.189026  1
  Si  Si23  1  0.799485  0.547084  0.684689  1
  Si  Si24  1  0.449981  0.198424  0.812649  1
  Si  Si25  1  0.550240  0.797723  0.315794  1
  Si  Si26  1  0.300697  0.950395  0.065793  1
  Si  Si27  1  0.851927  0.797443  0.819322  1
  Si  Si28  1  0.146077  0.211978  0.325800  1
  Si  Si29  1  0.798193  0.852933  0.180942  1
  Si  Si30  1  0.288917  0.646797  0.560900  1
  Si  Si31  1  0.702837  0.350742  0.071844  1
  Si  Si32  1  0.640024  0.296827  0.423971  1
  Si  Si33  1  0.352032  0.702014  0.929571  1
  Si  Si34  1  0.197808  0.147082  0.675953  1
  B  B35  1  0.064634  0.700439  0.438086  1
