# generated using pymatgen
data_Hf9N10
_symmetry_space_group_name_H-M   'P 1'
_cell_length_a   5.54280783
_cell_length_b   5.54280886
_cell_length_c   10.15344826
_cell_angle_alpha   90.04792574
_cell_angle_beta   90.04792645
_cell_angle_gamma   47.70480912
_symmetry_Int_Tables_number   1
_chemical_formula_structural   Hf9N10
_chemical_formula_sum   'Hf9 N10'
_cell_volume   230.73922517
_cell_formula_units_Z   1
loop_
 _symmetry_equiv_pos_site_id
 _symmetry_equiv_pos_as_xyz
  1  'x, y, z'
loop_
 _atom_site_type_symbol
 _atom_site_label
 _atom_site_symmetry_multiplicity
 _atom_site_fract_x
 _atom_site_fract_y
 _atom_site_fract_z
 _atom_site_occupancy
  Hf  Hf0  1  0.697984  0.697984  0.092945  1
  Hf  Hf1  1  0.410942  0.410942  0.190503  1
  Hf  Hf2  1  0.589058  0.589058  0.809497  1
  Hf  Hf3  1  0.302016  0.302016  0.907055  1
  Hf  Hf4  1  0.103232  0.103232  0.291764  1
  Hf  Hf5  1  0.798363  0.798363  0.398441  1
  Hf  Hf6  1  0.500000  0.500000  0.500000  1
  Hf  Hf7  1  0.201637  0.201637  0.601559  1
  Hf  Hf8  1  0.896768  0.896768  0.708236  1
  N  N9  1  0.397283  0.397283  0.702055  1
  N  N10  1  0.301525  0.301525  0.397597  1
  N  N11  1  0.102300  0.102300  0.791259  1
  N  N12  1  0.000000  0.000000  0.500000  1
  N  N13  1  0.698475  0.698475  0.602403  1
  N  N14  1  0.897700  0.897700  0.208741  1
  N  N15  1  0.602717  0.602717  0.297945  1
  N  N16  1  0.788580  0.788580  0.896473  1
  N  N17  1  0.500000  0.500000  0.000000  1
  N  N18  1  0.211420  0.211420  0.103527  1
