# generated using pymatgen
data_Er20Ir9OsRu2
_symmetry_space_group_name_H-M   'P 1'
_cell_length_a   10.75840400
_cell_length_b   10.75840400
_cell_length_c   6.36736800
_cell_angle_alpha   90.00000000
_cell_angle_beta   90.00000000
_cell_angle_gamma   90.00000000
_symmetry_Int_Tables_number   1
_chemical_formula_structural   Er20Ir9OsRu2
_chemical_formula_sum   'Er20 Ir9 Os1 Ru2'
_cell_volume   736.97990846
_cell_formula_units_Z   1
loop_
 _symmetry_equiv_pos_site_id
 _symmetry_equiv_pos_as_xyz
  1  'x, y, z'
loop_
 _atom_site_type_symbol
 _atom_site_label
 _atom_site_symmetry_multiplicity
 _atom_site_fract_x
 _atom_site_fract_y
 _atom_site_fract_z
 _atom_site_occupancy
  Er  Er0  1  0.293710  0.086182  0.376581  1
  Er  Er1  1  0.293759  0.914018  0.877506  1
  Er  Er2  1  0.706241  0.085982  0.877506  1
  Er  Er3  1  0.706290  0.913818  0.376581  1
  Er  Er4  1  0.585982  0.793759  0.877506  1
  Er  Er5  1  0.586182  0.206290  0.376581  1
  Er  Er6  1  0.413818  0.793710  0.376581  1
  Er  Er7  1  0.414018  0.206241  0.877506  1
  Er  Er8  1  0.208125  0.412910  0.624015  1
  Er  Er9  1  0.207848  0.587056  0.121346  1
  Er  Er10  1  0.792152  0.412944  0.121346  1
  Er  Er11  1  0.791875  0.587090  0.624015  1
  Er  Er12  1  0.912944  0.707848  0.121346  1
  Er  Er13  1  0.912910  0.291875  0.624015  1
  Er  Er14  1  0.087090  0.708125  0.624015  1
  Er  Er15  1  0.087056  0.292152  0.121346  1
  Er  Er16  1  0.000000  0.000000  0.499622  1
  Er  Er17  1  0.000000  0.000000  0.999504  1
  Er  Er18  1  0.500000  0.500000  0.999504  1
  Er  Er19  1  0.500000  0.500000  0.499622  1
  Ir  Ir20  1  0.847886  0.153158  0.250206  1
  Ir  Ir21  1  0.847540  0.846868  0.749764  1
  Ir  Ir22  1  0.152460  0.153132  0.749764  1
  Ir  Ir23  1  0.152114  0.846842  0.250206  1
  Ir  Ir24  1  0.653132  0.347540  0.749764  1
  Ir  Ir25  1  0.653158  0.652114  0.250206  1
  Ir  Ir26  1  0.346842  0.347886  0.250206  1
  Ir  Ir27  1  0.346868  0.652460  0.749764  1
  Ir  Ir28  1  0.000000  0.500000  0.378764  1
  Os  Os29  1  0.500000  0.000000  0.123932  1
  Ru  Ru30  1  0.500000  0.000000  0.623027  1
  Ru  Ru31  1  0.000000  0.500000  0.878351  1
