# generated using pymatgen
data_La5Tb3(RuBr6)2
_symmetry_space_group_name_H-M   'P 1'
_cell_length_a   4.27504300
_cell_length_b   13.83588717
_cell_length_c   14.34586633
_cell_angle_alpha   89.58878596
_cell_angle_beta   90.00000000
_cell_angle_gamma   90.00000000
_symmetry_Int_Tables_number   1
_chemical_formula_structural   La5Tb3(RuBr6)2
_chemical_formula_sum   'La5 Tb3 Ru2 Br12'
_cell_volume   848.52197374
_cell_formula_units_Z   1
loop_
 _symmetry_equiv_pos_site_id
 _symmetry_equiv_pos_as_xyz
  1  'x, y, z'
loop_
 _atom_site_type_symbol
 _atom_site_label
 _atom_site_symmetry_multiplicity
 _atom_site_fract_x
 _atom_site_fract_y
 _atom_site_fract_z
 _atom_site_occupancy
  La  La0  1  0.500000  0.107324  0.345951  1
  La  La1  1  0.500000  0.883368  0.647122  1
  La  La2  1  0.500000  0.611129  0.151436  1
  La  La3  1  0.500000  0.393058  0.853705  1
  La  La4  1  0.000000  0.122317  0.584677  1
  Tb  Tb5  1  0.000000  0.881548  0.418523  1
  Tb  Tb6  1  0.000000  0.619363  0.921145  1
  Tb  Tb7  1  0.000000  0.383553  0.083215  1
  Ru  Ru8  1  0.500000  0.999228  0.500489  1
  Ru  Ru9  1  0.500000  0.501538  0.002701  1
  Br  Br10  1  0.500000  0.248131  0.170620  1
  Br  Br11  1  0.500000  0.749022  0.826913  1
  Br  Br12  1  0.500000  0.750115  0.326985  1
  Br  Br13  1  0.500000  0.264788  0.674392  1
  Br  Br14  1  0.000000  0.250530  0.411716  1
  Br  Br15  1  0.000000  0.744252  0.572254  1
  Br  Br16  1  0.000000  0.752362  0.075959  1
  Br  Br17  1  0.000000  0.251190  0.926838  1
  Br  Br18  1  0.000000  0.989960  0.243552  1
  Br  Br19  1  0.000000  0.994014  0.757521  1
  Br  Br20  1  0.000000  0.492778  0.255707  1
  Br  Br21  1  0.000000  0.510433  0.748580  1
