# generated using pymatgen
data_La8Sm9Dy3Sn16
_symmetry_space_group_name_H-M   'P 1'
_cell_length_a   8.11415300
_cell_length_b   8.44950757
_cell_length_c   16.02993400
_cell_angle_alpha   90.00000000
_cell_angle_beta   90.00000000
_cell_angle_gamma   89.95531346
_symmetry_Int_Tables_number   1
_chemical_formula_structural   La8Sm9Dy3Sn16
_chemical_formula_sum   'La8 Sm9 Dy3 Sn16'
_cell_volume   1099.02151380
_cell_formula_units_Z   1
loop_
 _symmetry_equiv_pos_site_id
 _symmetry_equiv_pos_as_xyz
  1  'x, y, z'
loop_
 _atom_site_type_symbol
 _atom_site_label
 _atom_site_symmetry_multiplicity
 _atom_site_fract_x
 _atom_site_fract_y
 _atom_site_fract_z
 _atom_site_occupancy
  La  La0  1  0.496805  0.319793  0.902991  1
  La  La1  1  0.995129  0.178792  0.596576  1
  La  La2  1  0.503886  0.680074  0.403206  1
  La  La3  1  0.005232  0.820172  0.096625  1
  La  La4  1  0.503886  0.680074  0.096794  1
  La  La5  1  0.005232  0.820172  0.403375  1
  La  La6  1  0.496805  0.319793  0.597009  1
  La  La7  1  0.995129  0.178792  0.903424  1
  Sm  Sm8  1  0.336178  0.830774  0.875693  1
  Sm  Sm9  1  0.834493  0.668744  0.624037  1
  Sm  Sm10  1  0.664324  0.169690  0.375575  1
  Sm  Sm11  1  0.164697  0.331983  0.124286  1
  Sm  Sm12  1  0.664324  0.169690  0.124425  1
  Sm  Sm13  1  0.164697  0.331983  0.375714  1
  Sm  Sm14  1  0.336178  0.830774  0.624307  1
  Sm  Sm15  1  0.834493  0.668744  0.875963  1
  Sm  Sm16  1  0.166376  0.498859  0.750000  1
  Dy  Dy17  1  0.667037  0.000786  0.750000  1
  Dy  Dy18  1  0.832545  0.501566  0.250000  1
  Dy  Dy19  1  0.333072  0.999126  0.250000  1
  Sn  Sn20  1  0.323919  0.038586  0.040526  1
  Sn  Sn21  1  0.823558  0.463234  0.458764  1
  Sn  Sn22  1  0.675717  0.961949  0.540294  1
  Sn  Sn23  1  0.176143  0.536878  0.958961  1
  Sn  Sn24  1  0.675717  0.961949  0.959706  1
  Sn  Sn25  1  0.176143  0.536878  0.541039  1
  Sn  Sn26  1  0.323919  0.038586  0.459474  1
  Sn  Sn27  1  0.823558  0.463234  0.041236  1
  Sn  Sn28  1  0.533130  0.617611  0.750000  1
  Sn  Sn29  1  0.030465  0.882454  0.750000  1
  Sn  Sn30  1  0.468655  0.382759  0.250000  1
  Sn  Sn31  1  0.969436  0.117833  0.250000  1
  Sn  Sn32  1  0.297699  0.141158  0.750000  1
  Sn  Sn33  1  0.797400  0.355646  0.750000  1
  Sn  Sn34  1  0.702311  0.857335  0.250000  1
  Sn  Sn35  1  0.201712  0.643534  0.250000  1
