# generated using pymatgen
data_Nd11Th3Ir5Rh
_symmetry_space_group_name_H-M   'P 1'
_cell_length_a   9.90951200
_cell_length_b   10.18950117
_cell_length_c   6.42402469
_cell_angle_alpha   90.17233229
_cell_angle_beta   90.00000000
_cell_angle_gamma   119.09511615
_symmetry_Int_Tables_number   1
_chemical_formula_structural   Nd11Th3Ir5Rh
_chemical_formula_sum   'Nd11 Th3 Ir5 Rh1'
_cell_volume   566.79845442
_cell_formula_units_Z   1
loop_
 _symmetry_equiv_pos_site_id
 _symmetry_equiv_pos_as_xyz
  1  'x, y, z'
loop_
 _atom_site_type_symbol
 _atom_site_label
 _atom_site_symmetry_multiplicity
 _atom_site_fract_x
 _atom_site_fract_y
 _atom_site_fract_z
 _atom_site_occupancy
  Nd  Nd0  1  0.460818  0.534136  0.297281  1
  Nd  Nd1  1  0.073318  0.534136  0.297281  1
  Nd  Nd2  1  0.925946  0.465181  0.798635  1
  Nd  Nd3  1  0.251246  0.125679  0.503823  1
  Nd  Nd4  1  0.538628  0.077255  0.806077  1
  Nd  Nd5  1  0.747875  0.874664  0.002701  1
  Nd  Nd6  1  0.664105  0.328210  0.278997  1
  Nd  Nd7  1  0.126789  0.874664  0.002701  1
  Nd  Nd8  1  0.461374  0.922749  0.303580  1
  Nd  Nd9  1  0.539236  0.465181  0.798635  1
  Nd  Nd10  1  0.874433  0.125679  0.503823  1
  Th  Th11  1  0.126541  0.253082  0.994465  1
  Th  Th12  1  0.874130  0.748260  0.490694  1
  Th  Th13  1  0.335096  0.670193  0.768372  1
  Ir  Ir14  1  0.825828  0.194624  0.044818  1
  Ir  Ir15  1  0.625368  0.802428  0.550899  1
  Ir  Ir16  1  0.368795  0.194624  0.044818  1
  Ir  Ir17  1  0.192911  0.385822  0.573635  1
  Ir  Ir18  1  0.177059  0.802428  0.550899  1
  Rh  Rh19  1  0.810503  0.621005  0.071868  1
