# generated using pymatgen
data_Er3TmMn(Ga8Co)2
_symmetry_space_group_name_H-M   'P 1'
_cell_length_a   6.03520700
_cell_length_b   6.03680300
_cell_length_c   11.10641400
_cell_angle_alpha   90.00000000
_cell_angle_beta   90.00000000
_cell_angle_gamma   90.00000000
_symmetry_Int_Tables_number   1
_chemical_formula_structural   Er3TmMn(Ga8Co)2
_chemical_formula_sum   'Er3 Tm1 Mn1 Ga16 Co2'
_cell_volume   404.64393207
_cell_formula_units_Z   1
loop_
 _symmetry_equiv_pos_site_id
 _symmetry_equiv_pos_as_xyz
  1  'x, y, z'
loop_
 _atom_site_type_symbol
 _atom_site_label
 _atom_site_symmetry_multiplicity
 _atom_site_fract_x
 _atom_site_fract_y
 _atom_site_fract_z
 _atom_site_occupancy
  Er  Er0  1  0.000000  0.500000  0.806753  1
  Er  Er1  1  0.500000  0.000000  0.806757  1
  Er  Er2  1  0.500000  0.000000  0.193263  1
  Tm  Tm3  1  0.000000  0.500000  0.193267  1
  Mn  Mn4  1  0.000000  0.000000  0.000014  1
  Ga  Ga5  1  0.000000  0.000000  0.219904  1
  Ga  Ga6  1  0.000000  0.000000  0.780068  1
  Ga  Ga7  1  0.500000  0.500000  0.197153  1
  Ga  Ga8  1  0.500000  0.500000  0.802843  1
  Ga  Ga9  1  0.283062  0.283267  0.000091  1
  Ga  Ga10  1  0.716938  0.716733  0.000091  1
  Ga  Ga11  1  0.283062  0.716733  0.000091  1
  Ga  Ga12  1  0.716938  0.283267  0.000091  1
  Ga  Ga13  1  0.249590  0.249760  0.384312  1
  Ga  Ga14  1  0.750410  0.750240  0.384312  1
  Ga  Ga15  1  0.249680  0.750321  0.615603  1
  Ga  Ga16  1  0.750320  0.249679  0.615603  1
  Ga  Ga17  1  0.750320  0.750321  0.615603  1
  Ga  Ga18  1  0.249680  0.249679  0.615603  1
  Ga  Ga19  1  0.249590  0.750240  0.384312  1
  Ga  Ga20  1  0.750410  0.249760  0.384312  1
  Co  Co21  1  0.000000  0.500000  0.499957  1
  Co  Co22  1  0.500000  0.000000  0.499997  1
