# generated using pymatgen
data_Dy2CdNiAg
_symmetry_space_group_name_H-M   'P 1'
_cell_length_a   7.75938510
_cell_length_b   7.75938438
_cell_length_c   3.64824100
_cell_angle_alpha   90.00000000
_cell_angle_beta   90.00000000
_cell_angle_gamma   92.09001092
_symmetry_Int_Tables_number   1
_chemical_formula_structural   Dy2CdNiAg
_chemical_formula_sum   'Dy4 Cd2 Ni2 Ag2'
_cell_volume   219.50736137
_cell_formula_units_Z   2
loop_
 _symmetry_equiv_pos_site_id
 _symmetry_equiv_pos_as_xyz
  1  'x, y, z'
loop_
 _atom_site_type_symbol
 _atom_site_label
 _atom_site_symmetry_multiplicity
 _atom_site_fract_x
 _atom_site_fract_y
 _atom_site_fract_z
 _atom_site_occupancy
  Dy  Dy0  1  0.695652  0.195652  0.500000  1
  Dy  Dy1  1  0.304348  0.804348  0.500000  1
  Dy  Dy2  1  0.157276  0.342724  0.500000  1
  Dy  Dy3  1  0.842724  0.657276  0.500000  1
  Cd  Cd4  1  0.000000  0.000000  0.000000  1
  Cd  Cd5  1  0.500000  0.500000  0.000000  1
  Ni  Ni6  1  0.116822  0.616822  0.000000  1
  Ni  Ni7  1  0.883178  0.383178  0.000000  1
  Ag  Ag8  1  0.625593  0.874407  0.000000  1
  Ag  Ag9  1  0.374407  0.125593  0.000000  1
