# generated using pymatgen
data_Ba12Tb3YTi8O34
_symmetry_space_group_name_H-M   'P 1'
_cell_length_a   6.00284000
_cell_length_b   6.00284389
_cell_length_c   30.03312600
_cell_angle_alpha   90.00000000
_cell_angle_beta   90.00000000
_cell_angle_gamma   119.99996756
_symmetry_Int_Tables_number   1
_chemical_formula_structural   Ba12Tb3YTi8O34
_chemical_formula_sum   'Ba12 Tb3 Y1 Ti8 O34'
_cell_volume   937.22772756
_cell_formula_units_Z   1
loop_
 _symmetry_equiv_pos_site_id
 _symmetry_equiv_pos_as_xyz
  1  'x, y, z'
loop_
 _atom_site_type_symbol
 _atom_site_label
 _atom_site_symmetry_multiplicity
 _atom_site_fract_x
 _atom_site_fract_y
 _atom_site_fract_z
 _atom_site_occupancy
  Ba  Ba0  1  0.999999  0.999998  0.999932  1
  Ba  Ba1  1  0.666665  0.333328  0.089627  1
  Ba  Ba2  1  0.333331  0.666663  0.184570  1
  Ba  Ba3  1  0.999999  0.999998  0.250000  1
  Ba  Ba4  1  0.333331  0.666663  0.315427  1
  Ba  Ba5  1  0.666665  0.333327  0.410302  1
  Ba  Ba6  1  0.999999  0.999998  0.500013  1
  Ba  Ba7  1  0.333335  0.666669  0.589727  1
  Ba  Ba8  1  0.666670  0.333338  0.684629  1
  Ba  Ba9  1  0.000002  0.000004  0.750147  1
  Ba  Ba10  1  0.666670  0.333337  0.815588  1
  Ba  Ba11  1  0.333334  0.666668  0.910206  1
  Tb  Tb12  1  0.999999  0.999998  0.126703  1
  Tb  Tb13  1  0.999999  0.999997  0.373303  1
  Tb  Tb14  1  0.000001  0.000003  0.626738  1
  Y  Y15  1  0.000001  0.000002  0.873301  1
  Ti  Ti16  1  0.333332  0.666663  0.054315  1
  Ti  Ti17  1  0.666668  0.333333  0.203865  1
  Ti  Ti18  1  0.666665  0.333329  0.296132  1
  Ti  Ti19  1  0.333332  0.666664  0.445671  1
  Ti  Ti20  1  0.666669  0.333336  0.554335  1
  Ti  Ti21  1  0.333335  0.666671  0.703936  1
  Ti  Ti22  1  0.333334  0.666668  0.796275  1
  Ti  Ti23  1  0.666670  0.333338  0.945433  1
  O  O24  1  0.666675  0.333349  0.004570  1
  O  O25  1  0.168331  0.831673  0.077064  1
  O  O26  1  0.663342  0.831673  0.077064  1
  O  O27  1  0.168329  0.336658  0.077065  1
  O  O28  1  0.351998  0.176000  0.169763  1
  O  O29  1  0.824001  0.176000  0.169763  1
  O  O30  1  0.824002  0.648002  0.169764  1
  O  O31  1  0.518145  0.036290  0.249995  1
  O  O32  1  0.518146  0.481855  0.249995  1
  O  O33  1  0.963710  0.481855  0.249995  1
  O  O34  1  0.824018  0.648035  0.330219  1
  O  O35  1  0.351963  0.175980  0.330219  1
  O  O36  1  0.824017  0.175980  0.330219  1
  O  O37  1  0.168339  0.336677  0.422913  1
  O  O38  1  0.168340  0.831664  0.422915  1
  O  O39  1  0.663325  0.831664  0.422915  1
  O  O40  1  0.666675  0.333348  0.495227  1
  O  O41  1  0.333325  0.666652  0.504773  1
  O  O42  1  0.336659  0.168328  0.577086  1
  O  O43  1  0.831671  0.168328  0.577086  1
  O  O44  1  0.831672  0.663343  0.577087  1
  O  O45  1  0.176018  0.823982  0.669811  1
  O  O46  1  0.647963  0.823982  0.669811  1
  O  O47  1  0.176018  0.352036  0.669812  1
  O  O48  1  0.036431  0.518215  0.750097  1
  O  O49  1  0.481784  0.518215  0.750097  1
  O  O50  1  0.481784  0.963570  0.750097  1
  O  O51  1  0.175757  0.351513  0.830366  1
  O  O52  1  0.175755  0.824243  0.830367  1
  O  O53  1  0.648486  0.824243  0.830367  1
  O  O54  1  0.831773  0.663544  0.922694  1
  O  O55  1  0.336460  0.168229  0.922695  1
  O  O56  1  0.831770  0.168229  0.922695  1
  O  O57  1  0.333324  0.666648  0.995215  1
