# generated using pymatgen
data_Ho4Pd2PtAu
_symmetry_space_group_name_H-M   'P 1'
_cell_length_a   4.59110900
_cell_length_b   5.62109488
_cell_length_c   7.01165705
_cell_angle_alpha   90.23722281
_cell_angle_beta   90.00000000
_cell_angle_gamma   90.00000000
_symmetry_Int_Tables_number   1
_chemical_formula_structural   Ho4Pd2PtAu
_chemical_formula_sum   'Ho4 Pd2 Pt1 Au1'
_cell_volume   180.94869811
_cell_formula_units_Z   1
loop_
 _symmetry_equiv_pos_site_id
 _symmetry_equiv_pos_as_xyz
  1  'x, y, z'
loop_
 _atom_site_type_symbol
 _atom_site_label
 _atom_site_symmetry_multiplicity
 _atom_site_fract_x
 _atom_site_fract_y
 _atom_site_fract_z
 _atom_site_occupancy
  Ho  Ho0  1  0.000000  0.110871  0.691175  1
  Ho  Ho1  1  0.000000  0.894570  0.173776  1
  Ho  Ho2  1  0.500000  0.390094  0.313354  1
  Ho  Ho3  1  0.500000  0.607779  0.821497  1
  Pd  Pd4  1  0.000000  0.595045  0.539456  1
  Pd  Pd5  1  0.000000  0.407608  0.043785  1
  Pt  Pt6  1  0.500000  0.095969  0.957974  1
  Au  Au7  1  0.500000  0.898064  0.458984  1
