# generated using pymatgen
data_LuMg3(AlAu)4
_symmetry_space_group_name_H-M   'P 1'
_cell_length_a   4.15892100
_cell_length_b   6.83955262
_cell_length_c   7.98775340
_cell_angle_alpha   88.44877056
_cell_angle_beta   90.00000000
_cell_angle_gamma   90.00000000
_symmetry_Int_Tables_number   1
_chemical_formula_structural   LuMg3(AlAu)4
_chemical_formula_sum   'Lu1 Mg3 Al4 Au4'
_cell_volume   227.12964673
_cell_formula_units_Z   1
loop_
 _symmetry_equiv_pos_site_id
 _symmetry_equiv_pos_as_xyz
  1  'x, y, z'
loop_
 _atom_site_type_symbol
 _atom_site_label
 _atom_site_symmetry_multiplicity
 _atom_site_fract_x
 _atom_site_fract_y
 _atom_site_fract_z
 _atom_site_occupancy
  Lu  Lu0  1  0.250000  0.523417  0.176275  1
  Mg  Mg1  1  0.750000  0.468187  0.829180  1
  Mg  Mg2  1  0.250000  0.034328  0.332538  1
  Mg  Mg3  1  0.750000  0.972758  0.669234  1
  Al  Al4  1  0.250000  0.651738  0.556063  1
  Al  Al5  1  0.250000  0.133816  0.944089  1
  Al  Al6  1  0.750000  0.358418  0.443725  1
  Al  Al7  1  0.750000  0.851945  0.049357  1
  Au  Au8  1  0.250000  0.764790  0.860113  1
  Au  Au9  1  0.250000  0.271874  0.635711  1
  Au  Au10  1  0.750000  0.746386  0.368710  1
  Au  Au11  1  0.750000  0.222342  0.135004  1
