# generated using pymatgen
data_Hf5Zr5(Ir3O)2
_symmetry_space_group_name_H-M   'P 1'
_cell_length_a   8.04529100
_cell_length_b   8.06017727
_cell_length_c   5.50055400
_cell_angle_alpha   90.00000000
_cell_angle_beta   90.00000000
_cell_angle_gamma   119.93892820
_symmetry_Int_Tables_number   1
_chemical_formula_structural   Hf5Zr5(Ir3O)2
_chemical_formula_sum   'Hf5 Zr5 Ir6 O2'
_cell_volume   309.09384089
_cell_formula_units_Z   1
loop_
 _symmetry_equiv_pos_site_id
 _symmetry_equiv_pos_as_xyz
  1  'x, y, z'
loop_
 _atom_site_type_symbol
 _atom_site_label
 _atom_site_symmetry_multiplicity
 _atom_site_fract_x
 _atom_site_fract_y
 _atom_site_fract_z
 _atom_site_occupancy
  Hf  Hf0  1  0.239352  0.000000  0.750000  1
  Hf  Hf1  1  0.333065  0.667355  0.500179  1
  Hf  Hf2  1  0.665711  0.332645  0.500179  1
  Hf  Hf3  1  0.665711  0.332645  0.999821  1
  Hf  Hf4  1  0.333065  0.667355  0.999821  1
  Zr  Zr5  1  0.759199  0.000000  0.250000  1
  Zr  Zr6  1  0.000561  0.240669  0.750000  1
  Zr  Zr7  1  0.000190  0.759313  0.250000  1
  Zr  Zr8  1  0.759892  0.759331  0.750000  1
  Zr  Zr9  1  0.240878  0.240687  0.250000  1
  Ir  Ir10  1  0.591117  0.000000  0.750000  1
  Ir  Ir11  1  0.406945  0.000000  0.250000  1
  Ir  Ir12  1  0.000538  0.594000  0.750000  1
  Ir  Ir13  1  0.000011  0.407449  0.250000  1
  Ir  Ir14  1  0.406538  0.406000  0.750000  1
  Ir  Ir15  1  0.592562  0.592551  0.250000  1
  O  O16  1  0.002333  0.000000  0.502851  1
  O  O17  1  0.002333  0.000000  0.997149  1
