# generated using pymatgen
data_ZnNi20SnGeB6
_symmetry_space_group_name_H-M   'P 1'
_cell_length_a   7.45910748
_cell_length_b   7.45910654
_cell_length_c   7.45910700
_cell_angle_alpha   60.00000238
_cell_angle_beta   60.00000658
_cell_angle_gamma   60.00000018
_symmetry_Int_Tables_number   1
_chemical_formula_structural   ZnNi20SnGeB6
_chemical_formula_sum   'Zn1 Ni20 Sn1 Ge1 B6'
_cell_volume   293.45772384
_cell_formula_units_Z   1
loop_
 _symmetry_equiv_pos_site_id
 _symmetry_equiv_pos_as_xyz
  1  'x, y, z'
loop_
 _atom_site_type_symbol
 _atom_site_label
 _atom_site_symmetry_multiplicity
 _atom_site_fract_x
 _atom_site_fract_y
 _atom_site_fract_z
 _atom_site_occupancy
  Zn  Zn0  1  0.000000  0.000000  0.000000  1
  Ni  Ni1  1  0.000045  0.000045  0.662782  1
  Ni  Ni2  1  0.378563  0.864311  0.378563  1
  Ni  Ni3  1  0.662782  0.337129  0.000045  1
  Ni  Ni4  1  0.000045  0.337129  0.662782  1
  Ni  Ni5  1  0.662782  0.000045  0.000045  1
  Ni  Ni6  1  0.000045  0.000045  0.337129  1
  Ni  Ni7  1  0.662782  0.000045  0.337129  1
  Ni  Ni8  1  0.000045  0.337129  0.000045  1
  Ni  Ni9  1  0.000045  0.662782  0.337129  1
  Ni  Ni10  1  0.337129  0.000045  0.000045  1
  Ni  Ni11  1  0.000045  0.662782  0.000045  1
  Ni  Ni12  1  0.337129  0.000045  0.662782  1
  Ni  Ni13  1  0.378563  0.378563  0.378563  1
  Ni  Ni14  1  0.337129  0.662782  0.000045  1
  Ni  Ni15  1  0.611745  0.164764  0.611745  1
  Ni  Ni16  1  0.378563  0.378563  0.864311  1
  Ni  Ni17  1  0.864311  0.378563  0.378563  1
  Ni  Ni18  1  0.611745  0.611745  0.611745  1
  Ni  Ni19  1  0.164764  0.611745  0.611745  1
  Ni  Ni20  1  0.611745  0.611745  0.164764  1
  Sn  Sn21  1  0.750000  0.750000  0.750000  1
  Ge  Ge22  1  0.250000  0.250000  0.250000  1
  B  B23  1  0.726605  0.726605  0.273395  1
  B  B24  1  0.726605  0.273395  0.726605  1
  B  B25  1  0.273395  0.726605  0.273395  1
  B  B26  1  0.726605  0.273395  0.273395  1
  B  B27  1  0.273395  0.726605  0.726605  1
  B  B28  1  0.273395  0.273395  0.726605  1
