# generated using pymatgen
data_Tm2ScBe2Rh5
_symmetry_space_group_name_H-M   'P 1'
_cell_length_a   9.67496400
_cell_length_b   9.67496400
_cell_length_c   3.28181100
_cell_angle_alpha   90.00000000
_cell_angle_beta   90.00000000
_cell_angle_gamma   90.00000000
_symmetry_Int_Tables_number   1
_chemical_formula_structural   Tm2ScBe2Rh5
_chemical_formula_sum   'Tm4 Sc2 Be4 Rh10'
_cell_volume   307.19368368
_cell_formula_units_Z   2
loop_
 _symmetry_equiv_pos_site_id
 _symmetry_equiv_pos_as_xyz
  1  'x, y, z'
loop_
 _atom_site_type_symbol
 _atom_site_label
 _atom_site_symmetry_multiplicity
 _atom_site_fract_x
 _atom_site_fract_y
 _atom_site_fract_z
 _atom_site_occupancy
  Tm  Tm0  1  0.824841  0.324841  0.000000  1
  Tm  Tm1  1  0.324841  0.175159  0.000000  1
  Tm  Tm2  1  0.675159  0.824841  0.000000  1
  Tm  Tm3  1  0.175159  0.675159  0.000000  1
  Sc  Sc4  1  0.000000  0.000000  0.000000  1
  Sc  Sc5  1  0.500000  0.500000  0.000000  1
  Be  Be6  1  0.622061  0.122061  0.000000  1
  Be  Be7  1  0.122061  0.377939  0.000000  1
  Be  Be8  1  0.877939  0.622061  0.000000  1
  Be  Be9  1  0.377939  0.877939  0.000000  1
  Rh  Rh10  1  0.070331  0.215716  0.500000  1
  Rh  Rh11  1  0.215716  0.929669  0.500000  1
  Rh  Rh12  1  0.784284  0.070331  0.500000  1
  Rh  Rh13  1  0.929669  0.784284  0.500000  1
  Rh  Rh14  1  0.429669  0.715716  0.500000  1
  Rh  Rh15  1  0.570331  0.284284  0.500000  1
  Rh  Rh16  1  0.715716  0.570331  0.500000  1
  Rh  Rh17  1  0.284284  0.429669  0.500000  1
  Rh  Rh18  1  0.500000  0.000000  0.500000  1
  Rh  Rh19  1  0.000000  0.500000  0.500000  1
