# generated using pymatgen
data_CaY(Si2Rh3)2
_symmetry_space_group_name_H-M   'P 1'
_cell_length_a   6.64862357
_cell_length_b   6.64862286
_cell_length_c   6.64862324
_cell_angle_alpha   130.16877139
_cell_angle_beta   115.04127434
_cell_angle_gamma   86.08294107
_symmetry_Int_Tables_number   1
_chemical_formula_structural   CaY(Si2Rh3)2
_chemical_formula_sum   'Ca1 Y1 Si4 Rh6'
_cell_volume   194.37217153
_cell_formula_units_Z   1
loop_
 _symmetry_equiv_pos_site_id
 _symmetry_equiv_pos_as_xyz
  1  'x, y, z'
loop_
 _atom_site_type_symbol
 _atom_site_label
 _atom_site_symmetry_multiplicity
 _atom_site_fract_x
 _atom_site_fract_y
 _atom_site_fract_z
 _atom_site_occupancy
  Ca  Ca0  1  0.250000  0.533389  0.283389  1
  Y  Y1  1  0.750000  0.457090  0.707090  1
  Si  Si2  1  0.078869  0.882050  0.803181  1
  Si  Si3  1  0.922737  0.118822  0.196085  1
  Si  Si4  1  0.577263  0.773349  0.196085  1
  Si  Si5  1  0.421131  0.224312  0.803181  1
  Rh  Rh6  1  0.716943  0.002989  0.717615  1
  Rh  Rh7  1  0.214626  0.500672  0.717615  1
  Rh  Rh8  1  0.285374  0.002989  0.286046  1
  Rh  Rh9  1  0.783057  0.500672  0.286046  1
  Rh  Rh10  1  0.997781  0.001833  0.499614  1
  Rh  Rh11  1  0.502219  0.001833  0.004052  1
