# generated using pymatgen
data_TmZnCd2(Ni3B)2
_symmetry_space_group_name_H-M   'P 1'
_cell_length_a   5.04921100
_cell_length_b   5.04921039
_cell_length_c   13.84986900
_cell_angle_alpha   90.00000000
_cell_angle_beta   90.00000000
_cell_angle_gamma   120.00001056
_symmetry_Int_Tables_number   1
_chemical_formula_structural   TmZnCd2(Ni3B)2
_chemical_formula_sum   'Tm2 Zn2 Cd4 Ni12 B4'
_cell_volume   305.78997107
_cell_formula_units_Z   2
loop_
 _symmetry_equiv_pos_site_id
 _symmetry_equiv_pos_as_xyz
  1  'x, y, z'
loop_
 _atom_site_type_symbol
 _atom_site_label
 _atom_site_symmetry_multiplicity
 _atom_site_fract_x
 _atom_site_fract_y
 _atom_site_fract_z
 _atom_site_occupancy
  Tm  Tm0  1  0.333333  0.666667  0.750000  1
  Tm  Tm1  1  0.666667  0.333333  0.250000  1
  Zn  Zn2  1  0.000000  0.000000  0.000000  1
  Zn  Zn3  1  0.000000  0.000000  0.500000  1
  Cd  Cd4  1  0.333333  0.666667  0.529314  1
  Cd  Cd5  1  0.666667  0.333333  0.029314  1
  Cd  Cd6  1  0.666667  0.333333  0.470686  1
  Cd  Cd7  1  0.333333  0.666667  0.970686  1
  Ni  Ni8  1  0.166982  0.333965  0.148424  1
  Ni  Ni9  1  0.833018  0.666035  0.648424  1
  Ni  Ni10  1  0.666035  0.833018  0.148424  1
  Ni  Ni11  1  0.166982  0.833018  0.148424  1
  Ni  Ni12  1  0.833018  0.166982  0.648424  1
  Ni  Ni13  1  0.333965  0.166982  0.648424  1
  Ni  Ni14  1  0.833018  0.666035  0.851576  1
  Ni  Ni15  1  0.833018  0.166982  0.851576  1
  Ni  Ni16  1  0.333965  0.166982  0.851576  1
  Ni  Ni17  1  0.666035  0.833018  0.351576  1
  Ni  Ni18  1  0.166982  0.833018  0.351576  1
  Ni  Ni19  1  0.166982  0.333965  0.351576  1
  B  B20  1  0.333333  0.666667  0.250000  1
  B  B21  1  0.666667  0.333333  0.750000  1
  B  B22  1  0.000000  0.000000  0.250000  1
  B  B23  1  0.000000  0.000000  0.750000  1
