# generated using pymatgen
data_Lu3Hf(V3Si4)2
_symmetry_space_group_name_H-M   'P 1'
_cell_length_a   6.71249459
_cell_length_b   6.71239980
_cell_length_c   12.42190638
_cell_angle_alpha   90.08728546
_cell_angle_beta   89.88004163
_cell_angle_gamma   90.01062944
_symmetry_Int_Tables_number   1
_chemical_formula_structural   Lu3Hf(V3Si4)2
_chemical_formula_sum   'Lu6 Hf2 V12 Si16'
_cell_volume   559.69129618
_cell_formula_units_Z   2
loop_
 _symmetry_equiv_pos_site_id
 _symmetry_equiv_pos_as_xyz
  1  'x, y, z'
loop_
 _atom_site_type_symbol
 _atom_site_label
 _atom_site_symmetry_multiplicity
 _atom_site_fract_x
 _atom_site_fract_y
 _atom_site_fract_z
 _atom_site_occupancy
  Lu  Lu0  1  0.163006  0.500114  0.779614  1
  Lu  Lu1  1  0.501025  0.837734  0.720555  1
  Lu  Lu2  1  0.500853  0.163135  0.219985  1
  Lu  Lu3  1  0.000398  0.337326  0.529442  1
  Lu  Lu4  1  0.663033  0.000284  0.971644  1
  Lu  Lu5  1  0.338291  0.999911  0.468613  1
  Hf  Hf6  1  0.005385  0.658834  0.030491  1
  Hf  Hf7  1  0.840946  0.505516  0.279829  1
  V  V8  1  0.328640  0.335636  0.001313  1
  V  V9  1  0.164799  0.827733  0.249016  1
  V  V10  1  0.831695  0.169288  0.751272  1
  V  V11  1  0.671659  0.668212  0.498986  1
  V  V12  1  0.001582  0.159624  0.126170  1
  V  V13  1  0.341082  0.504748  0.373450  1
  V  V14  1  0.659208  0.495929  0.878135  1
  V  V15  1  0.508768  0.341350  0.623783  1
  V  V16  1  0.491626  0.657329  0.124747  1
  V  V17  1  0.992696  0.839886  0.625267  1
  V  V18  1  0.155557  0.006843  0.875801  1
  V  V19  1  0.841036  0.989953  0.372191  1
  Si  Si20  1  0.286287  0.959671  0.065237  1
  Si  Si21  1  0.541487  0.787345  0.313883  1
  Si  Si22  1  0.460263  0.211180  0.815544  1
  Si  Si23  1  0.790425  0.539508  0.686025  1
  Si  Si24  1  0.206124  0.459276  0.184905  1
  Si  Si25  1  0.710696  0.039910  0.563960  1
  Si  Si26  1  0.959458  0.293613  0.936212  1
  Si  Si27  1  0.040527  0.708665  0.434300  1
  Si  Si28  1  0.705633  0.377638  0.070317  1
  Si  Si29  1  0.122388  0.203556  0.316595  1
  Si  Si30  1  0.873798  0.797346  0.819735  1
  Si  Si31  1  0.201270  0.125330  0.683457  1
  Si  Si32  1  0.798687  0.868092  0.180159  1
  Si  Si33  1  0.300925  0.625628  0.565672  1
  Si  Si34  1  0.371210  0.703254  0.933572  1
  Si  Si35  1  0.629542  0.300601  0.430124  1
