# generated using pymatgen
data_NaGe4PtRh5
_symmetry_space_group_name_H-M   'P 1'
_cell_length_a   7.31220143
_cell_length_b   7.31220079
_cell_length_c   3.81512100
_cell_angle_alpha   90.00000000
_cell_angle_beta   90.00000000
_cell_angle_gamma   120.60651969
_symmetry_Int_Tables_number   1
_chemical_formula_structural   NaGe4PtRh5
_chemical_formula_sum   'Na1 Ge4 Pt1 Rh5'
_cell_volume   175.56920802
_cell_formula_units_Z   1
loop_
 _symmetry_equiv_pos_site_id
 _symmetry_equiv_pos_as_xyz
  1  'x, y, z'
loop_
 _atom_site_type_symbol
 _atom_site_label
 _atom_site_symmetry_multiplicity
 _atom_site_fract_x
 _atom_site_fract_y
 _atom_site_fract_z
 _atom_site_occupancy
  Na  Na0  1  0.999736  0.000264  0.000000  1
  Ge  Ge1  1  0.803897  0.196103  0.500000  1
  Ge  Ge2  1  0.799022  0.605980  0.500000  1
  Ge  Ge3  1  0.394020  0.200978  0.500000  1
  Ge  Ge4  1  0.338093  0.661907  0.000000  1
  Pt  Pt5  1  0.197001  0.802999  0.500000  1
  Rh  Rh6  1  0.534657  0.465343  0.000000  1
  Rh  Rh7  1  0.531293  0.066036  0.000000  1
  Rh  Rh8  1  0.933964  0.468707  0.000000  1
  Rh  Rh9  1  0.197843  0.396194  0.500000  1
  Rh  Rh10  1  0.603806  0.802157  0.500000  1
