# generated using pymatgen
data_ScNb3(VP)4
_symmetry_space_group_name_H-M   'P 1'
_cell_length_a   3.44100400
_cell_length_b   6.46527881
_cell_length_c   7.75596011
_cell_angle_alpha   90.67112362
_cell_angle_beta   90.00000000
_cell_angle_gamma   90.00000000
_symmetry_Int_Tables_number   1
_chemical_formula_structural   ScNb3(VP)4
_chemical_formula_sum   'Sc1 Nb3 V4 P4'
_cell_volume   172.53539731
_cell_formula_units_Z   1
loop_
 _symmetry_equiv_pos_site_id
 _symmetry_equiv_pos_as_xyz
  1  'x, y, z'
loop_
 _atom_site_type_symbol
 _atom_site_label
 _atom_site_symmetry_multiplicity
 _atom_site_fract_x
 _atom_site_fract_y
 _atom_site_fract_z
 _atom_site_occupancy
  Sc  Sc0  1  0.250000  0.037813  0.832741  1
  Nb  Nb1  1  0.250000  0.537167  0.666349  1
  Nb  Nb2  1  0.750000  0.962643  0.172018  1
  Nb  Nb3  1  0.750000  0.460310  0.330641  1
  V  V4  1  0.250000  0.136395  0.440262  1
  V  V5  1  0.250000  0.631083  0.057447  1
  V  V6  1  0.750000  0.865323  0.556191  1
  V  V7  1  0.750000  0.371569  0.944820  1
  P  P8  1  0.250000  0.759649  0.361576  1
  P  P9  1  0.250000  0.258540  0.138055  1
  P  P10  1  0.750000  0.240685  0.640662  1
  P  P11  1  0.750000  0.738824  0.859238  1
