# generated using pymatgen
data_YPu3F15
_symmetry_space_group_name_H-M   'P 1'
_cell_length_a   8.60976369
_cell_length_b   8.60976310
_cell_length_c   8.59839464
_cell_angle_alpha   79.16517138
_cell_angle_beta   79.16517409
_cell_angle_gamma   100.38967644
_symmetry_Int_Tables_number   1
_chemical_formula_structural   YPu3F15
_chemical_formula_sum   'Y2 Pu6 F30'
_cell_volume   599.29502777
_cell_formula_units_Z   2
loop_
 _symmetry_equiv_pos_site_id
 _symmetry_equiv_pos_as_xyz
  1  'x, y, z'
loop_
 _atom_site_type_symbol
 _atom_site_label
 _atom_site_symmetry_multiplicity
 _atom_site_fract_x
 _atom_site_fract_y
 _atom_site_fract_z
 _atom_site_occupancy
  Y  Y0  1  0.178995  0.821005  0.250000  1
  Y  Y1  1  0.821005  0.178995  0.750000  1
  Pu  Pu2  1  0.748098  0.251902  0.250000  1
  Pu  Pu3  1  0.251902  0.748098  0.750000  1
  Pu  Pu4  1  0.754888  0.679206  0.678566  1
  Pu  Pu5  1  0.320794  0.245112  0.821434  1
  Pu  Pu6  1  0.245112  0.320794  0.321434  1
  Pu  Pu7  1  0.679206  0.754888  0.178566  1
  F  F8  1  0.322177  0.344164  0.051605  1
  F  F9  1  0.944171  0.813250  0.157665  1
  F  F10  1  0.840723  0.450148  0.682164  1
  F  F11  1  0.450148  0.840723  0.182164  1
  F  F12  1  0.813250  0.944171  0.657665  1
  F  F13  1  0.344164  0.322177  0.551604  1
  F  F14  1  0.677823  0.655836  0.948395  1
  F  F15  1  0.055829  0.186750  0.842335  1
  F  F16  1  0.159277  0.549852  0.317836  1
  F  F17  1  0.549852  0.159277  0.817836  1
  F  F18  1  0.186750  0.055829  0.342335  1
  F  F19  1  0.655836  0.677823  0.448395  1
  F  F20  1  0.776461  0.278136  0.993485  1
  F  F21  1  0.007322  0.278735  0.216378  1
  F  F22  1  0.781197  0.509785  0.217277  1
  F  F23  1  0.509785  0.781197  0.717277  1
  F  F24  1  0.278735  0.007322  0.716378  1
  F  F25  1  0.278136  0.776461  0.493485  1
  F  F26  1  0.223539  0.721864  0.006515  1
  F  F27  1  0.992678  0.721265  0.783622  1
  F  F28  1  0.218803  0.490215  0.782723  1
  F  F29  1  0.490215  0.218803  0.282723  1
  F  F30  1  0.721265  0.992678  0.283622  1
  F  F31  1  0.721864  0.223539  0.506515  1
  F  F32  1  0.468458  0.531542  0.250000  1
  F  F33  1  0.749699  0.963466  0.966031  1
  F  F34  1  0.036534  0.250301  0.533969  1
  F  F35  1  0.250301  0.036534  0.033969  1
  F  F36  1  0.963466  0.749699  0.466031  1
  F  F37  1  0.531542  0.468458  0.750000  1
