# generated using pymatgen
data_CeNp7H24
_symmetry_space_group_name_H-M   'P 1'
_cell_length_a   6.65126200
_cell_length_b   6.65126200
_cell_length_c   6.65126200
_cell_angle_alpha   90.00000000
_cell_angle_beta   90.00000000
_cell_angle_gamma   90.00000000
_symmetry_Int_Tables_number   1
_chemical_formula_structural   CeNp7H24
_chemical_formula_sum   'Ce1 Np7 H24'
_cell_volume   294.24708316
_cell_formula_units_Z   1
loop_
 _symmetry_equiv_pos_site_id
 _symmetry_equiv_pos_as_xyz
  1  'x, y, z'
loop_
 _atom_site_type_symbol
 _atom_site_label
 _atom_site_symmetry_multiplicity
 _atom_site_fract_x
 _atom_site_fract_y
 _atom_site_fract_z
 _atom_site_occupancy
  Ce  Ce0  1  0.500000  0.500000  0.500000  1
  Np  Np1  1  0.000000  0.000000  0.000000  1
  Np  Np2  1  0.248076  0.000000  0.500000  1
  Np  Np3  1  0.751924  0.000000  0.500000  1
  Np  Np4  1  0.000000  0.500000  0.248076  1
  Np  Np5  1  0.000000  0.500000  0.751924  1
  Np  Np6  1  0.500000  0.751924  0.000000  1
  Np  Np7  1  0.500000  0.248076  0.000000  1
  H  H8  1  0.000000  0.154682  0.301559  1
  H  H9  1  0.500000  0.188288  0.657402  1
  H  H10  1  0.500000  0.811712  0.342598  1
  H  H11  1  0.811712  0.657402  0.500000  1
  H  H12  1  0.188288  0.657402  0.500000  1
  H  H13  1  0.342598  0.500000  0.811712  1
  H  H14  1  0.657402  0.500000  0.811712  1
  H  H15  1  0.301559  0.000000  0.154682  1
  H  H16  1  0.154682  0.301559  0.000000  1
  H  H17  1  0.845318  0.698441  0.000000  1
  H  H18  1  0.301559  0.000000  0.845318  1
  H  H19  1  0.845318  0.301559  0.000000  1
  H  H20  1  0.698441  0.000000  0.154682  1
  H  H21  1  0.698441  0.000000  0.845318  1
  H  H22  1  0.154682  0.698441  0.000000  1
  H  H23  1  0.000000  0.845318  0.698441  1
  H  H24  1  0.000000  0.154682  0.698441  1
  H  H25  1  0.000000  0.845318  0.301559  1
  H  H26  1  0.657402  0.500000  0.188288  1
  H  H27  1  0.342598  0.500000  0.188288  1
  H  H28  1  0.811712  0.342598  0.500000  1
  H  H29  1  0.188288  0.342598  0.500000  1
  H  H30  1  0.500000  0.811712  0.657402  1
  H  H31  1  0.500000  0.188288  0.342598  1
