# generated using pymatgen
data_CsCl19
_symmetry_space_group_name_H-M   'P 1'
_cell_length_a   8.92837248
_cell_length_b   7.95726937
_cell_length_c   12.85976500
_cell_angle_alpha   97.52151899
_cell_angle_beta   107.55365995
_cell_angle_gamma   112.30082075
_symmetry_Int_Tables_number   1
_chemical_formula_structural   CsCl19
_chemical_formula_sum   'Cs1 Cl19'
_cell_volume   774.13172709
_cell_formula_units_Z   1
loop_
 _symmetry_equiv_pos_site_id
 _symmetry_equiv_pos_as_xyz
  1  'x, y, z'
loop_
 _atom_site_type_symbol
 _atom_site_label
 _atom_site_symmetry_multiplicity
 _atom_site_fract_x
 _atom_site_fract_y
 _atom_site_fract_z
 _atom_site_occupancy
  Cs  Cs0  1  0.000000  0.500000  0.000000  1
  Cl  Cl1  1  0.742846  0.549968  0.593326  1
  Cl  Cl2  1  0.729684  0.214855  0.228017  1
  Cl  Cl3  1  0.270316  0.785145  0.771983  1
  Cl  Cl4  1  0.486894  0.683761  0.150997  1
  Cl  Cl5  1  0.257154  0.450032  0.406674  1
  Cl  Cl6  1  0.513106  0.316239  0.849003  1
  Cl  Cl7  1  0.000000  0.000000  0.000000  1
  Cl  Cl8  1  0.139082  0.901550  0.371119  1
  Cl  Cl9  1  0.860918  0.098450  0.628881  1
  Cl  Cl10  1  0.597207  0.603886  0.867334  1
  Cl  Cl11  1  0.600268  0.268589  0.555236  1
  Cl  Cl12  1  0.729656  0.980193  0.901626  1
  Cl  Cl13  1  0.270344  0.019807  0.098374  1
  Cl  Cl14  1  0.399732  0.731411  0.444764  1
  Cl  Cl15  1  0.126286  0.502293  0.723587  1
  Cl  Cl16  1  0.402793  0.396114  0.132666  1
  Cl  Cl17  1  0.995243  0.044610  0.327569  1
  Cl  Cl18  1  0.004757  0.955390  0.672431  1
  Cl  Cl19  1  0.873714  0.497707  0.276413  1
