# generated using pymatgen
data_Er4Os7W
_symmetry_space_group_name_H-M   'P 1'
_cell_length_a   5.28887557
_cell_length_b   5.28887565
_cell_length_c   8.84975800
_cell_angle_alpha   90.00000000
_cell_angle_beta   90.00000000
_cell_angle_gamma   118.19574167
_symmetry_Int_Tables_number   1
_chemical_formula_structural   Er4Os7W
_chemical_formula_sum   'Er4 Os7 W1'
_cell_volume   218.17293675
_cell_formula_units_Z   1
loop_
 _symmetry_equiv_pos_site_id
 _symmetry_equiv_pos_as_xyz
  1  'x, y, z'
loop_
 _atom_site_type_symbol
 _atom_site_label
 _atom_site_symmetry_multiplicity
 _atom_site_fract_x
 _atom_site_fract_y
 _atom_site_fract_z
 _atom_site_occupancy
  Er  Er0  1  0.328691  0.671309  0.437535  1
  Er  Er1  1  0.666681  0.333319  0.566300  1
  Er  Er2  1  0.666681  0.333319  0.933700  1
  Er  Er3  1  0.328691  0.671309  0.062465  1
  Os  Os4  1  0.992199  0.007801  0.502557  1
  Os  Os5  1  0.992199  0.007801  0.997443  1
  Os  Os6  1  0.825007  0.649662  0.250000  1
  Os  Os7  1  0.350338  0.174993  0.250000  1
  Os  Os8  1  0.178031  0.821969  0.750000  1
  Os  Os9  1  0.173695  0.338361  0.750000  1
  Os  Os10  1  0.661639  0.826305  0.750000  1
  W  W11  1  0.836146  0.163854  0.250000  1
