# generated using pymatgen
data_NdUInIr2
_symmetry_space_group_name_H-M   'P 1'
_cell_length_a   7.81032501
_cell_length_b   7.80686901
_cell_length_c   3.65105500
_cell_angle_alpha   90.00000000
_cell_angle_beta   90.00000000
_cell_angle_gamma   90.00573045
_symmetry_Int_Tables_number   1
_chemical_formula_structural   NdUInIr2
_chemical_formula_sum   'Nd2 U2 In2 Ir4'
_cell_volume   222.62009926
_cell_formula_units_Z   2
loop_
 _symmetry_equiv_pos_site_id
 _symmetry_equiv_pos_as_xyz
  1  'x, y, z'
loop_
 _atom_site_type_symbol
 _atom_site_label
 _atom_site_symmetry_multiplicity
 _atom_site_fract_x
 _atom_site_fract_y
 _atom_site_fract_z
 _atom_site_occupancy
  Nd  Nd0  1  0.171766  0.328190  0.500000  1
  Nd  Nd1  1  0.671751  0.171855  0.500000  1
  U  U2  1  0.325301  0.833477  0.500000  1
  U  U3  1  0.825136  0.666494  0.500000  1
  In  In4  1  0.492789  0.500231  0.000000  1
  In  In5  1  0.992936  0.999587  0.000000  1
  Ir  Ir6  1  0.368802  0.083290  0.000000  1
  Ir  Ir7  1  0.641322  0.837759  0.000000  1
  Ir  Ir8  1  0.868761  0.416875  0.000000  1
  Ir  Ir9  1  0.141436  0.662240  0.000000  1
