# generated using pymatgen
data_AcLa2OsI3
_symmetry_space_group_name_H-M   'P 1'
_cell_length_a   4.47814700
_cell_length_b   9.88045337
_cell_length_c   12.42514470
_cell_angle_alpha   86.19913601
_cell_angle_beta   90.00000000
_cell_angle_gamma   90.00000000
_symmetry_Int_Tables_number   1
_chemical_formula_structural   AcLa2OsI3
_chemical_formula_sum   'Ac2 La4 Os2 I6'
_cell_volume   548.55525211
_cell_formula_units_Z   2
loop_
 _symmetry_equiv_pos_site_id
 _symmetry_equiv_pos_as_xyz
  1  'x, y, z'
loop_
 _atom_site_type_symbol
 _atom_site_label
 _atom_site_symmetry_multiplicity
 _atom_site_fract_x
 _atom_site_fract_y
 _atom_site_fract_z
 _atom_site_occupancy
  Ac  Ac0  1  0.250000  0.317480  0.877303  1
  Ac  Ac1  1  0.750000  0.682520  0.122697  1
  La  La2  1  0.750000  0.115764  0.666906  1
  La  La3  1  0.250000  0.884236  0.333094  1
  La  La4  1  0.750000  0.094674  0.103969  1
  La  La5  1  0.250000  0.905326  0.896031  1
  Os  Os6  1  0.750000  0.110309  0.871606  1
  Os  Os7  1  0.250000  0.889691  0.128394  1
  I  I8  1  0.750000  0.123409  0.378235  1
  I  I9  1  0.250000  0.876591  0.621765  1
  I  I10  1  0.250000  0.354749  0.607127  1
  I  I11  1  0.750000  0.645251  0.392873  1
  I  I12  1  0.750000  0.614397  0.856687  1
  I  I13  1  0.250000  0.385603  0.143313  1
