# generated using pymatgen
data_Lu12Cd2Fe2Ir
_symmetry_space_group_name_H-M   'P 1'
_cell_length_a   8.17466997
_cell_length_b   8.17467078
_cell_length_c   8.17467000
_cell_angle_alpha   108.28870578
_cell_angle_beta   108.28870029
_cell_angle_gamma   111.86305697
_symmetry_Int_Tables_number   1
_chemical_formula_structural   Lu12Cd2Fe2Ir
_chemical_formula_sum   'Lu12 Cd2 Fe2 Ir1'
_cell_volume   419.96996480
_cell_formula_units_Z   1
loop_
 _symmetry_equiv_pos_site_id
 _symmetry_equiv_pos_as_xyz
  1  'x, y, z'
loop_
 _atom_site_type_symbol
 _atom_site_label
 _atom_site_symmetry_multiplicity
 _atom_site_fract_x
 _atom_site_fract_y
 _atom_site_fract_z
 _atom_site_occupancy
  Lu  Lu0  1  0.309232  0.309232  0.618465  1
  Lu  Lu1  1  0.690768  0.690768  0.381535  1
  Lu  Lu2  1  0.690768  0.309232  0.000000  1
  Lu  Lu3  1  0.309232  0.690768  0.000000  1
  Lu  Lu4  1  0.192138  0.430574  0.238436  1
  Lu  Lu5  1  0.807862  0.569426  0.761564  1
  Lu  Lu6  1  0.192138  0.953700  0.761564  1
  Lu  Lu7  1  0.953700  0.192138  0.761564  1
  Lu  Lu8  1  0.807862  0.046300  0.238436  1
  Lu  Lu9  1  0.046300  0.807862  0.238436  1
  Lu  Lu10  1  0.430574  0.192138  0.238436  1
  Lu  Lu11  1  0.569426  0.807862  0.761564  1
  Cd  Cd12  1  0.000000  0.500000  0.500000  1
  Cd  Cd13  1  0.500000  0.000000  0.500000  1
  Fe  Fe14  1  0.383443  0.383443  0.000000  1
  Fe  Fe15  1  0.616557  0.616557  0.000000  1
  Ir  Ir16  1  0.000000  0.000000  0.000000  1
