# generated using pymatgen
data_DyEr3Al2(CdPt2)2
_symmetry_space_group_name_H-M   'P 1'
_cell_length_a   4.33883700
_cell_length_b   6.91571312
_cell_length_c   8.22363688
_cell_angle_alpha   92.56898650
_cell_angle_beta   90.00000000
_cell_angle_gamma   90.00000000
_symmetry_Int_Tables_number   1
_chemical_formula_structural   DyEr3Al2(CdPt2)2
_chemical_formula_sum   'Dy1 Er3 Al2 Cd2 Pt4'
_cell_volume   246.51169877
_cell_formula_units_Z   1
loop_
 _symmetry_equiv_pos_site_id
 _symmetry_equiv_pos_as_xyz
  1  'x, y, z'
loop_
 _atom_site_type_symbol
 _atom_site_label
 _atom_site_symmetry_multiplicity
 _atom_site_fract_x
 _atom_site_fract_y
 _atom_site_fract_z
 _atom_site_occupancy
  Dy  Dy0  1  0.250000  0.464197  0.185148  1
  Er  Er1  1  0.750000  0.535783  0.814514  1
  Er  Er2  1  0.750000  0.036230  0.676207  1
  Er  Er3  1  0.250000  0.963465  0.324503  1
  Al  Al4  1  0.750000  0.638952  0.443878  1
  Al  Al5  1  0.250000  0.361189  0.556564  1
  Cd  Cd6  1  0.250000  0.857433  0.935784  1
  Cd  Cd7  1  0.750000  0.141864  0.063502  1
  Pt  Pt8  1  0.250000  0.733784  0.601348  1
  Pt  Pt9  1  0.750000  0.265252  0.399637  1
  Pt  Pt10  1  0.750000  0.740045  0.144480  1
  Pt  Pt11  1  0.250000  0.261806  0.854435  1
