# generated using pymatgen
data_Tb2YbNi7B2
_symmetry_space_group_name_H-M   'P 1'
_cell_length_a   5.04363700
_cell_length_b   5.06023783
_cell_length_c   14.22107400
_cell_angle_alpha   90.00000000
_cell_angle_beta   90.00000000
_cell_angle_gamma   119.89154296
_symmetry_Int_Tables_number   1
_chemical_formula_structural   Tb2YbNi7B2
_chemical_formula_sum   'Tb4 Yb2 Ni14 B4'
_cell_volume   314.66712804
_cell_formula_units_Z   2
loop_
 _symmetry_equiv_pos_site_id
 _symmetry_equiv_pos_as_xyz
  1  'x, y, z'
loop_
 _atom_site_type_symbol
 _atom_site_label
 _atom_site_symmetry_multiplicity
 _atom_site_fract_x
 _atom_site_fract_y
 _atom_site_fract_z
 _atom_site_occupancy
  Tb  Tb0  1  0.333467  0.666933  0.035739  1
  Tb  Tb1  1  0.333467  0.666933  0.464261  1
  Tb  Tb2  1  0.666534  0.333067  0.535739  1
  Tb  Tb3  1  0.666534  0.333067  0.964261  1
  Yb  Yb4  1  0.333320  0.666641  0.250000  1
  Yb  Yb5  1  0.666679  0.333357  0.750000  1
  Ni  Ni6  1  0.000000  0.000000  0.000000  1
  Ni  Ni7  1  0.834333  0.668666  0.150383  1
  Ni  Ni8  1  0.331456  0.165766  0.150196  1
  Ni  Ni9  1  0.834310  0.165766  0.150196  1
  Ni  Ni10  1  0.331456  0.165766  0.349804  1
  Ni  Ni11  1  0.834310  0.165766  0.349804  1
  Ni  Ni12  1  0.834333  0.668666  0.349617  1
  Ni  Ni13  1  0.000000  0.000000  0.500000  1
  Ni  Ni14  1  0.165667  0.331335  0.650383  1
  Ni  Ni15  1  0.165689  0.834235  0.650196  1
  Ni  Ni16  1  0.668545  0.834235  0.650196  1
  Ni  Ni17  1  0.165689  0.834235  0.849804  1
  Ni  Ni18  1  0.668545  0.834235  0.849804  1
  Ni  Ni19  1  0.165667  0.331335  0.849617  1
  B  B20  1  0.999983  0.999966  0.250000  1
  B  B21  1  0.666672  0.333343  0.250000  1
  B  B22  1  0.000017  0.000034  0.750000  1
  B  B23  1  0.333329  0.666657  0.750000  1
