# generated using pymatgen
data_HoTm5(CoSn6)2
_symmetry_space_group_name_H-M   'P 1'
_cell_length_a   8.43277545
_cell_length_b   8.43277662
_cell_length_c   13.07927449
_cell_angle_alpha   89.99181283
_cell_angle_beta   90.00819304
_cell_angle_gamma   148.81686919
_symmetry_Int_Tables_number   1
_chemical_formula_structural   HoTm5(CoSn6)2
_chemical_formula_sum   'Ho1 Tm5 Co2 Sn12'
_cell_volume   481.57727325
_cell_formula_units_Z   1
loop_
 _symmetry_equiv_pos_site_id
 _symmetry_equiv_pos_as_xyz
  1  'x, y, z'
loop_
 _atom_site_type_symbol
 _atom_site_label
 _atom_site_symmetry_multiplicity
 _atom_site_fract_x
 _atom_site_fract_y
 _atom_site_fract_z
 _atom_site_occupancy
  Ho  Ho0  1  0.899406  0.100594  0.405611  1
  Tm  Tm1  1  0.898622  0.101378  0.094220  1
  Tm  Tm2  1  0.101461  0.898539  0.594987  1
  Tm  Tm3  1  0.900511  0.099489  0.750700  1
  Tm  Tm4  1  0.101127  0.898873  0.905486  1
  Tm  Tm5  1  0.099510  0.900490  0.249258  1
  Co  Co6  1  0.299957  0.700043  0.249726  1
  Co  Co7  1  0.699772  0.300228  0.750082  1
  Sn  Sn8  1  0.756245  0.243755  0.571572  1
  Sn  Sn9  1  0.427491  0.572509  0.576218  1
  Sn  Sn10  1  0.573375  0.426625  0.424603  1
  Sn  Sn11  1  0.732780  0.267220  0.249729  1
  Sn  Sn12  1  0.267104  0.732896  0.750076  1
  Sn  Sn13  1  0.243730  0.756270  0.071306  1
  Sn  Sn14  1  0.243592  0.756408  0.428398  1
  Sn  Sn15  1  0.573119  0.426881  0.074559  1
  Sn  Sn16  1  0.454528  0.545472  0.249011  1
  Sn  Sn17  1  0.545298  0.454702  0.750629  1
  Sn  Sn18  1  0.756056  0.243944  0.928707  1
  Sn  Sn19  1  0.426315  0.573685  0.925124  1
