# generated using pymatgen
data_Sm3Cd3AgPtAu
_symmetry_space_group_name_H-M   'P 1'
_cell_length_a   7.98609900
_cell_length_b   7.98609872
_cell_length_c   3.85615700
_cell_angle_alpha   90.00000000
_cell_angle_beta   90.00000000
_cell_angle_gamma   120.00000530
_symmetry_Int_Tables_number   1
_chemical_formula_structural   Sm3Cd3AgPtAu
_chemical_formula_sum   'Sm3 Cd3 Ag1 Pt1 Au1'
_cell_volume   212.98777669
_cell_formula_units_Z   1
loop_
 _symmetry_equiv_pos_site_id
 _symmetry_equiv_pos_as_xyz
  1  'x, y, z'
loop_
 _atom_site_type_symbol
 _atom_site_label
 _atom_site_symmetry_multiplicity
 _atom_site_fract_x
 _atom_site_fract_y
 _atom_site_fract_z
 _atom_site_occupancy
  Sm  Sm0  1  0.584004  0.984524  0.000000  1
  Sm  Sm1  1  0.015476  0.599480  0.000000  1
  Sm  Sm2  1  0.400520  0.415996  0.000000  1
  Cd  Cd3  1  0.263824  0.001464  0.500000  1
  Cd  Cd4  1  0.998536  0.262360  0.500000  1
  Cd  Cd5  1  0.737640  0.736176  0.500000  1
  Ag  Ag6  1  0.000000  0.000000  0.000000  1
  Pt  Pt7  1  0.333333  0.666667  0.500000  1
  Au  Au8  1  0.666667  0.333333  0.500000  1
