# generated using pymatgen
data_Tb11Tl6In3(NiPd)2
_symmetry_space_group_name_H-M   'P 1'
_cell_length_a   13.27769161
_cell_length_b   13.19375547
_cell_length_c   3.70689800
_cell_angle_alpha   90.00000000
_cell_angle_beta   90.00000000
_cell_angle_gamma   112.22811462
_symmetry_Int_Tables_number   1
_chemical_formula_structural   Tb11Tl6In3(NiPd)2
_chemical_formula_sum   'Tb11 Tl6 In3 Ni2 Pd2'
_cell_volume   601.12515658
_cell_formula_units_Z   1
loop_
 _symmetry_equiv_pos_site_id
 _symmetry_equiv_pos_as_xyz
  1  'x, y, z'
loop_
 _atom_site_type_symbol
 _atom_site_label
 _atom_site_symmetry_multiplicity
 _atom_site_fract_x
 _atom_site_fract_y
 _atom_site_fract_z
 _atom_site_occupancy
  Tb  Tb0  1  0.077688  0.416609  0.000000  1
  Tb  Tb1  1  0.922312  0.583391  0.000000  1
  Tb  Tb2  1  0.418109  0.081094  0.000000  1
  Tb  Tb3  1  0.581891  0.918906  0.000000  1
  Tb  Tb4  1  0.619624  0.368851  0.000000  1
  Tb  Tb5  1  0.380376  0.631149  0.000000  1
  Tb  Tb6  1  0.836732  0.156199  0.000000  1
  Tb  Tb7  1  0.163268  0.843801  0.000000  1
  Tb  Tb8  1  0.000000  0.000000  0.000000  1
  Tb  Tb9  1  0.315762  0.307959  0.000000  1
  Tb  Tb10  1  0.684238  0.692041  0.000000  1
  Tl  Tl11  1  0.843698  0.368322  0.500000  1
  Tl  Tl12  1  0.156302  0.631678  0.500000  1
  Tl  Tl13  1  0.369648  0.845070  0.500000  1
  Tl  Tl14  1  0.630352  0.154930  0.500000  1
  Tl  Tl15  1  0.075190  0.216479  0.500000  1
  Tl  Tl16  1  0.924810  0.783521  0.500000  1
  In  In17  1  0.220390  0.075592  0.500000  1
  In  In18  1  0.779610  0.924408  0.500000  1
  In  In19  1  0.500000  0.500000  0.500000  1
  Ni  Ni20  1  0.445832  0.245754  0.500000  1
  Ni  Ni21  1  0.554168  0.754246  0.500000  1
  Pd  Pd22  1  0.253925  0.451804  0.500000  1
  Pd  Pd23  1  0.746075  0.548196  0.500000  1
