# generated using pymatgen
data_Th2FeCo16
_symmetry_space_group_name_H-M   'P 1'
_cell_length_a   6.32428829
_cell_length_b   6.32429028
_cell_length_c   6.32428894
_cell_angle_alpha   82.80207386
_cell_angle_beta   82.80207418
_cell_angle_gamma   82.80207805
_symmetry_Int_Tables_number   1
_chemical_formula_structural   Th2FeCo16
_chemical_formula_sum   'Th2 Fe1 Co16'
_cell_volume   247.43088011
_cell_formula_units_Z   1
loop_
 _symmetry_equiv_pos_site_id
 _symmetry_equiv_pos_as_xyz
  1  'x, y, z'
loop_
 _atom_site_type_symbol
 _atom_site_label
 _atom_site_symmetry_multiplicity
 _atom_site_fract_x
 _atom_site_fract_y
 _atom_site_fract_z
 _atom_site_occupancy
  Th  Th0  1  0.656265  0.656265  0.656265  1
  Th  Th1  1  0.345007  0.345008  0.345008  1
  Fe  Fe2  1  0.095631  0.095631  0.095631  1
  Co  Co3  1  0.345287  0.345287  0.853038  1
  Co  Co4  1  0.853038  0.345287  0.345287  1
  Co  Co5  1  0.345287  0.853038  0.345287  1
  Co  Co6  1  0.655309  0.655309  0.148422  1
  Co  Co7  1  0.148422  0.655309  0.655309  1
  Co  Co8  1  0.655309  0.148422  0.655309  1
  Co  Co9  1  0.714078  0.285460  0.999630  1
  Co  Co10  1  0.999630  0.714078  0.285460  1
  Co  Co11  1  0.285460  0.999630  0.714078  1
  Co  Co12  1  0.999630  0.285460  0.714078  1
  Co  Co13  1  0.714078  0.999630  0.285460  1
  Co  Co14  1  0.285460  0.714078  0.999630  1
  Co  Co15  1  0.999009  0.999009  0.501931  1
  Co  Co16  1  0.501931  0.999009  0.999009  1
  Co  Co17  1  0.999009  0.501931  0.999009  1
  Co  Co18  1  0.902156  0.902156  0.902156  1
