# generated using pymatgen
data_Y16Cd4Co3Ru
_symmetry_space_group_name_H-M   'P 1'
_cell_length_a   9.60802424
_cell_length_b   9.56279665
_cell_length_c   9.56282200
_cell_angle_alpha   59.99968955
_cell_angle_beta   60.15520551
_cell_angle_gamma   60.15515002
_symmetry_Int_Tables_number   1
_chemical_formula_structural   Y16Cd4Co3Ru
_chemical_formula_sum   'Y16 Cd4 Co3 Ru1'
_cell_volume   622.73565426
_cell_formula_units_Z   1
loop_
 _symmetry_equiv_pos_site_id
 _symmetry_equiv_pos_as_xyz
  1  'x, y, z'
loop_
 _atom_site_type_symbol
 _atom_site_label
 _atom_site_symmetry_multiplicity
 _atom_site_fract_x
 _atom_site_fract_y
 _atom_site_fract_z
 _atom_site_occupancy
  Y  Y0  1  0.436683  0.437232  0.063045  1
  Y  Y1  1  0.063355  0.059409  0.438619  1
  Y  Y2  1  0.436685  0.063038  0.063044  1
  Y  Y3  1  0.842426  0.849517  0.849518  1
  Y  Y4  1  0.689062  0.311606  0.311595  1
  Y  Y5  1  0.063356  0.438616  0.438619  1
  Y  Y6  1  0.315353  0.687849  0.687847  1
  Y  Y7  1  0.315360  0.308946  0.687845  1
  Y  Y8  1  0.842434  0.849522  0.458531  1
  Y  Y9  1  0.689062  0.687738  0.311590  1
  Y  Y10  1  0.461195  0.846273  0.846270  1
  Y  Y11  1  0.063352  0.438619  0.059411  1
  Y  Y12  1  0.842434  0.458531  0.849523  1
  Y  Y13  1  0.436682  0.063044  0.437231  1
  Y  Y14  1  0.315369  0.687844  0.308942  1
  Y  Y15  1  0.689066  0.311595  0.687738  1
  Cd  Cd16  1  0.080583  0.760016  0.079702  1
  Cd  Cd17  1  0.080584  0.079701  0.760015  1
  Cd  Cd18  1  0.760205  0.079931  0.079933  1
  Cd  Cd19  1  0.080582  0.079700  0.079702  1
  Co  Co20  1  0.639847  0.077429  0.641360  1
  Co  Co21  1  0.639847  0.641361  0.641360  1
  Co  Co22  1  0.639846  0.641360  0.077431  1
  Ru  Ru23  1  0.076632  0.641120  0.641124  1
