# generated using pymatgen
data_Dy10In8Cu3Pt
_symmetry_space_group_name_H-M   'P 1'
_cell_length_a   3.65395600
_cell_length_b   8.07684219
_cell_length_c   18.09664968
_cell_angle_alpha   89.93771860
_cell_angle_beta   90.00000000
_cell_angle_gamma   90.00000000
_symmetry_Int_Tables_number   1
_chemical_formula_structural   Dy10In8Cu3Pt
_chemical_formula_sum   'Dy10 In8 Cu3 Pt1'
_cell_volume   534.07571864
_cell_formula_units_Z   1
loop_
 _symmetry_equiv_pos_site_id
 _symmetry_equiv_pos_as_xyz
  1  'x, y, z'
loop_
 _atom_site_type_symbol
 _atom_site_label
 _atom_site_symmetry_multiplicity
 _atom_site_fract_x
 _atom_site_fract_y
 _atom_site_fract_z
 _atom_site_occupancy
  Dy  Dy0  1  0.000000  0.117293  0.416302  1
  Dy  Dy1  1  0.000000  0.881434  0.584161  1
  Dy  Dy2  1  0.000000  0.380630  0.915623  1
  Dy  Dy3  1  0.000000  0.617008  0.083349  1
  Dy  Dy4  1  0.000000  0.246888  0.219591  1
  Dy  Dy5  1  0.000000  0.759158  0.779893  1
  Dy  Dy6  1  0.000000  0.258382  0.720110  1
  Dy  Dy7  1  0.000000  0.739122  0.280122  1
  Dy  Dy8  1  0.000000  0.001043  0.999641  1
  Dy  Dy9  1  0.000000  0.501082  0.500474  1
  In  In10  1  0.500000  0.422731  0.352401  1
  In  In11  1  0.500000  0.575372  0.650160  1
  In  In12  1  0.500000  0.075306  0.849694  1
  In  In13  1  0.500000  0.925420  0.150074  1
  In  In14  1  0.500000  0.291109  0.066815  1
  In  In15  1  0.500000  0.707389  0.931138  1
  In  In16  1  0.500000  0.207231  0.569246  1
  In  In17  1  0.500000  0.792534  0.431785  1
  Cu  Cu18  1  0.500000  0.025773  0.302586  1
  Cu  Cu19  1  0.500000  0.973843  0.697948  1
  Cu  Cu20  1  0.500000  0.473988  0.801908  1
  Pt  Pt21  1  0.500000  0.527262  0.196981  1
