# generated using pymatgen
data_Th8Mn3Si12Ir
_symmetry_space_group_name_H-M   'P 1'
_cell_length_a   8.23400300
_cell_length_b   8.23400295
_cell_length_c   8.44712200
_cell_angle_alpha   90.00000000
_cell_angle_beta   90.00000000
_cell_angle_gamma   119.99999620
_symmetry_Int_Tables_number   1
_chemical_formula_structural   Th8Mn3Si12Ir
_chemical_formula_sum   'Th8 Mn3 Si12 Ir1'
_cell_volume   495.97690476
_cell_formula_units_Z   1
loop_
 _symmetry_equiv_pos_site_id
 _symmetry_equiv_pos_as_xyz
  1  'x, y, z'
loop_
 _atom_site_type_symbol
 _atom_site_label
 _atom_site_symmetry_multiplicity
 _atom_site_fract_x
 _atom_site_fract_y
 _atom_site_fract_z
 _atom_site_occupancy
  Th  Th0  1  0.000000  0.000000  0.249726  1
  Th  Th1  1  0.000000  0.000000  0.750233  1
  Th  Th2  1  0.499064  0.500936  0.247648  1
  Th  Th3  1  0.499064  0.998129  0.247648  1
  Th  Th4  1  0.001871  0.500936  0.247648  1
  Th  Th5  1  0.498246  0.501754  0.752418  1
  Th  Th6  1  0.498246  0.996491  0.752418  1
  Th  Th7  1  0.003509  0.501754  0.752418  1
  Mn  Mn8  1  0.666667  0.333333  0.501147  1
  Mn  Mn9  1  0.666667  0.333333  0.998105  1
  Mn  Mn10  1  0.333333  0.666667  0.001044  1
  Si  Si11  1  0.165023  0.834977  0.499365  1
  Si  Si12  1  0.165023  0.330048  0.499365  1
  Si  Si13  1  0.669952  0.834977  0.499365  1
  Si  Si14  1  0.829949  0.170051  0.500541  1
  Si  Si15  1  0.829949  0.659899  0.500541  1
  Si  Si16  1  0.340101  0.170051  0.500541  1
  Si  Si17  1  0.830730  0.169270  0.999711  1
  Si  Si18  1  0.830730  0.661460  0.999711  1
  Si  Si19  1  0.338540  0.169270  0.999711  1
  Si  Si20  1  0.169085  0.830915  0.000391  1
  Si  Si21  1  0.169085  0.338172  0.000391  1
  Si  Si22  1  0.661828  0.830915  0.000391  1
  Ir  Ir23  1  0.333333  0.666667  0.499519  1
