# generated using pymatgen
data_Tb2Er14Cd4Ir3Pd
_symmetry_space_group_name_H-M   'P 1'
_cell_length_a   9.57382790
_cell_length_b   9.57382882
_cell_length_c   9.57324825
_cell_angle_alpha   60.13025850
_cell_angle_beta   60.13025537
_cell_angle_gamma   60.09353181
_symmetry_Int_Tables_number   1
_chemical_formula_structural   Tb2Er14Cd4Ir3Pd
_chemical_formula_sum   'Tb2 Er14 Cd4 Ir3 Pd1'
_cell_volume   622.12134683
_cell_formula_units_Z   1
loop_
 _symmetry_equiv_pos_site_id
 _symmetry_equiv_pos_as_xyz
  1  'x, y, z'
loop_
 _atom_site_type_symbol
 _atom_site_label
 _atom_site_symmetry_multiplicity
 _atom_site_fract_x
 _atom_site_fract_y
 _atom_site_fract_z
 _atom_site_occupancy
  Tb  Tb0  1  0.813352  0.813352  0.188045  1
  Tb  Tb1  1  0.186821  0.186821  0.814715  1
  Er  Er2  1  0.597772  0.597772  0.598104  1
  Er  Er3  1  0.603582  0.603582  0.197543  1
  Er  Er4  1  0.603912  0.197302  0.603696  1
  Er  Er5  1  0.197302  0.603912  0.603696  1
  Er  Er6  1  0.054849  0.440530  0.440536  1
  Er  Er7  1  0.437955  0.060529  0.060424  1
  Er  Er8  1  0.440530  0.054849  0.440536  1
  Er  Er9  1  0.060529  0.437955  0.060424  1
  Er  Er10  1  0.440598  0.440598  0.054914  1
  Er  Er11  1  0.060427  0.060427  0.437953  1
  Er  Er12  1  0.188615  0.812910  0.812825  1
  Er  Er13  1  0.814413  0.187146  0.187203  1
  Er  Er14  1  0.812910  0.188615  0.812825  1
  Er  Er15  1  0.187146  0.814413  0.187203  1
  Cd  Cd16  1  0.830964  0.830964  0.830511  1
  Cd  Cd17  1  0.830971  0.830971  0.506260  1
  Cd  Cd18  1  0.830604  0.506220  0.830991  1
  Cd  Cd19  1  0.506220  0.830604  0.830991  1
  Ir  Ir20  1  0.391859  0.391859  0.823869  1
  Ir  Ir21  1  0.391502  0.823879  0.391914  1
  Ir  Ir22  1  0.823879  0.391502  0.391914  1
  Pd  Pd23  1  0.393289  0.393289  0.392909  1
