# generated using pymatgen
data_La3Pr5(Sc3Pb4)4
_symmetry_space_group_name_H-M   'P 1'
_cell_length_a   8.08011107
_cell_length_b   8.29434949
_cell_length_c   15.49301100
_cell_angle_alpha   90.00865548
_cell_angle_beta   90.00733915
_cell_angle_gamma   89.92886226
_symmetry_Int_Tables_number   1
_chemical_formula_structural   La3Pr5(Sc3Pb4)4
_chemical_formula_sum   'La3 Pr5 Sc12 Pb16'
_cell_volume   1038.32939046
_cell_formula_units_Z   1
loop_
 _symmetry_equiv_pos_site_id
 _symmetry_equiv_pos_as_xyz
  1  'x, y, z'
loop_
 _atom_site_type_symbol
 _atom_site_label
 _atom_site_symmetry_multiplicity
 _atom_site_fract_x
 _atom_site_fract_y
 _atom_site_fract_z
 _atom_site_occupancy
  La  La0  1  0.991065  0.173035  0.405675  1
  La  La1  1  0.491092  0.327036  0.405534  1
  La  La2  1  0.508847  0.673555  0.905510  1
  Pr  Pr3  1  0.511023  0.675151  0.596289  1
  Pr  Pr4  1  0.010667  0.825367  0.595606  1
  Pr  Pr5  1  0.010113  0.826067  0.904866  1
  Pr  Pr6  1  0.489653  0.324838  0.095087  1
  Pr  Pr7  1  0.989099  0.174616  0.095020  1
  Sc  Sc8  1  0.338355  0.156205  0.627502  1
  Sc  Sc9  1  0.660871  0.842379  0.372240  1
  Sc  Sc10  1  0.669341  0.005620  0.749973  1
  Sc  Sc11  1  0.161129  0.657257  0.372201  1
  Sc  Sc12  1  0.839237  0.342532  0.872346  1
  Sc  Sc13  1  0.838409  0.343941  0.627945  1
  Sc  Sc14  1  0.830682  0.506380  0.249249  1
  Sc  Sc15  1  0.330372  0.994292  0.249111  1
  Sc  Sc16  1  0.338457  0.156729  0.872487  1
  Sc  Sc17  1  0.160925  0.656564  0.126820  1
  Sc  Sc18  1  0.661951  0.844052  0.126774  1
  Sc  Sc19  1  0.169123  0.494044  0.749728  1
  Pb  Pb20  1  0.316356  0.851364  0.749788  1
  Pb  Pb21  1  0.471569  0.637238  0.249108  1
  Pb  Pb22  1  0.028599  0.136150  0.749890  1
  Pb  Pb23  1  0.528456  0.362970  0.749964  1
  Pb  Pb24  1  0.181749  0.454440  0.546125  1
  Pb  Pb25  1  0.971330  0.863181  0.249607  1
  Pb  Pb26  1  0.682377  0.148711  0.249236  1
  Pb  Pb27  1  0.818672  0.546365  0.045131  1
  Pb  Pb28  1  0.316705  0.953907  0.045159  1
  Pb  Pb29  1  0.180358  0.451703  0.955126  1
  Pb  Pb30  1  0.681351  0.046076  0.546133  1
  Pb  Pb31  1  0.319653  0.950688  0.455282  1
  Pb  Pb32  1  0.819485  0.549085  0.455497  1
  Pb  Pb33  1  0.818007  0.649330  0.750018  1
  Pb  Pb34  1  0.182490  0.351317  0.249232  1
  Pb  Pb35  1  0.682430  0.047818  0.954746  1
