# generated using pymatgen
data_Sm2Ni9Mo3As7
_symmetry_space_group_name_H-M   'P 1'
_cell_length_a   9.53223900
_cell_length_b   9.53223914
_cell_length_c   3.91334100
_cell_angle_alpha   90.00000000
_cell_angle_beta   90.00000000
_cell_angle_gamma   120.00000900
_symmetry_Int_Tables_number   1
_chemical_formula_structural   Sm2Ni9Mo3As7
_chemical_formula_sum   'Sm2 Ni9 Mo3 As7'
_cell_volume   307.94144065
_cell_formula_units_Z   1
loop_
 _symmetry_equiv_pos_site_id
 _symmetry_equiv_pos_as_xyz
  1  'x, y, z'
loop_
 _atom_site_type_symbol
 _atom_site_label
 _atom_site_symmetry_multiplicity
 _atom_site_fract_x
 _atom_site_fract_y
 _atom_site_fract_z
 _atom_site_occupancy
  Sm  Sm0  1  0.333333  0.666667  0.000000  1
  Sm  Sm1  1  0.000000  0.000000  0.500000  1
  Ni  Ni2  1  0.286630  0.390722  0.500000  1
  Ni  Ni3  1  0.609278  0.895906  0.500000  1
  Ni  Ni4  1  0.104094  0.713370  0.500000  1
  Ni  Ni5  1  0.515227  0.464479  0.000000  1
  Ni  Ni6  1  0.535521  0.050748  0.000000  1
  Ni  Ni7  1  0.949252  0.484773  0.000000  1
  Ni  Ni8  1  0.729398  0.762448  0.000000  1
  Ni  Ni9  1  0.237552  0.966950  0.000000  1
  Ni  Ni10  1  0.033050  0.270602  0.000000  1
  Mo  Mo11  1  0.770898  0.546722  0.500000  1
  Mo  Mo12  1  0.453278  0.224177  0.500000  1
  Mo  Mo13  1  0.775823  0.229102  0.500000  1
  As  As14  1  0.967817  0.743036  0.000000  1
  As  As15  1  0.256964  0.224780  0.000000  1
  As  As16  1  0.775220  0.032183  0.000000  1
  As  As17  1  0.666667  0.333333  0.000000  1
  As  As18  1  0.554165  0.626329  0.500000  1
  As  As19  1  0.373671  0.927837  0.500000  1
  As  As20  1  0.072163  0.445835  0.500000  1
