# generated using pymatgen
data_Nd16Tl3InOs4
_symmetry_space_group_name_H-M   'P 1'
_cell_length_a   10.00157885
_cell_length_b   10.00158010
_cell_length_c   10.00158000
_cell_angle_alpha   59.49840824
_cell_angle_beta   59.49839738
_cell_angle_gamma   59.49840673
_symmetry_Int_Tables_number   1
_chemical_formula_structural   Nd16Tl3InOs4
_chemical_formula_sum   'Nd16 Tl3 In1 Os4'
_cell_volume   699.37161055
_cell_formula_units_Z   1
loop_
 _symmetry_equiv_pos_site_id
 _symmetry_equiv_pos_as_xyz
  1  'x, y, z'
loop_
 _atom_site_type_symbol
 _atom_site_label
 _atom_site_symmetry_multiplicity
 _atom_site_fract_x
 _atom_site_fract_y
 _atom_site_fract_z
 _atom_site_occupancy
  Nd  Nd0  1  0.346217  0.346217  0.346217  1
  Nd  Nd1  1  0.347593  0.347593  0.959553  1
  Nd  Nd2  1  0.347593  0.959553  0.347593  1
  Nd  Nd3  1  0.959553  0.347593  0.347593  1
  Nd  Nd4  1  0.807669  0.192338  0.192338  1
  Nd  Nd5  1  0.192568  0.806745  0.806745  1
  Nd  Nd6  1  0.192338  0.807669  0.192338  1
  Nd  Nd7  1  0.806745  0.192568  0.806745  1
  Nd  Nd8  1  0.192338  0.192338  0.807669  1
  Nd  Nd9  1  0.806745  0.806745  0.192568  1
  Nd  Nd10  1  0.940472  0.558525  0.558525  1
  Nd  Nd11  1  0.556413  0.943764  0.943764  1
  Nd  Nd12  1  0.558525  0.940472  0.558525  1
  Nd  Nd13  1  0.943764  0.556413  0.943764  1
  Nd  Nd14  1  0.558525  0.558525  0.940472  1
  Nd  Nd15  1  0.943764  0.943764  0.556413  1
  Tl  Tl16  1  0.582988  0.582988  0.249803  1
  Tl  Tl17  1  0.582988  0.249803  0.582988  1
  Tl  Tl18  1  0.249803  0.582988  0.582988  1
  In  In19  1  0.581483  0.581483  0.581483  1
  Os  Os20  1  0.137999  0.137999  0.137999  1
  Os  Os21  1  0.138554  0.138554  0.586807  1
  Os  Os22  1  0.138554  0.586807  0.138554  1
  Os  Os23  1  0.586807  0.138554  0.138554  1
