# generated using pymatgen
data_TiBe9NbW
_symmetry_space_group_name_H-M   'P 1'
_cell_length_a   7.40977400
_cell_length_b   7.40977312
_cell_length_c   7.40977428
_cell_angle_alpha   35.23529349
_cell_angle_beta   35.23530571
_cell_angle_gamma   35.23528621
_symmetry_Int_Tables_number   1
_chemical_formula_structural   TiBe9NbW
_chemical_formula_sum   'Ti1 Be9 Nb1 W1'
_cell_volume   120.95896225
_cell_formula_units_Z   1
loop_
 _symmetry_equiv_pos_site_id
 _symmetry_equiv_pos_as_xyz
  1  'x, y, z'
loop_
 _atom_site_type_symbol
 _atom_site_label
 _atom_site_symmetry_multiplicity
 _atom_site_fract_x
 _atom_site_fract_y
 _atom_site_fract_z
 _atom_site_occupancy
  Ti  Ti0  1  0.140876  0.140876  0.140876  1
  Be  Be1  1  0.415243  0.921839  0.415243  1
  Be  Be2  1  0.415243  0.415243  0.921839  1
  Be  Be3  1  0.921839  0.415243  0.415243  1
  Be  Be4  1  0.586260  0.075654  0.586260  1
  Be  Be5  1  0.586260  0.586260  0.075654  1
  Be  Be6  1  0.075654  0.586260  0.586260  1
  Be  Be7  1  0.667202  0.667202  0.667202  1
  Be  Be8  1  0.335943  0.335943  0.335943  1
  Be  Be9  1  0.499761  0.499761  0.499761  1
  Nb  Nb10  1  0.996925  0.996925  0.996925  1
  W  W11  1  0.858794  0.858794  0.858794  1
