# generated using pymatgen
data_MnGaAg2F7
_symmetry_space_group_name_H-M   'P 1'
_cell_length_a   7.64572265
_cell_length_b   7.64572288
_cell_length_c   7.64572272
_cell_angle_alpha   120.79413059
_cell_angle_beta   117.55508634
_cell_angle_gamma   91.45799214
_symmetry_Int_Tables_number   1
_chemical_formula_structural   MnGaAg2F7
_chemical_formula_sum   'Mn2 Ga2 Ag4 F14'
_cell_volume   319.55996565
_cell_formula_units_Z   2
loop_
 _symmetry_equiv_pos_site_id
 _symmetry_equiv_pos_as_xyz
  1  'x, y, z'
loop_
 _atom_site_type_symbol
 _atom_site_label
 _atom_site_symmetry_multiplicity
 _atom_site_fract_x
 _atom_site_fract_y
 _atom_site_fract_z
 _atom_site_occupancy
  Mn  Mn0  1  0.000000  0.000000  0.500000  1
  Mn  Mn1  1  0.000000  0.500000  0.000000  1
  Ga  Ga2  1  0.500000  0.000000  0.500000  1
  Ga  Ga3  1  0.000000  0.500000  0.500000  1
  Ag  Ag4  1  0.000000  0.000000  0.000000  1
  Ag  Ag5  1  0.500000  0.500000  0.000000  1
  Ag  Ag6  1  0.500000  0.000000  0.000000  1
  Ag  Ag7  1  0.500000  0.500000  0.500000  1
  F  F8  1  0.370195  0.088769  0.281426  1
  F  F9  1  0.692657  0.411231  0.281426  1
  F  F10  1  0.678968  0.295441  0.751659  1
  F  F11  1  0.956216  0.204559  0.383527  1
  F  F12  1  0.956216  0.572691  0.751659  1
  F  F13  1  0.678968  0.927309  0.383527  1
  F  F14  1  0.321032  0.072691  0.616473  1
  F  F15  1  0.043784  0.427309  0.248341  1
  F  F16  1  0.043784  0.795441  0.616473  1
  F  F17  1  0.321032  0.704559  0.248341  1
  F  F18  1  0.884651  0.750000  0.134651  1
  F  F19  1  0.629805  0.911231  0.718574  1
  F  F20  1  0.307343  0.588769  0.718574  1
  F  F21  1  0.115349  0.250000  0.865349  1
