# generated using pymatgen
data_PrTm2V(Co4P3)2
_symmetry_space_group_name_H-M   'P 1'
_cell_length_a   3.70161000
_cell_length_b   10.57094800
_cell_length_c   12.26132100
_cell_angle_alpha   90.00000000
_cell_angle_beta   90.00000000
_cell_angle_gamma   90.00000000
_symmetry_Int_Tables_number   1
_chemical_formula_structural   PrTm2V(Co4P3)2
_chemical_formula_sum   'Pr2 Tm4 V2 Co16 P12'
_cell_volume   479.77968900
_cell_formula_units_Z   2
loop_
 _symmetry_equiv_pos_site_id
 _symmetry_equiv_pos_as_xyz
  1  'x, y, z'
loop_
 _atom_site_type_symbol
 _atom_site_label
 _atom_site_symmetry_multiplicity
 _atom_site_fract_x
 _atom_site_fract_y
 _atom_site_fract_z
 _atom_site_occupancy
  Pr  Pr0  1  0.000000  0.500000  0.524209  1
  Pr  Pr1  1  0.500000  0.000000  0.475791  1
  Tm  Tm2  1  0.500000  0.818664  0.202694  1
  Tm  Tm3  1  0.500000  0.181336  0.202694  1
  Tm  Tm4  1  0.000000  0.681336  0.797306  1
  Tm  Tm5  1  0.000000  0.318664  0.797306  1
  V  V6  1  0.500000  0.500000  0.151479  1
  V  V7  1  0.000000  0.000000  0.848521  1
  Co  Co8  1  0.500000  0.500000  0.706535  1
  Co  Co9  1  0.000000  0.000000  0.293465  1
  Co  Co10  1  0.000000  0.500000  0.986574  1
  Co  Co11  1  0.500000  0.000000  0.013426  1
  Co  Co12  1  0.500000  0.332165  0.992809  1
  Co  Co13  1  0.500000  0.667835  0.992809  1
  Co  Co14  1  0.000000  0.167835  0.007191  1
  Co  Co15  1  0.000000  0.832165  0.007191  1
  Co  Co16  1  0.500000  0.294965  0.429204  1
  Co  Co17  1  0.500000  0.705035  0.429204  1
  Co  Co18  1  0.000000  0.205035  0.570796  1
  Co  Co19  1  0.000000  0.794965  0.570796  1
  Co  Co20  1  0.500000  0.878635  0.711329  1
  Co  Co21  1  0.500000  0.121365  0.711329  1
  Co  Co22  1  0.000000  0.621365  0.288671  1
  Co  Co23  1  0.000000  0.378635  0.288671  1
  P  P24  1  0.500000  0.500000  0.882955  1
  P  P25  1  0.000000  0.000000  0.117045  1
  P  P26  1  0.500000  0.500000  0.341636  1
  P  P27  1  0.000000  0.000000  0.658364  1
  P  P28  1  0.500000  0.307737  0.619066  1
  P  P29  1  0.500000  0.692263  0.619066  1
  P  P30  1  0.000000  0.192263  0.380934  1
  P  P31  1  0.000000  0.807737  0.380934  1
  P  P32  1  0.500000  0.845244  0.892636  1
  P  P33  1  0.500000  0.154756  0.892636  1
  P  P34  1  0.000000  0.654756  0.107364  1
  P  P35  1  0.000000  0.345244  0.107364  1
