# generated using pymatgen
data_Sr10Zn(RuO5)4
_symmetry_space_group_name_H-M   'P 1'
_cell_length_a   8.93815338
_cell_length_b   8.93815349
_cell_length_c   8.93815329
_cell_angle_alpha   121.29471960
_cell_angle_beta   121.29471818
_cell_angle_gamma   87.77173855
_symmetry_Int_Tables_number   1
_chemical_formula_structural   Sr10Zn(RuO5)4
_chemical_formula_sum   'Sr10 Zn1 Ru4 O20'
_cell_volume   494.63921791
_cell_formula_units_Z   1
loop_
 _symmetry_equiv_pos_site_id
 _symmetry_equiv_pos_as_xyz
  1  'x, y, z'
loop_
 _atom_site_type_symbol
 _atom_site_label
 _atom_site_symmetry_multiplicity
 _atom_site_fract_x
 _atom_site_fract_y
 _atom_site_fract_z
 _atom_site_occupancy
  Sr  Sr0  1  0.757060  0.145028  0.195225  1
  Sr  Sr1  1  0.351952  0.351952  0.000000  1
  Sr  Sr2  1  0.949803  0.561834  0.804775  1
  Sr  Sr3  1  0.561834  0.757060  0.612030  1
  Sr  Sr4  1  0.145028  0.949803  0.387970  1
  Sr  Sr5  1  0.648048  0.648048  0.000000  1
  Sr  Sr6  1  0.242940  0.854972  0.804775  1
  Sr  Sr7  1  0.854972  0.050197  0.612030  1
  Sr  Sr8  1  0.438166  0.242940  0.387970  1
  Sr  Sr9  1  0.050197  0.438166  0.195225  1
  Zn  Zn10  1  0.000000  0.000000  0.000000  1
  Ru  Ru11  1  0.595335  0.199948  0.795283  1
  Ru  Ru12  1  0.199948  0.404665  0.604613  1
  Ru  Ru13  1  0.800052  0.595335  0.395387  1
  Ru  Ru14  1  0.404665  0.800052  0.204717  1
  O  O15  1  0.562843  0.961458  0.201139  1
  O  O16  1  0.166582  0.166582  0.000000  1
  O  O17  1  0.760319  0.361704  0.798861  1
  O  O18  1  0.361704  0.562843  0.601386  1
  O  O19  1  0.961458  0.760319  0.398614  1
  O  O20  1  0.833418  0.833418  0.000000  1
  O  O21  1  0.437157  0.038542  0.798861  1
  O  O22  1  0.038542  0.239681  0.601386  1
  O  O23  1  0.638296  0.437157  0.398614  1
  O  O24  1  0.239681  0.638296  0.201139  1
  O  O25  1  0.695742  0.395668  0.091410  1
  O  O26  1  0.304258  0.604332  0.908590  1
  O  O27  1  0.895807  0.791504  0.687311  1
  O  O28  1  0.500000  0.000000  0.500000  1
  O  O29  1  0.104193  0.208496  0.312689  1
  O  O30  1  0.000000  0.500000  0.500000  1
  O  O31  1  0.604332  0.695742  0.300075  1
  O  O32  1  0.208496  0.895807  0.104303  1
  O  O33  1  0.791504  0.104193  0.895697  1
  O  O34  1  0.395668  0.304258  0.699925  1
