# generated using pymatgen
data_Tb3ZnAg2Pd3
_symmetry_space_group_name_H-M   'P 1'
_cell_length_a   7.46083700
_cell_length_b   7.53790501
_cell_length_c   3.84118500
_cell_angle_alpha   90.00000000
_cell_angle_beta   90.00000000
_cell_angle_gamma   119.66235880
_symmetry_Int_Tables_number   1
_chemical_formula_structural   Tb3ZnAg2Pd3
_chemical_formula_sum   'Tb3 Zn1 Ag2 Pd3'
_cell_volume   187.71614844
_cell_formula_units_Z   1
loop_
 _symmetry_equiv_pos_site_id
 _symmetry_equiv_pos_as_xyz
  1  'x, y, z'
loop_
 _atom_site_type_symbol
 _atom_site_label
 _atom_site_symmetry_multiplicity
 _atom_site_fract_x
 _atom_site_fract_y
 _atom_site_fract_z
 _atom_site_occupancy
  Tb  Tb0  1  0.000259  0.396982  0.000000  1
  Tb  Tb1  1  0.603277  0.603018  0.000000  1
  Tb  Tb2  1  0.401459  0.000000  0.000000  1
  Zn  Zn3  1  0.739552  0.000000  0.500000  1
  Ag  Ag4  1  0.002773  0.743186  0.500000  1
  Ag  Ag5  1  0.259587  0.256814  0.500000  1
  Pd  Pd6  1  0.974777  0.000000  0.000000  1
  Pd  Pd7  1  0.346130  0.673944  0.500000  1
  Pd  Pd8  1  0.672187  0.326056  0.500000  1
