# generated using pymatgen
data_Lu6Zn22SiAg
_symmetry_space_group_name_H-M   'P 1'
_cell_length_a   8.98641193
_cell_length_b   8.98641154
_cell_length_c   8.98641100
_cell_angle_alpha   59.99999830
_cell_angle_beta   59.99999974
_cell_angle_gamma   59.99999626
_symmetry_Int_Tables_number   1
_chemical_formula_structural   Lu6Zn22SiAg
_chemical_formula_sum   'Lu6 Zn22 Si1 Ag1'
_cell_volume   513.14947266
_cell_formula_units_Z   1
loop_
 _symmetry_equiv_pos_site_id
 _symmetry_equiv_pos_as_xyz
  1  'x, y, z'
loop_
 _atom_site_type_symbol
 _atom_site_label
 _atom_site_symmetry_multiplicity
 _atom_site_fract_x
 _atom_site_fract_y
 _atom_site_fract_z
 _atom_site_occupancy
  Lu  Lu0  1  0.714489  0.285511  0.285511  1
  Lu  Lu1  1  0.285511  0.714489  0.714489  1
  Lu  Lu2  1  0.285511  0.714489  0.285511  1
  Lu  Lu3  1  0.714489  0.285511  0.714489  1
  Lu  Lu4  1  0.285511  0.285511  0.714489  1
  Lu  Lu5  1  0.714489  0.714489  0.285511  1
  Zn  Zn6  1  0.124997  0.124997  0.124997  1
  Zn  Zn7  1  0.875003  0.875003  0.875003  1
  Zn  Zn8  1  0.124997  0.124997  0.625008  1
  Zn  Zn9  1  0.124997  0.625008  0.124997  1
  Zn  Zn10  1  0.875003  0.875003  0.374992  1
  Zn  Zn11  1  0.875003  0.374992  0.875003  1
  Zn  Zn12  1  0.625008  0.124997  0.124997  1
  Zn  Zn13  1  0.374992  0.875003  0.875003  1
  Zn  Zn14  1  0.500000  0.000000  0.000000  1
  Zn  Zn15  1  0.000000  0.500000  0.500000  1
  Zn  Zn16  1  0.000000  0.500000  0.000000  1
  Zn  Zn17  1  0.500000  0.000000  0.500000  1
  Zn  Zn18  1  0.000000  0.000000  0.500000  1
  Zn  Zn19  1  0.500000  0.500000  0.000000  1
  Zn  Zn20  1  0.335371  0.335371  0.335371  1
  Zn  Zn21  1  0.664629  0.664629  0.664629  1
  Zn  Zn22  1  0.335371  0.335371  0.993888  1
  Zn  Zn23  1  0.335371  0.993888  0.335371  1
  Zn  Zn24  1  0.664629  0.664629  0.006112  1
  Zn  Zn25  1  0.664629  0.006112  0.664629  1
  Zn  Zn26  1  0.993888  0.335371  0.335371  1
  Zn  Zn27  1  0.006112  0.664629  0.664629  1
  Si  Si28  1  0.500000  0.500000  0.500000  1
  Ag  Ag29  1  0.000000  0.000000  0.000000  1
