# generated using pymatgen
data_Dy5(TcO6)2
_symmetry_space_group_name_H-M   'P 1'
_cell_length_a   6.83135223
_cell_length_b   6.83135171
_cell_length_c   7.53721842
_cell_angle_alpha   73.76029977
_cell_angle_beta   73.76030294
_cell_angle_gamma   48.96365306
_symmetry_Int_Tables_number   1
_chemical_formula_structural   Dy5(TcO6)2
_chemical_formula_sum   'Dy5 Tc2 O12'
_cell_volume   252.48019189
_cell_formula_units_Z   1
loop_
 _symmetry_equiv_pos_site_id
 _symmetry_equiv_pos_as_xyz
  1  'x, y, z'
loop_
 _atom_site_type_symbol
 _atom_site_label
 _atom_site_symmetry_multiplicity
 _atom_site_fract_x
 _atom_site_fract_y
 _atom_site_fract_z
 _atom_site_occupancy
  Dy  Dy0  1  0.195325  0.195325  0.642303  1
  Dy  Dy1  1  0.184282  0.184282  0.176127  1
  Dy  Dy2  1  0.500000  0.500000  0.500000  1
  Dy  Dy3  1  0.804675  0.804675  0.357697  1
  Dy  Dy4  1  0.815718  0.815718  0.823873  1
  Tc  Tc5  1  0.714079  0.285921  0.000000  1
  Tc  Tc6  1  0.285921  0.714079  0.000000  1
  O  O7  1  0.413908  0.915329  0.915666  1
  O  O8  1  0.915329  0.413908  0.915666  1
  O  O9  1  0.905915  0.402129  0.426043  1
  O  O10  1  0.402129  0.905915  0.426043  1
  O  O11  1  0.501946  0.501946  0.204065  1
  O  O12  1  0.998794  0.998794  0.177805  1
  O  O13  1  0.001206  0.001206  0.822195  1
  O  O14  1  0.498054  0.498054  0.795935  1
  O  O15  1  0.084671  0.586092  0.084334  1
  O  O16  1  0.586092  0.084671  0.084334  1
  O  O17  1  0.094085  0.597871  0.573957  1
  O  O18  1  0.597871  0.094085  0.573957  1
