# generated using pymatgen
data_Tb2InGa2
_symmetry_space_group_name_H-M   'P 1'
_cell_length_a   7.25330400
_cell_length_b   7.25330400
_cell_length_c   4.46364600
_cell_angle_alpha   90.00000000
_cell_angle_beta   90.00000000
_cell_angle_gamma   90.00000000
_symmetry_Int_Tables_number   1
_chemical_formula_structural   Tb2InGa2
_chemical_formula_sum   'Tb4 In2 Ga4'
_cell_volume   234.83428595
_cell_formula_units_Z   2
loop_
 _symmetry_equiv_pos_site_id
 _symmetry_equiv_pos_as_xyz
  1  'x, y, z'
loop_
 _atom_site_type_symbol
 _atom_site_label
 _atom_site_symmetry_multiplicity
 _atom_site_fract_x
 _atom_site_fract_y
 _atom_site_fract_z
 _atom_site_occupancy
  Tb  Tb0  1  0.326832  0.826832  0.500000  1
  Tb  Tb1  1  0.673168  0.173168  0.500000  1
  Tb  Tb2  1  0.173168  0.326832  0.500000  1
  Tb  Tb3  1  0.826832  0.673168  0.500000  1
  In  In4  1  0.000000  0.000000  0.000000  1
  In  In5  1  0.500000  0.500000  0.000000  1
  Ga  Ga6  1  0.625324  0.874676  0.000000  1
  Ga  Ga7  1  0.374676  0.125324  0.000000  1
  Ga  Ga8  1  0.874676  0.374676  0.000000  1
  Ga  Ga9  1  0.125324  0.625324  0.000000  1
