# generated using pymatgen
data_Er4Ga18NiIr5
_symmetry_space_group_name_H-M   'P 1'
_cell_length_a   7.55535075
_cell_length_b   7.55535164
_cell_length_c   9.42806173
_cell_angle_alpha   90.20865552
_cell_angle_beta   90.20865747
_cell_angle_gamma   119.96435861
_symmetry_Int_Tables_number   1
_chemical_formula_structural   Er4Ga18NiIr5
_chemical_formula_sum   'Er4 Ga18 Ni1 Ir5'
_cell_volume   466.23698073
_cell_formula_units_Z   1
loop_
 _symmetry_equiv_pos_site_id
 _symmetry_equiv_pos_as_xyz
  1  'x, y, z'
loop_
 _atom_site_type_symbol
 _atom_site_label
 _atom_site_symmetry_multiplicity
 _atom_site_fract_x
 _atom_site_fract_y
 _atom_site_fract_z
 _atom_site_occupancy
  Er  Er0  1  0.996812  0.667742  0.750165  1
  Er  Er1  1  0.003188  0.332258  0.249835  1
  Er  Er2  1  0.667742  0.996812  0.750165  1
  Er  Er3  1  0.332258  0.003188  0.249835  1
  Ga  Ga4  1  0.123270  0.123270  0.745836  1
  Ga  Ga5  1  0.876730  0.876730  0.254164  1
  Ga  Ga6  1  0.998907  0.330579  0.580213  1
  Ga  Ga7  1  0.001093  0.669421  0.419787  1
  Ga  Ga8  1  0.001260  0.666414  0.080574  1
  Ga  Ga9  1  0.333586  0.998740  0.919426  1
  Ga  Ga10  1  0.998740  0.333586  0.919426  1
  Ga  Ga11  1  0.666414  0.001260  0.080574  1
  Ga  Ga12  1  0.669421  0.001093  0.419787  1
  Ga  Ga13  1  0.330579  0.998907  0.580213  1
  Ga  Ga14  1  0.332261  0.332261  0.065249  1
  Ga  Ga15  1  0.667739  0.667739  0.934751  1
  Ga  Ga16  1  0.671671  0.671671  0.565045  1
  Ga  Ga17  1  0.328329  0.328329  0.434955  1
  Ga  Ga18  1  0.338697  0.546305  0.749676  1
  Ga  Ga19  1  0.661303  0.453695  0.250324  1
  Ga  Ga20  1  0.546305  0.338697  0.749676  1
  Ga  Ga21  1  0.453695  0.661303  0.250324  1
  Ni  Ni22  1  0.000000  0.000000  0.500000  1
  Ir  Ir23  1  0.671949  0.328051  0.500000  1
  Ir  Ir24  1  0.328051  0.671949  0.500000  1
  Ir  Ir25  1  0.328191  0.671809  0.000000  1
  Ir  Ir26  1  0.671809  0.328191  0.000000  1
  Ir  Ir27  1  0.000000  0.000000  0.000000  1
