# generated using pymatgen
data_La8Sm11ScSn16
_symmetry_space_group_name_H-M   'P 1'
_cell_length_a   8.30849600
_cell_length_b   8.51249414
_cell_length_c   16.05449100
_cell_angle_alpha   90.00000000
_cell_angle_beta   90.00000000
_cell_angle_gamma   89.98960094
_symmetry_Int_Tables_number   1
_chemical_formula_structural   La8Sm11ScSn16
_chemical_formula_sum   'La8 Sm11 Sc1 Sn16'
_cell_volume   1135.47028927
_cell_formula_units_Z   1
loop_
 _symmetry_equiv_pos_site_id
 _symmetry_equiv_pos_as_xyz
  1  'x, y, z'
loop_
 _atom_site_type_symbol
 _atom_site_label
 _atom_site_symmetry_multiplicity
 _atom_site_fract_x
 _atom_site_fract_y
 _atom_site_fract_z
 _atom_site_occupancy
  La  La0  1  0.511746  0.322526  0.902419  1
  La  La1  1  0.012946  0.179513  0.597347  1
  La  La2  1  0.488412  0.678284  0.403912  1
  La  La3  1  0.988262  0.821523  0.096297  1
  La  La4  1  0.488412  0.678284  0.096088  1
  La  La5  1  0.988262  0.821523  0.403703  1
  La  La6  1  0.511746  0.322526  0.597581  1
  La  La7  1  0.012946  0.179513  0.902653  1
  Sm  Sm8  1  0.355731  0.835317  0.875809  1
  Sm  Sm9  1  0.857368  0.663168  0.624030  1
  Sm  Sm10  1  0.643643  0.164487  0.377021  1
  Sm  Sm11  1  0.143158  0.335438  0.122109  1
  Sm  Sm12  1  0.643643  0.164487  0.122979  1
  Sm  Sm13  1  0.143158  0.335438  0.377891  1
  Sm  Sm14  1  0.355731  0.835317  0.624191  1
  Sm  Sm15  1  0.857368  0.663168  0.875970  1
  Sm  Sm16  1  0.690031  0.998955  0.750000  1
  Sm  Sm17  1  0.808915  0.498613  0.250000  1
  Sm  Sm18  1  0.309116  0.001513  0.250000  1
  Sc  Sc19  1  0.191278  0.503002  0.750000  1
  Sn  Sn20  1  0.306879  0.039883  0.041355  1
  Sn  Sn21  1  0.806393  0.459954  0.458576  1
  Sn  Sn22  1  0.693622  0.959849  0.542461  1
  Sn  Sn23  1  0.194026  0.538760  0.954589  1
  Sn  Sn24  1  0.693622  0.959849  0.957539  1
  Sn  Sn25  1  0.194026  0.538760  0.545411  1
  Sn  Sn26  1  0.306879  0.039883  0.458645  1
  Sn  Sn27  1  0.806393  0.459954  0.041424  1
  Sn  Sn28  1  0.549326  0.618359  0.750000  1
  Sn  Sn29  1  0.056848  0.874815  0.750000  1
  Sn  Sn30  1  0.443243  0.377764  0.250000  1
  Sn  Sn31  1  0.944031  0.122408  0.250000  1
  Sn  Sn32  1  0.317448  0.149062  0.750000  1
  Sn  Sn33  1  0.823590  0.359390  0.750000  1
  Sn  Sn34  1  0.680661  0.857417  0.250000  1
  Sn  Sn35  1  0.181137  0.641297  0.250000  1
