# generated using pymatgen
data_LiTi4Co10SiB4
_symmetry_space_group_name_H-M   'P 1'
_cell_length_a   8.37818800
_cell_length_b   8.37818800
_cell_length_c   2.94842300
_cell_angle_alpha   90.00000000
_cell_angle_beta   90.00000000
_cell_angle_gamma   90.00000000
_symmetry_Int_Tables_number   1
_chemical_formula_structural   LiTi4Co10SiB4
_chemical_formula_sum   'Li1 Ti4 Co10 Si1 B4'
_cell_volume   206.96170479
_cell_formula_units_Z   1
loop_
 _symmetry_equiv_pos_site_id
 _symmetry_equiv_pos_as_xyz
  1  'x, y, z'
loop_
 _atom_site_type_symbol
 _atom_site_label
 _atom_site_symmetry_multiplicity
 _atom_site_fract_x
 _atom_site_fract_y
 _atom_site_fract_z
 _atom_site_occupancy
  Li  Li0  1  0.000000  0.000000  0.000000  1
  Ti  Ti1  1  0.824936  0.323654  0.000000  1
  Ti  Ti2  1  0.323654  0.175064  0.000000  1
  Ti  Ti3  1  0.676346  0.824936  0.000000  1
  Ti  Ti4  1  0.175064  0.676346  0.000000  1
  Co  Co5  1  0.500000  0.000000  0.500000  1
  Co  Co6  1  0.000000  0.500000  0.500000  1
  Co  Co7  1  0.071917  0.217639  0.500000  1
  Co  Co8  1  0.217639  0.928083  0.500000  1
  Co  Co9  1  0.782361  0.071917  0.500000  1
  Co  Co10  1  0.928083  0.782361  0.500000  1
  Co  Co11  1  0.432342  0.714868  0.500000  1
  Co  Co12  1  0.567658  0.285132  0.500000  1
  Co  Co13  1  0.714868  0.567658  0.500000  1
  Co  Co14  1  0.285132  0.432342  0.500000  1
  Si  Si15  1  0.500000  0.500000  0.000000  1
  B  B16  1  0.625365  0.120236  0.000000  1
  B  B17  1  0.120236  0.374635  0.000000  1
  B  B18  1  0.879764  0.625365  0.000000  1
  B  B19  1  0.374635  0.879764  0.000000  1
