# generated using pymatgen
data_Er3Tm5B24(IrRh)2
_symmetry_space_group_name_H-M   'P 1'
_cell_length_a   3.61742300
_cell_length_b   9.12617159
_cell_length_c   11.45936001
_cell_angle_alpha   90.11176797
_cell_angle_beta   90.00000000
_cell_angle_gamma   90.00000000
_symmetry_Int_Tables_number   1
_chemical_formula_structural   Er3Tm5B24(IrRh)2
_chemical_formula_sum   'Er3 Tm5 B24 Ir2 Rh2'
_cell_volume   378.30968788
_cell_formula_units_Z   1
loop_
 _symmetry_equiv_pos_site_id
 _symmetry_equiv_pos_as_xyz
  1  'x, y, z'
loop_
 _atom_site_type_symbol
 _atom_site_label
 _atom_site_symmetry_multiplicity
 _atom_site_fract_x
 _atom_site_fract_y
 _atom_site_fract_z
 _atom_site_occupancy
  Er  Er0  1  0.500000  0.322788  0.414101  1
  Er  Er1  1  0.500000  0.677274  0.585786  1
  Er  Er2  1  0.500000  0.179611  0.912869  1
  Tm  Tm3  1  0.500000  0.820249  0.087217  1
  Tm  Tm4  1  0.500000  0.445256  0.126638  1
  Tm  Tm5  1  0.500000  0.554886  0.873486  1
  Tm  Tm6  1  0.500000  0.056566  0.625902  1
  Tm  Tm7  1  0.500000  0.943342  0.374033  1
  B  B8  1  0.000000  0.109228  0.470174  1
  B  B9  1  0.000000  0.890681  0.529758  1
  B  B10  1  0.000000  0.391263  0.970527  1
  B  B11  1  0.000000  0.609103  0.029610  1
  B  B12  1  0.000000  0.132353  0.316230  1
  B  B13  1  0.000000  0.867574  0.683738  1
  B  B14  1  0.000000  0.366993  0.816446  1
  B  B15  1  0.000000  0.633268  0.183415  1
  B  B16  1  0.000000  0.053950  0.065406  1
  B  B17  1  0.000000  0.945698  0.934780  1
  B  B18  1  0.000000  0.446483  0.565149  1
  B  B19  1  0.000000  0.553526  0.434808  1
  B  B20  1  0.000000  0.482197  0.286697  1
  B  B21  1  0.000000  0.517889  0.713335  1
  B  B22  1  0.000000  0.017849  0.786183  1
  B  B23  1  0.000000  0.981810  0.213650  1
  B  B24  1  0.000000  0.250256  0.078965  1
  B  B25  1  0.000000  0.749817  0.921312  1
  B  B26  1  0.000000  0.250805  0.579158  1
  B  B27  1  0.000000  0.749177  0.420777  1
  B  B28  1  0.000000  0.294222  0.235420  1
  B  B29  1  0.000000  0.705796  0.764653  1
  B  B30  1  0.000000  0.205733  0.735996  1
  B  B31  1  0.000000  0.794367  0.263721  1
  Ir  Ir32  1  0.500000  0.138591  0.177953  1
  Ir  Ir33  1  0.500000  0.861127  0.822126  1
  Rh  Rh34  1  0.500000  0.360464  0.680281  1
  Rh  Rh35  1  0.500000  0.639810  0.319699  1
