# generated using pymatgen
data_DyY(MgIr)2
_symmetry_space_group_name_H-M   'P 1'
_cell_length_a   4.12004300
_cell_length_b   7.08115700
_cell_length_c   8.52285900
_cell_angle_alpha   90.00000000
_cell_angle_beta   90.00000000
_cell_angle_gamma   90.00000000
_symmetry_Int_Tables_number   1
_chemical_formula_structural   DyY(MgIr)2
_chemical_formula_sum   'Dy2 Y2 Mg4 Ir4'
_cell_volume   248.65161011
_cell_formula_units_Z   2
loop_
 _symmetry_equiv_pos_site_id
 _symmetry_equiv_pos_as_xyz
  1  'x, y, z'
loop_
 _atom_site_type_symbol
 _atom_site_label
 _atom_site_symmetry_multiplicity
 _atom_site_fract_x
 _atom_site_fract_y
 _atom_site_fract_z
 _atom_site_occupancy
  Dy  Dy0  1  0.250000  0.962640  0.324920  1
  Dy  Dy1  1  0.250000  0.462640  0.175080  1
  Y  Y2  1  0.750000  0.037862  0.675031  1
  Y  Y3  1  0.750000  0.537862  0.824969  1
  Mg  Mg4  1  0.250000  0.363145  0.559298  1
  Mg  Mg5  1  0.250000  0.863145  0.940702  1
  Mg  Mg6  1  0.750000  0.636285  0.440536  1
  Mg  Mg7  1  0.750000  0.136285  0.059464  1
  Ir  Ir8  1  0.250000  0.247462  0.871534  1
  Ir  Ir9  1  0.250000  0.747462  0.628466  1
  Ir  Ir10  1  0.750000  0.752603  0.130336  1
  Ir  Ir11  1  0.750000  0.252603  0.369664  1
