# generated using pymatgen
data_Ta7(TiSi2)3
_symmetry_space_group_name_H-M   'P 1'
_cell_length_a   7.54324342
_cell_length_b   7.52736632
_cell_length_c   7.54162926
_cell_angle_alpha   128.93708262
_cell_angle_beta   128.99458342
_cell_angle_gamma   75.00295937
_symmetry_Int_Tables_number   1
_chemical_formula_structural   Ta7(TiSi2)3
_chemical_formula_sum   'Ta7 Ti3 Si6'
_cell_volume   252.17092102
_cell_formula_units_Z   1
loop_
 _symmetry_equiv_pos_site_id
 _symmetry_equiv_pos_as_xyz
  1  'x, y, z'
loop_
 _atom_site_type_symbol
 _atom_site_label
 _atom_site_symmetry_multiplicity
 _atom_site_fract_x
 _atom_site_fract_y
 _atom_site_fract_z
 _atom_site_occupancy
  Ta  Ta0  1  0.685924  0.514360  0.500000  1
  Ta  Ta1  1  0.515413  0.015068  0.829128  1
  Ta  Ta2  1  0.186285  0.685940  0.170872  1
  Ta  Ta3  1  0.986477  0.813970  0.500000  1
  Ta  Ta4  1  0.314301  0.484668  0.500000  1
  Ta  Ta5  1  0.483341  0.984840  0.169745  1
  Ta  Ta6  1  0.813595  0.315095  0.830255  1
  Ti  Ti7  1  0.015123  0.186424  0.500000  1
  Ti  Ti8  1  0.000491  0.999588  0.999227  1
  Ti  Ti9  1  0.501263  0.500361  0.000773  1
  Si  Si10  1  0.751596  0.753374  0.003130  1
  Si  Si11  1  0.248467  0.250244  0.996870  1
  Si  Si12  1  0.364849  0.131780  0.500000  1
  Si  Si13  1  0.632017  0.869045  0.500000  1
  Si  Si14  1  0.869510  0.366702  0.238162  1
  Si  Si15  1  0.131348  0.628541  0.761838  1
