# generated using pymatgen
data_K3V2Cl9
_symmetry_space_group_name_H-M   'P 1'
_cell_length_a   7.02141900
_cell_length_b   7.02141806
_cell_length_c   17.91431600
_cell_angle_alpha   90.00000000
_cell_angle_beta   90.00000000
_cell_angle_gamma   119.99999032
_symmetry_Int_Tables_number   1
_chemical_formula_structural   K3V2Cl9
_chemical_formula_sum   'K6 V4 Cl18'
_cell_volume   764.85767081
_cell_formula_units_Z   2
loop_
 _symmetry_equiv_pos_site_id
 _symmetry_equiv_pos_as_xyz
  1  'x, y, z'
loop_
 _atom_site_type_symbol
 _atom_site_label
 _atom_site_symmetry_multiplicity
 _atom_site_fract_x
 _atom_site_fract_y
 _atom_site_fract_z
 _atom_site_occupancy
  K  K0  1  0.666667  0.333333  0.559949  1
  K  K1  1  0.333333  0.666667  0.059949  1
  K  K2  1  0.333333  0.666667  0.440051  1
  K  K3  1  0.666667  0.333333  0.940051  1
  K  K4  1  0.000000  0.000000  0.250000  1
  K  K5  1  0.000000  0.000000  0.750000  1
  V  V6  1  0.333333  0.666667  0.663952  1
  V  V7  1  0.666667  0.333333  0.336048  1
  V  V8  1  0.333333  0.666667  0.836048  1
  V  V9  1  0.666667  0.333333  0.163952  1
  Cl  Cl10  1  0.826433  0.652866  0.407360  1
  Cl  Cl11  1  0.173567  0.826433  0.592640  1
  Cl  Cl12  1  0.652866  0.826433  0.592640  1
  Cl  Cl13  1  0.826433  0.173567  0.407360  1
  Cl  Cl14  1  0.347134  0.173567  0.407360  1
  Cl  Cl15  1  0.173567  0.347134  0.907360  1
  Cl  Cl16  1  0.021169  0.510584  0.750000  1
  Cl  Cl17  1  0.652866  0.826433  0.907360  1
  Cl  Cl18  1  0.826433  0.652866  0.092640  1
  Cl  Cl19  1  0.173567  0.347134  0.592640  1
  Cl  Cl20  1  0.489416  0.978831  0.750000  1
  Cl  Cl21  1  0.510584  0.489416  0.250000  1
  Cl  Cl22  1  0.489416  0.510584  0.750000  1
  Cl  Cl23  1  0.173567  0.826433  0.907360  1
  Cl  Cl24  1  0.347134  0.173567  0.092640  1
  Cl  Cl25  1  0.978831  0.489416  0.250000  1
  Cl  Cl26  1  0.510584  0.021169  0.250000  1
  Cl  Cl27  1  0.826433  0.173567  0.092640  1
