# generated using pymatgen
data_Tb2Ce2AlZnRu4
_symmetry_space_group_name_H-M   'P 1'
_cell_length_a   5.71637546
_cell_length_b   5.71637572
_cell_length_c   7.04506979
_cell_angle_alpha   87.47782392
_cell_angle_beta   92.52217413
_cell_angle_gamma   117.45414356
_symmetry_Int_Tables_number   1
_chemical_formula_structural   Tb2Ce2AlZnRu4
_chemical_formula_sum   'Tb2 Ce2 Al1 Zn1 Ru4'
_cell_volume   204.01406104
_cell_formula_units_Z   1
loop_
 _symmetry_equiv_pos_site_id
 _symmetry_equiv_pos_as_xyz
  1  'x, y, z'
loop_
 _atom_site_type_symbol
 _atom_site_label
 _atom_site_symmetry_multiplicity
 _atom_site_fract_x
 _atom_site_fract_y
 _atom_site_fract_z
 _atom_site_occupancy
  Tb  Tb0  1  0.344306  0.655694  0.085542  1
  Tb  Tb1  1  0.655694  0.344306  0.914458  1
  Ce  Ce2  1  0.169380  0.830620  0.585365  1
  Ce  Ce3  1  0.830620  0.169380  0.414635  1
  Al  Al4  1  0.500000  0.500000  0.500000  1
  Zn  Zn5  1  0.000000  0.000000  0.000000  1
  Ru  Ru6  1  0.868525  0.636679  0.268701  1
  Ru  Ru7  1  0.636679  0.868525  0.731299  1
  Ru  Ru8  1  0.131475  0.363321  0.731299  1
  Ru  Ru9  1  0.363321  0.131475  0.268701  1
