# generated using pymatgen
data_Cs7Ta(SO4)6
_symmetry_space_group_name_H-M   'P 1'
_cell_length_a   10.26170055
_cell_length_b   10.26170043
_cell_length_c   10.26170064
_cell_angle_alpha   110.02541959
_cell_angle_beta   110.02541643
_cell_angle_gamma   110.02541508
_symmetry_Int_Tables_number   1
_chemical_formula_structural   Cs7Ta(SO4)6
_chemical_formula_sum   'Cs7 Ta1 S6 O24'
_cell_volume   814.31807901
_cell_formula_units_Z   1
loop_
 _symmetry_equiv_pos_site_id
 _symmetry_equiv_pos_as_xyz
  1  'x, y, z'
loop_
 _atom_site_type_symbol
 _atom_site_label
 _atom_site_symmetry_multiplicity
 _atom_site_fract_x
 _atom_site_fract_y
 _atom_site_fract_z
 _atom_site_occupancy
  Cs  Cs0  1  0.500000  0.500000  0.500000  1
  Cs  Cs1  1  0.668967  0.167738  0.326561  1
  Cs  Cs2  1  0.326561  0.668967  0.167738  1
  Cs  Cs3  1  0.167738  0.326561  0.668967  1
  Cs  Cs4  1  0.331033  0.832262  0.673439  1
  Cs  Cs5  1  0.673439  0.331033  0.832262  1
  Cs  Cs6  1  0.832262  0.673439  0.331033  1
  Ta  Ta7  1  0.000000  0.000000  0.000000  1
  S  S8  1  0.240063  0.026734  0.357457  1
  S  S9  1  0.357457  0.240063  0.026734  1
  S  S10  1  0.026734  0.357457  0.240063  1
  S  S11  1  0.759937  0.973266  0.642543  1
  S  S12  1  0.642543  0.759937  0.973266  1
  S  S13  1  0.973266  0.642543  0.759937  1
  O  O14  1  0.094449  0.613926  0.851521  1
  O  O15  1  0.851521  0.094449  0.613926  1
  O  O16  1  0.613926  0.851521  0.094449  1
  O  O17  1  0.905551  0.386074  0.148479  1
  O  O18  1  0.148479  0.905551  0.386074  1
  O  O19  1  0.386074  0.148479  0.905551  1
  O  O20  1  0.009671  0.694725  0.653796  1
  O  O21  1  0.653796  0.009671  0.694725  1
  O  O22  1  0.694725  0.653796  0.009671  1
  O  O23  1  0.990329  0.305275  0.346204  1
  O  O24  1  0.346204  0.990329  0.305275  1
  O  O25  1  0.305275  0.346204  0.990329  1
  O  O26  1  0.020306  0.213628  0.110436  1
  O  O27  1  0.110436  0.020306  0.213628  1
  O  O28  1  0.497497  0.328692  0.193846  1
  O  O29  1  0.328692  0.193846  0.497497  1
  O  O30  1  0.193846  0.497497  0.328692  1
  O  O31  1  0.502503  0.671308  0.806154  1
  O  O32  1  0.671308  0.806154  0.502503  1
  O  O33  1  0.806154  0.502503  0.671308  1
  O  O34  1  0.786372  0.889564  0.979694  1
  O  O35  1  0.889564  0.979694  0.786372  1
  O  O36  1  0.979694  0.786372  0.889564  1
  O  O37  1  0.213628  0.110436  0.020306  1
