# generated using pymatgen
data_Pr8Pa(IrO8)3
_symmetry_space_group_name_H-M   'P 1'
_cell_length_a   5.52512728
_cell_length_b   9.52046818
_cell_length_c   10.34661000
_cell_angle_alpha   89.79369073
_cell_angle_beta   89.86525160
_cell_angle_gamma   90.20706325
_symmetry_Int_Tables_number   1
_chemical_formula_structural   Pr8Pa(IrO8)3
_chemical_formula_sum   'Pr8 Pa1 Ir3 O24'
_cell_volume   544.24168992
_cell_formula_units_Z   1
loop_
 _symmetry_equiv_pos_site_id
 _symmetry_equiv_pos_as_xyz
  1  'x, y, z'
loop_
 _atom_site_type_symbol
 _atom_site_label
 _atom_site_symmetry_multiplicity
 _atom_site_fract_x
 _atom_site_fract_y
 _atom_site_fract_z
 _atom_site_occupancy
  Pr  Pr0  1  0.038025  0.217139  0.130867  1
  Pr  Pr1  1  0.467333  0.777760  0.633428  1
  Pr  Pr2  1  0.964997  0.719666  0.368917  1
  Pr  Pr3  1  0.536214  0.282718  0.864390  1
  Pr  Pr4  1  0.030282  0.100220  0.537005  1
  Pr  Pr5  1  0.473460  0.901006  0.034296  1
  Pr  Pr6  1  0.979356  0.608889  0.971759  1
  Pr  Pr7  1  0.523875  0.398768  0.453986  1
  Pa  Pa8  1  0.037391  0.487663  0.651939  1
  Ir  Ir9  1  0.543769  0.999901  0.353079  1
  Ir  Ir10  1  0.958049  0.999844  0.857271  1
  Ir  Ir11  1  0.457331  0.503587  0.142630  1
  O  O12  1  0.431715  0.148841  0.463772  1
  O  O13  1  0.058727  0.857315  0.983500  1
  O  O14  1  0.563011  0.652350  0.027024  1
  O  O15  1  0.913991  0.334203  0.510936  1
  O  O16  1  0.721263  0.387205  0.077645  1
  O  O17  1  0.759455  0.615228  0.551805  1
  O  O18  1  0.278331  0.890076  0.433246  1
  O  O19  1  0.223376  0.112539  0.936075  1
  O  O20  1  0.253474  0.413189  0.007254  1
  O  O21  1  0.253892  0.594815  0.503840  1
  O  O22  1  0.749803  0.914402  0.491235  1
  O  O23  1  0.748956  0.091038  0.991880  1
  O  O24  1  0.189573  0.628770  0.184142  1
  O  O25  1  0.343767  0.342995  0.668067  1
  O  O26  1  0.815888  0.119669  0.312828  1
  O  O27  1  0.687953  0.874464  0.819821  1
  O  O28  1  0.338725  0.053971  0.211484  1
  O  O29  1  0.161552  0.943428  0.717921  1
  O  O30  1  0.659019  0.562272  0.280372  1
  O  O31  1  0.807322  0.461497  0.814947  1
  O  O32  1  0.322471  0.360387  0.254155  1
  O  O33  1  0.200889  0.641731  0.773758  1
  O  O34  1  0.666037  0.856225  0.240842  1
  O  O35  1  0.840729  0.146230  0.743890  1
