# generated using pymatgen
data_RePtOF10
_symmetry_space_group_name_H-M   'P 1'
_cell_length_a   6.77830900
_cell_length_b   8.17104045
_cell_length_c   8.15650961
_cell_angle_alpha   87.03669100
_cell_angle_beta   90.00000000
_cell_angle_gamma   90.00000000
_symmetry_Int_Tables_number   1
_chemical_formula_structural   RePtOF10
_chemical_formula_sum   'Re2 Pt2 O2 F20'
_cell_volume   451.15104511
_cell_formula_units_Z   2
loop_
 _symmetry_equiv_pos_site_id
 _symmetry_equiv_pos_as_xyz
  1  'x, y, z'
loop_
 _atom_site_type_symbol
 _atom_site_label
 _atom_site_symmetry_multiplicity
 _atom_site_fract_x
 _atom_site_fract_y
 _atom_site_fract_z
 _atom_site_occupancy
  Re  Re0  1  0.011806  0.811224  0.189792  1
  Re  Re1  1  0.011806  0.188776  0.810208  1
  Pt  Pt2  1  0.511249  0.333543  0.331696  1
  Pt  Pt3  1  0.511249  0.666457  0.668304  1
  O  O4  1  0.024290  0.337338  0.659458  1
  O  O5  1  0.024290  0.662662  0.340542  1
  F  F6  1  0.293704  0.793177  0.583103  1
  F  F7  1  0.997268  0.010063  0.681338  1
  F  F8  1  0.000249  0.000000  0.000000  1
  F  F9  1  0.339069  0.452722  0.183519  1
  F  F10  1  0.021130  0.318362  0.988874  1
  F  F11  1  0.279654  0.151521  0.834586  1
  F  F12  1  0.430980  0.500000  0.500000  1
  F  F13  1  0.741604  0.821521  0.165063  1
  F  F14  1  0.997268  0.989937  0.318662  1
  F  F15  1  0.559491  0.175227  0.171048  1
  F  F16  1  0.729804  0.540074  0.752394  1
  F  F17  1  0.279654  0.848479  0.165414  1
  F  F18  1  0.684116  0.216197  0.481042  1
  F  F19  1  0.021130  0.681638  0.011126  1
  F  F20  1  0.741604  0.178479  0.834937  1
  F  F21  1  0.559491  0.824773  0.828952  1
  F  F22  1  0.684116  0.783803  0.518958  1
  F  F23  1  0.339069  0.547278  0.816481  1
  F  F24  1  0.729804  0.459926  0.247606  1
  F  F25  1  0.293704  0.206823  0.416897  1
