# generated using pymatgen
data_Sc6Al5ZnAu6
_symmetry_space_group_name_H-M   'P 1'
_cell_length_a   7.14101141
_cell_length_b   7.14101110
_cell_length_c   7.64937718
_cell_angle_alpha   89.89339754
_cell_angle_beta   90.10659793
_cell_angle_gamma   119.78864631
_symmetry_Int_Tables_number   1
_chemical_formula_structural   Sc6Al5ZnAu6
_chemical_formula_sum   'Sc6 Al5 Zn1 Au6'
_cell_volume   338.52920319
_cell_formula_units_Z   1
loop_
 _symmetry_equiv_pos_site_id
 _symmetry_equiv_pos_as_xyz
  1  'x, y, z'
loop_
 _atom_site_type_symbol
 _atom_site_label
 _atom_site_symmetry_multiplicity
 _atom_site_fract_x
 _atom_site_fract_y
 _atom_site_fract_z
 _atom_site_occupancy
  Sc  Sc0  1  0.585716  0.982700  0.750066  1
  Sc  Sc1  1  0.012412  0.600315  0.750099  1
  Sc  Sc2  1  0.403928  0.418354  0.752420  1
  Sc  Sc3  1  0.982700  0.585716  0.249934  1
  Sc  Sc4  1  0.600315  0.012412  0.249901  1
  Sc  Sc5  1  0.418354  0.403928  0.247580  1
  Al  Al6  1  0.252786  0.001903  0.000211  1
  Al  Al7  1  0.001903  0.252786  0.999789  1
  Al  Al8  1  0.745241  0.745241  0.500000  1
  Al  Al9  1  0.258951  0.001730  0.500197  1
  Al  Al10  1  0.001730  0.258951  0.499803  1
  Zn  Zn11  1  0.738020  0.738020  0.000000  1
  Au  Au12  1  0.002946  0.002946  0.747593  1
  Au  Au13  1  0.002946  0.002946  0.252407  1
  Au  Au14  1  0.666196  0.325461  0.981156  1
  Au  Au15  1  0.666873  0.333523  0.518765  1
  Au  Au16  1  0.333523  0.666873  0.481235  1
  Au  Au17  1  0.325461  0.666196  0.018844  1
