# generated using pymatgen
data_Tb7Y(InNi)2
_symmetry_space_group_name_H-M   'P 1'
_cell_length_a   9.64484302
_cell_length_b   9.64484373
_cell_length_c   9.65034900
_cell_angle_alpha   59.98111973
_cell_angle_beta   59.98111732
_cell_angle_gamma   60.03776981
_symmetry_Int_Tables_number   1
_chemical_formula_structural   Tb7Y(InNi)2
_chemical_formula_sum   'Tb14 Y2 In4 Ni4'
_cell_volume   634.77252387
_cell_formula_units_Z   2
loop_
 _symmetry_equiv_pos_site_id
 _symmetry_equiv_pos_as_xyz
  1  'x, y, z'
loop_
 _atom_site_type_symbol
 _atom_site_label
 _atom_site_symmetry_multiplicity
 _atom_site_fract_x
 _atom_site_fract_y
 _atom_site_fract_z
 _atom_site_occupancy
  Tb  Tb0  1  0.597357  0.597357  0.598382  1
  Tb  Tb1  1  0.597357  0.597357  0.206903  1
  Tb  Tb2  1  0.598382  0.206903  0.597357  1
  Tb  Tb3  1  0.206903  0.598382  0.597357  1
  Tb  Tb4  1  0.061425  0.438575  0.438575  1
  Tb  Tb5  1  0.438575  0.061425  0.061425  1
  Tb  Tb6  1  0.438575  0.061425  0.438575  1
  Tb  Tb7  1  0.061425  0.438575  0.061425  1
  Tb  Tb8  1  0.438412  0.438412  0.061588  1
  Tb  Tb9  1  0.061588  0.061588  0.438412  1
  Tb  Tb10  1  0.186999  0.813001  0.813001  1
  Tb  Tb11  1  0.813001  0.186999  0.186999  1
  Tb  Tb12  1  0.813001  0.186999  0.813001  1
  Tb  Tb13  1  0.186999  0.813001  0.186999  1
  Y  Y14  1  0.812141  0.812141  0.187859  1
  Y  Y15  1  0.187859  0.187859  0.812141  1
  In  In16  1  0.832072  0.832072  0.832267  1
  In  In17  1  0.832072  0.832072  0.503589  1
  In  In18  1  0.832267  0.503589  0.832072  1
  In  In19  1  0.503589  0.832267  0.832072  1
  Ni  Ni20  1  0.391790  0.391790  0.393812  1
  Ni  Ni21  1  0.391790  0.391790  0.822610  1
  Ni  Ni22  1  0.393812  0.822610  0.391790  1
  Ni  Ni23  1  0.822610  0.393812  0.391790  1
