# generated using pymatgen
data_CsGd4Dy2CoI12
_symmetry_space_group_name_H-M   'P 1'
_cell_length_a   9.74099728
_cell_length_b   9.95301071
_cell_length_c   9.94654853
_cell_angle_alpha   103.98222921
_cell_angle_beta   104.18141774
_cell_angle_gamma   103.93411436
_symmetry_Int_Tables_number   1
_chemical_formula_structural   CsGd4Dy2CoI12
_chemical_formula_sum   'Cs1 Gd4 Dy2 Co1 I12'
_cell_volume   859.88714634
_cell_formula_units_Z   1
loop_
 _symmetry_equiv_pos_site_id
 _symmetry_equiv_pos_as_xyz
  1  'x, y, z'
loop_
 _atom_site_type_symbol
 _atom_site_label
 _atom_site_symmetry_multiplicity
 _atom_site_fract_x
 _atom_site_fract_y
 _atom_site_fract_z
 _atom_site_occupancy
  Cs  Cs0  1  0.498878  0.502043  0.499203  1
  Gd  Gd1  1  0.265013  0.012337  0.080880  1
  Gd  Gd2  1  0.989859  0.906349  0.693668  1
  Gd  Gd3  1  0.913363  0.704445  0.988516  1
  Gd  Gd4  1  0.733844  0.987975  0.921109  1
  Dy  Dy5  1  0.009530  0.088977  0.294557  1
  Dy  Dy6  1  0.085577  0.288220  0.008458  1
  Co  Co7  1  0.000550  0.999854  0.003937  1
  I  I8  1  0.089233  0.415704  0.327955  1
  I  I9  1  0.417364  0.335448  0.095648  1
  I  I10  1  0.334063  0.098098  0.416942  1
  I  I11  1  0.908328  0.577097  0.667172  1
  I  I12  1  0.579771  0.664896  0.903509  1
  I  I13  1  0.659072  0.905072  0.585019  1
  I  I14  1  0.676077  0.074363  0.221125  1
  I  I15  1  0.077964  0.226058  0.674440  1
  I  I16  1  0.229045  0.680636  0.081947  1
  I  I17  1  0.334635  0.930543  0.788016  1
  I  I18  1  0.922140  0.780669  0.327886  1
  I  I19  1  0.775689  0.321218  0.920007  1
