# generated using pymatgen
data_HgBi3(Pt2O7)2
_symmetry_space_group_name_H-M   'P 1'
_cell_length_a   7.34079704
_cell_length_b   7.34079773
_cell_length_c   7.34079703
_cell_angle_alpha   61.29277882
_cell_angle_beta   61.29277219
_cell_angle_gamma   61.29276821
_symmetry_Int_Tables_number   1
_chemical_formula_structural   HgBi3(Pt2O7)2
_chemical_formula_sum   'Hg1 Bi3 Pt4 O14'
_cell_volume   287.84317979
_cell_formula_units_Z   1
loop_
 _symmetry_equiv_pos_site_id
 _symmetry_equiv_pos_as_xyz
  1  'x, y, z'
loop_
 _atom_site_type_symbol
 _atom_site_label
 _atom_site_symmetry_multiplicity
 _atom_site_fract_x
 _atom_site_fract_y
 _atom_site_fract_z
 _atom_site_occupancy
  Hg  Hg0  1  0.125000  0.125000  0.125000  1
  Bi  Bi1  1  0.125000  0.125000  0.625000  1
  Bi  Bi2  1  0.125000  0.625000  0.125000  1
  Bi  Bi3  1  0.625000  0.125000  0.125000  1
  Pt  Pt4  1  0.625000  0.625000  0.125000  1
  Pt  Pt5  1  0.625000  0.125000  0.625000  1
  Pt  Pt6  1  0.125000  0.625000  0.625000  1
  Pt  Pt7  1  0.625000  0.625000  0.625000  1
  O  O8  1  0.249481  0.249481  0.249481  1
  O  O9  1  0.000519  0.000519  0.000519  1
  O  O10  1  0.541839  0.955737  0.541839  1
  O  O11  1  0.294634  0.701057  0.294634  1
  O  O12  1  0.541839  0.541839  0.955737  1
  O  O13  1  0.955737  0.541839  0.541839  1
  O  O14  1  0.548943  0.955366  0.955366  1
  O  O15  1  0.955366  0.955366  0.548943  1
  O  O16  1  0.955366  0.548943  0.955366  1
  O  O17  1  0.701057  0.294634  0.294634  1
  O  O18  1  0.294263  0.708161  0.708161  1
  O  O19  1  0.708161  0.294263  0.708161  1
  O  O20  1  0.294634  0.294634  0.701057  1
  O  O21  1  0.708161  0.708161  0.294263  1
