# generated using pymatgen
data_Ba6Nd(IrO6)2
_symmetry_space_group_name_H-M   'P 1'
_cell_length_a   9.37797962
_cell_length_b   9.37797792
_cell_length_c   7.44724207
_cell_angle_alpha   67.87776885
_cell_angle_beta   67.87777525
_cell_angle_gamma   36.77094770
_symmetry_Int_Tables_number   1
_chemical_formula_structural   Ba6Nd(IrO6)2
_chemical_formula_sum   'Ba6 Nd1 Ir2 O12'
_cell_volume   359.87607438
_cell_formula_units_Z   1
loop_
 _symmetry_equiv_pos_site_id
 _symmetry_equiv_pos_as_xyz
  1  'x, y, z'
loop_
 _atom_site_type_symbol
 _atom_site_label
 _atom_site_symmetry_multiplicity
 _atom_site_fract_x
 _atom_site_fract_y
 _atom_site_fract_z
 _atom_site_occupancy
  Ba  Ba0  1  0.878671  0.878671  0.713843  1
  Ba  Ba1  1  0.217321  0.217321  0.706017  1
  Ba  Ba2  1  0.549926  0.549926  0.701526  1
  Ba  Ba3  1  0.450074  0.450074  0.298474  1
  Ba  Ba4  1  0.782679  0.782679  0.293983  1
  Ba  Ba5  1  0.121329  0.121329  0.286157  1
  Nd  Nd6  1  0.000000  0.000000  0.000000  1
  Ir  Ir7  1  0.671848  0.671848  0.999428  1
  Ir  Ir8  1  0.328152  0.328152  0.000572  1
  O  O9  1  0.939539  0.939539  0.342316  1
  O  O10  1  0.281176  0.281176  0.305732  1
  O  O11  1  0.618588  0.618588  0.303973  1
  O  O12  1  0.381412  0.381412  0.696027  1
  O  O13  1  0.718824  0.718824  0.694268  1
  O  O14  1  0.060461  0.060461  0.657684  1
  O  O15  1  0.500000  0.000000  0.000000  1
  O  O16  1  0.821293  0.363162  0.998557  1
  O  O17  1  0.178707  0.636838  0.001443  1
  O  O18  1  0.000000  0.500000  0.000000  1
  O  O19  1  0.363162  0.821293  0.998557  1
  O  O20  1  0.636838  0.178707  0.001443  1
