# generated using pymatgen
data_Sr2Er2HgPb11
_symmetry_space_group_name_H-M   'P 1'
_cell_length_a   10.05127700
_cell_length_b   6.92390269
_cell_length_c   6.92829105
_cell_angle_alpha   89.42319177
_cell_angle_beta   90.00000000
_cell_angle_gamma   90.00000000
_symmetry_Int_Tables_number   1
_chemical_formula_structural   Sr2Er2HgPb11
_chemical_formula_sum   'Sr2 Er2 Hg1 Pb11'
_cell_volume   482.14349627
_cell_formula_units_Z   1
loop_
 _symmetry_equiv_pos_site_id
 _symmetry_equiv_pos_as_xyz
  1  'x, y, z'
loop_
 _atom_site_type_symbol
 _atom_site_label
 _atom_site_symmetry_multiplicity
 _atom_site_fract_x
 _atom_site_fract_y
 _atom_site_fract_z
 _atom_site_occupancy
  Sr  Sr0  1  0.750000  0.994268  0.999263  1
  Sr  Sr1  1  0.750000  0.510142  0.498237  1
  Er  Er2  1  0.250000  0.009754  0.003500  1
  Er  Er3  1  0.250000  0.498023  0.505937  1
  Hg  Hg4  1  0.750000  0.492861  0.996105  1
  Pb  Pb5  1  0.004274  0.240958  0.740055  1
  Pb  Pb6  1  0.496608  0.253861  0.248231  1
  Pb  Pb7  1  0.492340  0.751392  0.250031  1
  Pb  Pb8  1  0.006261  0.744274  0.756826  1
  Pb  Pb9  1  0.007660  0.751392  0.250031  1
  Pb  Pb10  1  0.493739  0.744274  0.756826  1
  Pb  Pb11  1  0.495726  0.240958  0.740055  1
  Pb  Pb12  1  0.003392  0.253861  0.248231  1
  Pb  Pb13  1  0.250000  0.995960  0.502998  1
  Pb  Pb14  1  0.250000  0.509728  0.005744  1
  Pb  Pb15  1  0.750000  0.008293  0.497930  1
