# generated using pymatgen
data_Hf6Ta3NbGa5Si
_symmetry_space_group_name_H-M   'P 1'
_cell_length_a   7.92334301
_cell_length_b   7.91308953
_cell_length_c   5.44718201
_cell_angle_alpha   90.00252984
_cell_angle_beta   89.99403678
_cell_angle_gamma   120.04614224
_symmetry_Int_Tables_number   1
_chemical_formula_structural   Hf6Ta3NbGa5Si
_chemical_formula_sum   'Hf6 Ta3 Nb1 Ga5 Si1'
_cell_volume   295.63437854
_cell_formula_units_Z   1
loop_
 _symmetry_equiv_pos_site_id
 _symmetry_equiv_pos_as_xyz
  1  'x, y, z'
loop_
 _atom_site_type_symbol
 _atom_site_label
 _atom_site_symmetry_multiplicity
 _atom_site_fract_x
 _atom_site_fract_y
 _atom_site_fract_z
 _atom_site_occupancy
  Hf  Hf0  1  0.750875  0.753428  0.250088  1
  Hf  Hf1  1  0.748543  0.000124  0.749931  1
  Hf  Hf2  1  0.997199  0.246450  0.250067  1
  Hf  Hf3  1  0.247527  0.248431  0.749926  1
  Hf  Hf4  1  0.251876  0.000084  0.250072  1
  Hf  Hf5  1  0.998856  0.751391  0.749886  1
  Ta  Ta6  1  0.666003  0.329549  0.000557  1
  Ta  Ta7  1  0.666042  0.329529  0.499383  1
  Ta  Ta8  1  0.336468  0.670444  0.499335  1
  Nb  Nb9  1  0.336485  0.670445  0.000656  1
  Ga  Ga10  1  0.603279  0.601394  0.749750  1
  Ga  Ga11  1  0.001618  0.398467  0.749766  1
  Ga  Ga12  1  0.999460  0.603345  0.250202  1
  Ga  Ga13  1  0.396322  0.396459  0.250208  1
  Ga  Ga14  1  0.394697  0.000183  0.749765  1
  Si  Si15  1  0.604749  0.000275  0.250408  1
