# generated using pymatgen
data_Dy16Sc4Si15Rh
_symmetry_space_group_name_H-M   'P 1'
_cell_length_a   7.29843028
_cell_length_b   7.59922104
_cell_length_c   14.48943114
_cell_angle_alpha   89.57815246
_cell_angle_beta   89.60240633
_cell_angle_gamma   90.15519756
_symmetry_Int_Tables_number   1
_chemical_formula_structural   Dy16Sc4Si15Rh
_chemical_formula_sum   'Dy16 Sc4 Si15 Rh1'
_cell_volume   803.57421734
_cell_formula_units_Z   1
loop_
 _symmetry_equiv_pos_site_id
 _symmetry_equiv_pos_as_xyz
  1  'x, y, z'
loop_
 _atom_site_type_symbol
 _atom_site_label
 _atom_site_symmetry_multiplicity
 _atom_site_fract_x
 _atom_site_fract_y
 _atom_site_fract_z
 _atom_site_occupancy
  Dy  Dy0  1  0.976551  0.815265  0.098914  1
  Dy  Dy1  1  0.474274  0.683225  0.401222  1
  Dy  Dy2  1  0.527805  0.322022  0.899473  1
  Dy  Dy3  1  0.026664  0.184113  0.599306  1
  Dy  Dy4  1  0.026625  0.186840  0.901249  1
  Dy  Dy5  1  0.526946  0.316822  0.599134  1
  Dy  Dy6  1  0.475146  0.684084  0.100874  1
  Dy  Dy7  1  0.972035  0.816947  0.400307  1
  Dy  Dy8  1  0.685277  0.810071  0.880625  1
  Dy  Dy9  1  0.178996  0.679340  0.623876  1
  Dy  Dy10  1  0.817371  0.336490  0.119893  1
  Dy  Dy11  1  0.314508  0.175364  0.374458  1
  Dy  Dy12  1  0.319783  0.178249  0.125184  1
  Dy  Dy13  1  0.818320  0.322096  0.375105  1
  Dy  Dy14  1  0.176112  0.673003  0.876907  1
  Dy  Dy15  1  0.683617  0.821458  0.624382  1
  Sc  Sc16  1  0.648541  0.991583  0.248852  1
  Sc  Sc17  1  0.149535  0.512157  0.248038  1
  Sc  Sc18  1  0.846538  0.483701  0.756584  1
  Sc  Sc19  1  0.352115  0.011163  0.751916  1
  Si  Si20  1  0.769947  0.636365  0.251368  1
  Si  Si21  1  0.270287  0.865003  0.250666  1
  Si  Si22  1  0.728334  0.128787  0.749359  1
  Si  Si23  1  0.231847  0.365875  0.747336  1
  Si  Si24  1  0.011872  0.100793  0.248058  1
  Si  Si25  1  0.516385  0.402470  0.251569  1
  Si  Si26  1  0.478629  0.600123  0.747059  1
  Si  Si27  1  0.984327  0.904794  0.749493  1
  Si  Si28  1  0.353045  0.972744  0.540962  1
  Si  Si29  1  0.647666  0.028176  0.042265  1
  Si  Si30  1  0.147931  0.470802  0.459248  1
  Si  Si31  1  0.156121  0.474380  0.043577  1
  Si  Si32  1  0.644690  0.028100  0.458439  1
  Si  Si33  1  0.353130  0.970283  0.960219  1
  Si  Si34  1  0.852181  0.528087  0.540151  1
  Rh  Rh35  1  0.856847  0.519224  0.953932  1
