# generated using pymatgen
data_Rb3ScAlSb3
_symmetry_space_group_name_H-M   'P 1'
_cell_length_a   6.61429200
_cell_length_b   8.52264255
_cell_length_c   11.79338053
_cell_angle_alpha   69.90566100
_cell_angle_beta   90.00000000
_cell_angle_gamma   90.00000000
_symmetry_Int_Tables_number   1
_chemical_formula_structural   Rb3ScAlSb3
_chemical_formula_sum   'Rb6 Sc2 Al2 Sb6'
_cell_volume   624.33952890
_cell_formula_units_Z   2
loop_
 _symmetry_equiv_pos_site_id
 _symmetry_equiv_pos_as_xyz
  1  'x, y, z'
loop_
 _atom_site_type_symbol
 _atom_site_label
 _atom_site_symmetry_multiplicity
 _atom_site_fract_x
 _atom_site_fract_y
 _atom_site_fract_z
 _atom_site_occupancy
  Rb  Rb0  1  0.254765  0.437676  0.421387  1
  Rb  Rb1  1  0.744920  0.129415  0.925966  1
  Rb  Rb2  1  0.756969  0.481492  0.143400  1
  Rb  Rb3  1  0.256969  0.518508  0.856600  1
  Rb  Rb4  1  0.754765  0.562324  0.578613  1
  Rb  Rb5  1  0.244920  0.870585  0.074034  1
  Sc  Sc6  1  0.998400  0.023744  0.341013  1
  Sc  Sc7  1  0.498400  0.976256  0.658987  1
  Al  Al8  1  0.500247  0.027969  0.348233  1
  Al  Al9  1  0.000247  0.972031  0.651767  1
  Sb  Sb10  1  0.252342  0.809111  0.531510  1
  Sb  Sb11  1  0.752342  0.190889  0.468490  1
  Sb  Sb12  1  0.266606  0.252125  0.178011  1
  Sb  Sb13  1  0.766606  0.747875  0.821989  1
  Sb  Sb14  1  0.225751  0.162054  0.747440  1
  Sb  Sb15  1  0.725751  0.837946  0.252560  1
