# generated using pymatgen
data_Tm7Lu13Sn16
_symmetry_space_group_name_H-M   'P 1'
_cell_length_a   7.91849831
_cell_length_b   8.04372793
_cell_length_c   15.19734200
_cell_angle_alpha   90.01362637
_cell_angle_beta   90.20220171
_cell_angle_gamma   89.92600809
_symmetry_Int_Tables_number   1
_chemical_formula_structural   Tm7Lu13Sn16
_chemical_formula_sum   'Tm7 Lu13 Sn16'
_cell_volume   967.97637843
_cell_formula_units_Z   1
loop_
 _symmetry_equiv_pos_site_id
 _symmetry_equiv_pos_as_xyz
  1  'x, y, z'
loop_
 _atom_site_type_symbol
 _atom_site_label
 _atom_site_symmetry_multiplicity
 _atom_site_fract_x
 _atom_site_fract_y
 _atom_site_fract_z
 _atom_site_occupancy
  Tm  Tm0  1  0.019811  0.179049  0.596123  1
  Tm  Tm1  1  0.480403  0.678839  0.404583  1
  Tm  Tm2  1  0.979190  0.821034  0.095821  1
  Tm  Tm3  1  0.479069  0.678130  0.095771  1
  Tm  Tm4  1  0.980269  0.821444  0.404593  1
  Tm  Tm5  1  0.518962  0.321856  0.595455  1
  Tm  Tm6  1  0.020672  0.179050  0.903938  1
  Lu  Lu7  1  0.365379  0.838449  0.876367  1
  Lu  Lu8  1  0.863793  0.662084  0.623877  1
  Lu  Lu9  1  0.635408  0.162117  0.376102  1
  Lu  Lu10  1  0.133919  0.338452  0.123257  1
  Lu  Lu11  1  0.634001  0.161577  0.123348  1
  Lu  Lu12  1  0.135589  0.338197  0.376375  1
  Lu  Lu13  1  0.364650  0.838543  0.624306  1
  Lu  Lu14  1  0.866295  0.661248  0.876545  1
  Lu  Lu15  1  0.522855  0.321251  0.903380  1
  Lu  Lu16  1  0.195758  0.504614  0.750275  1
  Lu  Lu17  1  0.695552  0.995532  0.750354  1
  Lu  Lu18  1  0.804291  0.495113  0.249781  1
  Lu  Lu19  1  0.304329  0.004776  0.249863  1
  Sn  Sn20  1  0.294370  0.038250  0.041122  1
  Sn  Sn21  1  0.795974  0.460522  0.459023  1
  Sn  Sn22  1  0.703663  0.961269  0.541240  1
  Sn  Sn23  1  0.207242  0.537023  0.958486  1
  Sn  Sn24  1  0.705151  0.961409  0.958585  1
  Sn  Sn25  1  0.203407  0.540313  0.541195  1
  Sn  Sn26  1  0.296274  0.039349  0.459103  1
  Sn  Sn27  1  0.793845  0.460482  0.040672  1
  Sn  Sn28  1  0.561425  0.618884  0.750232  1
  Sn  Sn29  1  0.061235  0.880518  0.750211  1
  Sn  Sn30  1  0.438254  0.381000  0.249693  1
  Sn  Sn31  1  0.938612  0.119031  0.249839  1
  Sn  Sn32  1  0.331986  0.151696  0.750126  1
  Sn  Sn33  1  0.830760  0.348983  0.749844  1
  Sn  Sn34  1  0.668837  0.848475  0.250186  1
  Sn  Sn35  1  0.168769  0.651440  0.250323  1
