# generated using pymatgen
data_AcPrIr6
_symmetry_space_group_name_H-M   'P 1'
_cell_length_a   5.45272900
_cell_length_b   5.45274279
_cell_length_c   17.81620900
_cell_angle_alpha   90.00004635
_cell_angle_beta   89.99998313
_cell_angle_gamma   119.99939629
_symmetry_Int_Tables_number   1
_chemical_formula_structural   AcPrIr6
_chemical_formula_sum   'Ac3 Pr3 Ir18'
_cell_volume   458.75150085
_cell_formula_units_Z   3
loop_
 _symmetry_equiv_pos_site_id
 _symmetry_equiv_pos_as_xyz
  1  'x, y, z'
loop_
 _atom_site_type_symbol
 _atom_site_label
 _atom_site_symmetry_multiplicity
 _atom_site_fract_x
 _atom_site_fract_y
 _atom_site_fract_z
 _atom_site_occupancy
  Ac  Ac0  1  0.666664  0.333332  0.459635  1
  Ac  Ac1  1  0.333335  0.666671  0.541723  1
  Ac  Ac2  1  0.666665  0.333326  0.248232  1
  Pr  Pr3  1  0.333335  0.666668  0.958826  1
  Pr  Pr4  1  0.666667  0.333330  0.039550  1
  Pr  Pr5  1  0.333337  0.666667  0.751966  1
  Ir  Ir6  1  0.165426  0.834570  0.368300  1
  Ir  Ir7  1  0.165427  0.330850  0.368293  1
  Ir  Ir8  1  0.669141  0.834566  0.368292  1
  Ir  Ir9  1  0.834632  0.165382  0.633242  1
  Ir  Ir10  1  0.834636  0.669263  0.633240  1
  Ir  Ir11  1  0.330751  0.165378  0.633237  1
  Ir  Ir12  1  0.833764  0.166238  0.872364  1
  Ir  Ir13  1  0.833767  0.667537  0.872366  1
  Ir  Ir14  1  0.332468  0.166237  0.872369  1
  Ir  Ir15  1  0.166436  0.833556  0.126138  1
  Ir  Ir16  1  0.166438  0.332875  0.126145  1
  Ir  Ir17  1  0.667115  0.833553  0.126145  1
  Ir  Ir18  1  0.333310  0.666676  0.248228  1
  Ir  Ir19  1  0.666653  0.333339  0.751922  1
  Ir  Ir20  1  0.000022  0.999977  0.246795  1
  Ir  Ir21  1  0.000021  0.000008  0.753002  1
  Ir  Ir22  1  0.999991  0.000000  0.500392  1
  Ir  Ir23  1  0.000000  0.000001  0.999596  1
