# generated using pymatgen
data_Dy5Er3(Sc3Ge4)4
_symmetry_space_group_name_H-M   'P 1'
_cell_length_a   7.23744962
_cell_length_b   7.47135481
_cell_length_c   14.07993890
_cell_angle_alpha   89.96654396
_cell_angle_beta   90.48173643
_cell_angle_gamma   89.90127299
_symmetry_Int_Tables_number   1
_chemical_formula_structural   Dy5Er3(Sc3Ge4)4
_chemical_formula_sum   'Dy5 Er3 Sc12 Ge16'
_cell_volume   761.32415957
_cell_formula_units_Z   1
loop_
 _symmetry_equiv_pos_site_id
 _symmetry_equiv_pos_as_xyz
  1  'x, y, z'
loop_
 _atom_site_type_symbol
 _atom_site_label
 _atom_site_symmetry_multiplicity
 _atom_site_fract_x
 _atom_site_fract_y
 _atom_site_fract_z
 _atom_site_occupancy
  Dy  Dy0  1  0.999058  0.824055  0.596883  1
  Dy  Dy1  1  0.498542  0.322619  0.095931  1
  Dy  Dy2  1  0.000930  0.175797  0.403549  1
  Dy  Dy3  1  0.500778  0.323559  0.402917  1
  Dy  Dy4  1  0.499147  0.676423  0.596842  1
  Er  Er5  1  0.997957  0.176954  0.095988  1
  Er  Er6  1  0.002360  0.822795  0.903601  1
  Er  Er7  1  0.501682  0.678011  0.903643  1
  Sc  Sc8  1  0.174485  0.499748  0.751539  1
  Sc  Sc9  1  0.825401  0.500474  0.248678  1
  Sc  Sc10  1  0.325047  0.999714  0.248565  1
  Sc  Sc11  1  0.674677  0.000349  0.751503  1
  Sc  Sc12  1  0.339416  0.169173  0.625217  1
  Sc  Sc13  1  0.660663  0.830766  0.375105  1
  Sc  Sc14  1  0.160517  0.669248  0.374688  1
  Sc  Sc15  1  0.656844  0.832833  0.123717  1
  Sc  Sc16  1  0.839291  0.330892  0.625608  1
  Sc  Sc17  1  0.342981  0.166861  0.876011  1
  Sc  Sc18  1  0.843239  0.332715  0.875502  1
  Sc  Sc19  1  0.156670  0.667553  0.124387  1
  Ge  Ge20  1  0.039343  0.125342  0.750105  1
  Ge  Ge21  1  0.960180  0.874440  0.249917  1
  Ge  Ge22  1  0.460825  0.626437  0.249840  1
  Ge  Ge23  1  0.538770  0.374014  0.750294  1
  Ge  Ge24  1  0.306188  0.861102  0.750458  1
  Ge  Ge25  1  0.694665  0.138290  0.249724  1
  Ge  Ge26  1  0.193500  0.360619  0.249748  1
  Ge  Ge27  1  0.805711  0.639599  0.750595  1
  Ge  Ge28  1  0.173952  0.460359  0.541620  1
  Ge  Ge29  1  0.825895  0.539542  0.458532  1
  Ge  Ge30  1  0.325469  0.959586  0.458480  1
  Ge  Ge31  1  0.818523  0.541186  0.041419  1
  Ge  Ge32  1  0.674720  0.040421  0.541700  1
  Ge  Ge33  1  0.182359  0.459713  0.958192  1
  Ge  Ge34  1  0.684440  0.040678  0.957873  1
  Ge  Ge35  1  0.315776  0.958133  0.041629  1
