# generated using pymatgen
data_Pr5Pt2Rh
_symmetry_space_group_name_H-M   'P 1'
_cell_length_a   11.50947900
_cell_length_b   11.50947900
_cell_length_c   6.60858800
_cell_angle_alpha   90.00000000
_cell_angle_beta   90.00000000
_cell_angle_gamma   90.00000000
_symmetry_Int_Tables_number   1
_chemical_formula_structural   Pr5Pt2Rh
_chemical_formula_sum   'Pr20 Pt8 Rh4'
_cell_volume   875.42714132
_cell_formula_units_Z   4
loop_
 _symmetry_equiv_pos_site_id
 _symmetry_equiv_pos_as_xyz
  1  'x, y, z'
loop_
 _atom_site_type_symbol
 _atom_site_label
 _atom_site_symmetry_multiplicity
 _atom_site_fract_x
 _atom_site_fract_y
 _atom_site_fract_z
 _atom_site_occupancy
  Pr  Pr0  1  0.294664  0.090042  0.375478  1
  Pr  Pr1  1  0.294664  0.909958  0.875478  1
  Pr  Pr2  1  0.705336  0.090042  0.875478  1
  Pr  Pr3  1  0.705336  0.909958  0.375478  1
  Pr  Pr4  1  0.590042  0.794664  0.875478  1
  Pr  Pr5  1  0.590042  0.205336  0.375478  1
  Pr  Pr6  1  0.409958  0.794664  0.375478  1
  Pr  Pr7  1  0.409958  0.205336  0.875478  1
  Pr  Pr8  1  0.205336  0.409958  0.624522  1
  Pr  Pr9  1  0.205336  0.590042  0.124522  1
  Pr  Pr10  1  0.794664  0.409958  0.124522  1
  Pr  Pr11  1  0.794664  0.590042  0.624522  1
  Pr  Pr12  1  0.909958  0.705336  0.124522  1
  Pr  Pr13  1  0.909958  0.294664  0.624522  1
  Pr  Pr14  1  0.090042  0.705336  0.624522  1
  Pr  Pr15  1  0.090042  0.294664  0.124522  1
  Pr  Pr16  1  0.000000  0.000000  0.500000  1
  Pr  Pr17  1  0.000000  0.000000  0.000000  1
  Pr  Pr18  1  0.500000  0.500000  0.000000  1
  Pr  Pr19  1  0.500000  0.500000  0.500000  1
  Pt  Pt20  1  0.845831  0.154169  0.250000  1
  Pt  Pt21  1  0.845831  0.845831  0.750000  1
  Pt  Pt22  1  0.154169  0.154169  0.750000  1
  Pt  Pt23  1  0.154169  0.845831  0.250000  1
  Pt  Pt24  1  0.654169  0.345831  0.750000  1
  Pt  Pt25  1  0.654169  0.654169  0.250000  1
  Pt  Pt26  1  0.345831  0.345831  0.250000  1
  Pt  Pt27  1  0.345831  0.654169  0.750000  1
  Rh  Rh28  1  0.500000  0.000000  0.112617  1
  Rh  Rh29  1  0.500000  0.000000  0.612617  1
  Rh  Rh30  1  0.000000  0.500000  0.887383  1
  Rh  Rh31  1  0.000000  0.500000  0.387383  1
