# generated using pymatgen
data_Ho16Cd4CoRu2Pt
_symmetry_space_group_name_H-M   'P 1'
_cell_length_a   9.58657023
_cell_length_b   9.61794355
_cell_length_c   9.55939205
_cell_angle_alpha   59.79717556
_cell_angle_beta   59.71496131
_cell_angle_gamma   59.89168442
_symmetry_Int_Tables_number   1
_chemical_formula_structural   Ho16Cd4CoRu2Pt
_chemical_formula_sum   'Ho16 Cd4 Co1 Ru2 Pt1'
_cell_volume   620.43322167
_cell_formula_units_Z   1
loop_
 _symmetry_equiv_pos_site_id
 _symmetry_equiv_pos_as_xyz
  1  'x, y, z'
loop_
 _atom_site_type_symbol
 _atom_site_label
 _atom_site_symmetry_multiplicity
 _atom_site_fract_x
 _atom_site_fract_y
 _atom_site_fract_z
 _atom_site_occupancy
  Ho  Ho0  1  0.936917  0.937498  0.560044  1
  Ho  Ho1  1  0.814660  0.191066  0.187836  1
  Ho  Ho2  1  0.936917  0.565541  0.560044  1
  Ho  Ho3  1  0.938548  0.560982  0.939487  1
  Ho  Ho4  1  0.814660  0.806437  0.187836  1
  Ho  Ho5  1  0.342245  0.345110  0.355831  1
  Ho  Ho6  1  0.557996  0.937992  0.939416  1
  Ho  Ho7  1  0.562893  0.936261  0.564584  1
  Ho  Ho8  1  0.186881  0.815914  0.808017  1
  Ho  Ho9  1  0.186881  0.189188  0.808017  1
  Ho  Ho10  1  0.346661  0.350035  0.953270  1
  Ho  Ho11  1  0.342245  0.956815  0.355831  1
  Ho  Ho12  1  0.818006  0.190296  0.801401  1
  Ho  Ho13  1  0.557996  0.564595  0.939416  1
  Ho  Ho14  1  0.188756  0.811668  0.187908  1
  Ho  Ho15  1  0.961437  0.343680  0.351203  1
  Cd  Cd16  1  0.581053  0.581379  0.256190  1
  Cd  Cd17  1  0.256185  0.581791  0.580236  1
  Cd  Cd18  1  0.580786  0.581705  0.579342  1
  Cd  Cd19  1  0.580786  0.258169  0.579342  1
  Co  Co20  1  0.143428  0.139050  0.578471  1
  Ru  Ru21  1  0.144084  0.137581  0.141847  1
  Ru  Ru22  1  0.144084  0.576489  0.141847  1
  Pt  Pt23  1  0.575895  0.140762  0.142581  1
