# generated using pymatgen
data_Nd4Al18IrPd4Ru
_symmetry_space_group_name_H-M   'P 1'
_cell_length_a   7.67261238
_cell_length_b   7.67261315
_cell_length_c   9.61740364
_cell_angle_alpha   89.91681279
_cell_angle_beta   89.91680747
_cell_angle_gamma   119.56579110
_symmetry_Int_Tables_number   1
_chemical_formula_structural   Nd4Al18IrPd4Ru
_chemical_formula_sum   'Nd4 Al18 Ir1 Pd4 Ru1'
_cell_volume   492.44400018
_cell_formula_units_Z   1
loop_
 _symmetry_equiv_pos_site_id
 _symmetry_equiv_pos_as_xyz
  1  'x, y, z'
loop_
 _atom_site_type_symbol
 _atom_site_label
 _atom_site_symmetry_multiplicity
 _atom_site_fract_x
 _atom_site_fract_y
 _atom_site_fract_z
 _atom_site_occupancy
  Nd  Nd0  1  0.994930  0.670020  0.249952  1
  Nd  Nd1  1  0.004061  0.329012  0.749828  1
  Nd  Nd2  1  0.670988  0.995939  0.250172  1
  Nd  Nd3  1  0.329980  0.005070  0.750048  1
  Al  Al4  1  0.132971  0.132346  0.251868  1
  Al  Al5  1  0.867654  0.867029  0.748132  1
  Al  Al6  1  0.004737  0.334335  0.076792  1
  Al  Al7  1  0.995486  0.664859  0.923484  1
  Al  Al8  1  0.000322  0.661038  0.571404  1
  Al  Al9  1  0.338962  0.999678  0.428596  1
  Al  Al10  1  0.002819  0.341131  0.428519  1
  Al  Al11  1  0.658869  0.997181  0.571481  1
  Al  Al12  1  0.665665  0.995263  0.923208  1
  Al  Al13  1  0.335141  0.004514  0.076516  1
  Al  Al14  1  0.335823  0.338211  0.545947  1
  Al  Al15  1  0.661789  0.664177  0.454053  1
  Al  Al16  1  0.663311  0.663101  0.057321  1
  Al  Al17  1  0.336899  0.336689  0.942679  1
  Al  Al18  1  0.339452  0.546844  0.255964  1
  Al  Al19  1  0.661149  0.454602  0.745661  1
  Al  Al20  1  0.545398  0.338851  0.254339  1
  Al  Al21  1  0.453156  0.660548  0.744036  1
  Ir  Ir22  1  0.671010  0.328990  0.500000  1
  Pd  Pd23  1  0.672065  0.327935  0.000000  1
  Pd  Pd24  1  0.328686  0.671314  0.000000  1
  Pd  Pd25  1  0.000331  0.999669  0.000000  1
  Pd  Pd26  1  0.999752  0.000248  0.500000  1
  Ru  Ru27  1  0.328594  0.671406  0.500000  1
