# generated using pymatgen
data_YHo5MnB14Ru
_symmetry_space_group_name_H-M   'P 1'
_cell_length_a   8.01032216
_cell_length_b   8.01032267
_cell_length_c   9.28604000
_cell_angle_alpha   90.00000000
_cell_angle_beta   90.00000000
_cell_angle_gamma   154.96673984
_symmetry_Int_Tables_number   1
_chemical_formula_structural   YHo5MnB14Ru
_chemical_formula_sum   'Y1 Ho5 Mn1 B14 Ru1'
_cell_volume   252.12681659
_cell_formula_units_Z   1
loop_
 _symmetry_equiv_pos_site_id
 _symmetry_equiv_pos_as_xyz
  1  'x, y, z'
loop_
 _atom_site_type_symbol
 _atom_site_label
 _atom_site_symmetry_multiplicity
 _atom_site_fract_x
 _atom_site_fract_y
 _atom_site_fract_z
 _atom_site_occupancy
  Y  Y0  1  0.244573  0.755427  0.250000  1
  Ho  Ho1  1  0.894976  0.105024  0.443032  1
  Ho  Ho2  1  0.104658  0.895342  0.563323  1
  Ho  Ho3  1  0.894976  0.105024  0.056968  1
  Ho  Ho4  1  0.104658  0.895342  0.936677  1
  Ho  Ho5  1  0.759210  0.240790  0.750000  1
  Mn  Mn6  1  0.946934  0.053066  0.750000  1
  B  B7  1  0.727048  0.272952  0.467230  1
  B  B8  1  0.272344  0.727656  0.534496  1
  B  B9  1  0.727048  0.272952  0.032770  1
  B  B10  1  0.272344  0.727656  0.965504  1
  B  B11  1  0.631441  0.368559  0.150302  1
  B  B12  1  0.369946  0.630054  0.846366  1
  B  B13  1  0.631441  0.368559  0.349698  1
  B  B14  1  0.369946  0.630054  0.653634  1
  B  B15  1  0.520195  0.479805  0.095592  1
  B  B16  1  0.478562  0.521438  0.901645  1
  B  B17  1  0.520195  0.479805  0.404408  1
  B  B18  1  0.478562  0.521438  0.598355  1
  B  B19  1  0.456248  0.543752  0.250000  1
  B  B20  1  0.540941  0.459059  0.750000  1
  Ru  Ru21  1  0.053753  0.946247  0.250000  1
