# generated using pymatgen
data_Dy3AlSn2Pt3
_symmetry_space_group_name_H-M   'P 1'
_cell_length_a   7.58614869
_cell_length_b   7.58614874
_cell_length_c   3.87485000
_cell_angle_alpha   90.00000000
_cell_angle_beta   90.00000000
_cell_angle_gamma   120.88392310
_symmetry_Int_Tables_number   1
_chemical_formula_structural   Dy3AlSn2Pt3
_chemical_formula_sum   'Dy3 Al1 Sn2 Pt3'
_cell_volume   191.37739933
_cell_formula_units_Z   1
loop_
 _symmetry_equiv_pos_site_id
 _symmetry_equiv_pos_as_xyz
  1  'x, y, z'
loop_
 _atom_site_type_symbol
 _atom_site_label
 _atom_site_symmetry_multiplicity
 _atom_site_fract_x
 _atom_site_fract_y
 _atom_site_fract_z
 _atom_site_occupancy
  Dy  Dy0  1  0.413151  0.413151  0.500000  1
  Dy  Dy1  1  0.594528  0.993146  0.500000  1
  Dy  Dy2  1  0.993146  0.594528  0.500000  1
  Al  Al3  1  0.743212  0.743212  0.000000  1
  Sn  Sn4  1  0.257624  0.997916  0.000000  1
  Sn  Sn5  1  0.997916  0.257624  0.000000  1
  Pt  Pt6  1  0.670497  0.350487  0.000000  1
  Pt  Pt7  1  0.350487  0.670497  0.000000  1
  Pt  Pt8  1  0.979441  0.979441  0.500000  1
