# generated using pymatgen
data_Ti16Pd3Rh5O4
_symmetry_space_group_name_H-M   'P 1'
_cell_length_a   8.25334239
_cell_length_b   8.25334115
_cell_length_c   8.25334176
_cell_angle_alpha   60.10266834
_cell_angle_beta   60.10266316
_cell_angle_gamma   60.10266617
_symmetry_Int_Tables_number   1
_chemical_formula_structural   Ti16Pd3Rh5O4
_chemical_formula_sum   'Ti16 Pd3 Rh5 O4'
_cell_volume   398.45893038
_cell_formula_units_Z   1
loop_
 _symmetry_equiv_pos_site_id
 _symmetry_equiv_pos_as_xyz
  1  'x, y, z'
loop_
 _atom_site_type_symbol
 _atom_site_label
 _atom_site_symmetry_multiplicity
 _atom_site_fract_x
 _atom_site_fract_y
 _atom_site_fract_z
 _atom_site_occupancy
  Ti  Ti0  1  0.116486  0.626431  0.626431  1
  Ti  Ti1  1  0.626431  0.116486  0.626431  1
  Ti  Ti2  1  0.626431  0.626431  0.116486  1
  Ti  Ti3  1  0.630303  0.630303  0.630303  1
  Ti  Ti4  1  0.819117  0.819117  0.180448  1
  Ti  Ti5  1  0.181358  0.181358  0.818291  1
  Ti  Ti6  1  0.819117  0.180448  0.819117  1
  Ti  Ti7  1  0.181358  0.818291  0.181358  1
  Ti  Ti8  1  0.180448  0.819117  0.819117  1
  Ti  Ti9  1  0.818291  0.181358  0.181358  1
  Ti  Ti10  1  0.431902  0.431902  0.070769  1
  Ti  Ti11  1  0.067964  0.067964  0.431940  1
  Ti  Ti12  1  0.431902  0.070769  0.431902  1
  Ti  Ti13  1  0.067964  0.431940  0.067964  1
  Ti  Ti14  1  0.070769  0.431902  0.431902  1
  Ti  Ti15  1  0.431940  0.067964  0.067964  1
  Pd  Pd16  1  0.766936  0.411729  0.411729  1
  Pd  Pd17  1  0.411729  0.766936  0.411729  1
  Pd  Pd18  1  0.411729  0.411729  0.766936  1
  Rh  Rh19  1  0.407258  0.407258  0.407258  1
  Rh  Rh20  1  0.468879  0.844766  0.844766  1
  Rh  Rh21  1  0.844766  0.468879  0.844766  1
  Rh  Rh22  1  0.844766  0.844766  0.468879  1
  Rh  Rh23  1  0.842902  0.842902  0.842902  1
  O  O24  1  0.624565  0.124779  0.124779  1
  O  O25  1  0.124779  0.624565  0.124779  1
  O  O26  1  0.124779  0.124779  0.624565  1
  O  O27  1  0.125125  0.125125  0.125125  1
