# generated using pymatgen
data_Ho8Hg3BiAu8
_symmetry_space_group_name_H-M   'P 1'
_cell_length_a   8.04065900
_cell_length_b   8.04065900
_cell_length_c   7.32274300
_cell_angle_alpha   90.00000000
_cell_angle_beta   90.00000000
_cell_angle_gamma   90.00000000
_symmetry_Int_Tables_number   1
_chemical_formula_structural   Ho8Hg3BiAu8
_chemical_formula_sum   'Ho8 Hg3 Bi1 Au8'
_cell_volume   473.43142415
_cell_formula_units_Z   1
loop_
 _symmetry_equiv_pos_site_id
 _symmetry_equiv_pos_as_xyz
  1  'x, y, z'
loop_
 _atom_site_type_symbol
 _atom_site_label
 _atom_site_symmetry_multiplicity
 _atom_site_fract_x
 _atom_site_fract_y
 _atom_site_fract_z
 _atom_site_occupancy
  Ho  Ho0  1  0.839704  0.156674  0.501990  1
  Ho  Ho1  1  0.160296  0.843326  0.501990  1
  Ho  Ho2  1  0.343326  0.339704  0.998010  1
  Ho  Ho3  1  0.656674  0.660296  0.998010  1
  Ho  Ho4  1  0.681468  0.686430  0.501235  1
  Ho  Ho5  1  0.318532  0.313570  0.501235  1
  Ho  Ho6  1  0.186430  0.818532  0.998765  1
  Ho  Ho7  1  0.813570  0.181468  0.998765  1
  Hg  Hg8  1  0.500000  0.000000  0.250000  1
  Hg  Hg9  1  0.000000  0.500000  0.750000  1
  Hg  Hg10  1  0.500000  0.000000  0.750000  1
  Bi  Bi11  1  0.000000  0.500000  0.250000  1
  Au  Au12  1  0.622857  0.370097  0.276244  1
  Au  Au13  1  0.377143  0.629903  0.276244  1
  Au  Au14  1  0.127044  0.127215  0.774865  1
  Au  Au15  1  0.872956  0.872785  0.774865  1
  Au  Au16  1  0.372785  0.627044  0.725135  1
  Au  Au17  1  0.627215  0.372956  0.725135  1
  Au  Au18  1  0.870097  0.877143  0.223756  1
  Au  Au19  1  0.129903  0.122857  0.223756  1
