# generated using pymatgen
data_YTmPa2(Al8Pt3)3
_symmetry_space_group_name_H-M   'P 1'
_cell_length_a   7.56882508
_cell_length_b   7.57526660
_cell_length_c   13.10875028
_cell_angle_alpha   84.50158081
_cell_angle_beta   78.89153944
_cell_angle_gamma   59.92021415
_symmetry_Int_Tables_number   1
_chemical_formula_structural   YTmPa2(Al8Pt3)3
_chemical_formula_sum   'Y1 Tm1 Pa2 Al24 Pt9'
_cell_volume   638.19645297
_cell_formula_units_Z   1
loop_
 _symmetry_equiv_pos_site_id
 _symmetry_equiv_pos_as_xyz
  1  'x, y, z'
loop_
 _atom_site_type_symbol
 _atom_site_label
 _atom_site_symmetry_multiplicity
 _atom_site_fract_x
 _atom_site_fract_y
 _atom_site_fract_z
 _atom_site_occupancy
  Y  Y0  1  0.733570  0.498473  0.808409  1
  Tm  Tm1  1  0.265897  0.501408  0.192740  1
  Pa  Pa2  1  0.395292  0.168127  0.804789  1
  Pa  Pa3  1  0.604651  0.831956  0.195162  1
  Al  Al4  1  0.684003  0.833779  0.945038  1
  Al  Al5  1  0.315837  0.167017  0.055714  1
  Al  Al6  1  0.145682  0.832520  0.561187  1
  Al  Al7  1  0.854431  0.167377  0.438585  1
  Al  Al8  1  0.480556  0.167702  0.557777  1
  Al  Al9  1  0.519437  0.832357  0.441968  1
  Al  Al10  1  0.214493  0.168333  0.330395  1
  Al  Al11  1  0.785853  0.831788  0.668994  1
  Al  Al12  1  0.437280  0.509474  0.669978  1
  Al  Al13  1  0.562562  0.490568  0.329445  1
  Al  Al14  1  0.107553  0.159557  0.668044  1
  Al  Al15  1  0.892934  0.840163  0.331363  1
  Al  Al16  1  0.352950  0.499448  0.944012  1
  Al  Al17  1  0.645749  0.500685  0.057200  1
  Al  Al18  1  0.015842  0.167660  0.952440  1
  Al  Al19  1  0.984551  0.831655  0.048349  1
  Al  Al20  1  0.185819  0.500313  0.441090  1
  Al  Al21  1  0.814385  0.499705  0.558583  1
  Al  Al22  1  0.735955  0.162715  0.182710  1
  Al  Al23  1  0.263256  0.837866  0.817231  1
  Al  Al24  1  0.062788  0.631181  0.816017  1
  Al  Al25  1  0.937975  0.368962  0.183885  1
  Al  Al26  1  0.855057  0.039962  0.816865  1
  Al  Al27  1  0.145108  0.959107  0.183055  1
  Pt  Pt28  1  0.120549  0.490848  0.639728  1
  Pt  Pt29  1  0.880250  0.509178  0.359850  1
  Pt  Pt30  1  0.656695  0.172843  0.999992  1
  Pt  Pt31  1  0.343037  0.827298  0.000128  1
  Pt  Pt32  1  0.537111  0.166493  0.360131  1
  Pt  Pt33  1  0.462451  0.834071  0.639476  1
  Pt  Pt34  1  0.777880  0.175108  0.638351  1
  Pt  Pt35  1  0.222362  0.824248  0.361241  1
  Pt  Pt36  1  0.000200  0.500057  0.000080  1
