# generated using pymatgen
data_Hf6B4Ru7Rh3
_symmetry_space_group_name_H-M   'P 1'
_cell_length_a   9.60340448
_cell_length_b   9.49978750
_cell_length_c   3.11879800
_cell_angle_alpha   90.00000000
_cell_angle_beta   90.00000000
_cell_angle_gamma   90.09797065
_symmetry_Int_Tables_number   1
_chemical_formula_structural   Hf6B4Ru7Rh3
_chemical_formula_sum   'Hf6 B4 Ru7 Rh3'
_cell_volume   284.52846700
_cell_formula_units_Z   1
loop_
 _symmetry_equiv_pos_site_id
 _symmetry_equiv_pos_as_xyz
  1  'x, y, z'
loop_
 _atom_site_type_symbol
 _atom_site_label
 _atom_site_symmetry_multiplicity
 _atom_site_fract_x
 _atom_site_fract_y
 _atom_site_fract_z
 _atom_site_occupancy
  Hf  Hf0  1  0.823912  0.672195  0.000000  1
  Hf  Hf1  1  0.169916  0.323687  0.000000  1
  Hf  Hf2  1  0.324553  0.826395  0.000000  1
  Hf  Hf3  1  0.681560  0.174374  0.000000  1
  Hf  Hf4  1  0.499584  0.498976  0.000000  1
  Hf  Hf5  1  0.999457  0.001912  0.000000  1
  B  B6  1  0.625783  0.885418  0.000000  1
  B  B7  1  0.374382  0.114840  0.000000  1
  B  B8  1  0.124891  0.614821  0.000000  1
  B  B9  1  0.876296  0.378902  0.000000  1
  Ru  Ru10  1  0.928362  0.221984  0.500000  1
  Ru  Ru11  1  0.279076  0.574261  0.500000  1
  Ru  Ru12  1  0.720214  0.429999  0.500000  1
  Ru  Ru13  1  0.221648  0.072947  0.500000  1
  Ru  Ru14  1  0.778990  0.925082  0.500000  1
  Ru  Ru15  1  0.500651  0.000385  0.500000  1
  Ru  Ru16  1  0.999556  0.502836  0.500000  1
  Rh  Rh17  1  0.569857  0.721154  0.500000  1
  Rh  Rh18  1  0.428912  0.278884  0.500000  1
  Rh  Rh19  1  0.072398  0.780947  0.500000  1
