# generated using pymatgen
data_Gd3Ho(Tc3Ge4)2
_symmetry_space_group_name_H-M   'P 1'
_cell_length_a   8.32526164
_cell_length_b   5.69378977
_cell_length_c   7.02695900
_cell_angle_alpha   76.25741231
_cell_angle_beta   90.21868115
_cell_angle_gamma   89.97291673
_symmetry_Int_Tables_number   1
_chemical_formula_structural   Gd3Ho(Tc3Ge4)2
_chemical_formula_sum   'Gd3 Ho1 Tc6 Ge8'
_cell_volume   323.55571906
_cell_formula_units_Z   1
loop_
 _symmetry_equiv_pos_site_id
 _symmetry_equiv_pos_as_xyz
  1  'x, y, z'
loop_
 _atom_site_type_symbol
 _atom_site_label
 _atom_site_symmetry_multiplicity
 _atom_site_fract_x
 _atom_site_fract_y
 _atom_site_fract_z
 _atom_site_occupancy
  Gd  Gd0  1  0.557211  0.074524  0.246574  1
  Gd  Gd1  1  0.057322  0.425605  0.753242  1
  Gd  Gd2  1  0.442272  0.924566  0.754264  1
  Ho  Ho3  1  0.943934  0.576341  0.244843  1
  Tc  Tc4  1  0.206029  0.118218  0.114880  1
  Tc  Tc5  1  0.706585  0.390336  0.885071  1
  Tc  Tc6  1  0.794235  0.882864  0.885313  1
  Tc  Tc7  1  0.293544  0.608504  0.115477  1
  Tc  Tc8  1  0.999752  0.000190  0.499135  1
  Tc  Tc9  1  0.499318  0.499856  0.500454  1
  Ge  Ge10  1  0.902621  0.119455  0.125781  1
  Ge  Ge11  1  0.403536  0.380851  0.873001  1
  Ge  Ge12  1  0.097171  0.879983  0.876270  1
  Ge  Ge13  1  0.597553  0.618583  0.127727  1
  Ge  Ge14  1  0.748437  0.222628  0.580327  1
  Ge  Ge15  1  0.246146  0.278680  0.423238  1
  Ge  Ge16  1  0.251139  0.778027  0.418108  1
  Ge  Ge17  1  0.753195  0.720789  0.576296  1
