# generated using pymatgen
data_Tb6SmS8
_symmetry_space_group_name_H-M   'P 1'
_cell_length_a   7.83058600
_cell_length_b   7.84637538
_cell_length_c   7.86650700
_cell_angle_alpha   120.08491399
_cell_angle_beta   90.00000000
_cell_angle_gamma   119.93346387
_symmetry_Int_Tables_number   1
_chemical_formula_structural   Tb6SmS8
_chemical_formula_sum   'Tb6 Sm1 S8'
_cell_volume   341.67156622
_cell_formula_units_Z   1
loop_
 _symmetry_equiv_pos_site_id
 _symmetry_equiv_pos_as_xyz
  1  'x, y, z'
loop_
 _atom_site_type_symbol
 _atom_site_label
 _atom_site_symmetry_multiplicity
 _atom_site_fract_x
 _atom_site_fract_y
 _atom_site_fract_z
 _atom_site_occupancy
  Tb  Tb0  1  0.250013  0.000086  0.250047  1
  Tb  Tb1  1  0.750073  0.000086  0.250048  1
  Tb  Tb2  1  0.249962  0.499923  0.749963  1
  Tb  Tb3  1  0.250014  0.000086  0.750039  1
  Tb  Tb4  1  0.750073  0.000086  0.750039  1
  Tb  Tb5  1  0.749983  0.499966  0.749983  1
  Sm  Sm6  1  0.249945  0.499889  0.249945  1
  S  S7  1  0.997749  0.995498  0.997749  1
  S  S8  1  0.502180  0.004360  0.502180  1
  S  S9  1  0.999521  0.999043  0.499523  1
  S  S10  1  0.997450  0.500107  0.502196  1
  S  S11  1  0.502657  0.500107  0.502196  1
  S  S12  1  0.997452  0.500107  0.997912  1
  S  S13  1  0.502655  0.500107  0.997912  1
  S  S14  1  0.500276  0.000553  0.000277  1
