# generated using pymatgen
data_TbMg3Ge4P2Ir7
_symmetry_space_group_name_H-M   'P 1'
_cell_length_a   6.94245298
_cell_length_b   7.09683179
_cell_length_c   7.09683399
_cell_angle_alpha   109.18142589
_cell_angle_beta   109.35731016
_cell_angle_gamma   109.35730291
_symmetry_Int_Tables_number   1
_chemical_formula_structural   TbMg3Ge4P2Ir7
_chemical_formula_sum   'Tb1 Mg3 Ge4 P2 Ir7'
_cell_volume   270.87120001
_cell_formula_units_Z   1
loop_
 _symmetry_equiv_pos_site_id
 _symmetry_equiv_pos_as_xyz
  1  'x, y, z'
loop_
 _atom_site_type_symbol
 _atom_site_label
 _atom_site_symmetry_multiplicity
 _atom_site_fract_x
 _atom_site_fract_y
 _atom_site_fract_z
 _atom_site_occupancy
  Tb  Tb0  1  0.500000  0.999157  0.000843  1
  Mg  Mg1  1  0.999987  0.000513  0.474331  1
  Mg  Mg2  1  0.000013  0.525669  0.999487  1
  Mg  Mg3  1  0.500000  0.500037  0.499963  1
  Ge  Ge4  1  0.009079  0.319726  0.315676  1
  Ge  Ge5  1  0.293793  0.306796  0.999199  1
  Ge  Ge6  1  0.706207  0.000801  0.693204  1
  Ge  Ge7  1  0.990921  0.684324  0.680274  1
  P  P8  1  0.673518  0.669862  0.000370  1
  P  P9  1  0.326482  0.999630  0.330138  1
  Ir  Ir10  1  0.748812  0.252207  0.505614  1
  Ir  Ir11  1  0.750935  0.506646  0.244367  1
  Ir  Ir12  1  0.500000  0.253792  0.746208  1
  Ir  Ir13  1  0.251188  0.494386  0.747793  1
  Ir  Ir14  1  0.249065  0.755633  0.493354  1
  Ir  Ir15  1  0.500000  0.746939  0.253061  1
  Ir  Ir16  1  0.000000  0.983882  0.016118  1
