# generated using pymatgen
data_PuPO5
_symmetry_space_group_name_H-M   'P 1'
_cell_length_a   5.54307189
_cell_length_b   8.92072594
_cell_length_c   9.24271377
_cell_angle_alpha   101.67439696
_cell_angle_beta   103.11629407
_cell_angle_gamma   99.04186318
_symmetry_Int_Tables_number   1
_chemical_formula_structural   PuPO5
_chemical_formula_sum   'Pu4 P4 O20'
_cell_volume   425.90911686
_cell_formula_units_Z   4
loop_
 _symmetry_equiv_pos_site_id
 _symmetry_equiv_pos_as_xyz
  1  'x, y, z'
loop_
 _atom_site_type_symbol
 _atom_site_label
 _atom_site_symmetry_multiplicity
 _atom_site_fract_x
 _atom_site_fract_y
 _atom_site_fract_z
 _atom_site_occupancy
  Pu  Pu0  1  0.353604  0.297962  0.048117  1
  Pu  Pu1  1  0.646396  0.702038  0.951883  1
  Pu  Pu2  1  0.335162  0.804649  0.552571  1
  Pu  Pu3  1  0.664838  0.195351  0.447429  1
  P  P4  1  0.091074  0.517544  0.764329  1
  P  P5  1  0.908926  0.482456  0.235671  1
  P  P6  1  0.281886  0.922275  0.177591  1
  P  P7  1  0.718114  0.077725  0.822409  1
  O  O8  1  0.004413  0.142966  0.894281  1
  O  O9  1  0.995587  0.857034  0.105719  1
  O  O10  1  0.975581  0.376450  0.628459  1
  O  O11  1  0.024419  0.623550  0.371541  1
  O  O12  1  0.723186  0.353314  0.271552  1
  O  O13  1  0.276814  0.646686  0.728448  1
  O  O14  1  0.431308  0.817591  0.094201  1
  O  O15  1  0.568692  0.182409  0.905799  1
  O  O16  1  0.438119  0.298940  0.498454  1
  O  O17  1  0.561881  0.701060  0.501546  1
  O  O18  1  0.881040  0.586678  0.822025  1
  O  O19  1  0.118960  0.413322  0.177975  1
  O  O20  1  0.279841  0.476356  0.898282  1
  O  O21  1  0.720159  0.523644  0.101718  1
  O  O22  1  0.887316  0.091196  0.390749  1
  O  O23  1  0.112684  0.908804  0.609251  1
  O  O24  1  0.359018  0.931597  0.351596  1
  O  O25  1  0.640982  0.068403  0.648404  1
  O  O26  1  0.363298  0.095802  0.172194  1
  O  O27  1  0.636702  0.904198  0.827806  1
