# generated using pymatgen
data_Pr4NdIr2Rh
_symmetry_space_group_name_H-M   'P 1'
_cell_length_a   11.30978700
_cell_length_b   11.30978700
_cell_length_c   6.67749800
_cell_angle_alpha   90.00000000
_cell_angle_beta   90.00000000
_cell_angle_gamma   90.00000000
_symmetry_Int_Tables_number   1
_chemical_formula_structural   Pr4NdIr2Rh
_chemical_formula_sum   'Pr16 Nd4 Ir8 Rh4'
_cell_volume   854.12732963
_cell_formula_units_Z   4
loop_
 _symmetry_equiv_pos_site_id
 _symmetry_equiv_pos_as_xyz
  1  'x, y, z'
loop_
 _atom_site_type_symbol
 _atom_site_label
 _atom_site_symmetry_multiplicity
 _atom_site_fract_x
 _atom_site_fract_y
 _atom_site_fract_z
 _atom_site_occupancy
  Pr  Pr0  1  0.290801  0.090538  0.383821  1
  Pr  Pr1  1  0.290801  0.909462  0.883821  1
  Pr  Pr2  1  0.709199  0.090538  0.883821  1
  Pr  Pr3  1  0.709199  0.909462  0.383821  1
  Pr  Pr4  1  0.590538  0.790801  0.883821  1
  Pr  Pr5  1  0.590538  0.209199  0.383821  1
  Pr  Pr6  1  0.409462  0.790801  0.383821  1
  Pr  Pr7  1  0.409462  0.209199  0.883821  1
  Pr  Pr8  1  0.209199  0.409462  0.616179  1
  Pr  Pr9  1  0.209199  0.590538  0.116179  1
  Pr  Pr10  1  0.790801  0.409462  0.116179  1
  Pr  Pr11  1  0.790801  0.590538  0.616179  1
  Pr  Pr12  1  0.909462  0.709199  0.116179  1
  Pr  Pr13  1  0.909462  0.290801  0.616179  1
  Pr  Pr14  1  0.090538  0.709199  0.616179  1
  Pr  Pr15  1  0.090538  0.290801  0.116179  1
  Nd  Nd16  1  0.000000  0.000000  0.500000  1
  Nd  Nd17  1  0.000000  0.000000  0.000000  1
  Nd  Nd18  1  0.500000  0.500000  0.000000  1
  Nd  Nd19  1  0.500000  0.500000  0.500000  1
  Ir  Ir20  1  0.846638  0.153362  0.250000  1
  Ir  Ir21  1  0.846638  0.846638  0.750000  1
  Ir  Ir22  1  0.153362  0.153362  0.750000  1
  Ir  Ir23  1  0.153362  0.846638  0.250000  1
  Ir  Ir24  1  0.653362  0.346638  0.750000  1
  Ir  Ir25  1  0.653362  0.653362  0.250000  1
  Ir  Ir26  1  0.346638  0.346638  0.250000  1
  Ir  Ir27  1  0.346638  0.653362  0.750000  1
  Rh  Rh28  1  0.500000  0.000000  0.116303  1
  Rh  Rh29  1  0.500000  0.000000  0.616303  1
  Rh  Rh30  1  0.000000  0.500000  0.883697  1
  Rh  Rh31  1  0.000000  0.500000  0.383697  1
