# generated using pymatgen
data_Gd2Y3(TcO6)2
_symmetry_space_group_name_H-M   'P 1'
_cell_length_a   6.89053116
_cell_length_b   6.89053199
_cell_length_c   7.58528201
_cell_angle_alpha   73.48461736
_cell_angle_beta   73.48461361
_cell_angle_gamma   48.81337772
_symmetry_Int_Tables_number   1
_chemical_formula_structural   Gd2Y3(TcO6)2
_chemical_formula_sum   'Gd2 Y3 Tc2 O12'
_cell_volume   257.48917889
_cell_formula_units_Z   1
loop_
 _symmetry_equiv_pos_site_id
 _symmetry_equiv_pos_as_xyz
  1  'x, y, z'
loop_
 _atom_site_type_symbol
 _atom_site_label
 _atom_site_symmetry_multiplicity
 _atom_site_fract_x
 _atom_site_fract_y
 _atom_site_fract_z
 _atom_site_occupancy
  Gd  Gd0  1  0.183539  0.183539  0.176433  1
  Gd  Gd1  1  0.816461  0.816461  0.823567  1
  Y  Y2  1  0.500000  0.500000  0.500000  1
  Y  Y3  1  0.804669  0.804669  0.357904  1
  Y  Y4  1  0.195331  0.195331  0.642096  1
  Tc  Tc5  1  0.713624  0.286376  0.000000  1
  Tc  Tc6  1  0.286376  0.713624  0.000000  1
  O  O7  1  0.997435  0.997435  0.176722  1
  O  O8  1  0.002565  0.002565  0.823278  1
  O  O9  1  0.498567  0.498567  0.796790  1
  O  O10  1  0.501433  0.501433  0.203210  1
  O  O11  1  0.596694  0.095996  0.571392  1
  O  O12  1  0.904004  0.403306  0.428608  1
  O  O13  1  0.403306  0.904004  0.428608  1
  O  O14  1  0.412391  0.914275  0.915412  1
  O  O15  1  0.085725  0.587609  0.084588  1
  O  O16  1  0.587609  0.085725  0.084588  1
  O  O17  1  0.914275  0.412391  0.915412  1
  O  O18  1  0.095996  0.596694  0.571392  1
