# generated using pymatgen
data_Tb7Dy5InCo4Ni
_symmetry_space_group_name_H-M   'P 1'
_cell_length_a   8.31076959
_cell_length_b   8.31077087
_cell_length_c   8.30907377
_cell_angle_alpha   110.78270737
_cell_angle_beta   110.56790895
_cell_angle_gamma   107.09769721
_symmetry_Int_Tables_number   1
_chemical_formula_structural   Tb7Dy5InCo4Ni
_chemical_formula_sum   'Tb7 Dy5 In1 Co4 Ni1'
_cell_volume   441.17094693
_cell_formula_units_Z   1
loop_
 _symmetry_equiv_pos_site_id
 _symmetry_equiv_pos_as_xyz
  1  'x, y, z'
loop_
 _atom_site_type_symbol
 _atom_site_label
 _atom_site_symmetry_multiplicity
 _atom_site_fract_x
 _atom_site_fract_y
 _atom_site_fract_z
 _atom_site_occupancy
  Tb  Tb0  1  0.404932  0.210250  0.194415  1
  Tb  Tb1  1  0.595564  0.790171  0.805749  1
  Tb  Tb2  1  0.015580  0.210186  0.805749  1
  Tb  Tb3  1  0.984165  0.789482  0.194415  1
  Tb  Tb4  1  0.185746  0.293761  0.479507  1
  Tb  Tb5  1  0.813935  0.705932  0.519868  1
  Tb  Tb6  1  0.186242  0.706267  0.892509  1
  Dy  Dy7  1  0.813971  0.293838  0.107809  1
  Dy  Dy8  1  0.315625  0.621500  0.305524  1
  Dy  Dy9  1  0.684152  0.378329  0.694652  1
  Dy  Dy10  1  0.316323  0.010500  0.694652  1
  Dy  Dy11  1  0.684024  0.989900  0.305524  1
  In  In12  1  0.500168  0.499968  0.000136  1
  Co  Co13  1  0.378082  0.000010  0.378092  1
  Co  Co14  1  0.622004  0.000273  0.622277  1
  Co  Co15  1  0.112017  0.611969  0.499468  1
  Co  Co16  1  0.887499  0.387451  0.499468  1
  Ni  Ni17  1  0.999971  0.000212  0.000183  1
