# generated using pymatgen
data_Dy2Y6MgCdPt2
_symmetry_space_group_name_H-M   'P 1'
_cell_length_a   9.74679683
_cell_length_b   9.74679601
_cell_length_c   9.75114300
_cell_angle_alpha   59.98524901
_cell_angle_beta   59.98525179
_cell_angle_gamma   59.87913022
_symmetry_Int_Tables_number   1
_chemical_formula_structural   Dy2Y6MgCdPt2
_chemical_formula_sum   'Dy4 Y12 Mg2 Cd2 Pt4'
_cell_volume   654.28859401
_cell_formula_units_Z   2
loop_
 _symmetry_equiv_pos_site_id
 _symmetry_equiv_pos_as_xyz
  1  'x, y, z'
loop_
 _atom_site_type_symbol
 _atom_site_label
 _atom_site_symmetry_multiplicity
 _atom_site_fract_x
 _atom_site_fract_y
 _atom_site_fract_z
 _atom_site_occupancy
  Dy  Dy0  1  0.351196  0.351196  0.349004  1
  Dy  Dy1  1  0.351196  0.351196  0.948603  1
  Dy  Dy2  1  0.352400  0.946555  0.350522  1
  Dy  Dy3  1  0.946555  0.352400  0.350522  1
  Y  Y4  1  0.810493  0.189781  0.189823  1
  Y  Y5  1  0.189781  0.810493  0.809902  1
  Y  Y6  1  0.189781  0.810493  0.189823  1
  Y  Y7  1  0.810493  0.189781  0.809902  1
  Y  Y8  1  0.192062  0.192062  0.807938  1
  Y  Y9  1  0.812245  0.812245  0.187755  1
  Y  Y10  1  0.937613  0.564215  0.563999  1
  Y  Y11  1  0.564215  0.937613  0.934174  1
  Y  Y12  1  0.564215  0.937613  0.563999  1
  Y  Y13  1  0.937613  0.564215  0.934174  1
  Y  Y14  1  0.566164  0.566164  0.933836  1
  Y  Y15  1  0.937263  0.937263  0.562737  1
  Mg  Mg16  1  0.575938  0.575938  0.580986  1
  Mg  Mg17  1  0.575938  0.575938  0.267139  1
  Cd  Cd18  1  0.581845  0.254043  0.582056  1
  Cd  Cd19  1  0.254043  0.581845  0.582056  1
  Pt  Pt20  1  0.143414  0.143414  0.144281  1
  Pt  Pt21  1  0.143414  0.143414  0.568890  1
  Pt  Pt22  1  0.142437  0.569686  0.143938  1
  Pt  Pt23  1  0.569686  0.142437  0.143938  1
