# generated using pymatgen
data_Cs4Na2ErAlAs4
_symmetry_space_group_name_H-M   'P 1'
_cell_length_a   9.77757236
_cell_length_b   9.77757289
_cell_length_c   9.77766096
_cell_angle_alpha   139.13945998
_cell_angle_beta   137.31505320
_cell_angle_gamma   60.56665398
_symmetry_Int_Tables_number   1
_chemical_formula_structural   Cs4Na2ErAlAs4
_chemical_formula_sum   'Cs4 Na2 Er1 Al1 As4'
_cell_volume   410.18676235
_cell_formula_units_Z   1
loop_
 _symmetry_equiv_pos_site_id
 _symmetry_equiv_pos_as_xyz
  1  'x, y, z'
loop_
 _atom_site_type_symbol
 _atom_site_label
 _atom_site_symmetry_multiplicity
 _atom_site_fract_x
 _atom_site_fract_y
 _atom_site_fract_z
 _atom_site_occupancy
  Cs  Cs0  1  0.097752  0.325603  0.778164  1
  Cs  Cs1  1  0.452542  0.174394  0.272139  1
  Cs  Cs2  1  0.902255  0.680403  0.227861  1
  Cs  Cs3  1  0.547439  0.819588  0.721836  1
  Na  Na4  1  0.499997  0.749997  0.250000  1
  Na  Na5  1  0.499997  0.249997  0.750000  1
  Er  Er6  1  0.000013  0.250013  0.250000  1
  Al  Al7  1  0.999996  0.749996  0.750000  1
  As  As8  1  0.120136  0.891695  0.187577  1
  As  As9  1  0.879857  0.067438  0.771542  1
  As  As10  1  0.295896  0.608316  0.728458  1
  As  As11  1  0.704119  0.432558  0.312423  1
