# generated using pymatgen
data_Tb12CoPd2Rh
_symmetry_space_group_name_H-M   'P 1'
_cell_length_a   6.36119316
_cell_length_b   7.09235309
_cell_length_c   9.59536200
_cell_angle_alpha   90.00000000
_cell_angle_beta   90.00000000
_cell_angle_gamma   89.72338388
_symmetry_Int_Tables_number   1
_chemical_formula_structural   Tb12CoPd2Rh
_chemical_formula_sum   'Tb12 Co1 Pd2 Rh1'
_cell_volume   432.89765583
_cell_formula_units_Z   1
loop_
 _symmetry_equiv_pos_site_id
 _symmetry_equiv_pos_as_xyz
  1  'x, y, z'
loop_
 _atom_site_type_symbol
 _atom_site_label
 _atom_site_symmetry_multiplicity
 _atom_site_fract_x
 _atom_site_fract_y
 _atom_site_fract_z
 _atom_site_occupancy
  Tb  Tb0  1  0.320891  0.689066  0.063889  1
  Tb  Tb1  1  0.167064  0.167544  0.433374  1
  Tb  Tb2  1  0.667405  0.324823  0.560233  1
  Tb  Tb3  1  0.825451  0.816865  0.940911  1
  Tb  Tb4  1  0.667405  0.324823  0.939767  1
  Tb  Tb5  1  0.825451  0.816865  0.559089  1
  Tb  Tb6  1  0.320891  0.689066  0.436111  1
  Tb  Tb7  1  0.167064  0.167544  0.066626  1
  Tb  Tb8  1  0.878172  0.542197  0.250000  1
  Tb  Tb9  1  0.645824  0.021568  0.250000  1
  Tb  Tb10  1  0.138413  0.473894  0.750000  1
  Tb  Tb11  1  0.373056  0.966242  0.750000  1
  Co  Co12  1  0.060022  0.882747  0.250000  1
  Pd  Pd13  1  0.440131  0.388975  0.250000  1
  Pd  Pd14  1  0.940537  0.112742  0.750000  1
  Rh  Rh15  1  0.562224  0.615037  0.750000  1
