# generated using pymatgen
data_Dy3Y3(MoO7)2
_symmetry_space_group_name_H-M   'P 1'
_cell_length_a   6.49494701
_cell_length_b   6.48274516
_cell_length_c   7.49171100
_cell_angle_alpha   89.99872730
_cell_angle_beta   89.99774167
_cell_angle_gamma   109.03924168
_symmetry_Int_Tables_number   1
_chemical_formula_structural   Dy3Y3(MoO7)2
_chemical_formula_sum   'Dy3 Y3 Mo2 O14'
_cell_volume   298.18315709
_cell_formula_units_Z   1
loop_
 _symmetry_equiv_pos_site_id
 _symmetry_equiv_pos_as_xyz
  1  'x, y, z'
loop_
 _atom_site_type_symbol
 _atom_site_label
 _atom_site_symmetry_multiplicity
 _atom_site_fract_x
 _atom_site_fract_y
 _atom_site_fract_z
 _atom_site_occupancy
  Dy  Dy0  1  0.535736  0.000856  0.503992  1
  Dy  Dy1  1  0.000693  0.535977  0.995992  1
  Dy  Dy2  1  0.464772  0.999326  0.003988  1
  Y  Y3  1  0.526898  0.526738  0.249807  1
  Y  Y4  1  0.473303  0.473490  0.750216  1
  Y  Y5  1  0.999562  0.464681  0.496012  1
  Mo  Mo6  1  0.002216  0.001959  0.249952  1
  Mo  Mo7  1  0.997887  0.997921  0.750173  1
  O  O8  1  0.061082  0.313763  0.213782  1
  O  O9  1  0.685422  0.937562  0.785603  1
  O  O10  1  0.938217  0.685882  0.715168  1
  O  O11  1  0.314504  0.062438  0.285741  1
  O  O12  1  0.674490  0.919270  0.222206  1
  O  O13  1  0.080411  0.324890  0.778273  1
  O  O14  1  0.325412  0.080791  0.722068  1
  O  O15  1  0.919110  0.674888  0.276931  1
  O  O16  1  0.369271  0.630259  0.499895  1
  O  O17  1  0.630771  0.369756  0.999855  1
  O  O18  1  0.361988  0.637189  0.000171  1
  O  O19  1  0.637734  0.362814  0.500108  1
  O  O20  1  0.925555  0.073156  0.500047  1
  O  O21  1  0.074965  0.926393  0.000022  1
