# generated using pymatgen
data_Cs8SrCaBr12
_symmetry_space_group_name_H-M   'P 1'
_cell_length_a   9.99612656
_cell_length_b   9.99612743
_cell_length_c   9.99612805
_cell_angle_alpha   89.21368690
_cell_angle_beta   89.21368192
_cell_angle_gamma   89.21368010
_symmetry_Int_Tables_number   1
_chemical_formula_structural   Cs8SrCaBr12
_chemical_formula_sum   'Cs8 Sr1 Ca1 Br12'
_cell_volume   998.55902724
_cell_formula_units_Z   1
loop_
 _symmetry_equiv_pos_site_id
 _symmetry_equiv_pos_as_xyz
  1  'x, y, z'
loop_
 _atom_site_type_symbol
 _atom_site_label
 _atom_site_symmetry_multiplicity
 _atom_site_fract_x
 _atom_site_fract_y
 _atom_site_fract_z
 _atom_site_occupancy
  Cs  Cs0  1  0.250686  0.250686  0.250686  1
  Cs  Cs1  1  0.749314  0.749314  0.749314  1
  Cs  Cs2  1  0.250657  0.623856  0.875000  1
  Cs  Cs3  1  0.875000  0.250657  0.623856  1
  Cs  Cs4  1  0.623856  0.875000  0.250657  1
  Cs  Cs5  1  0.749343  0.376144  0.125000  1
  Cs  Cs6  1  0.125000  0.749343  0.376144  1
  Cs  Cs7  1  0.376144  0.125000  0.749343  1
  Sr  Sr8  1  0.000000  0.000000  0.000000  1
  Ca  Ca9  1  0.500000  0.500000  0.500000  1
  Br  Br10  1  0.558880  0.220171  0.430539  1
  Br  Br11  1  0.430539  0.558880  0.220171  1
  Br  Br12  1  0.220171  0.430539  0.558880  1
  Br  Br13  1  0.938634  0.072628  0.291208  1
  Br  Br14  1  0.291208  0.938634  0.072628  1
  Br  Br15  1  0.072628  0.291208  0.938634  1
  Br  Br16  1  0.441120  0.779829  0.569461  1
  Br  Br17  1  0.569461  0.441120  0.779829  1
  Br  Br18  1  0.779829  0.569461  0.441120  1
  Br  Br19  1  0.061366  0.927372  0.708792  1
  Br  Br20  1  0.927372  0.708792  0.061366  1
  Br  Br21  1  0.708792  0.061366  0.927372  1
