# generated using pymatgen
data_TmLu5Al24Ir3Os5
_symmetry_space_group_name_H-M   'P 1'
_cell_length_a   8.74852043
_cell_length_b   8.76951254
_cell_length_c   9.54121822
_cell_angle_alpha   89.83238114
_cell_angle_beta   90.19864297
_cell_angle_gamma   119.87719670
_symmetry_Int_Tables_number   1
_chemical_formula_structural   TmLu5Al24Ir3Os5
_chemical_formula_sum   'Tm1 Lu5 Al24 Ir3 Os5'
_cell_volume   634.71328251
_cell_formula_units_Z   1
loop_
 _symmetry_equiv_pos_site_id
 _symmetry_equiv_pos_as_xyz
  1  'x, y, z'
loop_
 _atom_site_type_symbol
 _atom_site_label
 _atom_site_symmetry_multiplicity
 _atom_site_fract_x
 _atom_site_fract_y
 _atom_site_fract_z
 _atom_site_occupancy
  Tm  Tm0  1  0.802003  0.189533  0.750026  1
  Lu  Lu1  1  0.195281  0.388714  0.251311  1
  Lu  Lu2  1  0.804683  0.611293  0.748699  1
  Lu  Lu3  1  0.608088  0.807337  0.251576  1
  Lu  Lu4  1  0.391817  0.192713  0.748431  1
  Lu  Lu5  1  0.198840  0.810033  0.249945  1
  Al  Al6  1  0.333444  0.667736  0.026545  1
  Al  Al7  1  0.666372  0.332330  0.973704  1
  Al  Al8  1  0.665929  0.333133  0.524948  1
  Al  Al9  1  0.333866  0.666965  0.474820  1
  Al  Al10  1  0.164868  0.326338  0.577326  1
  Al  Al11  1  0.835352  0.673856  0.422489  1
  Al  Al12  1  0.672722  0.835312  0.576675  1
  Al  Al13  1  0.837264  0.673992  0.077260  1
  Al  Al14  1  0.327080  0.164485  0.423144  1
  Al  Al15  1  0.162977  0.326206  0.922949  1
  Al  Al16  1  0.164321  0.837059  0.576571  1
  Al  Al17  1  0.327114  0.162751  0.076402  1
  Al  Al18  1  0.835630  0.162978  0.423076  1
  Al  Al19  1  0.672707  0.837033  0.923795  1
  Al  Al20  1  0.835592  0.162895  0.077253  1
  Al  Al21  1  0.164374  0.837131  0.923107  1
  Al  Al22  1  0.562536  0.125525  0.249400  1
  Al  Al23  1  0.437080  0.874242  0.750604  1
  Al  Al24  1  0.876246  0.439065  0.249415  1
  Al  Al25  1  0.124065  0.561339  0.750593  1
  Al  Al26  1  0.562188  0.438968  0.250294  1
  Al  Al27  1  0.437852  0.561040  0.749674  1
  Al  Al28  1  0.999769  0.001332  0.249970  1
  Al  Al29  1  0.000578  0.998271  0.750038  1
  Ir  Ir30  1  0.000096  0.500210  0.000125  1
  Ir  Ir31  1  0.499949  0.500067  0.000024  1
  Ir  Ir32  1  0.000084  0.500234  0.499880  1
  Os  Os33  1  0.499717  0.999842  0.000245  1
  Os  Os34  1  0.499666  0.999844  0.499742  1
  Os  Os35  1  0.499926  0.500084  0.499936  1
  Os  Os36  1  0.999972  0.000058  0.999993  1
  Os  Os37  1  0.999952  0.000057  0.500014  1
