# generated using pymatgen
data_DyEr4(SiHg)2
_symmetry_space_group_name_H-M   'P 1'
_cell_length_a   8.71682126
_cell_length_b   8.70590904
_cell_length_c   7.50344475
_cell_angle_alpha   89.90448772
_cell_angle_beta   89.99302123
_cell_angle_gamma   129.12633595
_symmetry_Int_Tables_number   1
_chemical_formula_structural   DyEr4(SiHg)2
_chemical_formula_sum   'Dy2 Er8 Si4 Hg4'
_cell_volume   441.73035242
_cell_formula_units_Z   2
loop_
 _symmetry_equiv_pos_site_id
 _symmetry_equiv_pos_as_xyz
  1  'x, y, z'
loop_
 _atom_site_type_symbol
 _atom_site_label
 _atom_site_symmetry_multiplicity
 _atom_site_fract_x
 _atom_site_fract_y
 _atom_site_fract_z
 _atom_site_occupancy
  Dy  Dy0  1  0.052567  0.307983  0.325261  1
  Dy  Dy1  1  0.947433  0.692017  0.674739  1
  Er  Er2  1  0.447440  0.192858  0.825813  1
  Er  Er3  1  0.807016  0.552406  0.174163  1
  Er  Er4  1  0.552560  0.807142  0.174187  1
  Er  Er5  1  0.192984  0.447594  0.825837  1
  Er  Er6  1  0.692748  0.947190  0.674767  1
  Er  Er7  1  0.307252  0.052810  0.325233  1
  Er  Er8  1  0.000000  0.000000  0.000000  1
  Er  Er9  1  0.500000  0.500000  0.500000  1
  Si  Si10  1  0.379820  0.379244  0.123285  1
  Si  Si11  1  0.620180  0.620756  0.876715  1
  Si  Si12  1  0.121392  0.121444  0.624378  1
  Si  Si13  1  0.878608  0.878556  0.375622  1
  Hg  Hg14  1  0.783242  0.216255  0.999276  1
  Hg  Hg15  1  0.216759  0.783745  0.000724  1
  Hg  Hg16  1  0.714886  0.282567  0.499988  1
  Hg  Hg17  1  0.285114  0.717433  0.500012  1
