# generated using pymatgen
data_Tm3BC3
_symmetry_space_group_name_H-M   'P 1'
_cell_length_a   3.56999303
_cell_length_b   3.56999328
_cell_length_c   15.82640300
_cell_angle_alpha   90.00000000
_cell_angle_beta   90.00000000
_cell_angle_gamma   90.37704834
_symmetry_Int_Tables_number   1
_chemical_formula_structural   Tm3BC3
_chemical_formula_sum   'Tm6 B2 C6'
_cell_volume   201.70078271
_cell_formula_units_Z   2
loop_
 _symmetry_equiv_pos_site_id
 _symmetry_equiv_pos_as_xyz
  1  'x, y, z'
loop_
 _atom_site_type_symbol
 _atom_site_label
 _atom_site_symmetry_multiplicity
 _atom_site_fract_x
 _atom_site_fract_y
 _atom_site_fract_z
 _atom_site_occupancy
  Tm  Tm0  1  0.584159  0.415841  0.396795  1
  Tm  Tm1  1  0.415841  0.584159  0.896795  1
  Tm  Tm2  1  0.415841  0.584159  0.603205  1
  Tm  Tm3  1  0.584159  0.415841  0.103205  1
  Tm  Tm4  1  0.910371  0.089629  0.750000  1
  Tm  Tm5  1  0.089629  0.910371  0.250000  1
  B  B6  1  0.000000  0.000000  0.500000  1
  B  B7  1  0.000000  0.000000  0.000000  1
  C  C8  1  0.095475  0.904525  0.412986  1
  C  C9  1  0.904525  0.095475  0.912986  1
  C  C10  1  0.904525  0.095475  0.587014  1
  C  C11  1  0.095475  0.904525  0.087014  1
  C  C12  1  0.596046  0.403954  0.250000  1
  C  C13  1  0.403954  0.596046  0.750000  1
