# generated using pymatgen
data_SmTm2Ni2Rh7
_symmetry_space_group_name_H-M   'P 1'
_cell_length_a   5.29230984
_cell_length_b   5.29231068
_cell_length_c   8.94305700
_cell_angle_alpha   72.78912980
_cell_angle_beta   72.78912700
_cell_angle_gamma   60.00000256
_symmetry_Int_Tables_number   1
_chemical_formula_structural   SmTm2Ni2Rh7
_chemical_formula_sum   'Sm1 Tm2 Ni2 Rh7'
_cell_volume   203.86984703
_cell_formula_units_Z   1
loop_
 _symmetry_equiv_pos_site_id
 _symmetry_equiv_pos_as_xyz
  1  'x, y, z'
loop_
 _atom_site_type_symbol
 _atom_site_label
 _atom_site_symmetry_multiplicity
 _atom_site_fract_x
 _atom_site_fract_y
 _atom_site_fract_z
 _atom_site_occupancy
  Sm  Sm0  1  0.000000  0.000000  0.000000  1
  Tm  Tm1  1  0.140057  0.140057  0.579832  1
  Tm  Tm2  1  0.859943  0.859943  0.420168  1
  Ni  Ni3  1  0.333416  0.333416  0.999754  1
  Ni  Ni4  1  0.666584  0.666584  0.000246  1
  Rh  Rh5  1  0.078127  0.582312  0.757250  1
  Rh  Rh6  1  0.582312  0.582312  0.757250  1
  Rh  Rh7  1  0.582312  0.078127  0.757250  1
  Rh  Rh8  1  0.921873  0.417688  0.242750  1
  Rh  Rh9  1  0.417688  0.417688  0.242750  1
  Rh  Rh10  1  0.417688  0.921873  0.242750  1
  Rh  Rh11  1  0.500000  0.500000  0.500000  1
