# generated using pymatgen
data_DyLu2Pa(Al3Ir)6
_symmetry_space_group_name_H-M   'P 1'
_cell_length_a   7.56083928
_cell_length_b   7.55499301
_cell_length_c   9.39172500
_cell_angle_alpha   90.00000000
_cell_angle_beta   90.00000000
_cell_angle_gamma   119.59314142
_symmetry_Int_Tables_number   1
_chemical_formula_structural   DyLu2Pa(Al3Ir)6
_chemical_formula_sum   'Dy1 Lu2 Pa1 Al18 Ir6'
_cell_volume   466.49395818
_cell_formula_units_Z   1
loop_
 _symmetry_equiv_pos_site_id
 _symmetry_equiv_pos_as_xyz
  1  'x, y, z'
loop_
 _atom_site_type_symbol
 _atom_site_label
 _atom_site_symmetry_multiplicity
 _atom_site_fract_x
 _atom_site_fract_y
 _atom_site_fract_z
 _atom_site_occupancy
  Dy  Dy0  1  0.672629  0.994833  0.250000  1
  Lu  Lu1  1  0.004611  0.328204  0.750000  1
  Lu  Lu2  1  0.328298  0.004212  0.750000  1
  Pa  Pa3  1  0.995959  0.671760  0.250000  1
  Al  Al4  1  0.132773  0.131579  0.250000  1
  Al  Al5  1  0.873097  0.874804  0.750000  1
  Al  Al6  1  0.001308  0.332572  0.073660  1
  Al  Al7  1  0.999800  0.664453  0.919004  1
  Al  Al8  1  0.999800  0.664453  0.580996  1
  Al  Al9  1  0.338726  0.004116  0.426109  1
  Al  Al10  1  0.001308  0.332572  0.426340  1
  Al  Al11  1  0.664841  0.000716  0.577885  1
  Al  Al12  1  0.664841  0.000716  0.922115  1
  Al  Al13  1  0.338726  0.004116  0.073891  1
  Al  Al14  1  0.331823  0.331940  0.558060  1
  Al  Al15  1  0.663046  0.665517  0.449643  1
  Al  Al16  1  0.663046  0.665517  0.050357  1
  Al  Al17  1  0.331823  0.331940  0.941940  1
  Al  Al18  1  0.339375  0.546971  0.250000  1
  Al  Al19  1  0.658762  0.448460  0.750000  1
  Al  Al20  1  0.546982  0.342008  0.250000  1
  Al  Al21  1  0.449322  0.660612  0.750000  1
  Ir  Ir22  1  0.673953  0.329706  0.001149  1
  Ir  Ir23  1  0.325277  0.671793  0.001144  1
  Ir  Ir24  1  0.325277  0.671793  0.498856  1
  Ir  Ir25  1  0.673953  0.329706  0.498851  1
  Ir  Ir26  1  0.000323  0.997466  0.001978  1
  Ir  Ir27  1  0.000323  0.997466  0.498022  1
