# generated using pymatgen
data_Ho6OsRu
_symmetry_space_group_name_H-M   'P 1'
_cell_length_a   6.32245800
_cell_length_b   7.34412900
_cell_length_c   9.05945400
_cell_angle_alpha   90.00000000
_cell_angle_beta   90.00000000
_cell_angle_gamma   90.00000000
_symmetry_Int_Tables_number   1
_chemical_formula_structural   Ho6OsRu
_chemical_formula_sum   'Ho12 Os2 Ru2'
_cell_volume   420.65714878
_cell_formula_units_Z   2
loop_
 _symmetry_equiv_pos_site_id
 _symmetry_equiv_pos_as_xyz
  1  'x, y, z'
loop_
 _atom_site_type_symbol
 _atom_site_label
 _atom_site_symmetry_multiplicity
 _atom_site_fract_x
 _atom_site_fract_y
 _atom_site_fract_z
 _atom_site_occupancy
  Ho  Ho0  1  0.329655  0.675760  0.064424  1
  Ho  Ho1  1  0.170345  0.175760  0.435576  1
  Ho  Ho2  1  0.666684  0.325145  0.562615  1
  Ho  Ho3  1  0.833316  0.825145  0.937385  1
  Ho  Ho4  1  0.666684  0.325145  0.937385  1
  Ho  Ho5  1  0.833316  0.825145  0.562615  1
  Ho  Ho6  1  0.329655  0.675760  0.435576  1
  Ho  Ho7  1  0.170345  0.175760  0.064424  1
  Ho  Ho8  1  0.867862  0.539787  0.250000  1
  Ho  Ho9  1  0.632138  0.039787  0.250000  1
  Ho  Ho10  1  0.134043  0.457505  0.750000  1
  Ho  Ho11  1  0.365957  0.957504  0.750000  1
  Os  Os12  1  0.037914  0.884167  0.250000  1
  Os  Os13  1  0.462086  0.384167  0.250000  1
  Ru  Ru14  1  0.963048  0.116731  0.750000  1
  Ru  Ru15  1  0.536952  0.616731  0.750000  1
