# generated using pymatgen
data_Rb8Zr5TiBBr20
_symmetry_space_group_name_H-M   'P 1'
_cell_length_a   12.05126484
_cell_length_b   12.05126381
_cell_length_c   12.08015000
_cell_angle_alpha   59.92067805
_cell_angle_beta   59.92068087
_cell_angle_gamma   60.15863628
_symmetry_Int_Tables_number   1
_chemical_formula_structural   Rb8Zr5TiBBr20
_chemical_formula_sum   'Rb8 Zr5 Ti1 B1 Br20'
_cell_volume   1240.55931947
_cell_formula_units_Z   1
loop_
 _symmetry_equiv_pos_site_id
 _symmetry_equiv_pos_as_xyz
  1  'x, y, z'
loop_
 _atom_site_type_symbol
 _atom_site_label
 _atom_site_symmetry_multiplicity
 _atom_site_fract_x
 _atom_site_fract_y
 _atom_site_fract_z
 _atom_site_occupancy
  Rb  Rb0  1  0.360430  0.360430  0.360774  1
  Rb  Rb1  1  0.640980  0.640980  0.634589  1
  Rb  Rb2  1  0.360430  0.360430  0.918367  1
  Rb  Rb3  1  0.365411  0.916550  0.359020  1
  Rb  Rb4  1  0.640980  0.640980  0.083450  1
  Rb  Rb5  1  0.639226  0.081633  0.639570  1
  Rb  Rb6  1  0.916550  0.365411  0.359020  1
  Rb  Rb7  1  0.081633  0.639226  0.639570  1
  Zr  Zr8  1  0.862628  0.135512  0.137372  1
  Zr  Zr9  1  0.135512  0.862628  0.864488  1
  Zr  Zr10  1  0.135512  0.862628  0.137372  1
  Zr  Zr11  1  0.862628  0.135512  0.864488  1
  Zr  Zr12  1  0.136637  0.136637  0.863363  1
  Ti  Ti13  1  0.868677  0.868677  0.131323  1
  B  B14  1  0.998641  0.998641  0.001359  1
  Br  Br15  1  0.318681  0.999907  0.000093  1
  Br  Br16  1  0.687016  0.994305  0.005695  1
  Br  Br17  1  0.999907  0.318681  0.681319  1
  Br  Br18  1  0.994305  0.687016  0.312984  1
  Br  Br19  1  0.999907  0.318681  0.000093  1
  Br  Br20  1  0.687016  0.994305  0.312984  1
  Br  Br21  1  0.994305  0.687016  0.005695  1
  Br  Br22  1  0.318681  0.999907  0.681319  1
  Br  Br23  1  0.999307  0.999307  0.318215  1
  Br  Br24  1  0.999307  0.999307  0.683172  1
  Br  Br25  1  0.681785  0.316828  0.000693  1
  Br  Br26  1  0.316828  0.681785  0.000693  1
  Br  Br27  1  0.690509  0.306942  0.309491  1
  Br  Br28  1  0.306942  0.690509  0.693058  1
  Br  Br29  1  0.306942  0.690509  0.309491  1
  Br  Br30  1  0.690509  0.306942  0.693058  1
  Br  Br31  1  0.308642  0.308642  0.691358  1
  Br  Br32  1  0.694379  0.694379  0.305621  1
  Br  Br33  1  0.249577  0.249577  0.250423  1
  Br  Br34  1  0.749577  0.749577  0.750423  1
