# generated using pymatgen
data_Mn3CrFeP4W3
_symmetry_space_group_name_H-M   'P 1'
_cell_length_a   3.59171600
_cell_length_b   5.96955203
_cell_length_c   6.79636035
_cell_angle_alpha   89.94090544
_cell_angle_beta   90.00000000
_cell_angle_gamma   90.00000000
_symmetry_Int_Tables_number   1
_chemical_formula_structural   Mn3CrFeP4W3
_chemical_formula_sum   'Mn3 Cr1 Fe1 P4 W3'
_cell_volume   145.72024656
_cell_formula_units_Z   1
loop_
 _symmetry_equiv_pos_site_id
 _symmetry_equiv_pos_as_xyz
  1  'x, y, z'
loop_
 _atom_site_type_symbol
 _atom_site_label
 _atom_site_symmetry_multiplicity
 _atom_site_fract_x
 _atom_site_fract_y
 _atom_site_fract_z
 _atom_site_occupancy
  Mn  Mn0  1  0.250000  0.645637  0.057686  1
  Mn  Mn1  1  0.750000  0.353023  0.937535  1
  Mn  Mn2  1  0.250000  0.144035  0.439322  1
  Cr  Cr3  1  0.250000  0.524868  0.675783  1
  Fe  Fe4  1  0.750000  0.854415  0.562699  1
  P  P5  1  0.250000  0.277143  0.124848  1
  P  P6  1  0.750000  0.718114  0.866833  1
  P  P7  1  0.250000  0.772776  0.384764  1
  P  P8  1  0.750000  0.233581  0.622515  1
  W  W9  1  0.750000  0.971477  0.171603  1
  W  W10  1  0.250000  0.025377  0.827968  1
  W  W11  1  0.750000  0.479554  0.328444  1
