# generated using pymatgen
data_NdHo2IrRh8
_symmetry_space_group_name_H-M   'P 1'
_cell_length_a   5.27155700
_cell_length_b   5.27155651
_cell_length_c   17.51683400
_cell_angle_alpha   90.00000000
_cell_angle_beta   90.00000000
_cell_angle_gamma   119.99999681
_symmetry_Int_Tables_number   1
_chemical_formula_structural   NdHo2IrRh8
_chemical_formula_sum   'Nd2 Ho4 Ir2 Rh16'
_cell_volume   421.56450126
_cell_formula_units_Z   2
loop_
 _symmetry_equiv_pos_site_id
 _symmetry_equiv_pos_as_xyz
  1  'x, y, z'
loop_
 _atom_site_type_symbol
 _atom_site_label
 _atom_site_symmetry_multiplicity
 _atom_site_fract_x
 _atom_site_fract_y
 _atom_site_fract_z
 _atom_site_occupancy
  Nd  Nd0  1  0.333333  0.666667  0.750000  1
  Nd  Nd1  1  0.666667  0.333333  0.250000  1
  Ho  Ho2  1  0.333333  0.666667  0.540362  1
  Ho  Ho3  1  0.666667  0.333333  0.040362  1
  Ho  Ho4  1  0.666667  0.333333  0.459638  1
  Ho  Ho5  1  0.333333  0.666667  0.959638  1
  Ir  Ir6  1  0.000000  0.000000  0.000000  1
  Ir  Ir7  1  0.000000  0.000000  0.500000  1
  Rh  Rh8  1  0.167248  0.334494  0.124645  1
  Rh  Rh9  1  0.832752  0.665506  0.624645  1
  Rh  Rh10  1  0.665506  0.832752  0.124645  1
  Rh  Rh11  1  0.167248  0.832752  0.124645  1
  Rh  Rh12  1  0.832752  0.167248  0.624645  1
  Rh  Rh13  1  0.334494  0.167248  0.624645  1
  Rh  Rh14  1  0.832752  0.665506  0.875355  1
  Rh  Rh15  1  0.832752  0.167248  0.875355  1
  Rh  Rh16  1  0.334494  0.167248  0.875355  1
  Rh  Rh17  1  0.665506  0.832752  0.375355  1
  Rh  Rh18  1  0.167248  0.832752  0.375355  1
  Rh  Rh19  1  0.167248  0.334494  0.375355  1
  Rh  Rh20  1  0.000000  0.000000  0.250000  1
  Rh  Rh21  1  0.000000  0.000000  0.750000  1
  Rh  Rh22  1  0.333333  0.666667  0.250000  1
  Rh  Rh23  1  0.666667  0.333333  0.750000  1
