# generated using pymatgen
data_Dy2Mn4Co3Ni5P7
_symmetry_space_group_name_H-M   'P 1'
_cell_length_a   9.08242457
_cell_length_b   9.06316463
_cell_length_c   3.65247500
_cell_angle_alpha   90.00000000
_cell_angle_beta   90.00000000
_cell_angle_gamma   119.88211495
_symmetry_Int_Tables_number   1
_chemical_formula_structural   Dy2Mn4Co3Ni5P7
_chemical_formula_sum   'Dy2 Mn4 Co3 Ni5 P7'
_cell_volume   260.68390689
_cell_formula_units_Z   1
loop_
 _symmetry_equiv_pos_site_id
 _symmetry_equiv_pos_as_xyz
  1  'x, y, z'
loop_
 _atom_site_type_symbol
 _atom_site_label
 _atom_site_symmetry_multiplicity
 _atom_site_fract_x
 _atom_site_fract_y
 _atom_site_fract_z
 _atom_site_occupancy
  Dy  Dy0  1  0.664996  0.331635  0.000000  1
  Dy  Dy1  1  0.333868  0.668518  0.500000  1
  Mn  Mn2  1  0.844177  0.119725  0.000000  1
  Mn  Mn3  1  0.122331  0.902075  0.500000  1
  Mn  Mn4  1  0.099308  0.217541  0.500000  1
  Mn  Mn5  1  0.785105  0.881471  0.500000  1
  Co  Co6  1  0.878745  0.722483  0.000000  1
  Co  Co7  1  0.277039  0.157456  0.000000  1
  Co  Co8  1  0.612269  0.048112  0.500000  1
  Ni  Ni9  1  0.371169  0.939099  0.000000  1
  Ni  Ni10  1  0.063545  0.436492  0.000000  1
  Ni  Ni11  1  0.566863  0.629876  0.000000  1
  Ni  Ni12  1  0.948055  0.560141  0.500000  1
  Ni  Ni13  1  0.438130  0.387217  0.500000  1
  P  P14  1  0.111070  0.705818  0.000000  1
  P  P15  1  0.296869  0.408423  0.000000  1
  P  P16  1  0.592514  0.891858  0.000000  1
  P  P17  1  0.714823  0.599741  0.500000  1
  P  P18  1  0.401479  0.112470  0.500000  1
  P  P19  1  0.876428  0.280913  0.500000  1
  P  P20  1  0.001217  0.998941  0.000000  1
