# generated using pymatgen
data_La9YbInGa5
_symmetry_space_group_name_H-M   'P 1'
_cell_length_a   8.02289700
_cell_length_b   8.02289700
_cell_length_c   15.19610700
_cell_angle_alpha   90.00000000
_cell_angle_beta   90.00000000
_cell_angle_gamma   90.00000000
_symmetry_Int_Tables_number   1
_chemical_formula_structural   La9YbInGa5
_chemical_formula_sum   'La18 Yb2 In2 Ga10'
_cell_volume   978.12593909
_cell_formula_units_Z   2
loop_
 _symmetry_equiv_pos_site_id
 _symmetry_equiv_pos_as_xyz
  1  'x, y, z'
loop_
 _atom_site_type_symbol
 _atom_site_label
 _atom_site_symmetry_multiplicity
 _atom_site_fract_x
 _atom_site_fract_y
 _atom_site_fract_z
 _atom_site_occupancy
  La  La0  1  0.338644  0.311890  0.105351  1
  La  La1  1  0.829833  0.823216  0.893904  1
  La  La2  1  0.840491  0.183638  0.395260  1
  La  La3  1  0.170167  0.176784  0.893904  1
  La  La4  1  0.661356  0.688110  0.105351  1
  La  La5  1  0.000000  0.500000  0.711959  1
  La  La6  1  0.827417  0.833758  0.606641  1
  La  La7  1  0.316362  0.340491  0.395260  1
  La  La8  1  0.188110  0.838644  0.105351  1
  La  La9  1  0.172583  0.166242  0.606641  1
  La  La10  1  0.811890  0.161356  0.105351  1
  La  La11  1  0.333758  0.672583  0.606641  1
  La  La12  1  0.500000  0.000000  0.285099  1
  La  La13  1  0.676784  0.329833  0.893904  1
  La  La14  1  0.666242  0.327417  0.606641  1
  La  La15  1  0.323216  0.670167  0.893904  1
  La  La16  1  0.159509  0.816362  0.395260  1
  La  La17  1  0.683638  0.659509  0.395260  1
  Yb  Yb18  1  0.500000  0.000000  0.762708  1
  Yb  Yb19  1  0.000000  0.500000  0.232795  1
  In  In20  1  0.500000  0.000000  0.500812  1
  In  In21  1  0.000000  0.500000  0.007934  1
  Ga  Ga22  1  0.617662  0.382052  0.248298  1
  Ga  Ga23  1  0.881667  0.119460  0.752250  1
  Ga  Ga24  1  0.882052  0.882338  0.248298  1
  Ga  Ga25  1  0.118333  0.880540  0.752250  1
  Ga  Ga26  1  0.380540  0.381667  0.752250  1
  Ga  Ga27  1  0.117948  0.117662  0.248298  1
  Ga  Ga28  1  0.382338  0.617948  0.248298  1
  Ga  Ga29  1  0.619460  0.618333  0.752250  1
  Ga  Ga30  1  0.500000  0.000000  0.988761  1
  Ga  Ga31  1  0.000000  0.500000  0.503113  1
