# generated using pymatgen
data_Lu12Ni5Hg
_symmetry_space_group_name_H-M   'P 1'
_cell_length_a   8.07949731
_cell_length_b   8.07949856
_cell_length_c   8.07949926
_cell_angle_alpha   111.21275424
_cell_angle_beta   110.47090610
_cell_angle_gamma   106.76436653
_symmetry_Int_Tables_number   1
_chemical_formula_structural   Lu12Ni5Hg
_chemical_formula_sum   'Lu12 Ni5 Hg1'
_cell_volume   405.31141135
_cell_formula_units_Z   1
loop_
 _symmetry_equiv_pos_site_id
 _symmetry_equiv_pos_as_xyz
  1  'x, y, z'
loop_
 _atom_site_type_symbol
 _atom_site_label
 _atom_site_symmetry_multiplicity
 _atom_site_fract_x
 _atom_site_fract_y
 _atom_site_fract_z
 _atom_site_occupancy
  Lu  Lu0  1  0.410229  0.220291  0.189937  1
  Lu  Lu1  1  0.589771  0.779709  0.810063  1
  Lu  Lu2  1  0.030354  0.220291  0.810063  1
  Lu  Lu3  1  0.969646  0.779709  0.189937  1
  Lu  Lu4  1  0.184199  0.288311  0.472511  1
  Lu  Lu5  1  0.815801  0.711689  0.527489  1
  Lu  Lu6  1  0.184199  0.711689  0.895890  1
  Lu  Lu7  1  0.815801  0.288311  0.104110  1
  Lu  Lu8  1  0.322808  0.625746  0.302936  1
  Lu  Lu9  1  0.677192  0.374254  0.697064  1
  Lu  Lu10  1  0.322808  0.019871  0.697064  1
  Lu  Lu11  1  0.677192  0.980129  0.302936  1
  Ni  Ni12  1  0.000000  0.000000  0.000000  1
  Ni  Ni13  1  0.360422  0.000000  0.360422  1
  Ni  Ni14  1  0.639578  0.000000  0.639578  1
  Ni  Ni15  1  0.122691  0.622691  0.500000  1
  Ni  Ni16  1  0.877309  0.377309  0.500000  1
  Hg  Hg17  1  0.500000  0.500000  0.000000  1
