# generated using pymatgen
data_Tm4Re4OsRu3
_symmetry_space_group_name_H-M   'P 1'
_cell_length_a   5.31805499
_cell_length_b   5.14373404
_cell_length_c   9.05561400
_cell_angle_alpha   90.00000000
_cell_angle_beta   90.00000000
_cell_angle_gamma   118.80181885
_symmetry_Int_Tables_number   1
_chemical_formula_structural   Tm4Re4OsRu3
_chemical_formula_sum   'Tm4 Re4 Os1 Ru3'
_cell_volume   217.06898428
_cell_formula_units_Z   1
loop_
 _symmetry_equiv_pos_site_id
 _symmetry_equiv_pos_as_xyz
  1  'x, y, z'
loop_
 _atom_site_type_symbol
 _atom_site_label
 _atom_site_symmetry_multiplicity
 _atom_site_fract_x
 _atom_site_fract_y
 _atom_site_fract_z
 _atom_site_occupancy
  Tm  Tm0  1  0.672331  0.336308  0.564876  1
  Tm  Tm1  1  0.327740  0.663678  0.435653  1
  Tm  Tm2  1  0.327740  0.663678  0.064347  1
  Tm  Tm3  1  0.672331  0.336308  0.935124  1
  Re  Re4  1  0.168731  0.338539  0.750000  1
  Re  Re5  1  0.167993  0.831102  0.750000  1
  Re  Re6  1  0.835105  0.661925  0.250000  1
  Re  Re7  1  0.835744  0.172201  0.250000  1
  Os  Os8  1  0.652219  0.825686  0.750000  1
  Ru  Ru9  1  0.994572  0.997382  0.498631  1
  Ru  Ru10  1  0.994572  0.997382  0.001369  1
  Ru  Ru11  1  0.350920  0.175808  0.250000  1
