# generated using pymatgen
data_Er6Tm4SnSb5
_symmetry_space_group_name_H-M   'P 1'
_cell_length_a   6.29179900
_cell_length_b   8.86969977
_cell_length_c   8.87630001
_cell_angle_alpha   120.01992582
_cell_angle_beta   89.99968229
_cell_angle_gamma   90.00089233
_symmetry_Int_Tables_number   1
_chemical_formula_structural   Er6Tm4SnSb5
_chemical_formula_sum   'Er6 Tm4 Sn1 Sb5'
_cell_volume   428.90304420
_cell_formula_units_Z   1
loop_
 _symmetry_equiv_pos_site_id
 _symmetry_equiv_pos_as_xyz
  1  'x, y, z'
loop_
 _atom_site_type_symbol
 _atom_site_label
 _atom_site_symmetry_multiplicity
 _atom_site_fract_x
 _atom_site_fract_y
 _atom_site_fract_z
 _atom_site_occupancy
  Er  Er0  1  0.749994  0.243178  0.998992  1
  Er  Er1  1  0.750027  0.756744  0.755753  1
  Er  Er2  1  0.750031  0.999977  0.243072  1
  Er  Er3  1  0.250003  0.757968  0.001550  1
  Er  Er4  1  0.250010  0.242099  0.243623  1
  Er  Er5  1  0.249955  0.000005  0.756213  1
  Tm  Tm6  1  0.499846  0.332291  0.665996  1
  Tm  Tm7  1  0.499848  0.667717  0.333698  1
  Tm  Tm8  1  0.000155  0.667710  0.333685  1
  Tm  Tm9  1  0.000151  0.332301  0.666008  1
  Sn  Sn10  1  0.249994  0.000011  0.393333  1
  Sb  Sb11  1  0.749994  0.608812  0.999200  1
  Sb  Sb12  1  0.749991  0.391156  0.390372  1
  Sb  Sb13  1  0.750005  0.999997  0.608468  1
  Sb  Sb14  1  0.249997  0.391223  0.000616  1
  Sb  Sb15  1  0.249999  0.608811  0.609423  1
