# generated using pymatgen
data_Mo2PCl13
_symmetry_space_group_name_H-M   'P 1'
_cell_length_a   11.31706000
_cell_length_b   9.23035337
_cell_length_c   9.63210026
_cell_angle_alpha   83.05291087
_cell_angle_beta   90.00000000
_cell_angle_gamma   90.00000000
_symmetry_Int_Tables_number   1
_chemical_formula_structural   Mo2PCl13
_chemical_formula_sum   'Mo4 P2 Cl26'
_cell_volume   998.78659744
_cell_formula_units_Z   2
loop_
 _symmetry_equiv_pos_site_id
 _symmetry_equiv_pos_as_xyz
  1  'x, y, z'
loop_
 _atom_site_type_symbol
 _atom_site_label
 _atom_site_symmetry_multiplicity
 _atom_site_fract_x
 _atom_site_fract_y
 _atom_site_fract_z
 _atom_site_occupancy
  Mo  Mo0  1  0.250000  0.827827  0.089250  1
  Mo  Mo1  1  0.750000  0.172173  0.910750  1
  Mo  Mo2  1  0.250000  0.682457  0.868532  1
  Mo  Mo3  1  0.750000  0.317543  0.131468  1
  P  P4  1  0.250000  0.262464  0.509258  1
  P  P5  1  0.750000  0.737536  0.490742  1
  Cl  Cl6  1  0.609184  0.808324  0.580352  1
  Cl  Cl7  1  0.109184  0.191676  0.419648  1
  Cl  Cl8  1  0.750000  0.442058  0.890659  1
  Cl  Cl9  1  0.250000  0.557942  0.109341  1
  Cl  Cl10  1  0.909656  0.146883  0.086495  1
  Cl  Cl11  1  0.409656  0.853117  0.913505  1
  Cl  Cl12  1  0.090344  0.853117  0.913505  1
  Cl  Cl13  1  0.590344  0.146883  0.086495  1
  Cl  Cl14  1  0.750000  0.201857  0.363135  1
  Cl  Cl15  1  0.250000  0.798143  0.636865  1
  Cl  Cl16  1  0.899119  0.477123  0.179281  1
  Cl  Cl17  1  0.399119  0.522877  0.820719  1
  Cl  Cl18  1  0.100881  0.522877  0.820719  1
  Cl  Cl19  1  0.600881  0.477123  0.179281  1
  Cl  Cl20  1  0.750000  0.917709  0.929584  1
  Cl  Cl21  1  0.250000  0.082291  0.070416  1
  Cl  Cl22  1  0.898026  0.192541  0.740969  1
  Cl  Cl23  1  0.398026  0.807459  0.259031  1
  Cl  Cl24  1  0.101974  0.807459  0.259031  1
  Cl  Cl25  1  0.601974  0.192541  0.740969  1
  Cl  Cl26  1  0.750000  0.808469  0.291517  1
  Cl  Cl27  1  0.250000  0.191531  0.708483  1
  Cl  Cl28  1  0.750000  0.524104  0.516113  1
  Cl  Cl29  1  0.250000  0.475896  0.483887  1
  Cl  Cl30  1  0.890816  0.808324  0.580352  1
  Cl  Cl31  1  0.390816  0.191676  0.419648  1
