# generated using pymatgen
data_Dy3Y2Tm15Sn16
_symmetry_space_group_name_H-M   'P 1'
_cell_length_a   7.97182192
_cell_length_b   8.09241412
_cell_length_c   15.30342307
_cell_angle_alpha   90.00880823
_cell_angle_beta   89.87574516
_cell_angle_gamma   89.89717811
_symmetry_Int_Tables_number   1
_chemical_formula_structural   Dy3Y2Tm15Sn16
_chemical_formula_sum   'Dy3 Y2 Tm15 Sn16'
_cell_volume   987.23955256
_cell_formula_units_Z   1
loop_
 _symmetry_equiv_pos_site_id
 _symmetry_equiv_pos_as_xyz
  1  'x, y, z'
loop_
 _atom_site_type_symbol
 _atom_site_label
 _atom_site_symmetry_multiplicity
 _atom_site_fract_x
 _atom_site_fract_y
 _atom_site_fract_z
 _atom_site_occupancy
  Dy  Dy0  1  0.978272  0.820849  0.403214  1
  Dy  Dy1  1  0.521516  0.321035  0.596641  1
  Dy  Dy2  1  0.020877  0.179501  0.903435  1
  Y  Y3  1  0.978602  0.820524  0.097036  1
  Y  Y4  1  0.478718  0.678741  0.096482  1
  Tm  Tm5  1  0.367087  0.837174  0.876976  1
  Tm  Tm6  1  0.867961  0.662742  0.622688  1
  Tm  Tm7  1  0.631799  0.162958  0.377316  1
  Tm  Tm8  1  0.132494  0.337286  0.122868  1
  Tm  Tm9  1  0.632254  0.162939  0.122932  1
  Tm  Tm10  1  0.131709  0.337134  0.377562  1
  Tm  Tm11  1  0.368483  0.837247  0.622689  1
  Tm  Tm12  1  0.867351  0.662466  0.876959  1
  Tm  Tm13  1  0.522348  0.320847  0.902618  1
  Tm  Tm14  1  0.022785  0.179038  0.597452  1
  Tm  Tm15  1  0.477086  0.678711  0.402739  1
  Tm  Tm16  1  0.198579  0.503997  0.749901  1
  Tm  Tm17  1  0.698475  0.996088  0.749794  1
  Tm  Tm18  1  0.801368  0.495905  0.250392  1
  Tm  Tm19  1  0.301769  0.004201  0.250318  1
  Sn  Sn20  1  0.294412  0.037674  0.041634  1
  Sn  Sn21  1  0.792025  0.463701  0.458154  1
  Sn  Sn22  1  0.707859  0.964061  0.541906  1
  Sn  Sn23  1  0.207316  0.536427  0.958079  1
  Sn  Sn24  1  0.704945  0.962870  0.958258  1
  Sn  Sn25  1  0.206599  0.537868  0.541138  1
  Sn  Sn26  1  0.293454  0.037280  0.458837  1
  Sn  Sn27  1  0.793740  0.461123  0.040960  1
  Sn  Sn28  1  0.564674  0.618984  0.749887  1
  Sn  Sn29  1  0.064581  0.880741  0.749876  1
  Sn  Sn30  1  0.435254  0.380655  0.250140  1
  Sn  Sn31  1  0.935382  0.119991  0.250156  1
  Sn  Sn32  1  0.331523  0.148925  0.750431  1
  Sn  Sn33  1  0.831454  0.350961  0.749648  1
  Sn  Sn34  1  0.667837  0.851125  0.250573  1
  Sn  Sn35  1  0.169411  0.648229  0.250310  1
