# generated using pymatgen
data_Gd(TcO4)3
_symmetry_space_group_name_H-M   'P 1'
_cell_length_a   10.04679100
_cell_length_b   10.04679055
_cell_length_c   6.32604500
_cell_angle_alpha   90.00000000
_cell_angle_beta   90.00000000
_cell_angle_gamma   120.00000390
_symmetry_Int_Tables_number   1
_chemical_formula_structural   Gd(TcO4)3
_chemical_formula_sum   'Gd2 Tc6 O24'
_cell_volume   552.99042018
_cell_formula_units_Z   2
loop_
 _symmetry_equiv_pos_site_id
 _symmetry_equiv_pos_as_xyz
  1  'x, y, z'
loop_
 _atom_site_type_symbol
 _atom_site_label
 _atom_site_symmetry_multiplicity
 _atom_site_fract_x
 _atom_site_fract_y
 _atom_site_fract_z
 _atom_site_occupancy
  Gd  Gd0  1  0.666667  0.333333  0.750000  1
  Gd  Gd1  1  0.333333  0.666667  0.250000  1
  Tc  Tc2  1  0.605625  0.702838  0.750000  1
  Tc  Tc3  1  0.097213  0.394375  0.750000  1
  Tc  Tc4  1  0.297162  0.902787  0.750000  1
  Tc  Tc5  1  0.394375  0.297162  0.250000  1
  Tc  Tc6  1  0.902787  0.605625  0.250000  1
  Tc  Tc7  1  0.702838  0.097213  0.250000  1
  O  O8  1  0.559873  0.510655  0.750000  1
  O  O9  1  0.950780  0.440127  0.750000  1
  O  O10  1  0.489345  0.049220  0.750000  1
  O  O11  1  0.440127  0.489345  0.250000  1
  O  O12  1  0.049220  0.559873  0.250000  1
  O  O13  1  0.510655  0.950780  0.250000  1
  O  O14  1  0.472355  0.259688  0.024394  1
  O  O15  1  0.787332  0.527645  0.024394  1
  O  O16  1  0.740312  0.212668  0.024394  1
  O  O17  1  0.527645  0.740312  0.524394  1
  O  O18  1  0.212668  0.472355  0.524394  1
  O  O19  1  0.259688  0.787332  0.524394  1
  O  O20  1  0.527645  0.740312  0.975606  1
  O  O21  1  0.212668  0.472355  0.975606  1
  O  O22  1  0.259688  0.787332  0.975606  1
  O  O23  1  0.472355  0.259688  0.475606  1
  O  O24  1  0.787332  0.527645  0.475606  1
  O  O25  1  0.740312  0.212668  0.475606  1
  O  O26  1  0.800167  0.819786  0.750000  1
  O  O27  1  0.019619  0.199833  0.750000  1
  O  O28  1  0.180214  0.980381  0.750000  1
  O  O29  1  0.199833  0.180214  0.250000  1
  O  O30  1  0.980381  0.800167  0.250000  1
  O  O31  1  0.819786  0.019619  0.250000  1
