# generated using pymatgen
data_Ho2InB2Rh5
_symmetry_space_group_name_H-M   'P 1'
_cell_length_a   9.63576000
_cell_length_b   9.63576000
_cell_length_c   3.24227700
_cell_angle_alpha   90.00000000
_cell_angle_beta   90.00000000
_cell_angle_gamma   90.00000000
_symmetry_Int_Tables_number   1
_chemical_formula_structural   Ho2InB2Rh5
_chemical_formula_sum   'Ho4 In2 B4 Rh10'
_cell_volume   301.03851592
_cell_formula_units_Z   2
loop_
 _symmetry_equiv_pos_site_id
 _symmetry_equiv_pos_as_xyz
  1  'x, y, z'
loop_
 _atom_site_type_symbol
 _atom_site_label
 _atom_site_symmetry_multiplicity
 _atom_site_fract_x
 _atom_site_fract_y
 _atom_site_fract_z
 _atom_site_occupancy
  Ho  Ho0  1  0.674784  0.174784  0.000000  1
  Ho  Ho1  1  0.325216  0.825216  0.000000  1
  Ho  Ho2  1  0.174784  0.325216  0.000000  1
  Ho  Ho3  1  0.825216  0.674784  0.000000  1
  In  In4  1  0.000000  0.000000  0.000000  1
  In  In5  1  0.500000  0.500000  0.000000  1
  B  B6  1  0.121278  0.621278  0.000000  1
  B  B7  1  0.878722  0.378722  0.000000  1
  B  B8  1  0.621278  0.878722  0.000000  1
  B  B9  1  0.378722  0.121278  0.000000  1
  Rh  Rh10  1  0.500000  0.000000  0.500000  1
  Rh  Rh11  1  0.000000  0.500000  0.500000  1
  Rh  Rh12  1  0.225978  0.071495  0.500000  1
  Rh  Rh13  1  0.774022  0.928505  0.500000  1
  Rh  Rh14  1  0.071495  0.774022  0.500000  1
  Rh  Rh15  1  0.725978  0.428505  0.500000  1
  Rh  Rh16  1  0.928505  0.225978  0.500000  1
  Rh  Rh17  1  0.274022  0.571495  0.500000  1
  Rh  Rh18  1  0.571495  0.725978  0.500000  1
  Rh  Rh19  1  0.428505  0.274022  0.500000  1
