# generated using pymatgen
data_Er4Cd(InCo)2
_symmetry_space_group_name_H-M   'P 1'
_cell_length_a   3.67100000
_cell_length_b   7.34266593
_cell_length_c   8.02751120
_cell_angle_alpha   71.01351498
_cell_angle_beta   90.00000000
_cell_angle_gamma   90.00000000
_symmetry_Int_Tables_number   1
_chemical_formula_structural   Er4Cd(InCo)2
_chemical_formula_sum   'Er4 Cd1 In2 Co2'
_cell_volume   204.60884302
_cell_formula_units_Z   1
loop_
 _symmetry_equiv_pos_site_id
 _symmetry_equiv_pos_as_xyz
  1  'x, y, z'
loop_
 _atom_site_type_symbol
 _atom_site_label
 _atom_site_symmetry_multiplicity
 _atom_site_fract_x
 _atom_site_fract_y
 _atom_site_fract_z
 _atom_site_occupancy
  Er  Er0  1  0.500000  0.602968  0.185026  1
  Er  Er1  1  0.500000  0.395454  0.816818  1
  Er  Er2  1  0.500000  0.092980  0.277664  1
  Er  Er3  1  0.500000  0.907382  0.723061  1
  Cd  Cd4  1  0.000000  0.294381  0.497297  1
  In  In5  1  0.000000  0.706028  0.504691  1
  In  In6  1  0.000000  0.001296  0.999171  1
  Co  Co7  1  0.000000  0.650947  0.895680  1
  Co  Co8  1  0.000000  0.348564  0.100592  1
