# generated using pymatgen
data_Dy11Ho8LuPb16
_symmetry_space_group_name_H-M   'P 1'
_cell_length_a   8.18882400
_cell_length_b   8.27176360
_cell_length_c   15.61109800
_cell_angle_alpha   90.00206684
_cell_angle_beta   89.99942315
_cell_angle_gamma   89.95640792
_symmetry_Int_Tables_number   1
_chemical_formula_structural   Dy11Ho8LuPb16
_chemical_formula_sum   'Dy11 Ho8 Lu1 Pb16'
_cell_volume   1057.43328230
_cell_formula_units_Z   1
loop_
 _symmetry_equiv_pos_site_id
 _symmetry_equiv_pos_as_xyz
  1  'x, y, z'
loop_
 _atom_site_type_symbol
 _atom_site_label
 _atom_site_symmetry_multiplicity
 _atom_site_fract_x
 _atom_site_fract_y
 _atom_site_fract_z
 _atom_site_occupancy
  Dy  Dy0  1  0.123382  0.341193  0.379225  1
  Dy  Dy1  1  0.376219  0.840960  0.620936  1
  Dy  Dy2  1  0.877272  0.658368  0.879003  1
  Dy  Dy3  1  0.535727  0.323882  0.899849  1
  Dy  Dy4  1  0.036238  0.176814  0.600131  1
  Dy  Dy5  1  0.464027  0.676392  0.399925  1
  Dy  Dy6  1  0.963920  0.823634  0.100207  1
  Dy  Dy7  1  0.464000  0.676379  0.100043  1
  Dy  Dy8  1  0.963909  0.823657  0.399817  1
  Dy  Dy9  1  0.535738  0.323927  0.600156  1
  Dy  Dy10  1  0.036270  0.176791  0.899887  1
  Ho  Ho11  1  0.376172  0.840979  0.879064  1
  Ho  Ho12  1  0.877244  0.658336  0.620997  1
  Ho  Ho13  1  0.623371  0.158763  0.379060  1
  Ho  Ho14  1  0.123406  0.341237  0.120760  1
  Ho  Ho15  1  0.623356  0.158784  0.120949  1
  Ho  Ho16  1  0.708362  0.996019  0.749994  1
  Ho  Ho17  1  0.791531  0.495947  0.249986  1
  Ho  Ho18  1  0.291600  0.004213  0.249976  1
  Lu  Lu19  1  0.208841  0.504420  0.750029  1
  Pb  Pb20  1  0.281092  0.033145  0.042771  1
  Pb  Pb21  1  0.780947  0.466762  0.457247  1
  Pb  Pb22  1  0.719030  0.966846  0.542918  1
  Pb  Pb23  1  0.218997  0.532931  0.956482  1
  Pb  Pb24  1  0.718887  0.966912  0.957080  1
  Pb  Pb25  1  0.218878  0.532920  0.543577  1
  Pb  Pb26  1  0.281110  0.033114  0.457186  1
  Pb  Pb27  1  0.781012  0.466670  0.042824  1
  Pb  Pb28  1  0.570714  0.625415  0.750006  1
  Pb  Pb29  1  0.072371  0.873034  0.749993  1
  Pb  Pb30  1  0.427939  0.373826  0.249976  1
  Pb  Pb31  1  0.927835  0.126218  0.249972  1
  Pb  Pb32  1  0.347112  0.155186  0.750016  1
  Pb  Pb33  1  0.847715  0.346648  0.749979  1
  Pb  Pb34  1  0.652839  0.846325  0.249999  1
  Pb  Pb35  1  0.152935  0.653352  0.249980  1
