# generated using pymatgen
data_Dy3Er(Co2O5)4
_symmetry_space_group_name_H-M   'P 1'
_cell_length_a   5.61983600
_cell_length_b   7.20314129
_cell_length_c   8.46539935
_cell_angle_alpha   90.03273632
_cell_angle_beta   90.00000000
_cell_angle_gamma   90.00000000
_symmetry_Int_Tables_number   1
_chemical_formula_structural   Dy3Er(Co2O5)4
_chemical_formula_sum   'Dy3 Er1 Co8 O20'
_cell_volume   342.68331164
_cell_formula_units_Z   1
loop_
 _symmetry_equiv_pos_site_id
 _symmetry_equiv_pos_as_xyz
  1  'x, y, z'
loop_
 _atom_site_type_symbol
 _atom_site_label
 _atom_site_symmetry_multiplicity
 _atom_site_fract_x
 _atom_site_fract_y
 _atom_site_fract_z
 _atom_site_occupancy
  Dy  Dy0  1  0.000000  0.141967  0.173592  1
  Dy  Dy1  1  0.000000  0.858373  0.826201  1
  Dy  Dy2  1  0.000000  0.641386  0.326879  1
  Er  Er3  1  0.000000  0.357710  0.673662  1
  Co  Co4  1  0.256142  0.000566  0.500275  1
  Co  Co5  1  0.743974  0.499889  0.999596  1
  Co  Co6  1  0.743858  0.000566  0.500275  1
  Co  Co7  1  0.256026  0.499889  0.999596  1
  Co  Co8  1  0.500000  0.403939  0.353121  1
  Co  Co9  1  0.500000  0.595933  0.646630  1
  Co  Co10  1  0.500000  0.903426  0.146744  1
  Co  Co11  1  0.500000  0.096557  0.852888  1
  O  O12  1  0.274916  0.999952  0.999726  1
  O  O13  1  0.726032  0.498459  0.500984  1
  O  O14  1  0.725084  0.999952  0.999726  1
  O  O15  1  0.273968  0.498459  0.500984  1
  O  O16  1  0.000000  0.163804  0.448142  1
  O  O17  1  0.000000  0.837936  0.552689  1
  O  O18  1  0.000000  0.662551  0.052349  1
  O  O19  1  0.000000  0.337215  0.946081  1
  O  O20  1  0.500000  0.154703  0.442761  1
  O  O21  1  0.500000  0.844668  0.558531  1
  O  O22  1  0.500000  0.655164  0.057285  1
  O  O23  1  0.500000  0.345032  0.942697  1
  O  O24  1  0.245160  0.402854  0.211127  1
  O  O25  1  0.244248  0.595974  0.788277  1
  O  O26  1  0.754764  0.902633  0.288943  1
  O  O27  1  0.755628  0.099491  0.710948  1
  O  O28  1  0.755752  0.595974  0.788277  1
  O  O29  1  0.754840  0.402854  0.211127  1
  O  O30  1  0.244372  0.099491  0.710948  1
  O  O31  1  0.245236  0.902633  0.288943  1
