# generated using pymatgen
data_Ho2TmCo8P6Os
_symmetry_space_group_name_H-M   'P 1'
_cell_length_a   3.70252400
_cell_length_b   10.46803400
_cell_length_c   12.20214300
_cell_angle_alpha   90.00000000
_cell_angle_beta   90.00000000
_cell_angle_gamma   90.00000000
_symmetry_Int_Tables_number   1
_chemical_formula_structural   Ho2TmCo8P6Os
_chemical_formula_sum   'Ho4 Tm2 Co16 P12 Os2'
_cell_volume   472.93245355
_cell_formula_units_Z   2
loop_
 _symmetry_equiv_pos_site_id
 _symmetry_equiv_pos_as_xyz
  1  'x, y, z'
loop_
 _atom_site_type_symbol
 _atom_site_label
 _atom_site_symmetry_multiplicity
 _atom_site_fract_x
 _atom_site_fract_y
 _atom_site_fract_z
 _atom_site_occupancy
  Ho  Ho0  1  0.000000  0.500000  0.525342  1
  Ho  Ho1  1  0.500000  0.000000  0.475258  1
  Ho  Ho2  1  0.500000  0.817283  0.207097  1
  Ho  Ho3  1  0.500000  0.182717  0.207097  1
  Tm  Tm4  1  0.000000  0.682195  0.792751  1
  Tm  Tm5  1  0.000000  0.317805  0.792751  1
  Co  Co6  1  0.500000  0.500000  0.704091  1
  Co  Co7  1  0.000000  0.000000  0.296218  1
  Co  Co8  1  0.000000  0.500000  0.986112  1
  Co  Co9  1  0.500000  0.000000  0.012430  1
  Co  Co10  1  0.500000  0.332779  0.989125  1
  Co  Co11  1  0.500000  0.667221  0.989125  1
  Co  Co12  1  0.000000  0.167782  0.009489  1
  Co  Co13  1  0.000000  0.832218  0.009489  1
  Co  Co14  1  0.500000  0.297858  0.431529  1
  Co  Co15  1  0.500000  0.702142  0.431529  1
  Co  Co16  1  0.000000  0.202385  0.569628  1
  Co  Co17  1  0.000000  0.797615  0.569628  1
  Co  Co18  1  0.500000  0.878689  0.708923  1
  Co  Co19  1  0.500000  0.121311  0.708923  1
  Co  Co20  1  0.000000  0.620749  0.291678  1
  Co  Co21  1  0.000000  0.379251  0.291678  1
  P  P22  1  0.500000  0.500000  0.879864  1
  P  P23  1  0.000000  0.000000  0.118973  1
  P  P24  1  0.500000  0.500000  0.351476  1
  P  P25  1  0.000000  0.000000  0.648848  1
  P  P26  1  0.500000  0.312354  0.617175  1
  P  P27  1  0.500000  0.687646  0.617175  1
  P  P28  1  0.000000  0.187942  0.384164  1
  P  P29  1  0.000000  0.812058  0.384164  1
  P  P30  1  0.500000  0.845524  0.892027  1
  P  P31  1  0.500000  0.154476  0.892027  1
  P  P32  1  0.000000  0.653506  0.107148  1
  P  P33  1  0.000000  0.346494  0.107148  1
  Os  Os34  1  0.500000  0.500000  0.158953  1
  Os  Os35  1  0.000000  0.000000  0.840965  1
