# generated using pymatgen
data_Li5Hf(SnRh2)6
_symmetry_space_group_name_H-M   'P 1'
_cell_length_a   4.44483900
_cell_length_b   6.25712300
_cell_length_c   13.30863600
_cell_angle_alpha   90.00000000
_cell_angle_beta   89.99855280
_cell_angle_gamma   90.00000000
_symmetry_Int_Tables_number   1
_chemical_formula_structural   Li5Hf(SnRh2)6
_chemical_formula_sum   'Li5 Hf1 Sn6 Rh12'
_cell_volume   370.13851139
_cell_formula_units_Z   1
loop_
 _symmetry_equiv_pos_site_id
 _symmetry_equiv_pos_as_xyz
  1  'x, y, z'
loop_
 _atom_site_type_symbol
 _atom_site_label
 _atom_site_symmetry_multiplicity
 _atom_site_fract_x
 _atom_site_fract_y
 _atom_site_fract_z
 _atom_site_occupancy
  Li  Li0  1  0.499837  0.000000  0.168152  1
  Li  Li1  1  0.999841  0.499999  0.334582  1
  Li  Li2  1  0.500001  0.000000  0.500000  1
  Li  Li3  1  0.000159  0.499999  0.665417  1
  Li  Li4  1  0.500163  0.000000  0.831848  1
  Hf  Hf5  1  0.000000  0.499999  0.000000  1
  Sn  Sn6  1  0.000000  0.000000  0.000000  1
  Sn  Sn7  1  0.499850  0.499999  0.175076  1
  Sn  Sn8  1  0.999734  0.000000  0.338917  1
  Sn  Sn9  1  0.500001  0.499999  0.500000  1
  Sn  Sn10  1  0.000265  0.000000  0.661084  1
  Sn  Sn11  1  0.500149  0.499999  0.824925  1
  Rh  Rh12  1  0.500001  0.251022  0.000000  1
  Rh  Rh13  1  0.500001  0.748978  0.000000  1
  Rh  Rh14  1  0.999869  0.247184  0.167273  1
  Rh  Rh15  1  0.999869  0.752816  0.167273  1
  Rh  Rh16  1  0.499813  0.246254  0.334625  1
  Rh  Rh17  1  0.499813  0.753746  0.334625  1
  Rh  Rh18  1  0.000000  0.254120  0.500000  1
  Rh  Rh19  1  0.000000  0.745880  0.500000  1
  Rh  Rh20  1  0.500186  0.246254  0.665375  1
  Rh  Rh21  1  0.500186  0.753746  0.665375  1
  Rh  Rh22  1  0.000131  0.247184  0.832726  1
  Rh  Rh23  1  0.000131  0.752816  0.832726  1
