# generated using pymatgen
data_Zr6Si7(NiRu)8
_symmetry_space_group_name_H-M   'P 1'
_cell_length_a   8.32845782
_cell_length_b   8.32845821
_cell_length_c   8.32845800
_cell_angle_alpha   60.00000084
_cell_angle_beta   59.99999930
_cell_angle_gamma   60.00000566
_symmetry_Int_Tables_number   1
_chemical_formula_structural   Zr6Si7(NiRu)8
_chemical_formula_sum   'Zr6 Si7 Ni8 Ru8'
_cell_volume   408.48754855
_cell_formula_units_Z   1
loop_
 _symmetry_equiv_pos_site_id
 _symmetry_equiv_pos_as_xyz
  1  'x, y, z'
loop_
 _atom_site_type_symbol
 _atom_site_label
 _atom_site_symmetry_multiplicity
 _atom_site_fract_x
 _atom_site_fract_y
 _atom_site_fract_z
 _atom_site_occupancy
  Zr  Zr0  1  0.705276  0.705276  0.294724  1
  Zr  Zr1  1  0.294724  0.705276  0.294724  1
  Zr  Zr2  1  0.705276  0.294724  0.294724  1
  Zr  Zr3  1  0.294724  0.294724  0.705276  1
  Zr  Zr4  1  0.705276  0.294724  0.705276  1
  Zr  Zr5  1  0.294724  0.705276  0.705276  1
  Si  Si6  1  0.000000  0.000000  0.000000  1
  Si  Si7  1  0.000000  0.000000  0.500000  1
  Si  Si8  1  0.500000  0.000000  0.500000  1
  Si  Si9  1  0.000000  0.500000  0.500000  1
  Si  Si10  1  0.500000  0.500000  0.000000  1
  Si  Si11  1  0.000000  0.500000  0.000000  1
  Si  Si12  1  0.500000  0.000000  0.000000  1
  Ni  Ni13  1  0.666524  0.666524  0.000428  1
  Ni  Ni14  1  0.666524  0.000428  0.666524  1
  Ni  Ni15  1  0.000428  0.666524  0.666524  1
  Ni  Ni16  1  0.666524  0.666524  0.666524  1
  Ni  Ni17  1  0.333476  0.333476  0.999572  1
  Ni  Ni18  1  0.333476  0.999572  0.333476  1
  Ni  Ni19  1  0.999572  0.333476  0.333476  1
  Ni  Ni20  1  0.333476  0.333476  0.333476  1
  Ru  Ru21  1  0.877849  0.877849  0.366452  1
  Ru  Ru22  1  0.877849  0.366452  0.877849  1
  Ru  Ru23  1  0.366452  0.877849  0.877849  1
  Ru  Ru24  1  0.877849  0.877849  0.877849  1
  Ru  Ru25  1  0.122151  0.122151  0.633548  1
  Ru  Ru26  1  0.122151  0.633548  0.122151  1
  Ru  Ru27  1  0.633548  0.122151  0.122151  1
  Ru  Ru28  1  0.122151  0.122151  0.122151  1
