# generated using pymatgen
data_Pr5Nd(CI5)2
_symmetry_space_group_name_H-M   'P 1'
_cell_length_a   7.99012261
_cell_length_b   9.78988169
_cell_length_c   9.87530090
_cell_angle_alpha   107.10543706
_cell_angle_beta   96.88945685
_cell_angle_gamma   104.55454019
_symmetry_Int_Tables_number   1
_chemical_formula_structural   Pr5Nd(CI5)2
_chemical_formula_sum   'Pr5 Nd1 C2 I10'
_cell_volume   698.73788908
_cell_formula_units_Z   1
loop_
 _symmetry_equiv_pos_site_id
 _symmetry_equiv_pos_as_xyz
  1  'x, y, z'
loop_
 _atom_site_type_symbol
 _atom_site_label
 _atom_site_symmetry_multiplicity
 _atom_site_fract_x
 _atom_site_fract_y
 _atom_site_fract_z
 _atom_site_occupancy
  Pr  Pr0  1  0.107032  0.040332  0.775857  1
  Pr  Pr1  1  0.374956  0.134515  0.181325  1
  Pr  Pr2  1  0.892442  0.959314  0.223679  1
  Pr  Pr3  1  0.030981  0.734212  0.923049  1
  Pr  Pr4  1  0.968689  0.265670  0.076653  1
  Nd  Nd5  1  0.625441  0.865437  0.818752  1
  C  C6  1  0.912103  0.969876  0.958553  1
  C  C7  1  0.085691  0.029352  0.040266  1
  I  I8  1  0.189679  0.733439  0.643705  1
  I  I9  1  0.088223  0.369951  0.820326  1
  I  I10  1  0.457315  0.808878  0.091479  1
  I  I11  1  0.255117  0.085221  0.462026  1
  I  I12  1  0.543583  0.190337  0.907515  1
  I  I13  1  0.812070  0.266897  0.356784  1
  I  I14  1  0.346291  0.457431  0.274553  1
  I  I15  1  0.912829  0.630344  0.180014  1
  I  I16  1  0.653310  0.544193  0.726144  1
  I  I17  1  0.744247  0.914601  0.539319  1
