# generated using pymatgen
data_LiNd6Cd22Si
_symmetry_space_group_name_H-M   'P 1'
_cell_length_a   10.06267819
_cell_length_b   10.06267787
_cell_length_c   10.06267900
_cell_angle_alpha   59.99999958
_cell_angle_beta   60.00000063
_cell_angle_gamma   59.99999937
_symmetry_Int_Tables_number   1
_chemical_formula_structural   LiNd6Cd22Si
_chemical_formula_sum   'Li1 Nd6 Cd22 Si1'
_cell_volume   720.48637768
_cell_formula_units_Z   1
loop_
 _symmetry_equiv_pos_site_id
 _symmetry_equiv_pos_as_xyz
  1  'x, y, z'
loop_
 _atom_site_type_symbol
 _atom_site_label
 _atom_site_symmetry_multiplicity
 _atom_site_fract_x
 _atom_site_fract_y
 _atom_site_fract_z
 _atom_site_occupancy
  Li  Li0  1  0.500000  0.500000  0.500000  1
  Nd  Nd1  1  0.794682  0.794682  0.205318  1
  Nd  Nd2  1  0.205318  0.794682  0.205318  1
  Nd  Nd3  1  0.794682  0.205318  0.205318  1
  Nd  Nd4  1  0.205318  0.205318  0.794682  1
  Nd  Nd5  1  0.794682  0.205318  0.794682  1
  Nd  Nd6  1  0.205318  0.794682  0.794682  1
  Cd  Cd7  1  0.832626  0.832626  0.502121  1
  Cd  Cd8  1  0.832626  0.502121  0.832626  1
  Cd  Cd9  1  0.502121  0.832626  0.832626  1
  Cd  Cd10  1  0.832626  0.832626  0.832626  1
  Cd  Cd11  1  0.167374  0.167374  0.497879  1
  Cd  Cd12  1  0.167374  0.497879  0.167374  1
  Cd  Cd13  1  0.497879  0.167374  0.167374  1
  Cd  Cd14  1  0.167374  0.167374  0.167374  1
  Cd  Cd15  1  0.617941  0.617941  0.146176  1
  Cd  Cd16  1  0.617941  0.146176  0.617941  1
  Cd  Cd17  1  0.146176  0.617941  0.617941  1
  Cd  Cd18  1  0.617941  0.617941  0.617941  1
  Cd  Cd19  1  0.382059  0.382059  0.853824  1
  Cd  Cd20  1  0.382059  0.853824  0.382059  1
  Cd  Cd21  1  0.853824  0.382059  0.382059  1
  Cd  Cd22  1  0.382059  0.382059  0.382059  1
  Cd  Cd23  1  0.000000  0.000000  0.500000  1
  Cd  Cd24  1  0.500000  0.000000  0.500000  1
  Cd  Cd25  1  0.000000  0.500000  0.500000  1
  Cd  Cd26  1  0.500000  0.500000  0.000000  1
  Cd  Cd27  1  0.000000  0.500000  0.000000  1
  Cd  Cd28  1  0.500000  0.000000  0.000000  1
  Si  Si29  1  0.000000  0.000000  0.000000  1
