# generated using pymatgen
data_Ac4Ga9SiIr6
_symmetry_space_group_name_H-M   'P 1'
_cell_length_a   8.75430423
_cell_length_b   8.84037644
_cell_length_c   8.84037672
_cell_angle_alpha   140.37219149
_cell_angle_beta   107.12707052
_cell_angle_gamma   86.42033929
_symmetry_Int_Tables_number   1
_chemical_formula_structural   Ac4Ga9SiIr6
_chemical_formula_sum   'Ac4 Ga9 Si1 Ir6'
_cell_volume   401.55850900
_cell_formula_units_Z   1
loop_
 _symmetry_equiv_pos_site_id
 _symmetry_equiv_pos_as_xyz
  1  'x, y, z'
loop_
 _atom_site_type_symbol
 _atom_site_label
 _atom_site_symmetry_multiplicity
 _atom_site_fract_x
 _atom_site_fract_y
 _atom_site_fract_z
 _atom_site_occupancy
  Ac  Ac0  1  0.862931  0.635774  0.227158  1
  Ac  Ac1  1  0.136618  0.364352  0.772265  1
  Ac  Ac2  1  0.405708  0.134134  0.271575  1
  Ac  Ac3  1  0.589472  0.865216  0.724257  1
  Ga  Ga4  1  0.499803  0.748489  0.246097  1
  Ga  Ga5  1  0.499803  0.253706  0.751313  1
  Ga  Ga6  1  0.217121  0.963658  0.749953  1
  Ga  Ga7  1  0.782222  0.537431  0.752958  1
  Ga  Ga8  1  0.782222  0.029264  0.244791  1
  Ga  Ga9  1  0.217121  0.467168  0.253463  1
  Ga  Ga10  1  0.062462  0.903345  0.159119  1
  Ga  Ga11  1  0.938974  0.093932  0.845041  1
  Ga  Ga12  1  0.750482  0.405987  0.344495  1
  Si  Si13  1  0.247455  0.592986  0.654469  1
  Ir  Ir14  1  0.010762  0.749637  0.754430  1
  Ir  Ir15  1  0.010762  0.256331  0.261125  1
  Ir  Ir16  1  0.253876  0.857164  0.396711  1
  Ir  Ir17  1  0.749437  0.143358  0.606080  1
  Ir  Ir18  1  0.464135  0.358253  0.105881  1
  Ir  Ir19  1  0.518636  0.639817  0.878819  1
