# generated using pymatgen
data_Li4CaHo3Si7Ge
_symmetry_space_group_name_H-M   'P 1'
_cell_length_a   3.79279400
_cell_length_b   7.73227576
_cell_length_c   10.24614189
_cell_angle_alpha   89.55412026
_cell_angle_beta   90.00000000
_cell_angle_gamma   90.00000000
_symmetry_Int_Tables_number   1
_chemical_formula_structural   Li4CaHo3Si7Ge
_chemical_formula_sum   'Li4 Ca1 Ho3 Si7 Ge1'
_cell_volume   300.47877785
_cell_formula_units_Z   1
loop_
 _symmetry_equiv_pos_site_id
 _symmetry_equiv_pos_as_xyz
  1  'x, y, z'
loop_
 _atom_site_type_symbol
 _atom_site_label
 _atom_site_symmetry_multiplicity
 _atom_site_fract_x
 _atom_site_fract_y
 _atom_site_fract_z
 _atom_site_occupancy
  Li  Li0  1  0.250000  0.997173  0.393441  1
  Li  Li1  1  0.750000  0.012561  0.607662  1
  Li  Li2  1  0.250000  0.486011  0.111222  1
  Li  Li3  1  0.750000  0.507172  0.892995  1
  Ca  Ca4  1  0.750000  0.363224  0.364135  1
  Ho  Ho5  1  0.250000  0.131061  0.862517  1
  Ho  Ho6  1  0.750000  0.867744  0.136048  1
  Ho  Ho7  1  0.250000  0.634064  0.634113  1
  Si  Si8  1  0.750000  0.258885  0.061954  1
  Si  Si9  1  0.750000  0.773467  0.432924  1
  Si  Si10  1  0.250000  0.237927  0.572344  1
  Si  Si11  1  0.750000  0.841303  0.813799  1
  Si  Si12  1  0.250000  0.152351  0.174225  1
  Si  Si13  1  0.750000  0.342455  0.685096  1
  Si  Si14  1  0.250000  0.665155  0.320967  1
  Ge  Ge15  1  0.250000  0.729448  0.936559  1
