# generated using pymatgen
data_Dy15ThMgCd3Ni4
_symmetry_space_group_name_H-M   'P 1'
_cell_length_a   9.57909908
_cell_length_b   9.57909919
_cell_length_c   9.57909913
_cell_angle_alpha   60.10646088
_cell_angle_beta   60.10646418
_cell_angle_gamma   60.10646236
_symmetry_Int_Tables_number   1
_chemical_formula_structural   Dy15ThMgCd3Ni4
_chemical_formula_sum   'Dy15 Th1 Mg1 Cd3 Ni4'
_cell_volume   623.02478662
_cell_formula_units_Z   1
loop_
 _symmetry_equiv_pos_site_id
 _symmetry_equiv_pos_as_xyz
  1  'x, y, z'
loop_
 _atom_site_type_symbol
 _atom_site_label
 _atom_site_symmetry_multiplicity
 _atom_site_fract_x
 _atom_site_fract_y
 _atom_site_fract_z
 _atom_site_occupancy
  Dy  Dy0  1  0.597684  0.597684  0.203257  1
  Dy  Dy1  1  0.597684  0.203257  0.597684  1
  Dy  Dy2  1  0.203257  0.597684  0.597684  1
  Dy  Dy3  1  0.061710  0.439986  0.439986  1
  Dy  Dy4  1  0.439396  0.063392  0.063392  1
  Dy  Dy5  1  0.439986  0.061710  0.439986  1
  Dy  Dy6  1  0.063392  0.439396  0.063392  1
  Dy  Dy7  1  0.439986  0.439986  0.061710  1
  Dy  Dy8  1  0.063392  0.063392  0.439396  1
  Dy  Dy9  1  0.188177  0.815633  0.815633  1
  Dy  Dy10  1  0.813572  0.186771  0.186771  1
  Dy  Dy11  1  0.815633  0.188177  0.815633  1
  Dy  Dy12  1  0.186771  0.813572  0.186771  1
  Dy  Dy13  1  0.815633  0.815633  0.188177  1
  Dy  Dy14  1  0.186771  0.186771  0.813572  1
  Th  Th15  1  0.593789  0.593789  0.593789  1
  Mg  Mg16  1  0.825867  0.825867  0.825867  1
  Cd  Cd17  1  0.831830  0.831830  0.505381  1
  Cd  Cd18  1  0.831830  0.505381  0.831830  1
  Cd  Cd19  1  0.505381  0.831830  0.831830  1
  Ni  Ni20  1  0.392843  0.392843  0.392843  1
  Ni  Ni21  1  0.392125  0.392125  0.821167  1
  Ni  Ni22  1  0.392125  0.821167  0.392125  1
  Ni  Ni23  1  0.821167  0.392125  0.392125  1
