# generated using pymatgen
data_Y3Tm8LuRu4
_symmetry_space_group_name_H-M   'P 1'
_cell_length_a   6.23041718
_cell_length_b   7.32834252
_cell_length_c   8.97801106
_cell_angle_alpha   90.00148039
_cell_angle_beta   90.01363275
_cell_angle_gamma   89.87311731
_symmetry_Int_Tables_number   1
_chemical_formula_structural   Y3Tm8LuRu4
_chemical_formula_sum   'Y3 Tm8 Lu1 Ru4'
_cell_volume   409.92267856
_cell_formula_units_Z   1
loop_
 _symmetry_equiv_pos_site_id
 _symmetry_equiv_pos_as_xyz
  1  'x, y, z'
loop_
 _atom_site_type_symbol
 _atom_site_label
 _atom_site_symmetry_multiplicity
 _atom_site_fract_x
 _atom_site_fract_y
 _atom_site_fract_z
 _atom_site_occupancy
  Y  Y0  1  0.871345  0.539849  0.249965  1
  Y  Y1  1  0.629455  0.040282  0.249947  1
  Y  Y2  1  0.129482  0.460143  0.750045  1
  Tm  Tm3  1  0.334957  0.676707  0.063314  1
  Tm  Tm4  1  0.166333  0.174214  0.436930  1
  Tm  Tm5  1  0.664618  0.323567  0.564374  1
  Tm  Tm6  1  0.833074  0.825074  0.935531  1
  Tm  Tm7  1  0.664642  0.323546  0.935667  1
  Tm  Tm8  1  0.833021  0.825012  0.564499  1
  Tm  Tm9  1  0.334981  0.676685  0.436671  1
  Tm  Tm10  1  0.369197  0.958861  0.750053  1
  Lu  Lu11  1  0.166322  0.174154  0.063036  1
  Ru  Ru12  1  0.044585  0.885233  0.249961  1
  Ru  Ru13  1  0.455184  0.384883  0.249950  1
  Ru  Ru14  1  0.960442  0.113844  0.750065  1
  Ru  Ru15  1  0.542361  0.617946  0.749992  1
