# generated using pymatgen
data_HoScB6Os
_symmetry_space_group_name_H-M   'P 1'
_cell_length_a   3.56183200
_cell_length_b   8.95135300
_cell_length_c   11.32900600
_cell_angle_alpha   90.00000000
_cell_angle_beta   90.00000000
_cell_angle_gamma   90.00000000
_symmetry_Int_Tables_number   1
_chemical_formula_structural   HoScB6Os
_chemical_formula_sum   'Ho4 Sc4 B24 Os4'
_cell_volume   361.20514036
_cell_formula_units_Z   4
loop_
 _symmetry_equiv_pos_site_id
 _symmetry_equiv_pos_as_xyz
  1  'x, y, z'
loop_
 _atom_site_type_symbol
 _atom_site_label
 _atom_site_symmetry_multiplicity
 _atom_site_fract_x
 _atom_site_fract_y
 _atom_site_fract_z
 _atom_site_occupancy
  Ho  Ho0  1  0.000000  0.819928  0.085417  1
  Ho  Ho1  1  0.000000  0.180072  0.914583  1
  Ho  Ho2  1  0.000000  0.319928  0.414583  1
  Ho  Ho3  1  0.000000  0.680072  0.585417  1
  Sc  Sc4  1  0.000000  0.445324  0.125843  1
  Sc  Sc5  1  0.000000  0.554676  0.874157  1
  Sc  Sc6  1  0.000000  0.945324  0.374157  1
  Sc  Sc7  1  0.000000  0.054676  0.625843  1
  B  B8  1  0.500000  0.055084  0.067027  1
  B  B9  1  0.500000  0.944916  0.932973  1
  B  B10  1  0.500000  0.555084  0.432973  1
  B  B11  1  0.500000  0.444916  0.567027  1
  B  B12  1  0.500000  0.253316  0.081370  1
  B  B13  1  0.500000  0.746684  0.918630  1
  B  B14  1  0.500000  0.753316  0.418630  1
  B  B15  1  0.500000  0.246684  0.581370  1
  B  B16  1  0.500000  0.293867  0.235036  1
  B  B17  1  0.500000  0.706133  0.764964  1
  B  B18  1  0.500000  0.793867  0.264964  1
  B  B19  1  0.500000  0.206133  0.735036  1
  B  B20  1  0.500000  0.129354  0.317651  1
  B  B21  1  0.500000  0.870646  0.682349  1
  B  B22  1  0.500000  0.629354  0.182349  1
  B  B23  1  0.500000  0.370646  0.817651  1
  B  B24  1  0.500000  0.481975  0.285583  1
  B  B25  1  0.500000  0.518025  0.714417  1
  B  B26  1  0.500000  0.981975  0.214417  1
  B  B27  1  0.500000  0.018025  0.785583  1
  B  B28  1  0.500000  0.100024  0.473118  1
  B  B29  1  0.500000  0.899976  0.526882  1
  B  B30  1  0.500000  0.600024  0.026882  1
  B  B31  1  0.500000  0.399976  0.973118  1
  Os  Os32  1  0.000000  0.140022  0.181417  1
  Os  Os33  1  0.000000  0.859978  0.818583  1
  Os  Os34  1  0.000000  0.640022  0.318583  1
  Os  Os35  1  0.000000  0.359978  0.681417  1
