# generated using pymatgen
data_CdAs14Pb
_symmetry_space_group_name_H-M   'P 1'
_cell_length_a   10.89034400
_cell_length_b   11.72871700
_cell_length_c   14.24060700
_cell_angle_alpha   90.00000000
_cell_angle_beta   90.00000000
_cell_angle_gamma   90.00000000
_symmetry_Int_Tables_number   1
_chemical_formula_structural   CdAs14Pb
_chemical_formula_sum   'Cd4 As56 Pb4'
_cell_volume   1818.94935436
_cell_formula_units_Z   4
loop_
 _symmetry_equiv_pos_site_id
 _symmetry_equiv_pos_as_xyz
  1  'x, y, z'
loop_
 _atom_site_type_symbol
 _atom_site_label
 _atom_site_symmetry_multiplicity
 _atom_site_fract_x
 _atom_site_fract_y
 _atom_site_fract_z
 _atom_site_occupancy
  Cd  Cd0  1  0.250000  0.005234  0.821531  1
  Cd  Cd1  1  0.250000  0.494766  0.321531  1
  Cd  Cd2  1  0.750000  0.994766  0.178469  1
  Cd  Cd3  1  0.750000  0.505234  0.678469  1
  As  As4  1  0.250000  0.847284  0.969834  1
  As  As5  1  0.250000  0.652716  0.469834  1
  As  As6  1  0.750000  0.152716  0.030166  1
  As  As7  1  0.750000  0.347284  0.530166  1
  As  As8  1  0.250000  0.851302  0.675254  1
  As  As9  1  0.250000  0.648698  0.175254  1
  As  As10  1  0.750000  0.148698  0.324746  1
  As  As11  1  0.750000  0.351302  0.824746  1
  As  As12  1  0.044254  0.131974  0.861099  1
  As  As13  1  0.455746  0.368026  0.361099  1
  As  As14  1  0.544254  0.868026  0.138901  1
  As  As15  1  0.955746  0.631974  0.638901  1
  As  As16  1  0.955746  0.868026  0.138901  1
  As  As17  1  0.544254  0.631974  0.638901  1
  As  As18  1  0.455746  0.131974  0.861099  1
  As  As19  1  0.044254  0.368026  0.361099  1
  As  As20  1  0.076592  0.355240  0.531800  1
  As  As21  1  0.423408  0.144760  0.031800  1
  As  As22  1  0.576592  0.644760  0.468200  1
  As  As23  1  0.923408  0.855240  0.968200  1
  As  As24  1  0.923408  0.644760  0.468200  1
  As  As25  1  0.576592  0.855240  0.968200  1
  As  As26  1  0.423408  0.355240  0.531800  1
  As  As27  1  0.076592  0.144760  0.031800  1
  As  As28  1  0.250000  0.221033  0.559437  1
  As  As29  1  0.250000  0.278967  0.059437  1
  As  As30  1  0.750000  0.778967  0.440563  1
  As  As31  1  0.750000  0.721033  0.940563  1
  As  As32  1  0.584486  0.210439  0.567927  1
  As  As33  1  0.915514  0.289561  0.067927  1
  As  As34  1  0.084486  0.789561  0.432073  1
  As  As35  1  0.415514  0.710439  0.932073  1
  As  As36  1  0.415514  0.789561  0.432073  1
  As  As37  1  0.084486  0.710439  0.932073  1
  As  As38  1  0.915514  0.210439  0.567927  1
  As  As39  1  0.584486  0.289561  0.067927  1
  As  As40  1  0.250000  0.404099  0.918626  1
  As  As41  1  0.250000  0.095901  0.418626  1
  As  As42  1  0.750000  0.595901  0.081374  1
  As  As43  1  0.750000  0.904099  0.581374  1
  As  As44  1  0.079731  0.919362  0.574627  1
  As  As45  1  0.420269  0.580638  0.074627  1
  As  As46  1  0.579731  0.080638  0.425373  1
  As  As47  1  0.920269  0.419362  0.925373  1
  As  As48  1  0.920269  0.080638  0.425373  1
  As  As49  1  0.579731  0.419362  0.925373  1
  As  As50  1  0.420269  0.919362  0.574627  1
  As  As51  1  0.079731  0.580638  0.074627  1
  As  As52  1  0.078120  0.332910  0.820210  1
  As  As53  1  0.421880  0.167090  0.320210  1
  As  As54  1  0.578120  0.667090  0.179790  1
  As  As55  1  0.921880  0.832910  0.679790  1
  As  As56  1  0.921880  0.667090  0.179790  1
  As  As57  1  0.578120  0.832910  0.679790  1
  As  As58  1  0.421880  0.332910  0.820210  1
  As  As59  1  0.078120  0.167090  0.320210  1
  Pb  Pb60  1  0.250000  0.896140  0.168238  1
  Pb  Pb61  1  0.250000  0.603860  0.668238  1
  Pb  Pb62  1  0.750000  0.103860  0.831762  1
  Pb  Pb63  1  0.750000  0.396140  0.331762  1
