# generated using pymatgen
data_Er8Ti9Nb2Si16Pt
_symmetry_space_group_name_H-M   'P 1'
_cell_length_a   7.01075710
_cell_length_b   7.01075699
_cell_length_c   12.84428900
_cell_angle_alpha   90.16509396
_cell_angle_beta   89.83490604
_cell_angle_gamma   89.73040566
_symmetry_Int_Tables_number   1
_chemical_formula_structural   Er8Ti9Nb2Si16Pt
_chemical_formula_sum   'Er8 Ti9 Nb2 Si16 Pt1'
_cell_volume   631.29372497
_cell_formula_units_Z   1
loop_
 _symmetry_equiv_pos_site_id
 _symmetry_equiv_pos_as_xyz
  1  'x, y, z'
loop_
 _atom_site_type_symbol
 _atom_site_label
 _atom_site_symmetry_multiplicity
 _atom_site_fract_x
 _atom_site_fract_y
 _atom_site_fract_z
 _atom_site_occupancy
  Er  Er0  1  0.341176  0.002815  0.466734  1
  Er  Er1  1  0.497655  0.842317  0.718277  1
  Er  Er2  1  0.501274  0.156829  0.215440  1
  Er  Er3  1  0.842317  0.497655  0.281723  1
  Er  Er4  1  0.156829  0.501274  0.784560  1
  Er  Er5  1  0.657796  0.999187  0.968385  1
  Er  Er6  1  0.002815  0.341176  0.533266  1
  Er  Er7  1  0.999187  0.657796  0.031615  1
  Ti  Ti8  1  0.673590  0.673590  0.500000  1
  Ti  Ti9  1  0.147534  0.002783  0.874907  1
  Ti  Ti10  1  0.492692  0.656470  0.124841  1
  Ti  Ti11  1  0.507678  0.348905  0.628363  1
  Ti  Ti12  1  0.656470  0.492692  0.875159  1
  Ti  Ti13  1  0.348905  0.507678  0.371637  1
  Ti  Ti14  1  0.850215  0.992640  0.373396  1
  Ti  Ti15  1  0.002783  0.147534  0.125093  1
  Ti  Ti16  1  0.992640  0.850215  0.626604  1
  Nb  Nb17  1  0.174877  0.826190  0.248039  1
  Nb  Nb18  1  0.826190  0.174877  0.751961  1
  Si  Si19  1  0.204299  0.133075  0.683691  1
  Si  Si20  1  0.372602  0.708763  0.931399  1
  Si  Si21  1  0.631032  0.296145  0.433308  1
  Si  Si22  1  0.708763  0.372602  0.068601  1
  Si  Si23  1  0.296145  0.631032  0.566692  1
  Si  Si24  1  0.795347  0.866530  0.182893  1
  Si  Si25  1  0.133075  0.204299  0.316309  1
  Si  Si26  1  0.866530  0.795347  0.817107  1
  Si  Si27  1  0.287722  0.948201  0.061635  1
  Si  Si28  1  0.548639  0.791813  0.315632  1
  Si  Si29  1  0.448618  0.208528  0.815909  1
  Si  Si30  1  0.791813  0.548639  0.684368  1
  Si  Si31  1  0.208528  0.448618  0.184091  1
  Si  Si32  1  0.707492  0.047096  0.564041  1
  Si  Si33  1  0.948201  0.287722  0.938365  1
  Si  Si34  1  0.047096  0.707492  0.435959  1
  Pt  Pt35  1  0.331479  0.331479  0.000000  1
