# generated using pymatgen
data_Ho3Bi3(MoO7)2
_symmetry_space_group_name_H-M   'P 1'
_cell_length_a   6.40275535
_cell_length_b   6.69908831
_cell_length_c   7.63841255
_cell_angle_alpha   106.79046882
_cell_angle_beta   89.86933044
_cell_angle_gamma   98.06729209
_symmetry_Int_Tables_number   1
_chemical_formula_structural   Ho3Bi3(MoO7)2
_chemical_formula_sum   'Ho3 Bi3 Mo2 O14'
_cell_volume   310.30671917
_cell_formula_units_Z   1
loop_
 _symmetry_equiv_pos_site_id
 _symmetry_equiv_pos_as_xyz
  1  'x, y, z'
loop_
 _atom_site_type_symbol
 _atom_site_label
 _atom_site_symmetry_multiplicity
 _atom_site_fract_x
 _atom_site_fract_y
 _atom_site_fract_z
 _atom_site_occupancy
  Ho  Ho0  1  0.548584  0.990089  0.748144  1
  Ho  Ho1  1  0.455257  0.007344  0.255270  1
  Ho  Ho2  1  0.253260  0.538007  0.885733  1
  Bi  Bi3  1  0.745629  0.479312  0.110797  1
  Bi  Bi4  1  0.726033  0.455825  0.616020  1
  Bi  Bi5  1  0.264107  0.539854  0.385871  1
  Mo  Mo6  1  0.004627  0.007871  0.502227  1
  Mo  Mo7  1  0.005714  0.004920  0.999744  1
  O  O8  1  0.442520  0.653410  0.163713  1
  O  O9  1  0.542990  0.341432  0.828001  1
  O  O10  1  0.290136  0.923017  0.948700  1
  O  O11  1  0.713631  0.045720  0.050557  1
  O  O12  1  0.297109  0.914590  0.508381  1
  O  O13  1  0.704983  0.088573  0.493909  1
  O  O14  1  0.528765  0.357846  0.346147  1
  O  O15  1  0.453989  0.639964  0.663388  1
  O  O16  1  0.934163  0.674490  0.952412  1
  O  O17  1  0.084402  0.311285  0.033830  1
  O  O18  1  0.096878  0.299618  0.627929  1
  O  O19  1  0.899317  0.717365  0.377361  1
  O  O20  1  0.901055  0.944419  0.736690  1
  O  O21  1  0.106852  0.065048  0.265176  1
