# generated using pymatgen
data_Pu7Pa(OsC2)4
_symmetry_space_group_name_H-M   'P 1'
_cell_length_a   5.15669900
_cell_length_b   6.39731081
_cell_length_c   9.73548927
_cell_angle_alpha   90.05821055
_cell_angle_beta   90.00000000
_cell_angle_gamma   90.00000000
_symmetry_Int_Tables_number   1
_chemical_formula_structural   Pu7Pa(OsC2)4
_chemical_formula_sum   'Pu7 Pa1 Os4 C8'
_cell_volume   321.16395101
_cell_formula_units_Z   1
loop_
 _symmetry_equiv_pos_site_id
 _symmetry_equiv_pos_as_xyz
  1  'x, y, z'
loop_
 _atom_site_type_symbol
 _atom_site_label
 _atom_site_symmetry_multiplicity
 _atom_site_fract_x
 _atom_site_fract_y
 _atom_site_fract_z
 _atom_site_occupancy
  Pu  Pu0  1  0.750000  0.303067  0.454068  1
  Pu  Pu1  1  0.750000  0.806730  0.045273  1
  Pu  Pu2  1  0.250000  0.192729  0.953065  1
  Pu  Pu3  1  0.250000  0.528307  0.218743  1
  Pu  Pu4  1  0.750000  0.472496  0.781081  1
  Pu  Pu5  1  0.750000  0.972523  0.719927  1
  Pu  Pu6  1  0.250000  0.033298  0.282275  1
  Pa  Pa7  1  0.250000  0.691083  0.545411  1
  Os  Os8  1  0.250000  0.724206  0.866178  1
  Os  Os9  1  0.750000  0.275508  0.134070  1
  Os  Os10  1  0.750000  0.776049  0.367039  1
  Os  Os11  1  0.250000  0.219969  0.632361  1
  C  C12  1  0.250000  0.463301  0.754152  1
  C  C13  1  0.750000  0.535214  0.245347  1
  C  C14  1  0.750000  0.033009  0.254212  1
  C  C15  1  0.250000  0.966097  0.746169  1
  C  C16  1  0.250000  0.832875  0.056804  1
  C  C17  1  0.750000  0.167614  0.942760  1
  C  C18  1  0.750000  0.661459  0.560444  1
  C  C19  1  0.250000  0.344467  0.440620  1
