# generated using pymatgen
data_Ca4TbSn3H
_symmetry_space_group_name_H-M   'P 1'
_cell_length_a   9.41520049
_cell_length_b   9.41520106
_cell_length_c   9.41418158
_cell_angle_alpha   128.90401087
_cell_angle_beta   128.90401512
_cell_angle_gamma   75.17312976
_symmetry_Int_Tables_number   1
_chemical_formula_structural   Ca4TbSn3H
_chemical_formula_sum   'Ca8 Tb2 Sn6 H2'
_cell_volume   491.99030421
_cell_formula_units_Z   2
loop_
 _symmetry_equiv_pos_site_id
 _symmetry_equiv_pos_as_xyz
  1  'x, y, z'
loop_
 _atom_site_type_symbol
 _atom_site_label
 _atom_site_symmetry_multiplicity
 _atom_site_fract_x
 _atom_site_fract_y
 _atom_site_fract_z
 _atom_site_occupancy
  Ca  Ca0  1  0.500675  0.500675  0.000000  1
  Ca  Ca1  1  0.000675  0.000675  0.000000  1
  Ca  Ca2  1  0.008326  0.186233  0.500000  1
  Ca  Ca3  1  0.686233  0.508326  0.500000  1
  Ca  Ca4  1  0.489204  0.989204  0.178627  1
  Ca  Ca5  1  0.810577  0.310577  0.821373  1
  Ca  Ca6  1  0.987998  0.812364  0.500000  1
  Ca  Ca7  1  0.312364  0.487998  0.500000  1
  Tb  Tb8  1  0.517222  0.017222  0.829399  1
  Tb  Tb9  1  0.187823  0.687823  0.170601  1
  Sn  Sn10  1  0.253938  0.253938  0.000000  1
  Sn  Sn11  1  0.753938  0.753938  0.000000  1
  Sn  Sn12  1  0.869090  0.369090  0.241446  1
  Sn  Sn13  1  0.127645  0.627645  0.758554  1
  Sn  Sn14  1  0.366129  0.122267  0.500000  1
  Sn  Sn15  1  0.622267  0.866129  0.500000  1
  H  H16  1  0.258051  0.758051  0.500000  1
  H  H17  1  0.747845  0.247845  0.500000  1
