# generated using pymatgen
data_VTcIr6
_symmetry_space_group_name_H-M   'P 1'
_cell_length_a   5.48991000
_cell_length_b   5.48991178
_cell_length_c   4.38445900
_cell_angle_alpha   90.00000000
_cell_angle_beta   90.00000000
_cell_angle_gamma   120.00000134
_symmetry_Int_Tables_number   1
_chemical_formula_structural   VTcIr6
_chemical_formula_sum   'V1 Tc1 Ir6'
_cell_volume   114.43983668
_cell_formula_units_Z   1
loop_
 _symmetry_equiv_pos_site_id
 _symmetry_equiv_pos_as_xyz
  1  'x, y, z'
loop_
 _atom_site_type_symbol
 _atom_site_label
 _atom_site_symmetry_multiplicity
 _atom_site_fract_x
 _atom_site_fract_y
 _atom_site_fract_z
 _atom_site_occupancy
  V  V0  1  0.666667  0.333333  0.250000  1
  Tc  Tc1  1  0.333333  0.666667  0.750000  1
  Ir  Ir2  1  0.167558  0.335115  0.250000  1
  Ir  Ir3  1  0.664885  0.832442  0.250000  1
  Ir  Ir4  1  0.167558  0.832442  0.250000  1
  Ir  Ir5  1  0.832754  0.665510  0.750000  1
  Ir  Ir6  1  0.334490  0.167246  0.750000  1
  Ir  Ir7  1  0.832754  0.167246  0.750000  1
