# generated using pymatgen
data_Ho4In2HgAu3
_symmetry_space_group_name_H-M   'P 1'
_cell_length_a   8.04732448
_cell_length_b   8.04732448
_cell_length_c   3.72348200
_cell_angle_alpha   90.00000000
_cell_angle_beta   90.00000000
_cell_angle_gamma   89.75443603
_symmetry_Int_Tables_number   1
_chemical_formula_structural   Ho4In2HgAu3
_chemical_formula_sum   'Ho4 In2 Hg1 Au3'
_cell_volume   241.12836193
_cell_formula_units_Z   1
loop_
 _symmetry_equiv_pos_site_id
 _symmetry_equiv_pos_as_xyz
  1  'x, y, z'
loop_
 _atom_site_type_symbol
 _atom_site_label
 _atom_site_symmetry_multiplicity
 _atom_site_fract_x
 _atom_site_fract_y
 _atom_site_fract_z
 _atom_site_occupancy
  Ho  Ho0  1  0.671226  0.171226  0.500000  1
  Ho  Ho1  1  0.340027  0.840027  0.500000  1
  Ho  Ho2  1  0.164688  0.318430  0.500000  1
  Ho  Ho3  1  0.818430  0.664688  0.500000  1
  In  In4  1  0.502492  0.497747  0.000000  1
  In  In5  1  0.997747  0.002492  0.000000  1
  Hg  Hg6  1  0.129735  0.629735  0.000000  1
  Au  Au7  1  0.871514  0.371514  0.000000  1
  Au  Au8  1  0.630914  0.873226  0.000000  1
  Au  Au9  1  0.373226  0.130914  0.000000  1
