# generated using pymatgen
data_Si6MoPt4W
_symmetry_space_group_name_H-M   'P 1'
_cell_length_a   3.52872500
_cell_length_b   5.52866218
_cell_length_c   9.24107529
_cell_angle_alpha   90.02895496
_cell_angle_beta   90.00000000
_cell_angle_gamma   90.00000000
_symmetry_Int_Tables_number   1
_chemical_formula_structural   Si6MoPt4W
_chemical_formula_sum   'Si6 Mo1 Pt4 W1'
_cell_volume   180.28530182
_cell_formula_units_Z   1
loop_
 _symmetry_equiv_pos_site_id
 _symmetry_equiv_pos_as_xyz
  1  'x, y, z'
loop_
 _atom_site_type_symbol
 _atom_site_label
 _atom_site_symmetry_multiplicity
 _atom_site_fract_x
 _atom_site_fract_y
 _atom_site_fract_z
 _atom_site_occupancy
  Si  Si0  1  0.500000  0.174271  0.434745  1
  Si  Si1  1  0.500000  0.183225  0.778474  1
  Si  Si2  1  0.000000  0.343524  0.126193  1
  Si  Si3  1  0.500000  0.671770  0.564299  1
  Si  Si4  1  0.500000  0.684096  0.222082  1
  Si  Si5  1  0.000000  0.844044  0.874110  1
  Mo  Mo6  1  0.000000  0.500057  0.395522  1
  Pt  Pt7  1  0.000000  0.999396  0.285939  1
  Pt  Pt8  1  0.500000  0.001180  0.030837  1
  Pt  Pt9  1  0.000000  0.499503  0.713987  1
  Pt  Pt10  1  0.500000  0.501432  0.969347  1
  W  W11  1  0.000000  0.000103  0.604464  1
