# generated using pymatgen
data_Y3Tm2B4P8Ir19
_symmetry_space_group_name_H-M   'P 1'
_cell_length_a   12.42296631
_cell_length_b   12.38980580
_cell_length_c   3.95906300
_cell_angle_alpha   90.00000000
_cell_angle_beta   90.00000000
_cell_angle_gamma   119.66234013
_symmetry_Int_Tables_number   1
_chemical_formula_structural   Y3Tm2B4P8Ir19
_chemical_formula_sum   'Y3 Tm2 B4 P8 Ir19'
_cell_volume   529.51772081
_cell_formula_units_Z   1
loop_
 _symmetry_equiv_pos_site_id
 _symmetry_equiv_pos_as_xyz
  1  'x, y, z'
loop_
 _atom_site_type_symbol
 _atom_site_label
 _atom_site_symmetry_multiplicity
 _atom_site_fract_x
 _atom_site_fract_y
 _atom_site_fract_z
 _atom_site_occupancy
  Y  Y0  1  0.183239  0.187992  0.000000  1
  Y  Y1  1  0.814652  0.002841  0.000000  1
  Y  Y2  1  0.001625  0.815403  0.000000  1
  Tm  Tm3  1  0.332702  0.666643  0.500000  1
  Tm  Tm4  1  0.674949  0.331092  0.500000  1
  B  B5  1  0.304815  0.814755  0.000000  1
  B  B6  1  0.178679  0.487492  0.000000  1
  B  B7  1  0.509920  0.692462  0.000000  1
  B  B8  1  0.822931  0.302677  0.000000  1
  P  P9  1  0.487045  0.174369  0.000000  1
  P  P10  1  0.692868  0.513414  0.000000  1
  P  P11  1  0.359172  0.365116  0.500000  1
  P  P12  1  0.639631  0.001041  0.500000  1
  P  P13  1  0.006232  0.639596  0.500000  1
  P  P14  1  0.815952  0.819522  0.500000  1
  P  P15  1  0.181023  0.998583  0.500000  1
  P  P16  1  0.002285  0.186499  0.500000  1
  Ir  Ir17  1  0.200633  0.817940  0.500000  1
  Ir  Ir18  1  0.182051  0.383488  0.500000  1
  Ir  Ir19  1  0.618320  0.803085  0.500000  1
  Ir  Ir20  1  0.821610  0.202177  0.500000  1
  Ir  Ir21  1  0.377064  0.181701  0.500000  1
  Ir  Ir22  1  0.806154  0.622406  0.500000  1
  Ir  Ir23  1  0.135355  0.637203  0.000000  1
  Ir  Ir24  1  0.360012  0.501381  0.000000  1
  Ir  Ir25  1  0.496237  0.858453  0.000000  1
  Ir  Ir26  1  0.642570  0.130056  0.000000  1
  Ir  Ir27  1  0.491558  0.363948  0.000000  1
  Ir  Ir28  1  0.868728  0.496636  0.000000  1
  Ir  Ir29  1  0.539243  0.549183  0.500000  1
  Ir  Ir30  1  0.453890  0.994835  0.500000  1
  Ir  Ir31  1  0.003285  0.455765  0.500000  1
  Ir  Ir32  1  0.701043  0.706705  0.000000  1
  Ir  Ir33  1  0.293262  0.994412  0.000000  1
  Ir  Ir34  1  0.001967  0.300359  0.000000  1
  Ir  Ir35  1  0.999294  0.000772  0.500000  1
