# generated using pymatgen
data_Zr4InTc24
_symmetry_space_group_name_H-M   'P 1'
_cell_length_a   8.42497887
_cell_length_b   8.42497869
_cell_length_c   8.42497800
_cell_angle_alpha   109.47122620
_cell_angle_beta   109.47122576
_cell_angle_gamma   109.47121594
_symmetry_Int_Tables_number   1
_chemical_formula_structural   Zr4InTc24
_chemical_formula_sum   'Zr4 In1 Tc24'
_cell_volume   460.34611633
_cell_formula_units_Z   1
loop_
 _symmetry_equiv_pos_site_id
 _symmetry_equiv_pos_as_xyz
  1  'x, y, z'
loop_
 _atom_site_type_symbol
 _atom_site_label
 _atom_site_symmetry_multiplicity
 _atom_site_fract_x
 _atom_site_fract_y
 _atom_site_fract_z
 _atom_site_occupancy
  Zr  Zr0  1  0.627871  0.000000  0.000000  1
  Zr  Zr1  1  0.000000  0.627871  0.000000  1
  Zr  Zr2  1  0.000000  0.000000  0.627871  1
  Zr  Zr3  1  0.372129  0.372129  0.372129  1
  In  In4  1  0.000000  0.000000  0.000000  1
  Tc  Tc5  1  0.392520  0.673144  0.000000  1
  Tc  Tc6  1  0.719376  0.326856  0.326856  1
  Tc  Tc7  1  0.392520  0.000000  0.673144  1
  Tc  Tc8  1  0.673144  0.392520  0.000000  1
  Tc  Tc9  1  0.000000  0.392520  0.673144  1
  Tc  Tc10  1  0.326856  0.719376  0.326856  1
  Tc  Tc11  1  0.326856  0.326856  0.719376  1
  Tc  Tc12  1  0.000000  0.673144  0.392520  1
  Tc  Tc13  1  0.673144  0.000000  0.392520  1
  Tc  Tc14  1  0.607480  0.607480  0.280624  1
  Tc  Tc15  1  0.280624  0.607480  0.607480  1
  Tc  Tc16  1  0.607480  0.280624  0.607480  1
  Tc  Tc17  1  0.375130  0.194488  0.000000  1
  Tc  Tc18  1  0.180642  0.805512  0.805512  1
  Tc  Tc19  1  0.375130  0.000000  0.194488  1
  Tc  Tc20  1  0.194488  0.375130  0.000000  1
  Tc  Tc21  1  0.000000  0.375130  0.194488  1
  Tc  Tc22  1  0.805512  0.180642  0.805512  1
  Tc  Tc23  1  0.805512  0.805512  0.180642  1
  Tc  Tc24  1  0.000000  0.194488  0.375130  1
  Tc  Tc25  1  0.194488  0.000000  0.375130  1
  Tc  Tc26  1  0.624870  0.624870  0.819358  1
  Tc  Tc27  1  0.819358  0.624870  0.624870  1
  Tc  Tc28  1  0.624870  0.819358  0.624870  1
