# generated using pymatgen
data_TmSc5(Be2Rh5)2
_symmetry_space_group_name_H-M   'P 1'
_cell_length_a   9.56664522
_cell_length_b   9.56664522
_cell_length_c   3.23464700
_cell_angle_alpha   90.00000000
_cell_angle_beta   90.00000000
_cell_angle_gamma   89.77633021
_symmetry_Int_Tables_number   1
_chemical_formula_structural   TmSc5(Be2Rh5)2
_chemical_formula_sum   'Tm1 Sc5 Be4 Rh10'
_cell_volume   296.03490468
_cell_formula_units_Z   1
loop_
 _symmetry_equiv_pos_site_id
 _symmetry_equiv_pos_as_xyz
  1  'x, y, z'
loop_
 _atom_site_type_symbol
 _atom_site_label
 _atom_site_symmetry_multiplicity
 _atom_site_fract_x
 _atom_site_fract_y
 _atom_site_fract_z
 _atom_site_occupancy
  Tm  Tm0  1  0.825051  0.325051  0.000000  1
  Sc  Sc1  1  0.325276  0.174542  0.000000  1
  Sc  Sc2  1  0.674542  0.825276  0.000000  1
  Sc  Sc3  1  0.175553  0.675553  0.000000  1
  Sc  Sc4  1  0.000866  0.999286  0.000000  1
  Sc  Sc5  1  0.499286  0.500866  0.000000  1
  Be  Be6  1  0.619817  0.119817  0.000000  1
  Be  Be7  1  0.125364  0.378274  0.000000  1
  Be  Be8  1  0.878274  0.625364  0.000000  1
  Be  Be9  1  0.376548  0.876548  0.000000  1
  Rh  Rh10  1  0.075498  0.215078  0.500000  1
  Rh  Rh11  1  0.215535  0.928525  0.500000  1
  Rh  Rh12  1  0.781876  0.065903  0.500000  1
  Rh  Rh13  1  0.928921  0.786039  0.500000  1
  Rh  Rh14  1  0.428525  0.715535  0.500000  1
  Rh  Rh15  1  0.565903  0.281876  0.500000  1
  Rh  Rh16  1  0.715078  0.575498  0.500000  1
  Rh  Rh17  1  0.286039  0.428921  0.500000  1
  Rh  Rh18  1  0.498340  0.998340  0.500000  1
  Rh  Rh19  1  0.003709  0.503709  0.500000  1
