# generated using pymatgen
data_La6Al24Ir3Os5
_symmetry_space_group_name_H-M   'P 1'
_cell_length_a   8.97075250
_cell_length_b   8.95268985
_cell_length_c   9.71441104
_cell_angle_alpha   90.20509098
_cell_angle_beta   89.99433886
_cell_angle_gamma   119.83146257
_symmetry_Int_Tables_number   1
_chemical_formula_structural   La6Al24Ir3Os5
_chemical_formula_sum   'La6 Al24 Ir3 Os5'
_cell_volume   676.80098271
_cell_formula_units_Z   1
loop_
 _symmetry_equiv_pos_site_id
 _symmetry_equiv_pos_as_xyz
  1  'x, y, z'
loop_
 _atom_site_type_symbol
 _atom_site_label
 _atom_site_symmetry_multiplicity
 _atom_site_fract_x
 _atom_site_fract_y
 _atom_site_fract_z
 _atom_site_occupancy
  La  La0  1  0.188273  0.384537  0.250593  1
  La  La1  1  0.811727  0.615463  0.749407  1
  La  La2  1  0.618068  0.811280  0.251076  1
  La  La3  1  0.381932  0.188720  0.748924  1
  La  La4  1  0.191008  0.805369  0.251217  1
  La  La5  1  0.808992  0.194631  0.748783  1
  Al  Al6  1  0.331896  0.665899  0.005068  1
  Al  Al7  1  0.668104  0.334101  0.994932  1
  Al  Al8  1  0.667466  0.332722  0.503894  1
  Al  Al9  1  0.332534  0.667278  0.496106  1
  Al  Al10  1  0.161797  0.325577  0.575652  1
  Al  Al11  1  0.838203  0.674423  0.424348  1
  Al  Al12  1  0.675086  0.838280  0.576116  1
  Al  Al13  1  0.838604  0.674960  0.075484  1
  Al  Al14  1  0.324914  0.161720  0.423884  1
  Al  Al15  1  0.161396  0.325040  0.924516  1
  Al  Al16  1  0.162770  0.836591  0.575464  1
  Al  Al17  1  0.324428  0.162086  0.076049  1
  Al  Al18  1  0.837230  0.163409  0.424536  1
  Al  Al19  1  0.675572  0.837914  0.923951  1
  Al  Al20  1  0.838047  0.163806  0.074890  1
  Al  Al21  1  0.161953  0.836194  0.925110  1
  Al  Al22  1  0.563222  0.128051  0.250645  1
  Al  Al23  1  0.436778  0.871949  0.749355  1
  Al  Al24  1  0.871167  0.436111  0.249409  1
  Al  Al25  1  0.128833  0.563889  0.750591  1
  Al  Al26  1  0.563148  0.436270  0.249440  1
  Al  Al27  1  0.436852  0.563730  0.750560  1
  Al  Al28  1  0.000490  0.000277  0.250066  1
  Al  Al29  1  0.999510  0.999723  0.749934  1
  Ir  Ir30  1  0.500000  0.000000  0.000000  1
  Ir  Ir31  1  0.500000  0.500000  0.000000  1
  Ir  Ir32  1  0.500000  0.500000  0.500000  1
  Os  Os33  1  0.000000  0.500000  0.000000  1
  Os  Os34  1  0.500000  0.000000  0.500000  1
  Os  Os35  1  0.000000  0.500000  0.500000  1
  Os  Os36  1  0.000000  0.000000  0.000000  1
  Os  Os37  1  0.000000  0.000000  0.500000  1
