# generated using pymatgen
data_LaSmNpO6
_symmetry_space_group_name_H-M   'P 1'
_cell_length_a   5.75385200
_cell_length_b   8.05970162
_cell_length_c   12.10050416
_cell_angle_alpha   74.86671407
_cell_angle_beta   90.00000000
_cell_angle_gamma   90.00000000
_symmetry_Int_Tables_number   1
_chemical_formula_structural   LaSmNpO6
_chemical_formula_sum   'La4 Sm4 Np4 O24'
_cell_volume   541.69263113
_cell_formula_units_Z   4
loop_
 _symmetry_equiv_pos_site_id
 _symmetry_equiv_pos_as_xyz
  1  'x, y, z'
loop_
 _atom_site_type_symbol
 _atom_site_label
 _atom_site_symmetry_multiplicity
 _atom_site_fract_x
 _atom_site_fract_y
 _atom_site_fract_z
 _atom_site_occupancy
  La  La0  1  0.743885  0.000000  0.750000  1
  La  La1  1  0.256115  0.000000  0.250000  1
  La  La2  1  0.693455  0.500000  0.750000  1
  La  La3  1  0.306545  0.500000  0.250000  1
  Sm  Sm4  1  0.187945  0.793075  0.578734  1
  Sm  Sm5  1  0.812055  0.793075  0.078734  1
  Sm  Sm6  1  0.187945  0.206925  0.921266  1
  Sm  Sm7  1  0.812055  0.206925  0.421266  1
  Np  Np8  1  0.253077  0.722614  0.886893  1
  Np  Np9  1  0.746923  0.722614  0.386893  1
  Np  Np10  1  0.253077  0.277386  0.613107  1
  Np  Np11  1  0.746923  0.277386  0.113107  1
  O  O12  1  0.051071  0.940265  0.898627  1
  O  O13  1  0.542317  0.843489  0.934566  1
  O  O14  1  0.948929  0.940265  0.398627  1
  O  O15  1  0.441253  0.794755  0.730929  1
  O  O16  1  0.457683  0.843489  0.434566  1
  O  O17  1  0.974439  0.714056  0.768516  1
  O  O18  1  0.558747  0.794755  0.230929  1
  O  O19  1  0.874096  0.632495  0.549420  1
  O  O20  1  0.376707  0.487578  0.886144  1
  O  O21  1  0.025561  0.714056  0.268516  1
  O  O22  1  0.376707  0.512422  0.613856  1
  O  O23  1  0.874096  0.367505  0.950580  1
  O  O24  1  0.125904  0.632495  0.049420  1
  O  O25  1  0.623293  0.487578  0.386144  1
  O  O26  1  0.974439  0.285944  0.731484  1
  O  O27  1  0.623293  0.512422  0.113856  1
  O  O28  1  0.125904  0.367505  0.450580  1
  O  O29  1  0.441253  0.205245  0.769071  1
  O  O30  1  0.025561  0.285944  0.231484  1
  O  O31  1  0.542317  0.156511  0.565434  1
  O  O32  1  0.558747  0.205245  0.269071  1
  O  O33  1  0.051071  0.059735  0.601373  1
  O  O34  1  0.457683  0.156511  0.065434  1
  O  O35  1  0.948929  0.059735  0.101373  1
