# generated using pymatgen
data_Y9HoAlSb5
_symmetry_space_group_name_H-M   'P 1'
_cell_length_a   6.40101001
_cell_length_b   8.93144459
_cell_length_c   8.92139917
_cell_angle_alpha   120.04109748
_cell_angle_beta   90.00369266
_cell_angle_gamma   90.00246360
_symmetry_Int_Tables_number   1
_chemical_formula_structural   Y9HoAlSb5
_chemical_formula_sum   'Y9 Ho1 Al1 Sb5'
_cell_volume   441.52349007
_cell_formula_units_Z   1
loop_
 _symmetry_equiv_pos_site_id
 _symmetry_equiv_pos_as_xyz
  1  'x, y, z'
loop_
 _atom_site_type_symbol
 _atom_site_label
 _atom_site_symmetry_multiplicity
 _atom_site_fract_x
 _atom_site_fract_y
 _atom_site_fract_z
 _atom_site_occupancy
  Y  Y0  1  0.500888  0.665382  0.327469  1
  Y  Y1  1  0.999047  0.665317  0.327325  1
  Y  Y2  1  0.999073  0.337965  0.672547  1
  Y  Y3  1  0.749944  0.247950  0.999927  1
  Y  Y4  1  0.749902  0.752980  0.761956  1
  Y  Y5  1  0.749917  0.991129  0.238021  1
  Y  Y6  1  0.250091  0.756739  0.999895  1
  Y  Y7  1  0.250034  0.246267  0.245244  1
  Y  Y8  1  0.250017  0.001017  0.754747  1
  Ho  Ho9  1  0.501075  0.338345  0.672919  1
  Al  Al10  1  0.749543  0.604114  0.999613  1
  Sb  Sb11  1  0.749584  0.387832  0.389906  1
  Sb  Sb12  1  0.749635  0.998671  0.610435  1
  Sb  Sb13  1  0.250472  0.392018  0.999608  1
  Sb  Sb14  1  0.250367  0.611296  0.608999  1
  Sb  Sb15  1  0.250412  0.002980  0.391388  1
