# generated using pymatgen
data_NdHo5Zn4Pt13
_symmetry_space_group_name_H-M   'P 1'
_cell_length_a   8.26905765
_cell_length_b   8.26905880
_cell_length_c   8.26905742
_cell_angle_alpha   109.37680531
_cell_angle_beta   109.51844983
_cell_angle_gamma   109.51844859
_symmetry_Int_Tables_number   1
_chemical_formula_structural   NdHo5Zn4Pt13
_chemical_formula_sum   'Nd1 Ho5 Zn4 Pt13'
_cell_volume   435.25656433
_cell_formula_units_Z   1
loop_
 _symmetry_equiv_pos_site_id
 _symmetry_equiv_pos_as_xyz
  1  'x, y, z'
loop_
 _atom_site_type_symbol
 _atom_site_label
 _atom_site_symmetry_multiplicity
 _atom_site_fract_x
 _atom_site_fract_y
 _atom_site_fract_z
 _atom_site_occupancy
  Nd  Nd0  1  0.000000  0.704012  0.704012  1
  Ho  Ho1  1  0.698563  0.698687  0.000125  1
  Ho  Ho2  1  0.301437  0.000125  0.301561  1
  Ho  Ho3  1  0.000000  0.305237  0.305237  1
  Ho  Ho4  1  0.301437  0.301561  0.000125  1
  Ho  Ho5  1  0.698563  0.000125  0.698687  1
  Zn  Zn6  1  0.000000  0.999666  0.496014  1
  Zn  Zn7  1  0.000000  0.496014  0.999666  1
  Zn  Zn8  1  0.503651  0.999666  0.999666  1
  Zn  Zn9  1  0.496349  0.496014  0.496014  1
  Pt  Pt10  1  0.333943  0.333807  0.667751  1
  Pt  Pt11  1  0.666057  0.999865  0.333807  1
  Pt  Pt12  1  0.000000  0.669198  0.328741  1
  Pt  Pt13  1  0.666057  0.333807  0.999865  1
  Pt  Pt14  1  0.333943  0.667751  0.333807  1
  Pt  Pt15  1  0.000000  0.328741  0.669198  1
  Pt  Pt16  1  0.336081  0.664421  0.000501  1
  Pt  Pt17  1  0.336081  0.000501  0.664421  1
  Pt  Pt18  1  0.659543  0.328741  0.328741  1
  Pt  Pt19  1  0.663919  0.664421  0.328340  1
  Pt  Pt20  1  0.663919  0.328340  0.664421  1
  Pt  Pt21  1  0.340457  0.669198  0.669198  1
  Pt  Pt22  1  0.000000  0.010103  0.010103  1
