# generated using pymatgen
data_Eu2PuCdO7
_symmetry_space_group_name_H-M   'P 1'
_cell_length_a   6.83013000
_cell_length_b   6.62212760
_cell_length_c   7.89644700
_cell_angle_alpha   90.00000000
_cell_angle_beta   90.00000000
_cell_angle_gamma   112.57465469
_symmetry_Int_Tables_number   1
_chemical_formula_structural   Eu2PuCdO7
_chemical_formula_sum   'Eu4 Pu2 Cd2 O14'
_cell_volume   329.79097079
_cell_formula_units_Z   2
loop_
 _symmetry_equiv_pos_site_id
 _symmetry_equiv_pos_as_xyz
  1  'x, y, z'
loop_
 _atom_site_type_symbol
 _atom_site_label
 _atom_site_symmetry_multiplicity
 _atom_site_fract_x
 _atom_site_fract_y
 _atom_site_fract_z
 _atom_site_occupancy
  Eu  Eu0  1  0.506835  0.039334  0.250000  1
  Eu  Eu1  1  0.493165  0.960666  0.750000  1
  Eu  Eu2  1  0.000000  0.000000  0.000000  1
  Eu  Eu3  1  0.000000  0.000000  0.500000  1
  Pu  Pu4  1  0.500000  0.500000  0.000000  1
  Pu  Pu5  1  0.500000  0.500000  0.500000  1
  Cd  Cd6  1  0.007884  0.512714  0.250000  1
  Cd  Cd7  1  0.992116  0.487286  0.750000  1
  O  O8  1  0.520463  0.409716  0.250000  1
  O  O9  1  0.479537  0.590284  0.750000  1
  O  O10  1  0.872409  0.155521  0.250000  1
  O  O11  1  0.127591  0.844479  0.750000  1
  O  O12  1  0.134372  0.870830  0.250000  1
  O  O13  1  0.865628  0.129170  0.750000  1
  O  O14  1  0.805691  0.572153  0.984769  1
  O  O15  1  0.194309  0.427847  0.015231  1
  O  O16  1  0.194309  0.427847  0.484769  1
  O  O17  1  0.578910  0.826054  0.465474  1
  O  O18  1  0.805691  0.572153  0.515231  1
  O  O19  1  0.421090  0.173946  0.534526  1
  O  O20  1  0.421090  0.173946  0.965474  1
  O  O21  1  0.578910  0.826054  0.034526  1
