# generated using pymatgen
data_Pr17Tm3Si15Hg
_symmetry_space_group_name_H-M   'P 1'
_cell_length_a   7.92111599
_cell_length_b   7.88902469
_cell_length_c   15.19864046
_cell_angle_alpha   90.06065949
_cell_angle_beta   89.60367789
_cell_angle_gamma   89.94453587
_symmetry_Int_Tables_number   1
_chemical_formula_structural   Pr17Tm3Si15Hg
_chemical_formula_sum   'Pr17 Tm3 Si15 Hg1'
_cell_volume   949.73750683
_cell_formula_units_Z   1
loop_
 _symmetry_equiv_pos_site_id
 _symmetry_equiv_pos_as_xyz
  1  'x, y, z'
loop_
 _atom_site_type_symbol
 _atom_site_label
 _atom_site_symmetry_multiplicity
 _atom_site_fract_x
 _atom_site_fract_y
 _atom_site_fract_z
 _atom_site_occupancy
  Pr  Pr0  1  0.693670  0.691044  0.498253  1
  Pr  Pr1  1  0.372970  0.012805  0.448589  1
  Pr  Pr2  1  0.491666  0.870235  0.700043  1
  Pr  Pr3  1  0.510671  0.123820  0.197318  1
  Pr  Pr4  1  0.878555  0.488332  0.300109  1
  Pr  Pr5  1  0.119284  0.517343  0.803688  1
  Pr  Pr6  1  0.626838  0.987731  0.951053  1
  Pr  Pr7  1  0.001691  0.382130  0.547679  1
  Pr  Pr8  1  0.990655  0.625718  0.053198  1
  Pr  Pr9  1  0.130199  0.980219  0.879508  1
  Pr  Pr10  1  0.520536  0.629939  0.126720  1
  Pr  Pr11  1  0.483753  0.376581  0.627585  1
  Pr  Pr12  1  0.628565  0.521073  0.876187  1
  Pr  Pr13  1  0.374088  0.481019  0.370599  1
  Pr  Pr14  1  0.872731  0.020948  0.375861  1
  Pr  Pr15  1  0.982041  0.128219  0.123210  1
  Pr  Pr16  1  0.010853  0.860958  0.620645  1
  Tm  Tm17  1  0.310582  0.310691  0.999747  1
  Tm  Tm18  1  0.190553  0.811658  0.249582  1
  Tm  Tm19  1  0.799955  0.186735  0.753207  1
  Si  Si20  1  0.329140  0.690317  0.954911  1
  Si  Si21  1  0.663393  0.302572  0.451658  1
  Si  Si22  1  0.694137  0.330850  0.047180  1
  Si  Si23  1  0.306423  0.669536  0.544915  1
  Si  Si24  1  0.810771  0.830303  0.203777  1
  Si  Si25  1  0.171600  0.190985  0.296026  1
  Si  Si26  1  0.831640  0.809853  0.798035  1
  Si  Si27  1  0.286517  0.923561  0.063788  1
  Si  Si28  1  0.575317  0.789129  0.309167  1
  Si  Si29  1  0.437187  0.210011  0.818491  1
  Si  Si30  1  0.786526  0.573432  0.692495  1
  Si  Si31  1  0.214775  0.423027  0.186377  1
  Si  Si32  1  0.710467  0.081391  0.563351  1
  Si  Si33  1  0.924620  0.287697  0.937933  1
  Si  Si34  1  0.083145  0.714781  0.434151  1
  Hg  Hg35  1  0.184480  0.165359  0.694967  1
