# generated using pymatgen
data_Ba4CaSbO8
_symmetry_space_group_name_H-M   'P 1'
_cell_length_a   7.43342801
_cell_length_b   7.43342687
_cell_length_c   6.05988800
_cell_angle_alpha   90.00000000
_cell_angle_beta   90.00000000
_cell_angle_gamma   131.97477184
_symmetry_Int_Tables_number   1
_chemical_formula_structural   Ba4CaSbO8
_chemical_formula_sum   'Ba4 Ca1 Sb1 O8'
_cell_volume   248.93638206
_cell_formula_units_Z   1
loop_
 _symmetry_equiv_pos_site_id
 _symmetry_equiv_pos_as_xyz
  1  'x, y, z'
loop_
 _atom_site_type_symbol
 _atom_site_label
 _atom_site_symmetry_multiplicity
 _atom_site_fract_x
 _atom_site_fract_y
 _atom_site_fract_z
 _atom_site_occupancy
  Ba  Ba0  1  0.357381  0.642619  0.000000  1
  Ba  Ba1  1  0.855564  0.144436  0.500000  1
  Ba  Ba2  1  0.144436  0.855564  0.500000  1
  Ba  Ba3  1  0.642619  0.357381  0.000000  1
  Ca  Ca4  1  0.000000  0.000000  0.000000  1
  Sb  Sb5  1  0.500000  0.500000  0.500000  1
  O  O6  1  0.264498  0.264498  0.732602  1
  O  O7  1  0.735502  0.735502  0.267398  1
  O  O8  1  0.735502  0.735502  0.732602  1
  O  O9  1  0.264498  0.264498  0.267398  1
  O  O10  1  0.170097  0.829903  0.000000  1
  O  O11  1  0.652285  0.347715  0.500000  1
  O  O12  1  0.347715  0.652285  0.500000  1
  O  O13  1  0.829903  0.170097  0.000000  1
