# generated using pymatgen
data_PrEr2Ti(Co4P3)2
_symmetry_space_group_name_H-M   'P 1'
_cell_length_a   3.70548300
_cell_length_b   10.62199600
_cell_length_c   12.32127200
_cell_angle_alpha   90.00000000
_cell_angle_beta   90.00000000
_cell_angle_gamma   90.00000000
_symmetry_Int_Tables_number   1
_chemical_formula_structural   PrEr2Ti(Co4P3)2
_chemical_formula_sum   'Pr2 Er4 Ti2 Co16 P12'
_cell_volume   484.96065289
_cell_formula_units_Z   2
loop_
 _symmetry_equiv_pos_site_id
 _symmetry_equiv_pos_as_xyz
  1  'x, y, z'
loop_
 _atom_site_type_symbol
 _atom_site_label
 _atom_site_symmetry_multiplicity
 _atom_site_fract_x
 _atom_site_fract_y
 _atom_site_fract_z
 _atom_site_occupancy
  Pr  Pr0  1  0.750000  0.250000  0.474232  1
  Pr  Pr1  1  0.250000  0.750000  0.525768  1
  Er  Er2  1  0.250000  0.930224  0.797345  1
  Er  Er3  1  0.250000  0.569776  0.797345  1
  Er  Er4  1  0.750000  0.069776  0.202655  1
  Er  Er5  1  0.750000  0.430224  0.202655  1
  Ti  Ti6  1  0.250000  0.250000  0.850374  1
  Ti  Ti7  1  0.750000  0.750000  0.149626  1
  Co  Co8  1  0.250000  0.250000  0.292819  1
  Co  Co9  1  0.750000  0.750000  0.707181  1
  Co  Co10  1  0.750000  0.250000  0.013464  1
  Co  Co11  1  0.250000  0.750000  0.986536  1
  Co  Co12  1  0.250000  0.418074  0.006213  1
  Co  Co13  1  0.250000  0.081926  0.006213  1
  Co  Co14  1  0.750000  0.581926  0.993787  1
  Co  Co15  1  0.750000  0.918074  0.993787  1
  Co  Co16  1  0.250000  0.454775  0.570181  1
  Co  Co17  1  0.250000  0.045225  0.570181  1
  Co  Co18  1  0.750000  0.545225  0.429819  1
  Co  Co19  1  0.750000  0.954775  0.429819  1
  Co  Co20  1  0.250000  0.871457  0.289971  1
  Co  Co21  1  0.250000  0.628543  0.289971  1
  Co  Co22  1  0.750000  0.128543  0.710029  1
  Co  Co23  1  0.750000  0.371457  0.710029  1
  P  P24  1  0.250000  0.250000  0.116024  1
  P  P25  1  0.750000  0.750000  0.883976  1
  P  P26  1  0.250000  0.250000  0.652679  1
  P  P27  1  0.750000  0.750000  0.347321  1
  P  P28  1  0.250000  0.442959  0.381451  1
  P  P29  1  0.250000  0.057041  0.381451  1
  P  P30  1  0.750000  0.557041  0.618549  1
  P  P31  1  0.750000  0.942959  0.618549  1
  P  P32  1  0.250000  0.907530  0.106883  1
  P  P33  1  0.250000  0.592470  0.106883  1
  P  P34  1  0.750000  0.092470  0.893117  1
  P  P35  1  0.750000  0.407530  0.893117  1
