# generated using pymatgen
data_TbHo7Cd2(SnAu4)2
_symmetry_space_group_name_H-M   'P 1'
_cell_length_a   8.00248210
_cell_length_b   8.00248210
_cell_length_c   7.33224213
_cell_angle_alpha   89.98447890
_cell_angle_beta   89.98447890
_cell_angle_gamma   90.09966269
_symmetry_Int_Tables_number   1
_chemical_formula_structural   TbHo7Cd2(SnAu4)2
_chemical_formula_sum   'Tb1 Ho7 Cd2 Sn2 Au8'
_cell_volume   469.55398666
_cell_formula_units_Z   1
loop_
 _symmetry_equiv_pos_site_id
 _symmetry_equiv_pos_as_xyz
  1  'x, y, z'
loop_
 _atom_site_type_symbol
 _atom_site_label
 _atom_site_symmetry_multiplicity
 _atom_site_fract_x
 _atom_site_fract_y
 _atom_site_fract_z
 _atom_site_occupancy
  Tb  Tb0  1  0.840384  0.159616  0.500000  1
  Ho  Ho1  1  0.159336  0.840664  0.500000  1
  Ho  Ho2  1  0.340298  0.341309  0.999994  1
  Ho  Ho3  1  0.658691  0.659702  0.000006  1
  Ho  Ho4  1  0.681409  0.681299  0.499943  1
  Ho  Ho5  1  0.318701  0.318591  0.500057  1
  Ho  Ho6  1  0.181779  0.818221  0.000000  1
  Ho  Ho7  1  0.818943  0.181057  0.000000  1
  Cd  Cd8  1  0.500056  0.999952  0.250003  1
  Cd  Cd9  1  0.000048  0.499944  0.749997  1
  Sn  Sn10  1  0.500045  0.999925  0.749910  1
  Sn  Sn11  1  0.000075  0.499955  0.250090  1
  Au  Au12  1  0.624009  0.368834  0.270198  1
  Au  Au13  1  0.374848  0.632340  0.272442  1
  Au  Au14  1  0.125839  0.131587  0.772847  1
  Au  Au15  1  0.875542  0.867241  0.772897  1
  Au  Au16  1  0.367660  0.625152  0.727558  1
  Au  Au17  1  0.631166  0.375991  0.729802  1
  Au  Au18  1  0.868413  0.874161  0.227153  1
  Au  Au19  1  0.132759  0.124458  0.227103  1
