# generated using pymatgen
data_YEr9(SnBi)3
_symmetry_space_group_name_H-M   'P 1'
_cell_length_a   8.99337101
_cell_length_b   9.01701892
_cell_length_c   6.42730900
_cell_angle_alpha   90.00000000
_cell_angle_beta   90.00000000
_cell_angle_gamma   119.87460686
_symmetry_Int_Tables_number   1
_chemical_formula_structural   YEr9(SnBi)3
_chemical_formula_sum   'Y1 Er9 Sn3 Bi3'
_cell_volume   451.95236899
_cell_formula_units_Z   1
loop_
 _symmetry_equiv_pos_site_id
 _symmetry_equiv_pos_as_xyz
  1  'x, y, z'
loop_
 _atom_site_type_symbol
 _atom_site_label
 _atom_site_symmetry_multiplicity
 _atom_site_fract_x
 _atom_site_fract_y
 _atom_site_fract_z
 _atom_site_occupancy
  Y  Y0  1  0.235746  0.999634  0.250000  1
  Er  Er1  1  0.759583  0.753765  0.250000  1
  Er  Er2  1  0.005385  0.245761  0.250000  1
  Er  Er3  1  0.766043  0.006125  0.750000  1
  Er  Er4  1  0.325225  0.658738  0.498414  1
  Er  Er5  1  0.672057  0.338205  0.498529  1
  Er  Er6  1  0.999707  0.755934  0.750000  1
  Er  Er7  1  0.325225  0.658738  0.001586  1
  Er  Er8  1  0.237203  0.243247  0.750000  1
  Er  Er9  1  0.672057  0.338205  0.001471  1
  Sn  Sn10  1  0.997826  0.393252  0.750000  1
  Sn  Sn11  1  0.393891  0.391477  0.250000  1
  Sn  Sn12  1  0.000528  0.606949  0.250000  1
  Bi  Bi13  1  0.608424  0.611187  0.750000  1
  Bi  Bi14  1  0.392067  0.000423  0.750000  1
  Bi  Bi15  1  0.609033  0.998361  0.250000  1
