# generated using pymatgen
data_Eu2TcH6
_symmetry_space_group_name_H-M   'P 1'
_cell_length_a   5.26060649
_cell_length_b   5.26060611
_cell_length_c   5.26060600
_cell_angle_alpha   60.00000070
_cell_angle_beta   60.00000308
_cell_angle_gamma   60.00000330
_symmetry_Int_Tables_number   1
_chemical_formula_structural   Eu2TcH6
_chemical_formula_sum   'Eu2 Tc1 H6'
_cell_volume   102.94195287
_cell_formula_units_Z   1
loop_
 _symmetry_equiv_pos_site_id
 _symmetry_equiv_pos_as_xyz
  1  'x, y, z'
loop_
 _atom_site_type_symbol
 _atom_site_label
 _atom_site_symmetry_multiplicity
 _atom_site_fract_x
 _atom_site_fract_y
 _atom_site_fract_z
 _atom_site_occupancy
  Eu  Eu0  1  0.750000  0.750000  0.750000  1
  Eu  Eu1  1  0.250000  0.250000  0.250000  1
  Tc  Tc2  1  0.000000  0.000000  0.000000  1
  H  H3  1  0.760369  0.760369  0.239631  1
  H  H4  1  0.239631  0.760369  0.239631  1
  H  H5  1  0.760369  0.239631  0.239631  1
  H  H6  1  0.239631  0.239631  0.760369  1
  H  H7  1  0.760369  0.239631  0.760369  1
  H  H8  1  0.239631  0.760369  0.760369  1
