# generated using pymatgen
data_Tb3Tm4Co2Sn23Os4
_symmetry_space_group_name_H-M   'P 1'
_cell_length_a   9.77666490
_cell_length_b   9.84684415
_cell_length_c   10.04030978
_cell_angle_alpha   89.99999699
_cell_angle_beta   89.69409694
_cell_angle_gamma   120.23774312
_symmetry_Int_Tables_number   1
_chemical_formula_structural   Tb3Tm4Co2Sn23Os4
_chemical_formula_sum   'Tb3 Tm4 Co2 Sn23 Os4'
_cell_volume   835.04875188
_cell_formula_units_Z   1
loop_
 _symmetry_equiv_pos_site_id
 _symmetry_equiv_pos_as_xyz
  1  'x, y, z'
loop_
 _atom_site_type_symbol
 _atom_site_label
 _atom_site_symmetry_multiplicity
 _atom_site_fract_x
 _atom_site_fract_y
 _atom_site_fract_z
 _atom_site_occupancy
  Tb  Tb0  1  0.000000  0.000000  0.000000  1
  Tb  Tb1  1  0.034725  0.517362  0.304233  1
  Tb  Tb2  1  0.965275  0.482638  0.695767  1
  Tm  Tm3  1  0.485410  0.517866  0.304957  1
  Tm  Tm4  1  0.514590  0.482134  0.695043  1
  Tm  Tm5  1  0.485410  0.967544  0.304957  1
  Tm  Tm6  1  0.514590  0.032456  0.695043  1
  Co  Co7  1  0.339702  0.169851  0.200316  1
  Co  Co8  1  0.660298  0.830149  0.799684  1
  Sn  Sn9  1  0.349750  0.003281  0.005070  1
  Sn  Sn10  1  0.650250  0.996719  0.994930  1
  Sn  Sn11  1  0.000000  0.349451  0.000000  1
  Sn  Sn12  1  0.000000  0.650549  0.000000  1
  Sn  Sn13  1  0.650250  0.653531  0.994930  1
  Sn  Sn14  1  0.349750  0.346469  0.005070  1
  Sn  Sn15  1  0.336743  0.668372  0.822675  1
  Sn  Sn16  1  0.663257  0.331628  0.177325  1
  Sn  Sn17  1  0.000000  0.000000  0.500000  1
  Sn  Sn18  1  0.778303  0.219139  0.462338  1
  Sn  Sn19  1  0.221697  0.780861  0.537662  1
  Sn  Sn20  1  0.778303  0.559165  0.462338  1
  Sn  Sn21  1  0.221697  0.440835  0.537662  1
  Sn  Sn22  1  0.438214  0.219107  0.455447  1
  Sn  Sn23  1  0.561786  0.780893  0.544553  1
  Sn  Sn24  1  0.337772  0.668886  0.126193  1
  Sn  Sn25  1  0.662228  0.331114  0.873807  1
  Sn  Sn26  1  0.120841  0.889242  0.276630  1
  Sn  Sn27  1  0.879159  0.110758  0.723370  1
  Sn  Sn28  1  0.120841  0.231600  0.276630  1
  Sn  Sn29  1  0.879159  0.768400  0.723370  1
  Sn  Sn30  1  0.762948  0.881474  0.277990  1
  Sn  Sn31  1  0.237052  0.118526  0.722010  1
  Os  Os32  1  0.827793  0.167428  0.201256  1
  Os  Os33  1  0.172207  0.832572  0.798744  1
  Os  Os34  1  0.827793  0.660365  0.201256  1
  Os  Os35  1  0.172207  0.339635  0.798744  1
