# generated using pymatgen
data_Tb3U(MoN2)4
_symmetry_space_group_name_H-M   'P 1'
_cell_length_a   3.20687400
_cell_length_b   5.68084429
_cell_length_c   10.74581321
_cell_angle_alpha   89.50331137
_cell_angle_beta   90.00000000
_cell_angle_gamma   90.00000000
_symmetry_Int_Tables_number   1
_chemical_formula_structural   Tb3U(MoN2)4
_chemical_formula_sum   'Tb3 U1 Mo4 N8'
_cell_volume   195.75720270
_cell_formula_units_Z   1
loop_
 _symmetry_equiv_pos_site_id
 _symmetry_equiv_pos_as_xyz
  1  'x, y, z'
loop_
 _atom_site_type_symbol
 _atom_site_label
 _atom_site_symmetry_multiplicity
 _atom_site_fract_x
 _atom_site_fract_y
 _atom_site_fract_z
 _atom_site_occupancy
  Tb  Tb0  1  0.250000  0.574058  0.643847  1
  Tb  Tb1  1  0.750000  0.923237  0.150327  1
  Tb  Tb2  1  0.750000  0.421954  0.352222  1
  U  U3  1  0.250000  0.072736  0.856084  1
  Mo  Mo4  1  0.250000  0.437632  0.096055  1
  Mo  Mo5  1  0.250000  0.932589  0.406226  1
  Mo  Mo6  1  0.750000  0.570468  0.899489  1
  Mo  Mo7  1  0.750000  0.065592  0.590711  1
  N  N8  1  0.250000  0.167112  0.247648  1
  N  N9  1  0.250000  0.666660  0.252935  1
  N  N10  1  0.750000  0.843796  0.754995  1
  N  N11  1  0.750000  0.319639  0.750233  1
  N  N12  1  0.250000  0.761350  0.994031  1
  N  N13  1  0.250000  0.255508  0.506357  1
  N  N14  1  0.750000  0.247126  0.003548  1
  N  N15  1  0.750000  0.740541  0.495291  1
