# generated using pymatgen
data_Dy15HoIn4RuRh3
_symmetry_space_group_name_H-M   'P 1'
_cell_length_a   9.64686752
_cell_length_b   9.65898240
_cell_length_c   9.64686794
_cell_angle_alpha   60.01615693
_cell_angle_beta   59.95040021
_cell_angle_gamma   60.01616139
_symmetry_Int_Tables_number   1
_chemical_formula_structural   Dy15HoIn4RuRh3
_chemical_formula_sum   'Dy15 Ho1 In4 Ru1 Rh3'
_cell_volume   635.52394258
_cell_formula_units_Z   1
loop_
 _symmetry_equiv_pos_site_id
 _symmetry_equiv_pos_as_xyz
  1  'x, y, z'
loop_
 _atom_site_type_symbol
 _atom_site_label
 _atom_site_symmetry_multiplicity
 _atom_site_fract_x
 _atom_site_fract_y
 _atom_site_fract_z
 _atom_site_occupancy
  Dy  Dy0  1  0.188536  0.189223  0.811407  1
  Dy  Dy1  1  0.600235  0.601553  0.201815  1
  Dy  Dy2  1  0.439943  0.056509  0.439943  1
  Dy  Dy3  1  0.439688  0.439968  0.058787  1
  Dy  Dy4  1  0.812305  0.188315  0.812305  1
  Dy  Dy5  1  0.190426  0.812178  0.190426  1
  Dy  Dy6  1  0.437746  0.057736  0.062211  1
  Dy  Dy7  1  0.188866  0.813292  0.809234  1
  Dy  Dy8  1  0.059771  0.438116  0.059771  1
  Dy  Dy9  1  0.809234  0.813292  0.188866  1
  Dy  Dy10  1  0.201815  0.601553  0.600235  1
  Dy  Dy11  1  0.058787  0.439968  0.439688  1
  Dy  Dy12  1  0.062211  0.057736  0.437746  1
  Dy  Dy13  1  0.811407  0.189223  0.188536  1
  Dy  Dy14  1  0.600917  0.201060  0.600917  1
  Ho  Ho15  1  0.597449  0.598826  0.597449  1
  In  In16  1  0.832626  0.832891  0.832626  1
  In  In17  1  0.832320  0.832685  0.501964  1
  In  In18  1  0.501964  0.832685  0.832320  1
  In  In19  1  0.831723  0.503521  0.831723  1
  Ru  Ru20  1  0.392568  0.824417  0.392568  1
  Rh  Rh21  1  0.392377  0.391342  0.392377  1
  Rh  Rh22  1  0.824777  0.391957  0.392307  1
  Rh  Rh23  1  0.392307  0.391957  0.824777  1
