# generated using pymatgen
data_Er10Ge3Pb3O2
_symmetry_space_group_name_H-M   'P 1'
_cell_length_a   8.82997279
_cell_length_b   8.82997239
_cell_length_c   8.79625885
_cell_angle_alpha   126.03931016
_cell_angle_beta   126.03929674
_cell_angle_gamma   80.08497472
_symmetry_Int_Tables_number   1
_chemical_formula_structural   Er10Ge3Pb3O2
_chemical_formula_sum   'Er10 Ge3 Pb3 O2'
_cell_volume   432.27268468
_cell_formula_units_Z   1
loop_
 _symmetry_equiv_pos_site_id
 _symmetry_equiv_pos_as_xyz
  1  'x, y, z'
loop_
 _atom_site_type_symbol
 _atom_site_label
 _atom_site_symmetry_multiplicity
 _atom_site_fract_x
 _atom_site_fract_y
 _atom_site_fract_z
 _atom_site_occupancy
  Er  Er0  1  0.007514  0.208583  0.500000  1
  Er  Er1  1  0.792184  0.302874  0.803774  1
  Er  Er2  1  0.500898  0.011589  0.803774  1
  Er  Er3  1  0.488411  0.999102  0.196226  1
  Er  Er4  1  0.001510  0.783813  0.500000  1
  Er  Er5  1  0.495881  0.493666  0.989547  1
  Er  Er6  1  0.197126  0.707816  0.196226  1
  Er  Er7  1  0.716187  0.498490  0.500000  1
  Er  Er8  1  0.291417  0.492486  0.500000  1
  Er  Er9  1  0.006334  0.004119  0.010453  1
  Ge  Ge10  1  0.850432  0.348287  0.198720  1
  Ge  Ge11  1  0.151713  0.649568  0.801280  1
  Ge  Ge12  1  0.351256  0.148744  0.500000  1
  Pb  Pb13  1  0.748439  0.751561  0.000000  1
  Pb  Pb14  1  0.646831  0.853169  0.500000  1
  Pb  Pb15  1  0.248439  0.251561  0.000000  1
  O  O16  1  0.752603  0.247174  0.500000  1
  O  O17  1  0.252826  0.747397  0.500000  1
