# generated using pymatgen
data_LaEr2Ni9
_symmetry_space_group_name_H-M   'P 1'
_cell_length_a   8.60560017
_cell_length_b   8.60560034
_cell_length_c   8.60559992
_cell_angle_alpha   33.68105243
_cell_angle_beta   33.68105315
_cell_angle_gamma   33.68104676
_symmetry_Int_Tables_number   1
_chemical_formula_structural   LaEr2Ni9
_chemical_formula_sum   'La1 Er2 Ni9'
_cell_volume   174.61699522
_cell_formula_units_Z   1
loop_
 _symmetry_equiv_pos_site_id
 _symmetry_equiv_pos_as_xyz
  1  'x, y, z'
loop_
 _atom_site_type_symbol
 _atom_site_label
 _atom_site_symmetry_multiplicity
 _atom_site_fract_x
 _atom_site_fract_y
 _atom_site_fract_z
 _atom_site_occupancy
  La  La0  1  0.000000  0.000000  0.000000  1
  Er  Er1  1  0.859533  0.859533  0.859533  1
  Er  Er2  1  0.140467  0.140467  0.140467  1
  Ni  Ni3  1  0.584799  0.083601  0.584799  1
  Ni  Ni4  1  0.083601  0.584799  0.584799  1
  Ni  Ni5  1  0.584799  0.584799  0.083601  1
  Ni  Ni6  1  0.415201  0.916399  0.415201  1
  Ni  Ni7  1  0.916399  0.415201  0.415201  1
  Ni  Ni8  1  0.333231  0.333231  0.333231  1
  Ni  Ni9  1  0.415201  0.415201  0.916399  1
  Ni  Ni10  1  0.500000  0.500000  0.500000  1
  Ni  Ni11  1  0.666769  0.666769  0.666769  1
