# generated using pymatgen
data_Y4MnV(CoB8)2
_symmetry_space_group_name_H-M   'P 1'
_cell_length_a   3.41793700
_cell_length_b   5.91879133
_cell_length_c   11.45598984
_cell_angle_alpha   90.22524177
_cell_angle_beta   90.00000000
_cell_angle_gamma   90.00000000
_symmetry_Int_Tables_number   1
_chemical_formula_structural   Y4MnV(CoB8)2
_chemical_formula_sum   'Y4 Mn1 V1 Co2 B16'
_cell_volume   231.75352369
_cell_formula_units_Z   1
loop_
 _symmetry_equiv_pos_site_id
 _symmetry_equiv_pos_as_xyz
  1  'x, y, z'
loop_
 _atom_site_type_symbol
 _atom_site_label
 _atom_site_symmetry_multiplicity
 _atom_site_fract_x
 _atom_site_fract_y
 _atom_site_fract_z
 _atom_site_occupancy
  Y  Y0  1  0.500000  0.372166  0.149496  1
  Y  Y1  1  0.500000  0.627002  0.851722  1
  Y  Y2  1  0.500000  0.125904  0.651823  1
  Y  Y3  1  0.500000  0.875869  0.347835  1
  Mn  Mn4  1  0.500000  0.377190  0.417594  1
  V  V5  1  0.500000  0.624179  0.581665  1
  Co  Co6  1  0.500000  0.134550  0.912466  1
  Co  Co7  1  0.500000  0.864167  0.089391  1
  B  B8  1  0.000000  0.111518  0.046186  1
  B  B9  1  0.000000  0.888570  0.954415  1
  B  B10  1  0.000000  0.384014  0.544066  1
  B  B11  1  0.000000  0.610052  0.451365  1
  B  B12  1  0.000000  0.138091  0.465885  1
  B  B13  1  0.000000  0.865217  0.531297  1
  B  B14  1  0.000000  0.360888  0.967957  1
  B  B15  1  0.000000  0.639103  0.032196  1
  B  B16  1  0.000000  0.023406  0.189948  1
  B  B17  1  0.000000  0.977658  0.810488  1
  B  B18  1  0.000000  0.473565  0.692689  1
  B  B19  1  0.000000  0.522665  0.308069  1
  B  B20  1  0.000000  0.219213  0.316178  1
  B  B21  1  0.000000  0.785465  0.686758  1
  B  B22  1  0.000000  0.281095  0.817099  1
  B  B23  1  0.000000  0.718452  0.183412  1
