# generated using pymatgen
data_CaAc2NdH11
_symmetry_space_group_name_H-M   'P 1'
_cell_length_a   6.98064881
_cell_length_b   6.98064882
_cell_length_c   6.98064700
_cell_angle_alpha   131.13159728
_cell_angle_beta   133.34136959
_cell_angle_gamma   69.87103327
_symmetry_Int_Tables_number   1
_chemical_formula_structural   CaAc2NdH11
_chemical_formula_sum   'Ca1 Ac2 Nd1 H11'
_cell_volume   182.72439797
_cell_formula_units_Z   1
loop_
 _symmetry_equiv_pos_site_id
 _symmetry_equiv_pos_as_xyz
  1  'x, y, z'
loop_
 _atom_site_type_symbol
 _atom_site_label
 _atom_site_symmetry_multiplicity
 _atom_site_fract_x
 _atom_site_fract_y
 _atom_site_fract_z
 _atom_site_occupancy
  Ca  Ca0  1  0.500000  0.000000  0.500000  1
  Ac  Ac1  1  0.260468  0.260468  0.000000  1
  Ac  Ac2  1  0.739532  0.739532  0.000000  1
  Nd  Nd3  1  0.000000  0.500000  0.500000  1
  H  H4  1  0.652343  0.117443  0.997236  1
  H  H5  1  0.347657  0.344894  0.465101  1
  H  H6  1  0.120206  0.655106  0.002764  1
  H  H7  1  0.879794  0.882557  0.534899  1
  H  H8  1  0.879794  0.344894  0.997236  1
  H  H9  1  0.652343  0.655106  0.534899  1
  H  H10  1  0.347657  0.882557  0.002764  1
  H  H11  1  0.120206  0.117443  0.465101  1
  H  H12  1  0.765634  0.265634  0.500000  1
  H  H13  1  0.500000  0.500000  0.000000  1
  H  H14  1  0.234366  0.734366  0.500000  1
