# generated using pymatgen
data_CrGaTeO6
_symmetry_space_group_name_H-M   'P 1'
_cell_length_a   4.62626400
_cell_length_b   4.62626400
_cell_length_c   9.17044900
_cell_angle_alpha   90.00000000
_cell_angle_beta   90.00000000
_cell_angle_gamma   90.00000000
_symmetry_Int_Tables_number   1
_chemical_formula_structural   CrGaTeO6
_chemical_formula_sum   'Cr2 Ga2 Te2 O12'
_cell_volume   196.26887118
_cell_formula_units_Z   2
loop_
 _symmetry_equiv_pos_site_id
 _symmetry_equiv_pos_as_xyz
  1  'x, y, z'
loop_
 _atom_site_type_symbol
 _atom_site_label
 _atom_site_symmetry_multiplicity
 _atom_site_fract_x
 _atom_site_fract_y
 _atom_site_fract_z
 _atom_site_occupancy
  Cr  Cr0  1  0.500000  0.500000  0.165753  1
  Cr  Cr1  1  0.000000  0.000000  0.665753  1
  Ga  Ga2  1  0.500000  0.500000  0.834342  1
  Ga  Ga3  1  0.000000  0.000000  0.334342  1
  Te  Te4  1  0.500000  0.500000  0.500380  1
  Te  Te5  1  0.000000  0.000000  0.000380  1
  O  O6  1  0.198861  0.801139  0.498502  1
  O  O7  1  0.801139  0.198861  0.498502  1
  O  O8  1  0.301139  0.301139  0.998502  1
  O  O9  1  0.698861  0.698861  0.998502  1
  O  O10  1  0.191347  0.808653  0.163776  1
  O  O11  1  0.808653  0.191347  0.163776  1
  O  O12  1  0.308653  0.308653  0.663776  1
  O  O13  1  0.691347  0.691347  0.663776  1
  O  O14  1  0.807404  0.192596  0.837484  1
  O  O15  1  0.192596  0.807404  0.837484  1
  O  O16  1  0.692596  0.692596  0.337484  1
  O  O17  1  0.307405  0.307405  0.337484  1
