# generated using pymatgen
data_Ce2Cl5
_symmetry_space_group_name_H-M   'P 1'
_cell_length_a   7.64984431
_cell_length_b   4.13615000
_cell_length_c   13.13897900
_cell_angle_alpha   90.00000000
_cell_angle_beta   91.45936494
_cell_angle_gamma   90.00000000
_symmetry_Int_Tables_number   1
_chemical_formula_structural   Ce2Cl5
_chemical_formula_sum   'Ce4 Cl10'
_cell_volume   415.59432092
_cell_formula_units_Z   2
loop_
 _symmetry_equiv_pos_site_id
 _symmetry_equiv_pos_as_xyz
  1  'x, y, z'
loop_
 _atom_site_type_symbol
 _atom_site_label
 _atom_site_symmetry_multiplicity
 _atom_site_fract_x
 _atom_site_fract_y
 _atom_site_fract_z
 _atom_site_occupancy
  Ce  Ce0  1  0.433220  0.250000  0.658250  1
  Ce  Ce1  1  0.566780  0.750001  0.341749  1
  Ce  Ce2  1  0.932143  0.250000  0.160041  1
  Ce  Ce3  1  0.067857  0.750001  0.839959  1
  Cl  Cl4  1  0.333512  0.250000  0.273407  1
  Cl  Cl5  1  0.666488  0.750001  0.726594  1
  Cl  Cl6  1  0.859959  0.250000  0.931545  1
  Cl  Cl7  1  0.140041  0.750001  0.068455  1
  Cl  Cl8  1  0.338494  0.250000  0.871007  1
  Cl  Cl9  1  0.661506  0.750001  0.128993  1
  Cl  Cl10  1  0.058200  0.250000  0.681627  1
  Cl  Cl11  1  0.941800  0.750001  0.318373  1
  Cl  Cl12  1  0.679881  0.250000  0.482735  1
  Cl  Cl13  1  0.320119  0.750001  0.517265  1
