# generated using pymatgen
data_Th3Zn2Ir7
_symmetry_space_group_name_H-M   'P 1'
_cell_length_a   5.50957322
_cell_length_b   5.50957258
_cell_length_c   8.97565537
_cell_angle_alpha   72.12644467
_cell_angle_beta   72.12644522
_cell_angle_gamma   60.00000250
_symmetry_Int_Tables_number   1
_chemical_formula_structural   Th3Zn2Ir7
_chemical_formula_sum   'Th3 Zn2 Ir7'
_cell_volume   220.64207009
_cell_formula_units_Z   1
loop_
 _symmetry_equiv_pos_site_id
 _symmetry_equiv_pos_as_xyz
  1  'x, y, z'
loop_
 _atom_site_type_symbol
 _atom_site_label
 _atom_site_symmetry_multiplicity
 _atom_site_fract_x
 _atom_site_fract_y
 _atom_site_fract_z
 _atom_site_occupancy
  Th  Th0  1  0.860308  0.860308  0.419077  1
  Th  Th1  1  0.139692  0.139692  0.580923  1
  Th  Th2  1  0.000000  0.000000  0.000000  1
  Zn  Zn3  1  0.664991  0.664991  0.005026  1
  Zn  Zn4  1  0.335009  0.335009  0.994974  1
  Ir  Ir5  1  0.414715  0.414715  0.247508  1
  Ir  Ir6  1  0.923062  0.414715  0.247508  1
  Ir  Ir7  1  0.414715  0.923062  0.247508  1
  Ir  Ir8  1  0.585285  0.585285  0.752492  1
  Ir  Ir9  1  0.076938  0.585285  0.752492  1
  Ir  Ir10  1  0.585285  0.076938  0.752492  1
  Ir  Ir11  1  0.500000  0.500000  0.500000  1
