# generated using pymatgen
data_La2Lu2AsP3Pt4
_symmetry_space_group_name_H-M   'P 1'
_cell_length_a   4.19025800
_cell_length_b   4.19025724
_cell_length_c   15.93452300
_cell_angle_alpha   90.00000000
_cell_angle_beta   90.00000000
_cell_angle_gamma   120.00000599
_symmetry_Int_Tables_number   1
_chemical_formula_structural   La2Lu2AsP3Pt4
_chemical_formula_sum   'La2 Lu2 As1 P3 Pt4'
_cell_volume   242.29872119
_cell_formula_units_Z   1
loop_
 _symmetry_equiv_pos_site_id
 _symmetry_equiv_pos_as_xyz
  1  'x, y, z'
loop_
 _atom_site_type_symbol
 _atom_site_label
 _atom_site_symmetry_multiplicity
 _atom_site_fract_x
 _atom_site_fract_y
 _atom_site_fract_z
 _atom_site_occupancy
  La  La0  1  0.000000  0.000000  0.495693  1
  La  La1  1  0.000000  0.000000  0.999481  1
  Lu  Lu2  1  0.000000  0.000000  0.249905  1
  Lu  Lu3  1  0.000000  0.000000  0.754066  1
  As  As4  1  0.333333  0.666667  0.621223  1
  P  P5  1  0.333333  0.666667  0.876749  1
  P  P6  1  0.666667  0.333333  0.124738  1
  P  P7  1  0.666667  0.333333  0.374817  1
  Pt  Pt8  1  0.333333  0.666667  0.355436  1
  Pt  Pt9  1  0.666667  0.333333  0.647619  1
  Pt  Pt10  1  0.666667  0.333333  0.856750  1
  Pt  Pt11  1  0.333333  0.666667  0.143523  1
