# generated using pymatgen
data_K2Hg3Bi
_symmetry_space_group_name_H-M   'P 1'
_cell_length_a   6.79284954
_cell_length_b   6.75651280
_cell_length_c   6.75651285
_cell_angle_alpha   134.64300051
_cell_angle_beta   102.57150227
_cell_angle_gamma   94.47731944
_symmetry_Int_Tables_number   1
_chemical_formula_structural   K2Hg3Bi
_chemical_formula_sum   'K2 Hg3 Bi1'
_cell_volume   203.07962726
_cell_formula_units_Z   1
loop_
 _symmetry_equiv_pos_site_id
 _symmetry_equiv_pos_as_xyz
  1  'x, y, z'
loop_
 _atom_site_type_symbol
 _atom_site_label
 _atom_site_symmetry_multiplicity
 _atom_site_fract_x
 _atom_site_fract_y
 _atom_site_fract_z
 _atom_site_occupancy
  K  K0  1  0.704001  0.951275  0.752727  1
  K  K1  1  0.296837  0.049371  0.247466  1
  Hg  Hg2  1  0.717584  0.662780  0.054805  1
  Hg  Hg3  1  0.888268  0.334995  0.553273  1
  Hg  Hg4  1  0.105755  0.660029  0.445726  1
  Bi  Bi5  1  0.287555  0.341550  0.946003  1
