# generated using pymatgen
data_Ca8Zn3Si12Ag
_symmetry_space_group_name_H-M   'P 1'
_cell_length_a   11.38766365
_cell_length_b   9.78913707
_cell_length_c   8.09220100
_cell_angle_alpha   78.44036640
_cell_angle_beta   57.32782227
_cell_angle_gamma   44.88188157
_symmetry_Int_Tables_number   1
_chemical_formula_structural   Ca8Zn3Si12Ag
_chemical_formula_sum   'Ca8 Zn3 Si12 Ag1'
_cell_volume   510.02592126
_cell_formula_units_Z   1
loop_
 _symmetry_equiv_pos_site_id
 _symmetry_equiv_pos_as_xyz
  1  'x, y, z'
loop_
 _atom_site_type_symbol
 _atom_site_label
 _atom_site_symmetry_multiplicity
 _atom_site_fract_x
 _atom_site_fract_y
 _atom_site_fract_z
 _atom_site_occupancy
  Ca  Ca0  1  0.123781  0.124089  0.876079  1
  Ca  Ca1  1  0.875550  0.875909  0.124752  1
  Ca  Ca2  1  0.127331  0.126963  0.372713  1
  Ca  Ca3  1  0.372644  0.373673  0.127135  1
  Ca  Ca4  1  0.623882  0.622198  0.376654  1
  Ca  Ca5  1  0.376948  0.377041  0.623129  1
  Ca  Ca6  1  0.627061  0.627830  0.873049  1
  Ca  Ca7  1  0.873207  0.872115  0.626197  1
  Zn  Zn8  1  0.083211  0.415593  0.081945  1
  Zn  Zn9  1  0.833796  0.166184  0.831761  1
  Zn  Zn10  1  0.166550  0.834268  0.167836  1
  Si  Si11  1  0.917639  0.589259  0.418231  1
  Si  Si12  1  0.073626  0.419674  0.589499  1
  Si  Si13  1  0.418340  0.076084  0.917779  1
  Si  Si14  1  0.590993  0.917132  0.072206  1
  Si  Si15  1  0.330630  0.660498  0.834356  1
  Si  Si16  1  0.661980  0.331784  0.173018  1
  Si  Si17  1  0.836054  0.173074  0.329344  1
  Si  Si18  1  0.171538  0.834907  0.662737  1
  Si  Si19  1  0.914747  0.586180  0.916343  1
  Si  Si20  1  0.586388  0.912642  0.584902  1
  Si  Si21  1  0.332690  0.665289  0.332690  1
  Si  Si22  1  0.665934  0.333438  0.668078  1
  Ag  Ag23  1  0.415487  0.084176  0.419566  1
