# generated using pymatgen
data_LaTb2IrO7
_symmetry_space_group_name_H-M   'P 1'
_cell_length_a   6.52163440
_cell_length_b   6.52163437
_cell_length_c   7.53344500
_cell_angle_alpha   90.00000000
_cell_angle_beta   90.00000000
_cell_angle_gamma   109.62988696
_symmetry_Int_Tables_number   1
_chemical_formula_structural   LaTb2IrO7
_chemical_formula_sum   'La2 Tb4 Ir2 O14'
_cell_volume   301.78883819
_cell_formula_units_Z   2
loop_
 _symmetry_equiv_pos_site_id
 _symmetry_equiv_pos_as_xyz
  1  'x, y, z'
loop_
 _atom_site_type_symbol
 _atom_site_label
 _atom_site_symmetry_multiplicity
 _atom_site_fract_x
 _atom_site_fract_y
 _atom_site_fract_z
 _atom_site_occupancy
  La  La0  1  0.000000  0.000000  0.500000  1
  La  La1  1  0.000000  0.000000  0.000000  1
  Tb  Tb2  1  0.517220  0.067198  0.250000  1
  Tb  Tb3  1  0.932802  0.482780  0.750000  1
  Tb  Tb4  1  0.482780  0.932802  0.750000  1
  Tb  Tb5  1  0.067198  0.517220  0.250000  1
  Ir  Ir6  1  0.500000  0.500000  0.500000  1
  Ir  Ir7  1  0.500000  0.500000  0.000000  1
  O  O8  1  0.443407  0.183149  0.535641  1
  O  O9  1  0.816851  0.556593  0.464359  1
  O  O10  1  0.443407  0.183149  0.964359  1
  O  O11  1  0.816851  0.556593  0.035641  1
  O  O12  1  0.556593  0.816851  0.464359  1
  O  O13  1  0.183149  0.443407  0.535641  1
  O  O14  1  0.556593  0.816851  0.035641  1
  O  O15  1  0.183149  0.443407  0.964359  1
  O  O16  1  0.161082  0.881213  0.250000  1
  O  O17  1  0.118787  0.838918  0.750000  1
  O  O18  1  0.838918  0.118787  0.750000  1
  O  O19  1  0.881213  0.161082  0.250000  1
  O  O20  1  0.407770  0.407770  0.250000  1
  O  O21  1  0.592230  0.592230  0.750000  1
