# generated using pymatgen
data_Nd6ThPt3
_symmetry_space_group_name_H-M   'P 1'
_cell_length_a   6.48752600
_cell_length_b   10.21503034
_cell_length_c   10.21503076
_cell_angle_alpha   120.09179962
_cell_angle_beta   90.00000000
_cell_angle_gamma   90.00000000
_symmetry_Int_Tables_number   1
_chemical_formula_structural   Nd6ThPt3
_chemical_formula_sum   'Nd12 Th2 Pt6'
_cell_volume   585.71534494
_cell_formula_units_Z   2
loop_
 _symmetry_equiv_pos_site_id
 _symmetry_equiv_pos_as_xyz
  1  'x, y, z'
loop_
 _atom_site_type_symbol
 _atom_site_label
 _atom_site_symmetry_multiplicity
 _atom_site_fract_x
 _atom_site_fract_y
 _atom_site_fract_z
 _atom_site_occupancy
  Nd  Nd0  1  0.247991  0.127393  0.872607  1
  Nd  Nd1  1  0.248314  0.745015  0.872465  1
  Nd  Nd2  1  0.248314  0.127535  0.254985  1
  Nd  Nd3  1  0.747991  0.872607  0.127393  1
  Nd  Nd4  1  0.748314  0.254985  0.127535  1
  Nd  Nd5  1  0.748314  0.872465  0.745015  1
  Nd  Nd6  1  0.445590  0.537948  0.462052  1
  Nd  Nd7  1  0.445972  0.924396  0.462102  1
  Nd  Nd8  1  0.445972  0.537898  0.075604  1
  Nd  Nd9  1  0.945590  0.462052  0.537948  1
  Nd  Nd10  1  0.945972  0.075604  0.537898  1
  Nd  Nd11  1  0.945972  0.462102  0.924396  1
  Th  Th12  1  0.463076  0.333237  0.666763  1
  Th  Th13  1  0.963076  0.666763  0.333237  1
  Pt  Pt14  1  0.182488  0.808640  0.191360  1
  Pt  Pt15  1  0.182641  0.382861  0.191340  1
  Pt  Pt16  1  0.182641  0.808660  0.617139  1
  Pt  Pt17  1  0.682488  0.191360  0.808640  1
  Pt  Pt18  1  0.682641  0.617139  0.808660  1
  Pt  Pt19  1  0.682641  0.191340  0.382861  1
