# generated using pymatgen
data_Sr6MnCd2CoO12
_symmetry_space_group_name_H-M   'P 1'
_cell_length_a   6.78301240
_cell_length_b   6.77695325
_cell_length_c   6.77342991
_cell_angle_alpha   91.05586692
_cell_angle_beta   91.05785916
_cell_angle_gamma   91.02609848
_symmetry_Int_Tables_number   1
_chemical_formula_structural   Sr6MnCd2CoO12
_chemical_formula_sum   'Sr6 Mn1 Cd2 Co1 O12'
_cell_volume   311.20430594
_cell_formula_units_Z   1
loop_
 _symmetry_equiv_pos_site_id
 _symmetry_equiv_pos_as_xyz
  1  'x, y, z'
loop_
 _atom_site_type_symbol
 _atom_site_label
 _atom_site_symmetry_multiplicity
 _atom_site_fract_x
 _atom_site_fract_y
 _atom_site_fract_z
 _atom_site_occupancy
  Sr  Sr0  1  0.885132  0.250923  0.612613  1
  Sr  Sr1  1  0.250634  0.612703  0.884577  1
  Sr  Sr2  1  0.612766  0.885211  0.251131  1
  Sr  Sr3  1  0.749353  0.387281  0.115403  1
  Sr  Sr4  1  0.387238  0.114768  0.748868  1
  Sr  Sr5  1  0.114870  0.749061  0.387363  1
  Mn  Mn6  1  0.000026  0.000163  0.000107  1
  Cd  Cd7  1  0.749143  0.749249  0.749080  1
  Cd  Cd8  1  0.250819  0.250701  0.250880  1
  Co  Co9  1  0.499994  0.499972  0.500012  1
  O  O10  1  0.226811  0.421419  0.552369  1
  O  O11  1  0.422802  0.553121  0.227428  1
  O  O12  1  0.553503  0.227184  0.421708  1
  O  O13  1  0.920896  0.724190  0.052530  1
  O  O14  1  0.724527  0.052853  0.920371  1
  O  O15  1  0.053230  0.921077  0.724427  1
  O  O16  1  0.773224  0.578549  0.447638  1
  O  O17  1  0.577220  0.446854  0.772531  1
  O  O18  1  0.446524  0.772754  0.578288  1
  O  O19  1  0.079084  0.275845  0.947474  1
  O  O20  1  0.275444  0.947167  0.079642  1
  O  O21  1  0.946760  0.078956  0.275556  1
