# generated using pymatgen
data_MnNb8Fe3(Si7Ni2)2
_symmetry_space_group_name_H-M   'P 1'
_cell_length_a   9.27345611
_cell_length_b   9.27364973
_cell_length_c   9.26619039
_cell_angle_alpha   94.23371046
_cell_angle_beta   94.23285839
_cell_angle_gamma   148.53092888
_symmetry_Int_Tables_number   1
_chemical_formula_structural   MnNb8Fe3(Si7Ni2)2
_chemical_formula_sum   'Mn1 Nb8 Fe3 Si14 Ni4'
_cell_volume   400.29349425
_cell_formula_units_Z   1
loop_
 _symmetry_equiv_pos_site_id
 _symmetry_equiv_pos_as_xyz
  1  'x, y, z'
loop_
 _atom_site_type_symbol
 _atom_site_label
 _atom_site_symmetry_multiplicity
 _atom_site_fract_x
 _atom_site_fract_y
 _atom_site_fract_z
 _atom_site_occupancy
  Mn  Mn0  1  0.596191  0.403788  0.499991  1
  Nb  Nb1  1  0.136771  0.135770  0.268819  1
  Nb  Nb2  1  0.864229  0.863227  0.731186  1
  Nb  Nb3  1  0.866389  0.133636  0.999977  1
  Nb  Nb4  1  0.133863  0.866066  0.999974  1
  Nb  Nb5  1  0.496802  0.688508  0.190353  1
  Nb  Nb6  1  0.496736  0.305631  0.809069  1
  Nb  Nb7  1  0.311443  0.503207  0.809666  1
  Nb  Nb8  1  0.694382  0.503336  0.190944  1
  Fe  Fe9  1  0.901839  0.098128  0.499983  1
  Fe  Fe10  1  0.902928  0.402217  0.805032  1
  Fe  Fe11  1  0.597807  0.097103  0.194998  1
  Si  Si12  1  0.288320  0.289642  0.585647  1
  Si  Si13  1  0.710346  0.711669  0.414342  1
  Si  Si14  1  0.707950  0.292158  0.999861  1
  Si  Si15  1  0.291841  0.707765  0.999858  1
  Si  Si16  1  0.983662  0.277913  0.294988  1
  Si  Si17  1  0.983351  0.687948  0.705932  1
  Si  Si18  1  0.722137  0.016468  0.705071  1
  Si  Si19  1  0.311983  0.016674  0.294123  1
  Si  Si20  1  0.531527  0.936928  0.405954  1
  Si  Si21  1  0.534415  0.128699  0.593150  1
  Si  Si22  1  0.063057  0.468503  0.594136  1
  Si  Si23  1  0.871366  0.465692  0.406944  1
  Si  Si24  1  0.750546  0.750663  0.999933  1
  Si  Si25  1  0.249326  0.249449  0.000054  1
  Ni  Ni26  1  0.395465  0.895301  0.789043  1
  Ni  Ni27  1  0.104707  0.604556  0.210977  1
  Ni  Ni28  1  0.105652  0.894339  0.499994  1
  Ni  Ni29  1  0.394969  0.605012  0.499999  1
