# generated using pymatgen
data_Na20Hf(SiP4)3
_symmetry_space_group_name_H-M   'P 1'
_cell_length_a   7.37409449
_cell_length_b   8.04696572
_cell_length_c   15.40252854
_cell_angle_alpha   59.37941108
_cell_angle_beta   89.57146196
_cell_angle_gamma   89.84960815
_symmetry_Int_Tables_number   1
_chemical_formula_structural   Na20Hf(SiP4)3
_chemical_formula_sum   'Na20 Hf1 Si3 P12'
_cell_volume   786.50409576
_cell_formula_units_Z   1
loop_
 _symmetry_equiv_pos_site_id
 _symmetry_equiv_pos_as_xyz
  1  'x, y, z'
loop_
 _atom_site_type_symbol
 _atom_site_label
 _atom_site_symmetry_multiplicity
 _atom_site_fract_x
 _atom_site_fract_y
 _atom_site_fract_z
 _atom_site_occupancy
  Na  Na0  1  0.513235  0.556648  0.256016  1
  Na  Na1  1  0.008000  0.442265  0.243751  1
  Na  Na2  1  0.488740  0.442279  0.738535  1
  Na  Na3  1  0.990644  0.558122  0.755181  1
  Na  Na4  1  0.981880  0.911506  0.413828  1
  Na  Na5  1  0.480375  0.077397  0.090258  1
  Na  Na6  1  0.012949  0.087608  0.587601  1
  Na  Na7  1  0.519550  0.919593  0.912553  1
  Na  Na8  1  0.533204  0.255089  0.582274  1
  Na  Na9  1  0.026699  0.749863  0.918581  1
  Na  Na10  1  0.470972  0.741477  0.418729  1
  Na  Na11  1  0.976013  0.256152  0.082503  1
  Na  Na12  1  0.154164  0.835229  0.242131  1
  Na  Na13  1  0.654121  0.160887  0.260772  1
  Na  Na14  1  0.849143  0.165408  0.756084  1
  Na  Na15  1  0.343620  0.840238  0.739282  1
  Na  Na16  1  0.336964  0.159944  0.418084  1
  Na  Na17  1  0.839714  0.839041  0.083721  1
  Na  Na18  1  0.663444  0.843027  0.580039  1
  Na  Na19  1  0.161857  0.155376  0.917569  1
  Hf  Hf20  1  0.634497  0.509567  0.920125  1
  Si  Si21  1  0.138181  0.488990  0.582240  1
  Si  Si22  1  0.363412  0.488971  0.082288  1
  Si  Si23  1  0.861967  0.511426  0.417324  1
  P  P24  1  0.743095  0.245141  0.420229  1
  P  P25  1  0.244270  0.756960  0.078277  1
  P  P26  1  0.257542  0.756905  0.578426  1
  P  P27  1  0.763682  0.219848  0.922148  1
  P  P28  1  0.771955  0.796569  0.281583  1
  P  P29  1  0.272924  0.203898  0.218383  1
  P  P30  1  0.230647  0.205693  0.718440  1
  P  P31  1  0.733228  0.817745  0.769054  1
  P  P32  1  0.294883  0.479754  0.936235  1
  P  P33  1  0.821968  0.521229  0.565066  1
  P  P34  1  0.684188  0.519589  0.077930  1
  P  P35  1  0.178274  0.480564  0.434758  1
