# generated using pymatgen
data_Dy4Mg3Co10P12Rh7
_symmetry_space_group_name_H-M   'P 1'
_cell_length_a   3.75631900
_cell_length_b   10.59994337
_cell_length_c   12.38458952
_cell_angle_alpha   90.46858057
_cell_angle_beta   90.00000000
_cell_angle_gamma   90.00000000
_symmetry_Int_Tables_number   1
_chemical_formula_structural   Dy4Mg3Co10P12Rh7
_chemical_formula_sum   'Dy4 Mg3 Co10 P12 Rh7'
_cell_volume   493.09784535
_cell_formula_units_Z   1
loop_
 _symmetry_equiv_pos_site_id
 _symmetry_equiv_pos_as_xyz
  1  'x, y, z'
loop_
 _atom_site_type_symbol
 _atom_site_label
 _atom_site_symmetry_multiplicity
 _atom_site_fract_x
 _atom_site_fract_y
 _atom_site_fract_z
 _atom_site_occupancy
  Dy  Dy0  1  0.250000  0.582293  0.710263  1
  Dy  Dy1  1  0.250000  0.915993  0.210631  1
  Dy  Dy2  1  0.750000  0.422438  0.290484  1
  Dy  Dy3  1  0.750000  0.079875  0.789973  1
  Mg  Mg4  1  0.250000  0.705866  0.991316  1
  Mg  Mg5  1  0.250000  0.794186  0.491794  1
  Mg  Mg6  1  0.750000  0.293615  0.010931  1
  Co  Co7  1  0.750000  0.781047  0.823424  1
  Co  Co8  1  0.750000  0.722536  0.323906  1
  Co  Co9  1  0.250000  0.882052  0.696403  1
  Co  Co10  1  0.250000  0.621183  0.196823  1
  Co  Co11  1  0.750000  0.111339  0.307021  1
  Co  Co12  1  0.750000  0.383329  0.800835  1
  Co  Co13  1  0.250000  0.467527  0.931893  1
  Co  Co14  1  0.250000  0.033404  0.434661  1
  Co  Co15  1  0.750000  0.535473  0.064381  1
  Co  Co16  1  0.750000  0.963270  0.565212  1
  P  P17  1  0.250000  0.432488  0.114041  1
  P  P18  1  0.250000  0.068154  0.610635  1
  P  P19  1  0.750000  0.576139  0.882532  1
  P  P20  1  0.750000  0.923732  0.384645  1
  P  P21  1  0.250000  0.274589  0.860378  1
  P  P22  1  0.250000  0.225158  0.369170  1
  P  P23  1  0.750000  0.724264  0.145587  1
  P  P24  1  0.750000  0.775378  0.644944  1
  P  P25  1  0.250000  0.600653  0.376824  1
  P  P26  1  0.250000  0.899596  0.876801  1
  P  P27  1  0.750000  0.403966  0.612789  1
  P  P28  1  0.750000  0.092669  0.122621  1
  Rh  Rh29  1  0.750000  0.209418  0.509381  1
  Rh  Rh30  1  0.250000  0.407665  0.477753  1
  Rh  Rh31  1  0.250000  0.096263  0.977290  1
  Rh  Rh32  1  0.750000  0.600053  0.518673  1
  Rh  Rh33  1  0.750000  0.899076  0.021444  1
  Rh  Rh34  1  0.250000  0.220964  0.180353  1
  Rh  Rh35  1  0.250000  0.274351  0.674185  1
