# generated using pymatgen
data_Dy2YIn3IrRh2
_symmetry_space_group_name_H-M   'P 1'
_cell_length_a   7.57011005
_cell_length_b   7.56457267
_cell_length_c   3.89872100
_cell_angle_alpha   90.00000000
_cell_angle_beta   90.00000000
_cell_angle_gamma   119.96388643
_symmetry_Int_Tables_number   1
_chemical_formula_structural   Dy2YIn3IrRh2
_chemical_formula_sum   'Dy2 Y1 In3 Ir1 Rh2'
_cell_volume   193.41818693
_cell_formula_units_Z   1
loop_
 _symmetry_equiv_pos_site_id
 _symmetry_equiv_pos_as_xyz
  1  'x, y, z'
loop_
 _atom_site_type_symbol
 _atom_site_label
 _atom_site_symmetry_multiplicity
 _atom_site_fract_x
 _atom_site_fract_y
 _atom_site_fract_z
 _atom_site_occupancy
  Dy  Dy0  1  0.592058  0.003668  0.500000  1
  Dy  Dy1  1  0.411644  0.407833  0.500000  1
  Y  Y2  1  0.996384  0.588674  0.500000  1
  In  In3  1  0.000978  0.257705  0.000000  1
  In  In4  1  0.256561  0.998811  0.000000  1
  In  In5  1  0.742479  0.743272  0.000000  1
  Ir  Ir6  1  0.665632  0.332543  0.000000  1
  Rh  Rh7  1  0.999998  0.000658  0.500000  1
  Rh  Rh8  1  0.334266  0.666836  0.000000  1
