# generated using pymatgen
data_Li5Al16SnPt7
_symmetry_space_group_name_H-M   'P 1'
_cell_length_a   8.61338393
_cell_length_b   8.65541101
_cell_length_c   8.65541170
_cell_angle_alpha   59.67900253
_cell_angle_beta   60.16050217
_cell_angle_gamma   60.16049948
_symmetry_Int_Tables_number   1
_chemical_formula_structural   Li5Al16SnPt7
_chemical_formula_sum   'Li5 Al16 Sn1 Pt7'
_cell_volume   456.26154403
_cell_formula_units_Z   1
loop_
 _symmetry_equiv_pos_site_id
 _symmetry_equiv_pos_as_xyz
  1  'x, y, z'
loop_
 _atom_site_type_symbol
 _atom_site_label
 _atom_site_symmetry_multiplicity
 _atom_site_fract_x
 _atom_site_fract_y
 _atom_site_fract_z
 _atom_site_occupancy
  Li  Li0  1  0.772737  0.227263  0.227263  1
  Li  Li1  1  0.765242  0.234758  0.750966  1
  Li  Li2  1  0.765242  0.750966  0.234758  1
  Li  Li3  1  0.249034  0.750966  0.234758  1
  Li  Li4  1  0.249034  0.234758  0.750966  1
  Al  Al5  1  0.876238  0.848074  0.848074  1
  Al  Al6  1  0.864922  0.843252  0.426905  1
  Al  Al7  1  0.427615  0.848074  0.848074  1
  Al  Al8  1  0.864922  0.426905  0.843252  1
  Al  Al9  1  0.156748  0.135078  0.135078  1
  Al  Al10  1  0.151926  0.123762  0.572385  1
  Al  Al11  1  0.151926  0.572385  0.123762  1
  Al  Al12  1  0.573095  0.135078  0.135078  1
  Al  Al13  1  0.620741  0.620737  0.620737  1
  Al  Al14  1  0.634373  0.617562  0.113694  1
  Al  Al15  1  0.137786  0.620737  0.620737  1
  Al  Al16  1  0.634373  0.113694  0.617562  1
  Al  Al17  1  0.382438  0.365627  0.365627  1
  Al  Al18  1  0.379263  0.379259  0.862214  1
  Al  Al19  1  0.379263  0.862214  0.379259  1
  Al  Al20  1  0.886306  0.365627  0.365627  1
  Sn  Sn21  1  0.009485  0.990515  0.990515  1
  Pt  Pt22  1  0.010010  0.489990  0.489990  1
  Pt  Pt23  1  0.510010  0.989990  0.989990  1
  Pt  Pt24  1  0.511008  0.992703  0.488992  1
  Pt  Pt25  1  0.511008  0.488992  0.992703  1
  Pt  Pt26  1  0.007297  0.488992  0.992703  1
  Pt  Pt27  1  0.007297  0.992703  0.488992  1
  Pt  Pt28  1  0.510663  0.489337  0.489337  1
