# generated using pymatgen
data_SiSb11(RuPt)2
_symmetry_space_group_name_H-M   'P 1'
_cell_length_a   8.15655251
_cell_length_b   8.15655114
_cell_length_c   8.15454500
_cell_angle_alpha   109.11107274
_cell_angle_beta   109.46631943
_cell_angle_gamma   109.84698319
_symmetry_Int_Tables_number   1
_chemical_formula_structural   SiSb11(RuPt)2
_chemical_formula_sum   'Si1 Sb11 Ru2 Pt2'
_cell_volume   417.56122930
_cell_formula_units_Z   1
loop_
 _symmetry_equiv_pos_site_id
 _symmetry_equiv_pos_as_xyz
  1  'x, y, z'
loop_
 _atom_site_type_symbol
 _atom_site_label
 _atom_site_symmetry_multiplicity
 _atom_site_fract_x
 _atom_site_fract_y
 _atom_site_fract_z
 _atom_site_occupancy
  Si  Si0  1  0.842860  0.659234  0.502345  1
  Sb  Sb1  1  0.843043  0.352671  0.196220  1
  Sb  Sb2  1  0.138259  0.666667  0.804338  1
  Sb  Sb3  1  0.337552  0.494023  0.147184  1
  Sb  Sb4  1  0.155051  0.342394  0.497198  1
  Sb  Sb5  1  0.653458  0.809682  0.147294  1
  Sb  Sb6  1  0.186243  0.837949  0.339293  1
  Sb  Sb7  1  0.668078  0.508016  0.848231  1
  Sb  Sb8  1  0.816081  0.157860  0.665065  1
  Sb  Sb9  1  0.339909  0.180164  0.848188  1
  Sb  Sb10  1  0.507430  0.849107  0.665192  1
  Sb  Sb11  1  0.501148  0.152948  0.339142  1
  Ru  Ru12  1  0.001622  0.500950  0.000347  1
  Ru  Ru13  1  0.499230  0.998656  0.000206  1
  Pt  Pt14  1  0.990189  0.979989  0.499926  1
  Pt  Pt15  1  0.519844  0.509692  0.499831  1
