# generated using pymatgen
data_Ti6MoP4
_symmetry_space_group_name_H-M   'P 1'
_cell_length_a   7.45927729
_cell_length_b   7.45927790
_cell_length_c   13.59269375
_cell_angle_alpha   75.72699610
_cell_angle_beta   75.72699391
_cell_angle_gamma   26.47768889
_symmetry_Int_Tables_number   1
_chemical_formula_structural   Ti6MoP4
_chemical_formula_sum   'Ti12 Mo2 P8'
_cell_volume   326.20518885
_cell_formula_units_Z   2
loop_
 _symmetry_equiv_pos_site_id
 _symmetry_equiv_pos_as_xyz
  1  'x, y, z'
loop_
 _atom_site_type_symbol
 _atom_site_label
 _atom_site_symmetry_multiplicity
 _atom_site_fract_x
 _atom_site_fract_y
 _atom_site_fract_z
 _atom_site_occupancy
  Ti  Ti0  1  0.430561  0.430561  0.166468  1
  Ti  Ti1  1  0.569439  0.569439  0.833532  1
  Ti  Ti2  1  0.195217  0.195217  0.691887  1
  Ti  Ti3  1  0.804783  0.804783  0.308113  1
  Ti  Ti4  1  0.207002  0.207002  0.205717  1
  Ti  Ti5  1  0.792998  0.792998  0.794283  1
  Ti  Ti6  1  0.341694  0.341694  0.967729  1
  Ti  Ti7  1  0.658306  0.658306  0.032271  1
  Ti  Ti8  1  0.004081  0.004081  0.340714  1
  Ti  Ti9  1  0.995919  0.995919  0.659286  1
  Ti  Ti10  1  0.176221  0.176221  0.458653  1
  Ti  Ti11  1  0.823779  0.823779  0.541347  1
  Mo  Mo12  1  0.000000  0.000000  0.000000  1
  Mo  Mo13  1  0.500000  0.500000  0.500000  1
  P  P14  1  0.178154  0.178154  0.890786  1
  P  P15  1  0.821846  0.821846  0.109214  1
  P  P16  1  0.371699  0.371699  0.396338  1
  P  P17  1  0.628301  0.628301  0.603662  1
  P  P18  1  0.368304  0.368304  0.659891  1
  P  P19  1  0.631696  0.631696  0.340109  1
  P  P20  1  0.061333  0.061333  0.152388  1
  P  P21  1  0.938667  0.938667  0.847612  1
