# generated using pymatgen
data_CsO10
_symmetry_space_group_name_H-M   'P 1'
_cell_length_a   6.97455300
_cell_length_b   6.97455300
_cell_length_c   11.00228900
_cell_angle_alpha   90.00000000
_cell_angle_beta   90.00000000
_cell_angle_gamma   90.00000000
_symmetry_Int_Tables_number   1
_chemical_formula_structural   CsO10
_chemical_formula_sum   'Cs2 O20'
_cell_volume   535.19963206
_cell_formula_units_Z   2
loop_
 _symmetry_equiv_pos_site_id
 _symmetry_equiv_pos_as_xyz
  1  'x, y, z'
loop_
 _atom_site_type_symbol
 _atom_site_label
 _atom_site_symmetry_multiplicity
 _atom_site_fract_x
 _atom_site_fract_y
 _atom_site_fract_z
 _atom_site_occupancy
  Cs  Cs0  1  0.000000  0.000000  0.500000  1
  Cs  Cs1  1  0.000000  0.000000  0.000000  1
  O  O2  1  0.500000  0.500000  0.443979  1
  O  O3  1  0.500000  0.500000  0.943979  1
  O  O4  1  0.500000  0.500000  0.556021  1
  O  O5  1  0.500000  0.500000  0.056021  1
  O  O6  1  0.057084  0.430356  0.403294  1
  O  O7  1  0.942916  0.569644  0.403294  1
  O  O8  1  0.569644  0.057084  0.403294  1
  O  O9  1  0.430356  0.942916  0.403294  1
  O  O10  1  0.942916  0.430356  0.903294  1
  O  O11  1  0.057084  0.569644  0.903294  1
  O  O12  1  0.430356  0.057084  0.903294  1
  O  O13  1  0.569644  0.942916  0.903294  1
  O  O14  1  0.942916  0.569644  0.596706  1
  O  O15  1  0.057084  0.430356  0.596706  1
  O  O16  1  0.430356  0.942916  0.596706  1
  O  O17  1  0.569644  0.057084  0.596706  1
  O  O18  1  0.057084  0.569644  0.096706  1
  O  O19  1  0.942916  0.430356  0.096706  1
  O  O20  1  0.569644  0.942916  0.096706  1
  O  O21  1  0.430356  0.057084  0.096706  1
