# generated using pymatgen
data_NaScH6Os
_symmetry_space_group_name_H-M   'P 1'
_cell_length_a   6.91679700
_cell_length_b   6.91679700
_cell_length_c   6.91679700
_cell_angle_alpha   90.00000000
_cell_angle_beta   90.00000000
_cell_angle_gamma   90.00000000
_symmetry_Int_Tables_number   1
_chemical_formula_structural   NaScH6Os
_chemical_formula_sum   'Na4 Sc4 H24 Os4'
_cell_volume   330.91396053
_cell_formula_units_Z   4
loop_
 _symmetry_equiv_pos_site_id
 _symmetry_equiv_pos_as_xyz
  1  'x, y, z'
loop_
 _atom_site_type_symbol
 _atom_site_label
 _atom_site_symmetry_multiplicity
 _atom_site_fract_x
 _atom_site_fract_y
 _atom_site_fract_z
 _atom_site_occupancy
  Na  Na0  1  0.000000  0.000000  0.500000  1
  Na  Na1  1  0.000000  0.500000  0.000000  1
  Na  Na2  1  0.500000  0.000000  0.000000  1
  Na  Na3  1  0.000000  0.000000  0.000000  1
  Sc  Sc4  1  0.500000  0.500000  0.500000  1
  Sc  Sc5  1  0.000000  0.500000  0.500000  1
  Sc  Sc6  1  0.500000  0.000000  0.500000  1
  Sc  Sc7  1  0.500000  0.500000  0.000000  1
  H  H8  1  0.742478  0.742478  0.517350  1
  H  H9  1  0.257522  0.257522  0.517350  1
  H  H10  1  0.022435  0.732764  0.732764  1
  H  H11  1  0.267236  0.977565  0.732764  1
  H  H12  1  0.732764  0.022435  0.732764  1
  H  H13  1  0.977565  0.267236  0.732764  1
  H  H14  1  0.742478  0.517350  0.742478  1
  H  H15  1  0.517350  0.742478  0.742478  1
  H  H16  1  0.482650  0.257522  0.742478  1
  H  H17  1  0.257522  0.482650  0.742478  1
  H  H18  1  0.267236  0.732764  0.977565  1
  H  H19  1  0.732764  0.267236  0.977565  1
  H  H20  1  0.732764  0.732764  0.022435  1
  H  H21  1  0.267236  0.267236  0.022435  1
  H  H22  1  0.257522  0.517350  0.257522  1
  H  H23  1  0.482650  0.742478  0.257522  1
  H  H24  1  0.517350  0.257522  0.257522  1
  H  H25  1  0.742478  0.482650  0.257522  1
  H  H26  1  0.977565  0.732764  0.267236  1
  H  H27  1  0.732764  0.977565  0.267236  1
  H  H28  1  0.267236  0.022435  0.267236  1
  H  H29  1  0.022435  0.267236  0.267236  1
  H  H30  1  0.257522  0.742478  0.482650  1
  H  H31  1  0.742478  0.257522  0.482650  1
  Os  Os32  1  0.271280  0.728720  0.728720  1
  Os  Os33  1  0.728720  0.271280  0.728720  1
  Os  Os34  1  0.728720  0.728720  0.271280  1
  Os  Os35  1  0.271280  0.271280  0.271280  1
