# generated using pymatgen
data_Yb7TmSb6
_symmetry_space_group_name_H-M   'P 1'
_cell_length_a   8.16356888
_cell_length_b   8.16356763
_cell_length_c   8.11600400
_cell_angle_alpha   109.35323391
_cell_angle_beta   109.35323084
_cell_angle_gamma   109.58894837
_symmetry_Int_Tables_number   1
_chemical_formula_structural   Yb7TmSb6
_chemical_formula_sum   'Yb7 Tm1 Sb6'
_cell_volume   416.97570383
_cell_formula_units_Z   1
loop_
 _symmetry_equiv_pos_site_id
 _symmetry_equiv_pos_as_xyz
  1  'x, y, z'
loop_
 _atom_site_type_symbol
 _atom_site_label
 _atom_site_symmetry_multiplicity
 _atom_site_fract_x
 _atom_site_fract_y
 _atom_site_fract_z
 _atom_site_occupancy
  Yb  Yb0  1  0.649869  0.651017  0.651497  1
  Yb  Yb1  1  0.007184  0.359690  0.503967  1
  Yb  Yb2  1  0.352506  0.492816  0.996784  1
  Yb  Yb3  1  0.001148  0.850131  0.501628  1
  Yb  Yb4  1  0.848983  0.498852  0.000480  1
  Yb  Yb5  1  0.500000  0.000000  0.850718  1
  Yb  Yb6  1  0.140310  0.147494  0.144277  1
  Tm  Tm7  1  0.500000  0.000000  0.350055  1
  Sb  Sb8  1  0.867487  0.124666  0.740120  1
  Sb  Sb9  1  0.375334  0.242821  0.615454  1
  Sb  Sb10  1  0.132101  0.756568  0.887018  1
  Sb  Sb11  1  0.743432  0.875533  0.130450  1
  Sb  Sb12  1  0.257179  0.632513  0.372633  1
  Sb  Sb13  1  0.624467  0.367899  0.254917  1
