# generated using pymatgen
data_SrHo2Hf(Al8Pt3)3
_symmetry_space_group_name_H-M   'P 1'
_cell_length_a   7.51894410
_cell_length_b   7.53878376
_cell_length_c   13.18918616
_cell_angle_alpha   84.62217119
_cell_angle_beta   79.17827647
_cell_angle_gamma   59.97432938
_symmetry_Int_Tables_number   1
_chemical_formula_structural   SrHo2Hf(Al8Pt3)3
_chemical_formula_sum   'Sr1 Ho2 Hf1 Al24 Pt9'
_cell_volume   635.77203578
_cell_formula_units_Z   1
loop_
 _symmetry_equiv_pos_site_id
 _symmetry_equiv_pos_as_xyz
  1  'x, y, z'
loop_
 _atom_site_type_symbol
 _atom_site_label
 _atom_site_symmetry_multiplicity
 _atom_site_fract_x
 _atom_site_fract_y
 _atom_site_fract_z
 _atom_site_occupancy
  Sr  Sr0  1  0.607607  0.831708  0.189741  1
  Ho  Ho1  1  0.733452  0.499359  0.807123  1
  Ho  Ho2  1  0.266138  0.501404  0.192086  1
  Hf  Hf3  1  0.394608  0.167742  0.807182  1
  Al  Al4  1  0.682365  0.836889  0.939278  1
  Al  Al5  1  0.315200  0.168086  0.048872  1
  Al  Al6  1  0.145869  0.832466  0.563889  1
  Al  Al7  1  0.852686  0.167370  0.440695  1
  Al  Al8  1  0.478631  0.167001  0.561335  1
  Al  Al9  1  0.520073  0.833197  0.443208  1
  Al  Al10  1  0.215958  0.164910  0.334824  1
  Al  Al11  1  0.779370  0.836423  0.674404  1
  Al  Al12  1  0.435880  0.504906  0.674650  1
  Al  Al13  1  0.560572  0.494621  0.334144  1
  Al  Al14  1  0.109649  0.160291  0.673489  1
  Al  Al15  1  0.889005  0.839717  0.334931  1
  Al  Al16  1  0.355366  0.495357  0.939560  1
  Al  Al17  1  0.650353  0.497095  0.050718  1
  Al  Al18  1  0.020229  0.168483  0.946740  1
  Al  Al19  1  0.988408  0.833775  0.041061  1
  Al  Al20  1  0.186841  0.499208  0.443233  1
  Al  Al21  1  0.812660  0.500688  0.560596  1
  Al  Al22  1  0.731952  0.172336  0.183481  1
  Al  Al23  1  0.265318  0.841059  0.815655  1
  Al  Al24  1  0.066208  0.625985  0.814473  1
  Al  Al25  1  0.947584  0.362250  0.184113  1
  Al  Al26  1  0.849639  0.042150  0.814920  1
  Al  Al27  1  0.138609  0.955674  0.183466  1
  Pt  Pt28  1  0.120247  0.489725  0.640562  1
  Pt  Pt29  1  0.881668  0.505062  0.363714  1
  Pt  Pt30  1  0.658742  0.172105  0.996296  1
  Pt  Pt31  1  0.343954  0.828004  0.996539  1
  Pt  Pt32  1  0.537979  0.168839  0.363906  1
  Pt  Pt33  1  0.462146  0.834507  0.640427  1
  Pt  Pt34  1  0.776261  0.176400  0.638960  1
  Pt  Pt35  1  0.217557  0.825864  0.365594  1
  Pt  Pt36  1  0.001215  0.499347  0.996138  1
