# generated using pymatgen
data_Y4Ga11GeIr
_symmetry_space_group_name_H-M   'P 1'
_cell_length_a   7.49112591
_cell_length_b   7.49112592
_cell_length_c   7.49112522
_cell_angle_alpha   109.70712788
_cell_angle_beta   109.00041572
_cell_angle_gamma   109.70713697
_symmetry_Int_Tables_number   1
_chemical_formula_structural   Y4Ga11GeIr
_chemical_formula_sum   'Y4 Ga11 Ge1 Ir1'
_cell_volume   323.59172975
_cell_formula_units_Z   1
loop_
 _symmetry_equiv_pos_site_id
 _symmetry_equiv_pos_as_xyz
  1  'x, y, z'
loop_
 _atom_site_type_symbol
 _atom_site_label
 _atom_site_symmetry_multiplicity
 _atom_site_fract_x
 _atom_site_fract_y
 _atom_site_fract_z
 _atom_site_occupancy
  Y  Y0  1  0.501644  0.500000  0.498356  1
  Y  Y1  1  0.998356  0.996713  0.498356  1
  Y  Y2  1  0.501644  0.003287  0.001644  1
  Y  Y3  1  0.998356  0.500000  0.001644  1
  Ga  Ga4  1  0.497599  0.752326  0.249925  1
  Ga  Ga5  1  0.497599  0.247674  0.745272  1
  Ga  Ga6  1  0.750075  0.247674  0.502401  1
  Ga  Ga7  1  0.254728  0.752326  0.502401  1
  Ga  Ga8  1  0.250000  0.500000  0.750000  1
  Ga  Ga9  1  0.292590  0.000000  0.292590  1
  Ga  Ga10  1  0.003666  0.293089  0.296755  1
  Ga  Ga11  1  0.003666  0.706911  0.710577  1
  Ga  Ga12  1  0.289423  0.293089  0.996334  1
  Ga  Ga13  1  0.703245  0.706911  0.996334  1
  Ga  Ga14  1  0.707410  0.000000  0.707410  1
  Ge  Ge15  1  0.750000  0.500000  0.250000  1
  Ir  Ir16  1  0.000000  0.000000  0.000000  1
