# generated using pymatgen
data_Dy8Ti2ReSi16Tc9
_symmetry_space_group_name_H-M   'P 1'
_cell_length_a   6.76954511
_cell_length_b   6.76954432
_cell_length_c   12.94714510
_cell_angle_alpha   89.98358567
_cell_angle_beta   90.01641643
_cell_angle_gamma   89.16465911
_symmetry_Int_Tables_number   1
_chemical_formula_structural   Dy8Ti2ReSi16Tc9
_chemical_formula_sum   'Dy8 Ti2 Re1 Si16 Tc9'
_cell_volume   593.26228917
_cell_formula_units_Z   1
loop_
 _symmetry_equiv_pos_site_id
 _symmetry_equiv_pos_as_xyz
  1  'x, y, z'
loop_
 _atom_site_type_symbol
 _atom_site_label
 _atom_site_symmetry_multiplicity
 _atom_site_fract_x
 _atom_site_fract_y
 _atom_site_fract_z
 _atom_site_occupancy
  Dy  Dy0  1  0.998173  0.663752  0.027546  1
  Dy  Dy1  1  0.001491  0.336472  0.528096  1
  Dy  Dy2  1  0.663752  0.998173  0.972454  1
  Dy  Dy3  1  0.179230  0.487886  0.783248  1
  Dy  Dy4  1  0.821405  0.511048  0.282874  1
  Dy  Dy5  1  0.487886  0.179230  0.216752  1
  Dy  Dy6  1  0.511048  0.821405  0.717126  1
  Dy  Dy7  1  0.336472  0.001491  0.471904  1
  Ti  Ti8  1  0.841533  0.158169  0.749775  1
  Ti  Ti9  1  0.158169  0.841533  0.250225  1
  Re  Re10  1  0.333720  0.333720  0.000000  1
  Si  Si11  1  0.014532  0.736578  0.444516  1
  Si  Si12  1  0.984972  0.262760  0.944103  1
  Si  Si13  1  0.736578  0.014532  0.555484  1
  Si  Si14  1  0.195894  0.470563  0.182403  1
  Si  Si15  1  0.804102  0.530309  0.682494  1
  Si  Si16  1  0.470563  0.195894  0.817597  1
  Si  Si17  1  0.530309  0.804102  0.317506  1
  Si  Si18  1  0.262760  0.984972  0.055897  1
  Si  Si19  1  0.788814  0.883690  0.182966  1
  Si  Si20  1  0.317904  0.601303  0.558401  1
  Si  Si21  1  0.682078  0.399379  0.058931  1
  Si  Si22  1  0.601303  0.317904  0.441599  1
  Si  Si23  1  0.399379  0.682078  0.941069  1
  Si  Si24  1  0.116801  0.210557  0.317784  1
  Si  Si25  1  0.210557  0.116801  0.682216  1
  Si  Si26  1  0.883690  0.788814  0.817034  1
  Tc  Tc27  1  0.307819  0.527847  0.364908  1
  Tc  Tc28  1  0.816872  0.019298  0.365382  1
  Tc  Tc29  1  0.979572  0.183014  0.134616  1
  Tc  Tc30  1  0.019298  0.816872  0.634618  1
  Tc  Tc31  1  0.527847  0.307819  0.635092  1
  Tc  Tc32  1  0.183014  0.979572  0.865384  1
  Tc  Tc33  1  0.665731  0.665731  0.500000  1
  Tc  Tc34  1  0.473637  0.693096  0.134723  1
  Tc  Tc35  1  0.693096  0.473637  0.865277  1
