# generated using pymatgen
data_Na(AcGe)4
_symmetry_space_group_name_H-M   'P 1'
_cell_length_a   8.03243200
_cell_length_b   8.48501800
_cell_length_c   16.25529600
_cell_angle_alpha   90.00000000
_cell_angle_beta   90.00000000
_cell_angle_gamma   90.00000000
_symmetry_Int_Tables_number   1
_chemical_formula_structural   Na(AcGe)4
_chemical_formula_sum   'Na4 Ac16 Ge16'
_cell_volume   1107.88506481
_cell_formula_units_Z   4
loop_
 _symmetry_equiv_pos_site_id
 _symmetry_equiv_pos_as_xyz
  1  'x, y, z'
loop_
 _atom_site_type_symbol
 _atom_site_label
 _atom_site_symmetry_multiplicity
 _atom_site_fract_x
 _atom_site_fract_y
 _atom_site_fract_z
 _atom_site_occupancy
  Na  Na0  1  0.155612  0.519052  0.750000  1
  Na  Na1  1  0.844388  0.480948  0.250000  1
  Na  Na2  1  0.344388  0.019052  0.250000  1
  Na  Na3  1  0.655612  0.980948  0.750000  1
  Ac  Ac4  1  0.324591  0.180234  0.625681  1
  Ac  Ac5  1  0.675409  0.819766  0.374319  1
  Ac  Ac6  1  0.175409  0.680234  0.374319  1
  Ac  Ac7  1  0.675409  0.819766  0.125681  1
  Ac  Ac8  1  0.824591  0.319766  0.625681  1
  Ac  Ac9  1  0.324591  0.180234  0.874319  1
  Ac  Ac10  1  0.824591  0.319766  0.874319  1
  Ac  Ac11  1  0.175409  0.680234  0.125681  1
  Ac  Ac12  1  0.028503  0.191358  0.103842  1
  Ac  Ac13  1  0.971497  0.808642  0.896158  1
  Ac  Ac14  1  0.471497  0.691358  0.896158  1
  Ac  Ac15  1  0.971497  0.808642  0.603842  1
  Ac  Ac16  1  0.528503  0.308642  0.103842  1
  Ac  Ac17  1  0.028503  0.191358  0.396158  1
  Ac  Ac18  1  0.528503  0.308642  0.396158  1
  Ac  Ac19  1  0.471497  0.691358  0.603842  1
  Ge  Ge20  1  0.262943  0.875748  0.750000  1
  Ge  Ge21  1  0.737057  0.124252  0.250000  1
  Ge  Ge22  1  0.237057  0.375748  0.250000  1
  Ge  Ge23  1  0.762943  0.624252  0.750000  1
  Ge  Ge24  1  0.022724  0.082965  0.750000  1
  Ge  Ge25  1  0.977276  0.917035  0.250000  1
  Ge  Ge26  1  0.477276  0.582965  0.250000  1
  Ge  Ge27  1  0.522724  0.417035  0.750000  1
  Ge  Ge28  1  0.151613  0.468533  0.535336  1
  Ge  Ge29  1  0.848387  0.531467  0.464664  1
  Ge  Ge30  1  0.348387  0.968533  0.464664  1
  Ge  Ge31  1  0.848387  0.531467  0.035336  1
  Ge  Ge32  1  0.651613  0.031467  0.535336  1
  Ge  Ge33  1  0.151613  0.468533  0.964664  1
  Ge  Ge34  1  0.651613  0.031467  0.964664  1
  Ge  Ge35  1  0.348387  0.968533  0.035336  1
