# generated using pymatgen
data_CaNdSn5Pd3
_symmetry_space_group_name_H-M   'P 1'
_cell_length_a   13.61241800
_cell_length_b   13.61241780
_cell_length_c   7.41671400
_cell_angle_alpha   90.00000000
_cell_angle_beta   90.00000000
_cell_angle_gamma   160.50452958
_symmetry_Int_Tables_number   1
_chemical_formula_structural   CaNdSn5Pd3
_chemical_formula_sum   'Ca2 Nd2 Sn10 Pd6'
_cell_volume   458.64891277
_cell_formula_units_Z   2
loop_
 _symmetry_equiv_pos_site_id
 _symmetry_equiv_pos_as_xyz
  1  'x, y, z'
loop_
 _atom_site_type_symbol
 _atom_site_label
 _atom_site_symmetry_multiplicity
 _atom_site_fract_x
 _atom_site_fract_y
 _atom_site_fract_z
 _atom_site_occupancy
  Ca  Ca0  1  0.477678  0.522322  0.737635  1
  Ca  Ca1  1  0.522322  0.477678  0.237635  1
  Nd  Nd2  1  0.173554  0.826446  0.753012  1
  Nd  Nd3  1  0.826446  0.173554  0.253012  1
  Sn  Sn4  1  0.881184  0.118816  0.727286  1
  Sn  Sn5  1  0.118816  0.881184  0.227286  1
  Sn  Sn6  1  0.702646  0.297354  0.051367  1
  Sn  Sn7  1  0.297354  0.702646  0.551367  1
  Sn  Sn8  1  0.597866  0.402134  0.608733  1
  Sn  Sn9  1  0.402134  0.597866  0.108733  1
  Sn  Sn10  1  0.952956  0.047044  0.399928  1
  Sn  Sn11  1  0.047044  0.952956  0.899928  1
  Sn  Sn12  1  0.290284  0.709716  0.977584  1
  Sn  Sn13  1  0.709716  0.290284  0.477584  1
  Pd  Pd14  1  0.051987  0.948013  0.521098  1
  Pd  Pd15  1  0.948013  0.051987  0.021098  1
  Pd  Pd16  1  0.777271  0.222729  0.773925  1
  Pd  Pd17  1  0.222729  0.777271  0.273925  1
  Pd  Pd18  1  0.395747  0.604253  0.477429  1
  Pd  Pd19  1  0.604253  0.395747  0.977429  1
