# generated using pymatgen
data_Y16Ho3MgIr12
_symmetry_space_group_name_H-M   'P 1'
_cell_length_a   10.90873800
_cell_length_b   10.90873800
_cell_length_c   6.33469900
_cell_angle_alpha   90.00000000
_cell_angle_beta   90.00000000
_cell_angle_gamma   90.00000000
_symmetry_Int_Tables_number   1
_chemical_formula_structural   Y16Ho3MgIr12
_chemical_formula_sum   'Y16 Ho3 Mg1 Ir12'
_cell_volume   753.83275854
_cell_formula_units_Z   1
loop_
 _symmetry_equiv_pos_site_id
 _symmetry_equiv_pos_as_xyz
  1  'x, y, z'
loop_
 _atom_site_type_symbol
 _atom_site_label
 _atom_site_symmetry_multiplicity
 _atom_site_fract_x
 _atom_site_fract_y
 _atom_site_fract_z
 _atom_site_occupancy
  Y  Y0  1  0.283868  0.084534  0.379002  1
  Y  Y1  1  0.290385  0.911863  0.879572  1
  Y  Y2  1  0.709615  0.088137  0.879572  1
  Y  Y3  1  0.716132  0.915466  0.379002  1
  Y  Y4  1  0.588913  0.791756  0.879520  1
  Y  Y5  1  0.587478  0.208309  0.377679  1
  Y  Y6  1  0.412522  0.791691  0.377679  1
  Y  Y7  1  0.411087  0.208244  0.879520  1
  Y  Y8  1  0.208309  0.412522  0.622321  1
  Y  Y9  1  0.208244  0.588913  0.120480  1
  Y  Y10  1  0.791756  0.411087  0.120480  1
  Y  Y11  1  0.791691  0.587478  0.622321  1
  Y  Y12  1  0.911863  0.709615  0.120428  1
  Y  Y13  1  0.915466  0.283868  0.620998  1
  Y  Y14  1  0.084534  0.716132  0.620998  1
  Y  Y15  1  0.088137  0.290385  0.120428  1
  Ho  Ho16  1  0.000000  0.000000  0.000000  1
  Ho  Ho17  1  0.500000  0.500000  0.000000  1
  Ho  Ho18  1  0.500000  0.500000  0.500000  1
  Mg  Mg19  1  0.000000  0.000000  0.500000  1
  Ir  Ir20  1  0.847896  0.152878  0.247191  1
  Ir  Ir21  1  0.847122  0.847896  0.752809  1
  Ir  Ir22  1  0.152878  0.152104  0.752809  1
  Ir  Ir23  1  0.152104  0.847122  0.247191  1
  Ir  Ir24  1  0.652893  0.347549  0.748188  1
  Ir  Ir25  1  0.652451  0.652893  0.251812  1
  Ir  Ir26  1  0.347549  0.347107  0.251812  1
  Ir  Ir27  1  0.347107  0.652451  0.748188  1
  Ir  Ir28  1  0.500000  0.000000  0.125365  1
  Ir  Ir29  1  0.500000  0.000000  0.620965  1
  Ir  Ir30  1  0.000000  0.500000  0.874635  1
  Ir  Ir31  1  0.000000  0.500000  0.379035  1
