# generated using pymatgen
data_Sc5Co19SiP11
_symmetry_space_group_name_H-M   'P 1'
_cell_length_a   11.83620614
_cell_length_b   11.84412551
_cell_length_c   3.59348200
_cell_angle_alpha   90.00000000
_cell_angle_beta   90.00000000
_cell_angle_gamma   120.02213538
_symmetry_Int_Tables_number   1
_chemical_formula_structural   Sc5Co19SiP11
_chemical_formula_sum   'Sc5 Co19 Si1 P11'
_cell_volume   436.17896100
_cell_formula_units_Z   1
loop_
 _symmetry_equiv_pos_site_id
 _symmetry_equiv_pos_as_xyz
  1  'x, y, z'
loop_
 _atom_site_type_symbol
 _atom_site_label
 _atom_site_symmetry_multiplicity
 _atom_site_fract_x
 _atom_site_fract_y
 _atom_site_fract_z
 _atom_site_occupancy
  Sc  Sc0  1  0.332273  0.666219  0.500000  1
  Sc  Sc1  1  0.667727  0.333945  0.500000  1
  Sc  Sc2  1  0.000000  0.183275  0.000000  1
  Sc  Sc3  1  0.812961  0.813334  0.000000  1
  Sc  Sc4  1  0.187039  0.000373  0.000000  1
  Co  Co5  1  0.623710  0.820803  0.500000  1
  Co  Co6  1  0.178402  0.803973  0.500000  1
  Co  Co7  1  0.201924  0.376523  0.500000  1
  Co  Co8  1  0.376290  0.197093  0.500000  1
  Co  Co9  1  0.821598  0.625571  0.500000  1
  Co  Co10  1  0.798076  0.174599  0.500000  1
  Co  Co11  1  0.000000  0.556130  0.500000  1
  Co  Co12  1  0.450312  0.447643  0.500000  1
  Co  Co13  1  0.549688  0.997329  0.500000  1
  Co  Co14  1  0.516253  0.642463  0.000000  1
  Co  Co15  1  0.356542  0.872769  0.000000  1
  Co  Co16  1  0.129129  0.486339  0.000000  1
  Co  Co17  1  0.483747  0.126210  0.000000  1
  Co  Co18  1  0.643458  0.516227  0.000000  1
  Co  Co19  1  0.870871  0.357210  0.000000  1
  Co  Co20  1  0.000000  0.717565  0.000000  1
  Co  Co21  1  0.285677  0.284063  0.000000  1
  Co  Co22  1  0.714323  0.998386  0.000000  1
  Co  Co23  1  0.000000  0.000643  0.500000  1
  Si  Si24  1  0.000000  0.364117  0.500000  1
  P  P25  1  0.636251  0.636287  0.500000  1
  P  P26  1  0.363749  0.000037  0.500000  1
  P  P27  1  0.515993  0.831396  0.000000  1
  P  P28  1  0.166437  0.684718  0.000000  1
  P  P29  1  0.315558  0.483022  0.000000  1
  P  P30  1  0.484007  0.315404  0.000000  1
  P  P31  1  0.833563  0.518281  0.000000  1
  P  P32  1  0.684442  0.167465  0.000000  1
  P  P33  1  0.000000  0.822883  0.500000  1
  P  P34  1  0.178966  0.178332  0.500000  1
  P  P35  1  0.821034  0.999367  0.500000  1
