# generated using pymatgen
data_SmTmSi3(AsRh3)4
_symmetry_space_group_name_H-M   'P 1'
_cell_length_a   9.90367900
_cell_length_b   9.90367959
_cell_length_c   3.89287900
_cell_angle_alpha   90.00000000
_cell_angle_beta   90.00000000
_cell_angle_gamma   120.00000136
_symmetry_Int_Tables_number   1
_chemical_formula_structural   SmTmSi3(AsRh3)4
_chemical_formula_sum   'Sm1 Tm1 Si3 As4 Rh12'
_cell_volume   330.66990274
_cell_formula_units_Z   1
loop_
 _symmetry_equiv_pos_site_id
 _symmetry_equiv_pos_as_xyz
  1  'x, y, z'
loop_
 _atom_site_type_symbol
 _atom_site_label
 _atom_site_symmetry_multiplicity
 _atom_site_fract_x
 _atom_site_fract_y
 _atom_site_fract_z
 _atom_site_occupancy
  Sm  Sm0  1  0.333333  0.666667  0.244516  1
  Tm  Tm1  1  0.666667  0.333333  0.743501  1
  Si  Si2  1  0.404615  0.113502  0.242334  1
  Si  Si3  1  0.708886  0.595385  0.242334  1
  Si  Si4  1  0.886498  0.291114  0.242334  1
  As  As5  1  0.000000  0.000000  0.635235  1
  As  As6  1  0.597177  0.883740  0.745318  1
  As  As7  1  0.286564  0.402823  0.745318  1
  As  As8  1  0.116260  0.713436  0.745318  1
  Rh  Rh9  1  0.450955  0.378564  0.241881  1
  Rh  Rh10  1  0.927609  0.549045  0.241881  1
  Rh  Rh11  1  0.621436  0.072391  0.241881  1
  Rh  Rh12  1  0.559376  0.614330  0.744186  1
  Rh  Rh13  1  0.054955  0.440624  0.744186  1
  Rh  Rh14  1  0.385670  0.945045  0.744186  1
  Rh  Rh15  1  0.146633  0.888679  0.244541  1
  Rh  Rh16  1  0.742047  0.853367  0.244541  1
  Rh  Rh17  1  0.111321  0.257953  0.244541  1
  Rh  Rh18  1  0.848289  0.125170  0.740657  1
  Rh  Rh19  1  0.276880  0.151711  0.740657  1
  Rh  Rh20  1  0.874830  0.723120  0.740657  1
