# generated using pymatgen
data_Li8B(PPd4)3
_symmetry_space_group_name_H-M   'P 1'
_cell_length_a   7.09847293
_cell_length_b   7.09847315
_cell_length_c   7.09847304
_cell_angle_alpha   90.12775575
_cell_angle_beta   89.87224158
_cell_angle_gamma   89.87224380
_symmetry_Int_Tables_number   1
_chemical_formula_structural   Li8B(PPd4)3
_chemical_formula_sum   'Li8 B1 P3 Pd12'
_cell_volume   357.67745596
_cell_formula_units_Z   1
loop_
 _symmetry_equiv_pos_site_id
 _symmetry_equiv_pos_as_xyz
  1  'x, y, z'
loop_
 _atom_site_type_symbol
 _atom_site_label
 _atom_site_symmetry_multiplicity
 _atom_site_fract_x
 _atom_site_fract_y
 _atom_site_fract_z
 _atom_site_occupancy
  Li  Li0  1  0.289998  0.295650  0.291352  1
  Li  Li1  1  0.041352  0.454350  0.539998  1
  Li  Li2  1  0.545650  0.039998  0.458648  1
  Li  Li3  1  0.453726  0.546274  0.046274  1
  Li  Li4  1  0.208648  0.710002  0.795650  1
  Li  Li5  1  0.960002  0.958648  0.954350  1
  Li  Li6  1  0.796274  0.203726  0.703726  1
  Li  Li7  1  0.704350  0.791352  0.210002  1
  B  B8  1  0.125000  0.875000  0.375000  1
  P  P9  1  0.879548  0.375000  0.129548  1
  P  P10  1  0.370452  0.120452  0.875000  1
  P  P11  1  0.625000  0.629548  0.620452  1
  Pd  Pd12  1  0.184000  0.062409  0.610431  1
  Pd  Pd13  1  0.427467  0.375000  0.677467  1
  Pd  Pd14  1  0.066000  0.639569  0.187591  1
  Pd  Pd15  1  0.937591  0.110431  0.316000  1
  Pd  Pd16  1  0.312409  0.934000  0.139569  1
  Pd  Pd17  1  0.674401  0.424401  0.375000  1
  Pd  Pd18  1  0.575599  0.875000  0.825599  1
  Pd  Pd19  1  0.625000  0.177467  0.072533  1
  Pd  Pd20  1  0.360431  0.687591  0.434000  1
  Pd  Pd21  1  0.889569  0.816000  0.562409  1
  Pd  Pd22  1  0.125000  0.325599  0.924401  1
  Pd  Pd23  1  0.822533  0.572533  0.875000  1
