# generated using pymatgen
data_TbTh2In3PdPt2
_symmetry_space_group_name_H-M   'P 1'
_cell_length_a   7.74599202
_cell_length_b   7.74599085
_cell_length_c   4.03300900
_cell_angle_alpha   90.00000000
_cell_angle_beta   90.00000000
_cell_angle_gamma   120.12819156
_symmetry_Int_Tables_number   1
_chemical_formula_structural   TbTh2In3PdPt2
_chemical_formula_sum   'Tb1 Th2 In3 Pd1 Pt2'
_cell_volume   209.29140823
_cell_formula_units_Z   1
loop_
 _symmetry_equiv_pos_site_id
 _symmetry_equiv_pos_as_xyz
  1  'x, y, z'
loop_
 _atom_site_type_symbol
 _atom_site_label
 _atom_site_symmetry_multiplicity
 _atom_site_fract_x
 _atom_site_fract_y
 _atom_site_fract_z
 _atom_site_occupancy
  Tb  Tb0  1  0.588377  0.588377  0.000000  1
  Th  Th1  1  0.413542  0.999771  0.000000  1
  Th  Th2  1  0.999771  0.413542  0.000000  1
  In  In3  1  0.260345  0.260345  0.500000  1
  In  In4  1  0.989838  0.748235  0.500000  1
  In  In5  1  0.748235  0.989838  0.500000  1
  Pd  Pd6  1  0.006603  0.006603  0.000000  1
  Pt  Pt7  1  0.667921  0.325367  0.500000  1
  Pt  Pt8  1  0.325367  0.667921  0.500000  1
