# generated using pymatgen
data_Nd7Lu3(Sn3Cl)2
_symmetry_space_group_name_H-M   'P 1'
_cell_length_a   9.30696900
_cell_length_b   9.30696911
_cell_length_c   6.63679500
_cell_angle_alpha   90.00000000
_cell_angle_beta   90.00000000
_cell_angle_gamma   119.99999606
_symmetry_Int_Tables_number   1
_chemical_formula_structural   Nd7Lu3(Sn3Cl)2
_chemical_formula_sum   'Nd7 Lu3 Sn6 Cl2'
_cell_volume   497.85811664
_cell_formula_units_Z   1
loop_
 _symmetry_equiv_pos_site_id
 _symmetry_equiv_pos_as_xyz
  1  'x, y, z'
loop_
 _atom_site_type_symbol
 _atom_site_label
 _atom_site_symmetry_multiplicity
 _atom_site_fract_x
 _atom_site_fract_y
 _atom_site_fract_z
 _atom_site_occupancy
  Nd  Nd0  1  0.261937  0.000390  0.249249  1
  Nd  Nd1  1  0.738453  0.000390  0.750751  1
  Nd  Nd2  1  0.999610  0.261547  0.249249  1
  Nd  Nd3  1  0.999610  0.738063  0.750751  1
  Nd  Nd4  1  0.738453  0.738063  0.249249  1
  Nd  Nd5  1  0.261937  0.261547  0.750751  1
  Nd  Nd6  1  0.333333  0.666667  0.500000  1
  Lu  Lu7  1  0.333333  0.666667  0.000000  1
  Lu  Lu8  1  0.666667  0.333333  0.000000  1
  Lu  Lu9  1  0.666667  0.333333  0.500000  1
  Sn  Sn10  1  0.609725  0.003145  0.248150  1
  Sn  Sn11  1  0.393420  0.003145  0.751850  1
  Sn  Sn12  1  0.996855  0.606580  0.248150  1
  Sn  Sn13  1  0.996855  0.390275  0.751850  1
  Sn  Sn14  1  0.393420  0.390275  0.248150  1
  Sn  Sn15  1  0.609725  0.606580  0.751850  1
  Cl  Cl16  1  0.000000  0.000000  0.000000  1
  Cl  Cl17  1  0.000000  0.000000  0.500000  1
