# generated using pymatgen
data_Tb6Cd23P
_symmetry_space_group_name_H-M   'P 1'
_cell_length_a   9.95250324
_cell_length_b   9.95250298
_cell_length_c   9.95250300
_cell_angle_alpha   60.00000325
_cell_angle_beta   60.00000414
_cell_angle_gamma   60.00000379
_symmetry_Int_Tables_number   1
_chemical_formula_structural   Tb6Cd23P
_chemical_formula_sum   'Tb6 Cd23 P1'
_cell_volume   697.07900080
_cell_formula_units_Z   1
loop_
 _symmetry_equiv_pos_site_id
 _symmetry_equiv_pos_as_xyz
  1  'x, y, z'
loop_
 _atom_site_type_symbol
 _atom_site_label
 _atom_site_symmetry_multiplicity
 _atom_site_fract_x
 _atom_site_fract_y
 _atom_site_fract_z
 _atom_site_occupancy
  Tb  Tb0  1  0.801174  0.801174  0.198826  1
  Tb  Tb1  1  0.198826  0.801174  0.198826  1
  Tb  Tb2  1  0.801174  0.198826  0.198826  1
  Tb  Tb3  1  0.198826  0.198826  0.801174  1
  Tb  Tb4  1  0.801174  0.198826  0.801174  1
  Tb  Tb5  1  0.198826  0.801174  0.801174  1
  Cd  Cd6  1  0.836105  0.836105  0.491687  1
  Cd  Cd7  1  0.836105  0.491687  0.836105  1
  Cd  Cd8  1  0.491687  0.836105  0.836105  1
  Cd  Cd9  1  0.836105  0.836105  0.836105  1
  Cd  Cd10  1  0.163895  0.163895  0.508313  1
  Cd  Cd11  1  0.163895  0.508313  0.163895  1
  Cd  Cd12  1  0.508313  0.163895  0.163895  1
  Cd  Cd13  1  0.163895  0.163895  0.163895  1
  Cd  Cd14  1  0.621373  0.621373  0.135881  1
  Cd  Cd15  1  0.621373  0.135881  0.621373  1
  Cd  Cd16  1  0.135881  0.621373  0.621373  1
  Cd  Cd17  1  0.621373  0.621373  0.621373  1
  Cd  Cd18  1  0.378627  0.378627  0.864119  1
  Cd  Cd19  1  0.378627  0.864119  0.378627  1
  Cd  Cd20  1  0.864119  0.378627  0.378627  1
  Cd  Cd21  1  0.378627  0.378627  0.378627  1
  Cd  Cd22  1  0.000000  0.000000  0.500000  1
  Cd  Cd23  1  0.500000  0.000000  0.500000  1
  Cd  Cd24  1  0.000000  0.500000  0.500000  1
  Cd  Cd25  1  0.500000  0.500000  0.000000  1
  Cd  Cd26  1  0.000000  0.500000  0.000000  1
  Cd  Cd27  1  0.500000  0.000000  0.000000  1
  Cd  Cd28  1  0.500000  0.500000  0.500000  1
  P  P29  1  0.000000  0.000000  0.000000  1
