# generated using pymatgen
data_YEr5VFeB14
_symmetry_space_group_name_H-M   'P 1'
_cell_length_a   8.02788163
_cell_length_b   8.02788088
_cell_length_c   9.29578600
_cell_angle_alpha   90.00000000
_cell_angle_beta   90.00000000
_cell_angle_gamma   155.47035860
_symmetry_Int_Tables_number   1
_chemical_formula_structural   YEr5VFeB14
_chemical_formula_sum   'Y1 Er5 V1 Fe1 B14'
_cell_volume   248.71823570
_cell_formula_units_Z   1
loop_
 _symmetry_equiv_pos_site_id
 _symmetry_equiv_pos_as_xyz
  1  'x, y, z'
loop_
 _atom_site_type_symbol
 _atom_site_label
 _atom_site_symmetry_multiplicity
 _atom_site_fract_x
 _atom_site_fract_y
 _atom_site_fract_z
 _atom_site_occupancy
  Y  Y0  1  0.755308  0.244692  0.250000  1
  Er  Er1  1  0.241417  0.758583  0.750000  1
  Er  Er2  1  0.894724  0.105276  0.562967  1
  Er  Er3  1  0.106001  0.893999  0.442655  1
  Er  Er4  1  0.106001  0.893999  0.057345  1
  Er  Er5  1  0.894724  0.105276  0.937033  1
  V  V6  1  0.947905  0.052095  0.250000  1
  Fe  Fe7  1  0.054353  0.945647  0.750000  1
  B  B8  1  0.544171  0.455829  0.250000  1
  B  B9  1  0.460889  0.539111  0.750000  1
  B  B10  1  0.521533  0.478467  0.902713  1
  B  B11  1  0.479996  0.520004  0.092819  1
  B  B12  1  0.479996  0.520004  0.407181  1
  B  B13  1  0.521533  0.478467  0.597287  1
  B  B14  1  0.629474  0.370526  0.847045  1
  B  B15  1  0.367383  0.632617  0.148095  1
  B  B16  1  0.726851  0.273149  0.963870  1
  B  B17  1  0.272016  0.727984  0.029831  1
  B  B18  1  0.272016  0.727984  0.470169  1
  B  B19  1  0.726851  0.273149  0.536130  1
  B  B20  1  0.629474  0.370526  0.652955  1
  B  B21  1  0.367383  0.632617  0.351905  1
