# generated using pymatgen
data_TbDy9(GaSb)3
_symmetry_space_group_name_H-M   'P 1'
_cell_length_a   8.79116014
_cell_length_b   8.79764960
_cell_length_c   6.49794600
_cell_angle_alpha   90.00000000
_cell_angle_beta   90.00000000
_cell_angle_gamma   119.99626047
_symmetry_Int_Tables_number   1
_chemical_formula_structural   TbDy9(GaSb)3
_chemical_formula_sum   'Tb1 Dy9 Ga3 Sb3'
_cell_volume   435.24715930
_cell_formula_units_Z   1
loop_
 _symmetry_equiv_pos_site_id
 _symmetry_equiv_pos_as_xyz
  1  'x, y, z'
loop_
 _atom_site_type_symbol
 _atom_site_label
 _atom_site_symmetry_multiplicity
 _atom_site_fract_x
 _atom_site_fract_y
 _atom_site_fract_z
 _atom_site_occupancy
  Tb  Tb0  1  0.242476  0.231534  0.750000  1
  Dy  Dy1  1  0.010949  0.768225  0.750000  1
  Dy  Dy2  1  0.012228  0.248610  0.250000  1
  Dy  Dy3  1  0.763806  0.751495  0.250000  1
  Dy  Dy4  1  0.754696  0.000004  0.750000  1
  Dy  Dy5  1  0.235411  0.999905  0.250000  1
  Dy  Dy6  1  0.327060  0.666865  0.497121  1
  Dy  Dy7  1  0.660318  0.333249  0.002909  1
  Dy  Dy8  1  0.660318  0.333249  0.497091  1
  Dy  Dy9  1  0.327060  0.666865  0.002879  1
  Ga  Ga10  1  0.397813  0.999802  0.750000  1
  Ga  Ga11  1  0.395697  0.396501  0.250000  1
  Ga  Ga12  1  0.999107  0.603424  0.250000  1
  Sb  Sb13  1  0.997360  0.392424  0.750000  1
  Sb  Sb14  1  0.605428  0.607841  0.750000  1
  Sb  Sb15  1  0.610274  0.000005  0.250000  1
