# generated using pymatgen
data_Yb4PtRh3O14
_symmetry_space_group_name_H-M   'P 1'
_cell_length_a   7.19997997
_cell_length_b   7.19998092
_cell_length_c   7.19998031
_cell_angle_alpha   60.09696539
_cell_angle_beta   60.09697499
_cell_angle_gamma   60.09697573
_symmetry_Int_Tables_number   1
_chemical_formula_structural   Yb4PtRh3O14
_chemical_formula_sum   'Yb4 Pt1 Rh3 O14'
_cell_volume   264.50394366
_cell_formula_units_Z   1
loop_
 _symmetry_equiv_pos_site_id
 _symmetry_equiv_pos_as_xyz
  1  'x, y, z'
loop_
 _atom_site_type_symbol
 _atom_site_label
 _atom_site_symmetry_multiplicity
 _atom_site_fract_x
 _atom_site_fract_y
 _atom_site_fract_z
 _atom_site_occupancy
  Yb  Yb0  1  0.625000  0.125000  0.125000  1
  Yb  Yb1  1  0.125000  0.125000  0.125000  1
  Yb  Yb2  1  0.125000  0.625000  0.125000  1
  Yb  Yb3  1  0.125000  0.125000  0.625000  1
  Pt  Pt4  1  0.625000  0.625000  0.625000  1
  Rh  Rh5  1  0.625000  0.625000  0.125000  1
  Rh  Rh6  1  0.625000  0.125000  0.625000  1
  Rh  Rh7  1  0.125000  0.625000  0.625000  1
  O  O8  1  0.703856  0.297535  0.297535  1
  O  O9  1  0.706564  0.706564  0.292836  1
  O  O10  1  0.297535  0.703856  0.297535  1
  O  O11  1  0.999966  0.999966  0.999966  1
  O  O12  1  0.706564  0.292836  0.706564  1
  O  O13  1  0.957164  0.543436  0.543436  1
  O  O14  1  0.292836  0.706564  0.706564  1
  O  O15  1  0.543436  0.957164  0.543436  1
  O  O16  1  0.250034  0.250034  0.250034  1
  O  O17  1  0.952465  0.546144  0.952465  1
  O  O18  1  0.543436  0.543436  0.957164  1
  O  O19  1  0.952465  0.952465  0.546144  1
  O  O20  1  0.546144  0.952465  0.952465  1
  O  O21  1  0.297535  0.297535  0.703856  1
