# generated using pymatgen
data_Er4B16MoW3
_symmetry_space_group_name_H-M   'P 1'
_cell_length_a   3.60854700
_cell_length_b   6.01183300
_cell_length_c   11.62642401
_cell_angle_alpha   90.00417668
_cell_angle_beta   90.00000000
_cell_angle_gamma   90.00000000
_symmetry_Int_Tables_number   1
_chemical_formula_structural   Er4B16MoW3
_chemical_formula_sum   'Er4 B16 Mo1 W3'
_cell_volume   252.22343191
_cell_formula_units_Z   1
loop_
 _symmetry_equiv_pos_site_id
 _symmetry_equiv_pos_as_xyz
  1  'x, y, z'
loop_
 _atom_site_type_symbol
 _atom_site_label
 _atom_site_symmetry_multiplicity
 _atom_site_fract_x
 _atom_site_fract_y
 _atom_site_fract_z
 _atom_site_occupancy
  Er  Er0  1  0.000000  0.627165  0.350390  1
  Er  Er1  1  0.000000  0.373125  0.649749  1
  Er  Er2  1  0.000000  0.126908  0.149622  1
  Er  Er3  1  0.000000  0.873103  0.850158  1
  B  B4  1  0.500000  0.787204  0.186737  1
  B  B5  1  0.500000  0.212724  0.813153  1
  B  B6  1  0.500000  0.287293  0.313111  1
  B  B7  1  0.500000  0.713276  0.686524  1
  B  B8  1  0.500000  0.867145  0.032088  1
  B  B9  1  0.500000  0.132851  0.967915  1
  B  B10  1  0.500000  0.367598  0.468054  1
  B  B11  1  0.500000  0.632990  0.532216  1
  B  B12  1  0.500000  0.885071  0.452584  1
  B  B13  1  0.500000  0.114392  0.547774  1
  B  B14  1  0.500000  0.385456  0.047544  1
  B  B15  1  0.500000  0.614544  0.952461  1
  B  B16  1  0.500000  0.975517  0.306241  1
  B  B17  1  0.500000  0.023929  0.693632  1
  B  B18  1  0.500000  0.475834  0.193577  1
  B  B19  1  0.500000  0.524329  0.806344  1
  Mo  Mo20  1  0.000000  0.869158  0.584455  1
  W  W21  1  0.000000  0.631150  0.084916  1
  W  W22  1  0.000000  0.368750  0.915197  1
  W  W23  1  0.000000  0.130489  0.415560  1
