# generated using pymatgen
data_PrNd2Sn5Pd6
_symmetry_space_group_name_H-M   'P 1'
_cell_length_a   4.53916000
_cell_length_b   9.83069700
_cell_length_c   13.75951000
_cell_angle_alpha   90.00000000
_cell_angle_beta   90.00000000
_cell_angle_gamma   90.00000000
_symmetry_Int_Tables_number   1
_chemical_formula_structural   PrNd2Sn5Pd6
_chemical_formula_sum   'Pr2 Nd4 Sn10 Pd12'
_cell_volume   613.99208142
_cell_formula_units_Z   2
loop_
 _symmetry_equiv_pos_site_id
 _symmetry_equiv_pos_as_xyz
  1  'x, y, z'
loop_
 _atom_site_type_symbol
 _atom_site_label
 _atom_site_symmetry_multiplicity
 _atom_site_fract_x
 _atom_site_fract_y
 _atom_site_fract_z
 _atom_site_occupancy
  Pr  Pr0  1  0.500000  0.770671  0.500000  1
  Pr  Pr1  1  0.000000  0.229329  0.000000  1
  Nd  Nd2  1  0.500000  0.750546  0.811179  1
  Nd  Nd3  1  0.500000  0.750546  0.188821  1
  Nd  Nd4  1  0.000000  0.249454  0.688821  1
  Nd  Nd5  1  0.000000  0.249454  0.311179  1
  Sn  Sn6  1  0.500000  0.480665  0.634537  1
  Sn  Sn7  1  0.500000  0.480665  0.365463  1
  Sn  Sn8  1  0.000000  0.519335  0.865463  1
  Sn  Sn9  1  0.000000  0.519335  0.134537  1
  Sn  Sn10  1  0.500000  0.108008  0.829684  1
  Sn  Sn11  1  0.500000  0.108008  0.170316  1
  Sn  Sn12  1  0.000000  0.891992  0.670316  1
  Sn  Sn13  1  0.000000  0.891992  0.329684  1
  Sn  Sn14  1  0.500000  0.225667  0.500000  1
  Sn  Sn15  1  0.000000  0.774333  0.000000  1
  Pd  Pd16  1  0.500000  0.027575  0.637079  1
  Pd  Pd17  1  0.500000  0.027575  0.362921  1
  Pd  Pd18  1  0.000000  0.972425  0.862921  1
  Pd  Pd19  1  0.000000  0.972425  0.137079  1
  Pd  Pd20  1  0.000000  0.042297  0.500000  1
  Pd  Pd21  1  0.500000  0.957703  0.000000  1
  Pd  Pd22  1  0.500000  0.381716  0.830541  1
  Pd  Pd23  1  0.500000  0.381716  0.169459  1
  Pd  Pd24  1  0.000000  0.618284  0.669459  1
  Pd  Pd25  1  0.000000  0.618284  0.330541  1
  Pd  Pd26  1  0.000000  0.430803  0.500000  1
  Pd  Pd27  1  0.500000  0.569197  0.000000  1
