# generated using pymatgen
data_ErTm3ReB12Ir
_symmetry_space_group_name_H-M   'P 1'
_cell_length_a   3.63429400
_cell_length_b   9.08818508
_cell_length_c   11.47092201
_cell_angle_alpha   90.30287033
_cell_angle_beta   90.00000000
_cell_angle_gamma   90.00000000
_symmetry_Int_Tables_number   1
_chemical_formula_structural   ErTm3ReB12Ir
_chemical_formula_sum   'Er2 Tm6 Re2 B24 Ir2'
_cell_volume   378.86935551
_cell_formula_units_Z   2
loop_
 _symmetry_equiv_pos_site_id
 _symmetry_equiv_pos_as_xyz
  1  'x, y, z'
loop_
 _atom_site_type_symbol
 _atom_site_label
 _atom_site_symmetry_multiplicity
 _atom_site_fract_x
 _atom_site_fract_y
 _atom_site_fract_z
 _atom_site_occupancy
  Er  Er0  1  0.000000  0.316372  0.409787  1
  Er  Er1  1  0.000000  0.683628  0.590213  1
  Tm  Tm2  1  0.000000  0.826219  0.082008  1
  Tm  Tm3  1  0.000000  0.173781  0.917992  1
  Tm  Tm4  1  0.000000  0.946163  0.372372  1
  Tm  Tm5  1  0.000000  0.053837  0.627628  1
  Tm  Tm6  1  0.000000  0.441785  0.125642  1
  Tm  Tm7  1  0.000000  0.558215  0.874358  1
  Re  Re8  1  0.000000  0.138213  0.179869  1
  Re  Re9  1  0.000000  0.861787  0.820131  1
  B  B10  1  0.500000  0.554013  0.434280  1
  B  B11  1  0.500000  0.445987  0.565720  1
  B  B12  1  0.500000  0.053030  0.066785  1
  B  B13  1  0.500000  0.946970  0.933215  1
  B  B14  1  0.500000  0.749959  0.421383  1
  B  B15  1  0.500000  0.250041  0.578617  1
  B  B16  1  0.500000  0.248415  0.080155  1
  B  B17  1  0.500000  0.751585  0.919845  1
  B  B18  1  0.500000  0.791469  0.265654  1
  B  B19  1  0.500000  0.208531  0.734346  1
  B  B20  1  0.500000  0.292818  0.234433  1
  B  B21  1  0.500000  0.707182  0.765567  1
  B  B22  1  0.500000  0.631602  0.183498  1
  B  B23  1  0.500000  0.368398  0.816502  1
  B  B24  1  0.500000  0.131241  0.315127  1
  B  B25  1  0.500000  0.868759  0.684873  1
  B  B26  1  0.500000  0.981841  0.213063  1
  B  B27  1  0.500000  0.018159  0.786937  1
  B  B28  1  0.500000  0.481926  0.287135  1
  B  B29  1  0.500000  0.518074  0.712865  1
  B  B30  1  0.500000  0.606239  0.029748  1
  B  B31  1  0.500000  0.393761  0.970252  1
  B  B32  1  0.500000  0.106447  0.471141  1
  B  B33  1  0.500000  0.893553  0.528859  1
  Ir  Ir34  1  0.000000  0.636893  0.322007  1
  Ir  Ir35  1  0.000000  0.363107  0.677993  1
