# generated using pymatgen
data_K6FeHgF12
_symmetry_space_group_name_H-M   'P 1'
_cell_length_a   6.48618588
_cell_length_b   6.24350385
_cell_length_c   10.89404000
_cell_angle_alpha   55.30778962
_cell_angle_beta   89.71387263
_cell_angle_gamma   90.10285902
_symmetry_Int_Tables_number   1
_chemical_formula_structural   K6FeHgF12
_chemical_formula_sum   'K6 Fe1 Hg1 F12'
_cell_volume   362.72977579
_cell_formula_units_Z   1
loop_
 _symmetry_equiv_pos_site_id
 _symmetry_equiv_pos_as_xyz
  1  'x, y, z'
loop_
 _atom_site_type_symbol
 _atom_site_label
 _atom_site_symmetry_multiplicity
 _atom_site_fract_x
 _atom_site_fract_y
 _atom_site_fract_z
 _atom_site_occupancy
  K  K0  1  0.500000  0.500000  0.000000  1
  K  K1  1  0.000000  0.500000  0.500000  1
  K  K2  1  0.055685  0.743809  0.738803  1
  K  K3  1  0.944315  0.256191  0.261197  1
  K  K4  1  0.551270  0.275255  0.734073  1
  K  K5  1  0.448730  0.724745  0.265927  1
  Fe  Fe6  1  0.500000  0.000000  0.500000  1
  Hg  Hg7  1  0.000000  0.000000  0.000000  1
  F  F8  1  0.749460  0.779871  0.556916  1
  F  F9  1  0.250540  0.220129  0.443084  1
  F  F10  1  0.283937  0.248485  0.924301  1
  F  F11  1  0.716063  0.751515  0.075699  1
  F  F12  1  0.456617  0.885416  0.708296  1
  F  F13  1  0.543383  0.114584  0.291704  1
  F  F14  1  0.940426  0.113980  0.765613  1
  F  F15  1  0.059574  0.886020  0.234387  1
  F  F16  1  0.329037  0.702998  0.540760  1
  F  F17  1  0.670963  0.297002  0.459240  1
  F  F18  1  0.827505  0.335029  0.947264  1
  F  F19  1  0.172495  0.664971  0.052736  1
