# generated using pymatgen
data_TbPa2(AlPt)3
_symmetry_space_group_name_H-M   'P 1'
_cell_length_a   7.11187952
_cell_length_b   7.08835053
_cell_length_c   4.12902500
_cell_angle_alpha   90.00000000
_cell_angle_beta   90.00000000
_cell_angle_gamma   119.89063390
_symmetry_Int_Tables_number   1
_chemical_formula_structural   TbPa2(AlPt)3
_chemical_formula_sum   'Tb1 Pa2 Al3 Pt3'
_cell_volume   180.46179748
_cell_formula_units_Z   1
loop_
 _symmetry_equiv_pos_site_id
 _symmetry_equiv_pos_as_xyz
  1  'x, y, z'
loop_
 _atom_site_type_symbol
 _atom_site_label
 _atom_site_symmetry_multiplicity
 _atom_site_fract_x
 _atom_site_fract_y
 _atom_site_fract_z
 _atom_site_occupancy
  Tb  Tb0  1  0.000000  0.583151  0.500000  1
  Pa  Pa1  1  0.422947  0.421069  0.500000  1
  Pa  Pa2  1  0.577053  0.998121  0.500000  1
  Al  Al3  1  0.766727  0.760982  0.000000  1
  Al  Al4  1  0.233273  0.994256  0.000000  1
  Al  Al5  1  0.000000  0.243268  0.000000  1
  Pt  Pt6  1  0.652152  0.320947  0.000000  1
  Pt  Pt7  1  0.347848  0.668795  0.000000  1
  Pt  Pt8  1  0.000000  0.009409  0.500000  1
