# generated using pymatgen
data_Ce2Si4Mo3
_symmetry_space_group_name_H-M   'P 1'
_cell_length_a   6.97455200
_cell_length_b   6.87065931
_cell_length_c   6.94713304
_cell_angle_alpha   70.38155794
_cell_angle_beta   90.00000000
_cell_angle_gamma   90.00000000
_symmetry_Int_Tables_number   1
_chemical_formula_structural   Ce2Si4Mo3
_chemical_formula_sum   'Ce4 Si8 Mo6'
_cell_volume   313.57969542
_cell_formula_units_Z   2
loop_
 _symmetry_equiv_pos_site_id
 _symmetry_equiv_pos_as_xyz
  1  'x, y, z'
loop_
 _atom_site_type_symbol
 _atom_site_label
 _atom_site_symmetry_multiplicity
 _atom_site_fract_x
 _atom_site_fract_y
 _atom_site_fract_z
 _atom_site_occupancy
  Ce  Ce0  1  0.664459  0.439964  0.187899  1
  Ce  Ce1  1  0.164459  0.060036  0.812101  1
  Ce  Ce2  1  0.335541  0.560036  0.812101  1
  Ce  Ce3  1  0.835541  0.939964  0.187899  1
  Si  Si4  1  0.866404  0.131206  0.505113  1
  Si  Si5  1  0.366404  0.368794  0.494887  1
  Si  Si6  1  0.133596  0.868794  0.494887  1
  Si  Si7  1  0.633596  0.631206  0.505113  1
  Si  Si8  1  0.547125  0.875291  0.906417  1
  Si  Si9  1  0.047125  0.624709  0.093583  1
  Si  Si10  1  0.952875  0.375291  0.906417  1
  Si  Si11  1  0.452875  0.124709  0.093583  1
  Mo  Mo12  1  0.662519  0.253297  0.750411  1
  Mo  Mo13  1  0.162519  0.246703  0.249589  1
  Mo  Mo14  1  0.500000  0.000000  0.500000  1
  Mo  Mo15  1  0.000000  0.500000  0.500000  1
  Mo  Mo16  1  0.337481  0.746703  0.249589  1
  Mo  Mo17  1  0.837481  0.753297  0.750411  1
