# generated using pymatgen
data_TbY2(SiIr)2
_symmetry_space_group_name_H-M   'P 1'
_cell_length_a   5.60035865
_cell_length_b   5.60035847
_cell_length_c   13.26917951
_cell_angle_alpha   89.97057415
_cell_angle_beta   90.02942534
_cell_angle_gamma   137.10193397
_symmetry_Int_Tables_number   1
_chemical_formula_structural   TbY2(SiIr)2
_chemical_formula_sum   'Tb2 Y4 Si4 Ir4'
_cell_volume   283.28850951
_cell_formula_units_Z   2
loop_
 _symmetry_equiv_pos_site_id
 _symmetry_equiv_pos_as_xyz
  1  'x, y, z'
loop_
 _atom_site_type_symbol
 _atom_site_label
 _atom_site_symmetry_multiplicity
 _atom_site_fract_x
 _atom_site_fract_y
 _atom_site_fract_z
 _atom_site_occupancy
  Tb  Tb0  1  0.773941  0.226059  0.604212  1
  Tb  Tb1  1  0.226059  0.773941  0.395788  1
  Y  Y2  1  0.518148  0.481852  0.249889  1
  Y  Y3  1  0.774367  0.225633  0.895873  1
  Y  Y4  1  0.481852  0.518148  0.750111  1
  Y  Y5  1  0.225633  0.774367  0.104127  1
  Si  Si6  1  0.061552  0.938448  0.589840  1
  Si  Si7  1  0.061656  0.938344  0.910267  1
  Si  Si8  1  0.938448  0.061552  0.410160  1
  Si  Si9  1  0.938344  0.061656  0.089733  1
  Ir  Ir10  1  0.813486  0.186514  0.250236  1
  Ir  Ir11  1  0.186514  0.813486  0.749764  1
  Ir  Ir12  1  0.500000  0.500000  0.000000  1
  Ir  Ir13  1  0.500000  0.500000  0.500000  1
