# generated using pymatgen
data_Lu12Mn2CdPb2
_symmetry_space_group_name_H-M   'P 1'
_cell_length_a   8.27517817
_cell_length_b   8.27977091
_cell_length_c   8.27518000
_cell_angle_alpha   109.59566505
_cell_angle_beta   109.59116956
_cell_angle_gamma   109.20472495
_symmetry_Int_Tables_number   1
_chemical_formula_structural   Lu12Mn2CdPb2
_chemical_formula_sum   'Lu12 Mn2 Cd1 Pb2'
_cell_volume   436.58081485
_cell_formula_units_Z   1
loop_
 _symmetry_equiv_pos_site_id
 _symmetry_equiv_pos_as_xyz
  1  'x, y, z'
loop_
 _atom_site_type_symbol
 _atom_site_label
 _atom_site_symmetry_multiplicity
 _atom_site_fract_x
 _atom_site_fract_y
 _atom_site_fract_z
 _atom_site_occupancy
  Lu  Lu0  1  0.304928  0.304912  0.609836  1
  Lu  Lu1  1  0.695072  0.695088  0.390164  1
  Lu  Lu2  1  0.695076  0.304912  0.999984  1
  Lu  Lu3  1  0.304924  0.695088  0.000016  1
  Lu  Lu4  1  0.209647  0.452553  0.242905  1
  Lu  Lu5  1  0.790353  0.547447  0.757095  1
  Lu  Lu6  1  0.209713  0.966759  0.757048  1
  Lu  Lu7  1  0.966769  0.209747  0.757119  1
  Lu  Lu8  1  0.790287  0.033241  0.242952  1
  Lu  Lu9  1  0.033231  0.790253  0.242881  1
  Lu  Lu10  1  0.452627  0.209747  0.242977  1
  Lu  Lu11  1  0.547373  0.790253  0.757023  1
  Mn  Mn12  1  0.390432  0.390405  0.999973  1
  Mn  Mn13  1  0.609568  0.609595  0.000027  1
  Cd  Cd14  1  0.000000  0.000000  0.000000  1
  Pb  Pb15  1  0.000000  0.500000  0.500000  1
  Pb  Pb16  1  0.500000  0.000000  0.500000  1
