# generated using pymatgen
data_Er5Hf5(Si5Ir2)4
_symmetry_space_group_name_H-M   'P 1'
_cell_length_a   12.46754400
_cell_length_b   12.46754400
_cell_length_c   4.15824900
_cell_angle_alpha   90.00000000
_cell_angle_beta   90.00000000
_cell_angle_gamma   90.00000000
_symmetry_Int_Tables_number   1
_chemical_formula_structural   Er5Hf5(Si5Ir2)4
_chemical_formula_sum   'Er5 Hf5 Si20 Ir8'
_cell_volume   646.35678328
_cell_formula_units_Z   1
loop_
 _symmetry_equiv_pos_site_id
 _symmetry_equiv_pos_as_xyz
  1  'x, y, z'
loop_
 _atom_site_type_symbol
 _atom_site_label
 _atom_site_symmetry_multiplicity
 _atom_site_fract_x
 _atom_site_fract_y
 _atom_site_fract_z
 _atom_site_occupancy
  Er  Er0  1  0.000000  0.000000  0.000000  1
  Er  Er1  1  0.884145  0.384453  0.500000  1
  Er  Er2  1  0.115855  0.615547  0.500000  1
  Er  Er3  1  0.384453  0.115855  0.500000  1
  Er  Er4  1  0.615547  0.884145  0.500000  1
  Hf  Hf5  1  0.500000  0.500000  0.000000  1
  Hf  Hf6  1  0.673259  0.174948  0.500000  1
  Hf  Hf7  1  0.326741  0.825052  0.500000  1
  Hf  Hf8  1  0.174948  0.326741  0.500000  1
  Hf  Hf9  1  0.825052  0.673259  0.500000  1
  Si  Si10  1  0.565710  0.067608  0.000000  1
  Si  Si11  1  0.434290  0.932392  0.000000  1
  Si  Si12  1  0.067608  0.434290  0.000000  1
  Si  Si13  1  0.932392  0.565710  0.000000  1
  Si  Si14  1  0.665884  0.701416  0.000000  1
  Si  Si15  1  0.334116  0.298584  0.000000  1
  Si  Si16  1  0.164220  0.800683  0.000000  1
  Si  Si17  1  0.835780  0.199317  0.000000  1
  Si  Si18  1  0.298584  0.665884  0.000000  1
  Si  Si19  1  0.701416  0.334116  0.000000  1
  Si  Si20  1  0.199317  0.164220  0.000000  1
  Si  Si21  1  0.800683  0.835780  0.000000  1
  Si  Si22  1  0.651321  0.507523  0.500000  1
  Si  Si23  1  0.348679  0.492477  0.500000  1
  Si  Si24  1  0.156117  0.992987  0.500000  1
  Si  Si25  1  0.843883  0.007013  0.500000  1
  Si  Si26  1  0.492477  0.651321  0.500000  1
  Si  Si27  1  0.507523  0.348679  0.500000  1
  Si  Si28  1  0.007013  0.156117  0.500000  1
  Si  Si29  1  0.992987  0.843883  0.500000  1
  Ir  Ir30  1  0.742296  0.521148  0.000000  1
  Ir  Ir31  1  0.257704  0.478852  0.000000  1
  Ir  Ir32  1  0.246577  0.978394  0.000000  1
  Ir  Ir33  1  0.753423  0.021606  0.000000  1
  Ir  Ir34  1  0.478852  0.742296  0.000000  1
  Ir  Ir35  1  0.521148  0.257704  0.000000  1
  Ir  Ir36  1  0.021606  0.246577  0.000000  1
  Ir  Ir37  1  0.978394  0.753423  0.000000  1
