# generated using pymatgen
data_GdGa3Pd
_symmetry_space_group_name_H-M   'P 1'
_cell_length_a   4.27533382
_cell_length_b   4.26664818
_cell_length_c   6.14355195
_cell_angle_alpha   69.68104496
_cell_angle_beta   69.63785296
_cell_angle_gamma   90.00000200
_symmetry_Int_Tables_number   1
_chemical_formula_structural   GdGa3Pd
_chemical_formula_sum   'Gd1 Ga3 Pd1'
_cell_volume   97.59127721
_cell_formula_units_Z   1
loop_
 _symmetry_equiv_pos_site_id
 _symmetry_equiv_pos_as_xyz
  1  'x, y, z'
loop_
 _atom_site_type_symbol
 _atom_site_label
 _atom_site_symmetry_multiplicity
 _atom_site_fract_x
 _atom_site_fract_y
 _atom_site_fract_z
 _atom_site_occupancy
  Gd  Gd0  1  0.980859  0.980859  0.038282  1
  Ga  Ga1  1  0.747727  0.247727  0.504547  1
  Ga  Ga2  1  0.247505  0.747505  0.504991  1
  Ga  Ga3  1  0.397796  0.397796  0.204408  1
  Pd  Pd4  1  0.626114  0.626114  0.747774  1
