# generated using pymatgen
data_Tm20Cd3Ni2Pd3
_symmetry_space_group_name_H-M   'P 1'
_cell_length_a   9.45089900
_cell_length_b   9.45091063
_cell_length_c   9.37233100
_cell_angle_alpha   90.00000000
_cell_angle_beta   90.00000000
_cell_angle_gamma   119.99985079
_symmetry_Int_Tables_number   1
_chemical_formula_structural   Tm20Cd3Ni2Pd3
_chemical_formula_sum   'Tm20 Cd3 Ni2 Pd3'
_cell_volume   724.97942440
_cell_formula_units_Z   1
loop_
 _symmetry_equiv_pos_site_id
 _symmetry_equiv_pos_as_xyz
  1  'x, y, z'
loop_
 _atom_site_type_symbol
 _atom_site_label
 _atom_site_symmetry_multiplicity
 _atom_site_fract_x
 _atom_site_fract_y
 _atom_site_fract_z
 _atom_site_occupancy
  Tm  Tm0  1  0.000001  0.999995  0.451374  1
  Tm  Tm1  1  0.000001  0.999995  0.048626  1
  Tm  Tm2  1  0.542821  0.457136  0.250000  1
  Tm  Tm3  1  0.542863  0.085692  0.250000  1
  Tm  Tm4  1  0.914301  0.457176  0.250000  1
  Tm  Tm5  1  0.457466  0.542500  0.750000  1
  Tm  Tm6  1  0.457512  0.914992  0.750000  1
  Tm  Tm7  1  0.085005  0.542515  0.750000  1
  Tm  Tm8  1  0.209939  0.790084  0.437663  1
  Tm  Tm9  1  0.209906  0.419842  0.437651  1
  Tm  Tm10  1  0.580159  0.790066  0.437650  1
  Tm  Tm11  1  0.791041  0.208964  0.558866  1
  Tm  Tm12  1  0.791028  0.582073  0.558870  1
  Tm  Tm13  1  0.417934  0.208966  0.558873  1
  Tm  Tm14  1  0.791041  0.208964  0.941134  1
  Tm  Tm15  1  0.791028  0.582073  0.941130  1
  Tm  Tm16  1  0.417934  0.208966  0.941127  1
  Tm  Tm17  1  0.209939  0.790084  0.062337  1
  Tm  Tm18  1  0.209906  0.419842  0.062349  1
  Tm  Tm19  1  0.580159  0.790066  0.062350  1
  Cd  Cd20  1  0.109280  0.890734  0.750000  1
  Cd  Cd21  1  0.109262  0.218526  0.750000  1
  Cd  Cd22  1  0.781469  0.890721  0.750000  1
  Ni  Ni23  1  0.333342  0.666688  0.250000  1
  Ni  Ni24  1  0.666667  0.333326  0.750000  1
  Pd  Pd25  1  0.869730  0.130321  0.250000  1
  Pd  Pd26  1  0.869646  0.739390  0.250000  1
  Pd  Pd27  1  0.260619  0.130310  0.250000  1
