# generated using pymatgen
data_LaPa7F30
_symmetry_space_group_name_H-M   'P 1'
_cell_length_a   8.86610350
_cell_length_b   8.86137068
_cell_length_c   8.86610458
_cell_angle_alpha   100.41981085
_cell_angle_beta   100.38532932
_cell_angle_gamma   100.41980206
_symmetry_Int_Tables_number   1
_chemical_formula_structural   LaPa7F30
_chemical_formula_sum   'La1 Pa7 F30'
_cell_volume   657.25277842
_cell_formula_units_Z   1
loop_
 _symmetry_equiv_pos_site_id
 _symmetry_equiv_pos_as_xyz
  1  'x, y, z'
loop_
 _atom_site_type_symbol
 _atom_site_label
 _atom_site_symmetry_multiplicity
 _atom_site_fract_x
 _atom_site_fract_y
 _atom_site_fract_z
 _atom_site_occupancy
  La  La0  1  0.822502  0.250000  0.677498  1
  Pa  Pa1  1  0.249541  0.250000  0.250459  1
  Pa  Pa2  1  0.178252  0.750000  0.321748  1
  Pa  Pa3  1  0.250556  0.678717  0.821863  1
  Pa  Pa4  1  0.678137  0.821283  0.249444  1
  Pa  Pa5  1  0.750279  0.750000  0.749721  1
  Pa  Pa6  1  0.322868  0.178497  0.748914  1
  Pa  Pa7  1  0.751086  0.321503  0.177132  1
  F  F8  1  0.969529  0.532605  0.252103  1
  F  F9  1  0.813485  0.345799  0.438102  1
  F  F10  1  0.490628  0.719028  0.721794  1
  F  F11  1  0.341574  0.447403  0.818072  1
  F  F12  1  0.010507  0.781458  0.784056  1
  F  F13  1  0.751962  0.025536  0.460962  1
  F  F14  1  0.945377  0.836346  0.314321  1
  F  F15  1  0.223606  0.219827  0.992953  1
  F  F16  1  0.777668  0.004965  0.783150  1
  F  F17  1  0.318129  0.946620  0.839163  1
  F  F18  1  0.279546  0.281204  0.509524  1
  F  F19  1  0.445484  0.815968  0.338369  1
  F  F20  1  0.532377  0.250000  0.967623  1
  F  F21  1  0.278877  0.509654  0.282812  1
  F  F22  1  0.161631  0.684032  0.054516  1
  F  F23  1  0.842603  0.322126  0.956537  1
  F  F24  1  0.716850  0.495035  0.722332  1
  F  F25  1  0.467344  0.750000  0.032656  1
  F  F26  1  0.543463  0.177874  0.657397  1
  F  F27  1  0.715944  0.718542  0.489493  1
  F  F28  1  0.681928  0.052597  0.158426  1
  F  F29  1  0.217188  0.990346  0.221123  1
  F  F30  1  0.778206  0.780972  0.009372  1
  F  F31  1  0.061898  0.154201  0.686515  1
  F  F32  1  0.247897  0.967395  0.530471  1
  F  F33  1  0.990476  0.218796  0.220454  1
  F  F34  1  0.660837  0.553380  0.181871  1
  F  F35  1  0.507047  0.280173  0.276394  1
  F  F36  1  0.185679  0.663654  0.554623  1
  F  F37  1  0.039038  0.474464  0.748038  1
