# generated using pymatgen
data_PrNdY4Ta2O14
_symmetry_space_group_name_H-M   'P 1'
_cell_length_a   6.52558302
_cell_length_b   6.52558216
_cell_length_c   7.63644803
_cell_angle_alpha   89.99193075
_cell_angle_beta   90.00806795
_cell_angle_gamma   109.45666277
_symmetry_Int_Tables_number   1
_chemical_formula_structural   PrNdY4Ta2O14
_chemical_formula_sum   'Pr1 Nd1 Y4 Ta2 O14'
_cell_volume   306.61451553
_cell_formula_units_Z   1
loop_
 _symmetry_equiv_pos_site_id
 _symmetry_equiv_pos_as_xyz
  1  'x, y, z'
loop_
 _atom_site_type_symbol
 _atom_site_label
 _atom_site_symmetry_multiplicity
 _atom_site_fract_x
 _atom_site_fract_y
 _atom_site_fract_z
 _atom_site_occupancy
  Pr  Pr0  1  0.500000  0.500000  0.500000  1
  Nd  Nd1  1  0.500000  0.500000  0.000000  1
  Y  Y2  1  0.533056  0.000560  0.750283  1
  Y  Y3  1  0.000560  0.533056  0.249717  1
  Y  Y4  1  0.466944  0.999440  0.249717  1
  Y  Y5  1  0.999440  0.466944  0.750283  1
  Ta  Ta6  1  0.000000  0.000000  0.500000  1
  Ta  Ta7  1  0.000000  0.000000  0.000000  1
  O  O8  1  0.680752  0.931314  0.468287  1
  O  O9  1  0.931314  0.680752  0.531713  1
  O  O10  1  0.680657  0.930754  0.031668  1
  O  O11  1  0.930754  0.680657  0.968332  1
  O  O12  1  0.319248  0.068686  0.531713  1
  O  O13  1  0.068686  0.319248  0.468287  1
  O  O14  1  0.319343  0.069246  0.968332  1
  O  O15  1  0.069246  0.319343  0.031668  1
  O  O16  1  0.937404  0.062596  0.749961  1
  O  O17  1  0.062596  0.937404  0.250039  1
  O  O18  1  0.364106  0.635894  0.751276  1
  O  O19  1  0.635894  0.364106  0.248724  1
  O  O20  1  0.642910  0.357090  0.751026  1
  O  O21  1  0.357090  0.642910  0.248974  1
