# generated using pymatgen
data_La5SiBi2
_symmetry_space_group_name_H-M   'P 1'
_cell_length_a   12.75261300
_cell_length_b   9.69640000
_cell_length_c   8.45669500
_cell_angle_alpha   90.00000000
_cell_angle_beta   90.00000000
_cell_angle_gamma   90.00000000
_symmetry_Int_Tables_number   1
_chemical_formula_structural   La5SiBi2
_chemical_formula_sum   'La20 Si4 Bi8'
_cell_volume   1045.70785651
_cell_formula_units_Z   4
loop_
 _symmetry_equiv_pos_site_id
 _symmetry_equiv_pos_as_xyz
  1  'x, y, z'
loop_
 _atom_site_type_symbol
 _atom_site_label
 _atom_site_symmetry_multiplicity
 _atom_site_fract_x
 _atom_site_fract_y
 _atom_site_fract_z
 _atom_site_occupancy
  La  La0  1  0.058155  0.551357  0.819204  1
  La  La1  1  0.558155  0.948643  0.680796  1
  La  La2  1  0.941845  0.051357  0.180796  1
  La  La3  1  0.441845  0.448643  0.319204  1
  La  La4  1  0.941845  0.448643  0.180796  1
  La  La5  1  0.441845  0.051357  0.319204  1
  La  La6  1  0.058155  0.948643  0.819204  1
  La  La7  1  0.558155  0.551357  0.680796  1
  La  La8  1  0.002570  0.750000  0.471832  1
  La  La9  1  0.502570  0.750000  0.028168  1
  La  La10  1  0.997430  0.250000  0.528168  1
  La  La11  1  0.497430  0.250000  0.971832  1
  La  La12  1  0.213322  0.750000  0.166795  1
  La  La13  1  0.713322  0.750000  0.333205  1
  La  La14  1  0.786678  0.250000  0.833205  1
  La  La15  1  0.286678  0.250000  0.666795  1
  La  La16  1  0.292697  0.750000  0.637662  1
  La  La17  1  0.792697  0.750000  0.862338  1
  La  La18  1  0.707303  0.250000  0.362338  1
  La  La19  1  0.207303  0.250000  0.137662  1
  Si  Si20  1  0.475603  0.750000  0.407628  1
  Si  Si21  1  0.975603  0.750000  0.092372  1
  Si  Si22  1  0.524397  0.250000  0.592372  1
  Si  Si23  1  0.024397  0.250000  0.907628  1
  Bi  Bi24  1  0.324052  0.509992  0.929552  1
  Bi  Bi25  1  0.824052  0.990008  0.570448  1
  Bi  Bi26  1  0.675948  0.009992  0.070448  1
  Bi  Bi27  1  0.175948  0.490008  0.429552  1
  Bi  Bi28  1  0.675948  0.490008  0.070448  1
  Bi  Bi29  1  0.175948  0.009992  0.429552  1
  Bi  Bi30  1  0.324052  0.990008  0.929552  1
  Bi  Bi31  1  0.824052  0.509992  0.570448  1
