# generated using pymatgen
data_Tm2FeSi5Rh2
_symmetry_space_group_name_H-M   'P 1'
_cell_length_a   7.99491139
_cell_length_b   7.99491106
_cell_length_c   5.58057419
_cell_angle_alpha   71.15517259
_cell_angle_beta   71.15518046
_cell_angle_gamma   93.72720545
_symmetry_Int_Tables_number   1
_chemical_formula_structural   Tm2FeSi5Rh2
_chemical_formula_sum   'Tm4 Fe2 Si10 Rh4'
_cell_volume   313.72461262
_cell_formula_units_Z   2
loop_
 _symmetry_equiv_pos_site_id
 _symmetry_equiv_pos_as_xyz
  1  'x, y, z'
loop_
 _atom_site_type_symbol
 _atom_site_label
 _atom_site_symmetry_multiplicity
 _atom_site_fract_x
 _atom_site_fract_y
 _atom_site_fract_z
 _atom_site_occupancy
  Tm  Tm0  1  0.863774  0.595579  0.767604  1
  Tm  Tm1  1  0.128557  0.402258  0.243184  1
  Tm  Tm2  1  0.404421  0.136226  0.732396  1
  Tm  Tm3  1  0.597742  0.871443  0.256816  1
  Fe  Fe4  1  0.544263  0.259987  0.129767  1
  Fe  Fe5  1  0.740013  0.455737  0.370233  1
  Si  Si6  1  0.763220  0.236780  0.750000  1
  Si  Si7  1  0.220507  0.779493  0.250000  1
  Si  Si8  1  0.522767  0.477233  0.750000  1
  Si  Si9  1  0.498147  0.501853  0.250000  1
  Si  Si10  1  0.208547  0.791453  0.750000  1
  Si  Si11  1  0.784542  0.215458  0.250000  1
  Si  Si12  1  0.278792  0.070905  0.325355  1
  Si  Si13  1  0.733582  0.940146  0.664502  1
  Si  Si14  1  0.929095  0.721208  0.174645  1
  Si  Si15  1  0.059854  0.266418  0.835498  1
  Rh  Rh16  1  0.458744  0.737767  0.875717  1
  Rh  Rh17  1  0.262233  0.541256  0.624283  1
  Rh  Rh18  1  0.998706  0.001294  0.250000  1
  Rh  Rh19  1  0.002494  0.997506  0.750000  1
