# generated using pymatgen
data_DyHo2ErOsBr4
_symmetry_space_group_name_H-M   'P 1'
_cell_length_a   8.96981976
_cell_length_b   8.93304554
_cell_length_c   6.53319591
_cell_angle_alpha   89.54455254
_cell_angle_beta   89.42238632
_cell_angle_gamma   89.32351245
_symmetry_Int_Tables_number   1
_chemical_formula_structural   DyHo2ErOsBr4
_chemical_formula_sum   'Dy2 Ho4 Er2 Os2 Br8'
_cell_volume   523.41153321
_cell_formula_units_Z   2
loop_
 _symmetry_equiv_pos_site_id
 _symmetry_equiv_pos_as_xyz
  1  'x, y, z'
loop_
 _atom_site_type_symbol
 _atom_site_label
 _atom_site_symmetry_multiplicity
 _atom_site_fract_x
 _atom_site_fract_y
 _atom_site_fract_z
 _atom_site_occupancy
  Dy  Dy0  1  0.249615  0.900838  0.008890  1
  Dy  Dy1  1  0.750385  0.099162  0.991110  1
  Ho  Ho2  1  0.098476  0.751422  0.489264  1
  Ho  Ho3  1  0.901524  0.248578  0.510736  1
  Ho  Ho4  1  0.753217  0.902718  0.508582  1
  Ho  Ho5  1  0.246783  0.097282  0.491418  1
  Er  Er6  1  0.095842  0.246529  0.991612  1
  Er  Er7  1  0.904158  0.753471  0.008388  1
  Os  Os8  1  0.995500  0.004737  0.249934  1
  Os  Os9  1  0.004500  0.995263  0.750066  1
  Br  Br10  1  0.418227  0.817486  0.411664  1
  Br  Br11  1  0.581773  0.182514  0.588336  1
  Br  Br12  1  0.181474  0.580257  0.091006  1
  Br  Br13  1  0.818526  0.419743  0.908994  1
  Br  Br14  1  0.411598  0.191410  0.091368  1
  Br  Br15  1  0.588402  0.808590  0.908632  1
  Br  Br16  1  0.811480  0.586355  0.406563  1
  Br  Br17  1  0.188520  0.413645  0.593437  1
