# generated using pymatgen
data_Er8CuP12Pd11
_symmetry_space_group_name_H-M   'P 1'
_cell_length_a   3.91234500
_cell_length_b   10.81925435
_cell_length_c   13.29246951
_cell_angle_alpha   90.12294923
_cell_angle_beta   90.00000000
_cell_angle_gamma   90.00000000
_symmetry_Int_Tables_number   1
_chemical_formula_structural   Er8CuP12Pd11
_chemical_formula_sum   'Er8 Cu1 P12 Pd11'
_cell_volume   562.65106898
_cell_formula_units_Z   1
loop_
 _symmetry_equiv_pos_site_id
 _symmetry_equiv_pos_as_xyz
  1  'x, y, z'
loop_
 _atom_site_type_symbol
 _atom_site_label
 _atom_site_symmetry_multiplicity
 _atom_site_fract_x
 _atom_site_fract_y
 _atom_site_fract_z
 _atom_site_occupancy
  Er  Er0  1  0.250000  0.926070  0.785672  1
  Er  Er1  1  0.750000  0.426082  0.715176  1
  Er  Er2  1  0.250000  0.574758  0.282821  1
  Er  Er3  1  0.750000  0.075265  0.216792  1
  Er  Er4  1  0.250000  0.844044  0.504643  1
  Er  Er5  1  0.750000  0.338325  0.995559  1
  Er  Er6  1  0.250000  0.658482  0.003274  1
  Er  Er7  1  0.750000  0.160243  0.500509  1
  Cu  Cu8  1  0.750000  0.130828  0.717449  1
  P  P9  1  0.250000  0.236929  0.644367  1
  P  P10  1  0.750000  0.736221  0.858126  1
  P  P11  1  0.250000  0.261721  0.142295  1
  P  P12  1  0.750000  0.763475  0.357171  1
  P  P13  1  0.250000  0.603970  0.603467  1
  P  P14  1  0.750000  0.100461  0.893336  1
  P  P15  1  0.250000  0.898462  0.103388  1
  P  P16  1  0.750000  0.398185  0.396382  1
  P  P17  1  0.250000  0.055636  0.378880  1
  P  P18  1  0.750000  0.553222  0.121890  1
  P  P19  1  0.250000  0.441983  0.875780  1
  P  P20  1  0.750000  0.949431  0.626509  1
  Pd  Pd21  1  0.250000  0.407816  0.525595  1
  Pd  Pd22  1  0.750000  0.906219  0.977007  1
  Pd  Pd23  1  0.250000  0.093802  0.021858  1
  Pd  Pd24  1  0.750000  0.593987  0.474706  1
  Pd  Pd25  1  0.250000  0.271683  0.341092  1
  Pd  Pd26  1  0.750000  0.769997  0.161771  1
  Pd  Pd27  1  0.250000  0.225084  0.829730  1
  Pd  Pd28  1  0.750000  0.731238  0.661885  1
  Pd  Pd29  1  0.250000  0.869018  0.283144  1
  Pd  Pd30  1  0.750000  0.366696  0.217449  1
  Pd  Pd31  1  0.250000  0.630664  0.782276  1
