# generated using pymatgen
data_Y6Co13P12Ru5
_symmetry_space_group_name_H-M   'P 1'
_cell_length_a   3.77013700
_cell_length_b   10.58984404
_cell_length_c   12.37149933
_cell_angle_alpha   90.35406092
_cell_angle_beta   90.00000000
_cell_angle_gamma   90.00000000
_symmetry_Int_Tables_number   1
_chemical_formula_structural   Y6Co13P12Ru5
_chemical_formula_sum   'Y6 Co13 P12 Ru5'
_cell_volume   493.92469443
_cell_formula_units_Z   1
loop_
 _symmetry_equiv_pos_site_id
 _symmetry_equiv_pos_as_xyz
  1  'x, y, z'
loop_
 _atom_site_type_symbol
 _atom_site_label
 _atom_site_symmetry_multiplicity
 _atom_site_fract_x
 _atom_site_fract_y
 _atom_site_fract_z
 _atom_site_occupancy
  Y  Y0  1  0.000000  0.502595  0.526602  1
  Y  Y1  1  0.500000  0.995219  0.477280  1
  Y  Y2  1  0.500000  0.818698  0.202746  1
  Y  Y3  1  0.500000  0.183676  0.201091  1
  Y  Y4  1  0.000000  0.682478  0.795891  1
  Y  Y5  1  0.000000  0.316573  0.798813  1
  Co  Co6  1  0.000000  0.500474  0.985362  1
  Co  Co7  1  0.500000  0.999548  0.014054  1
  Co  Co8  1  0.000000  0.798345  0.574108  1
  Co  Co9  1  0.500000  0.877344  0.712320  1
  Co  Co10  1  0.500000  0.116798  0.715733  1
  Co  Co11  1  0.000000  0.622078  0.285631  1
  Co  Co12  1  0.000000  0.382125  0.283926  1
  Co  Co13  1  0.500000  0.332911  0.989914  1
  Co  Co14  1  0.500000  0.667921  0.989829  1
  Co  Co15  1  0.000000  0.166815  0.009211  1
  Co  Co16  1  0.000000  0.832419  0.009679  1
  Co  Co17  1  0.500000  0.499675  0.705011  1
  Co  Co18  1  0.000000  0.001379  0.294896  1
  P  P19  1  0.500000  0.311819  0.622241  1
  P  P20  1  0.500000  0.689582  0.620814  1
  P  P21  1  0.000000  0.187669  0.378249  1
  P  P22  1  0.000000  0.815867  0.381364  1
  P  P23  1  0.500000  0.500081  0.882451  1
  P  P24  1  0.000000  0.000400  0.117121  1
  P  P25  1  0.500000  0.846081  0.895126  1
  P  P26  1  0.500000  0.152150  0.895718  1
  P  P27  1  0.000000  0.653719  0.104386  1
  P  P28  1  0.000000  0.347559  0.103358  1
  P  P29  1  0.500000  0.500583  0.342668  1
  P  P30  1  0.000000  0.996191  0.655545  1
  Ru  Ru31  1  0.500000  0.298841  0.426723  1
  Ru  Ru32  1  0.500000  0.703858  0.429855  1
  Ru  Ru33  1  0.000000  0.199972  0.573652  1
  Ru  Ru34  1  0.500000  0.501624  0.155098  1
  Ru  Ru35  1  0.000000  0.996936  0.843532  1
