# generated using pymatgen
data_Y4Al9CoSi9Os5
_symmetry_space_group_name_H-M   'P 1'
_cell_length_a   7.41955021
_cell_length_b   7.40782729
_cell_length_c   9.27915898
_cell_angle_alpha   90.05600489
_cell_angle_beta   90.08593461
_cell_angle_gamma   120.01183201
_symmetry_Int_Tables_number   1
_chemical_formula_structural   Y4Al9CoSi9Os5
_chemical_formula_sum   'Y4 Al9 Co1 Si9 Os5'
_cell_volume   441.62589315
_cell_formula_units_Z   1
loop_
 _symmetry_equiv_pos_site_id
 _symmetry_equiv_pos_as_xyz
  1  'x, y, z'
loop_
 _atom_site_type_symbol
 _atom_site_label
 _atom_site_symmetry_multiplicity
 _atom_site_fract_x
 _atom_site_fract_y
 _atom_site_fract_z
 _atom_site_occupancy
  Y  Y0  1  0.998031  0.669727  0.252214  1
  Y  Y1  1  0.998010  0.327017  0.749992  1
  Y  Y2  1  0.677886  0.002918  0.252225  1
  Y  Y3  1  0.327078  0.996527  0.747622  1
  Al  Al4  1  0.336907  0.007485  0.072565  1
  Al  Al5  1  0.339182  0.336954  0.560877  1
  Al  Al6  1  0.661116  0.659922  0.439725  1
  Al  Al7  1  0.660806  0.660147  0.059290  1
  Al  Al8  1  0.339333  0.334845  0.938228  1
  Al  Al9  1  0.333096  0.545048  0.250361  1
  Al  Al10  1  0.669259  0.452521  0.745765  1
  Al  Al11  1  0.550761  0.334368  0.253938  1
  Al  Al12  1  0.457552  0.665721  0.748213  1
  Co  Co13  1  0.680199  0.320631  0.500334  1
  Si  Si14  1  0.129187  0.127649  0.249158  1
  Si  Si15  1  0.870013  0.870936  0.748831  1
  Si  Si16  1  0.009017  0.336598  0.067571  1
  Si  Si17  1  0.996710  0.667692  0.935320  1
  Si  Si18  1  0.985694  0.657860  0.569272  1
  Si  Si19  1  0.342318  0.013585  0.427213  1
  Si  Si20  1  0.001097  0.337250  0.432037  1
  Si  Si21  1  0.663217  0.999696  0.569328  1
  Si  Si22  1  0.657460  0.992635  0.934885  1
  Os  Os23  1  0.688173  0.327801  0.999566  1
  Os  Os24  1  0.320110  0.671340  0.997713  1
  Os  Os25  1  0.318323  0.680948  0.500117  1
  Os  Os26  1  0.991356  0.000010  0.998004  1
  Os  Os27  1  0.998111  0.002172  0.499637  1
