# generated using pymatgen
data_Pr3Ge6N11
_symmetry_space_group_name_H-M   'P 1'
_cell_length_a   10.55994400
_cell_length_b   10.55994400
_cell_length_c   5.18137700
_cell_angle_alpha   90.00000000
_cell_angle_beta   90.00000000
_cell_angle_gamma   90.00000000
_symmetry_Int_Tables_number   1
_chemical_formula_structural   Pr3Ge6N11
_chemical_formula_sum   'Pr6 Ge12 N22'
_cell_volume   577.78787413
_cell_formula_units_Z   2
loop_
 _symmetry_equiv_pos_site_id
 _symmetry_equiv_pos_as_xyz
  1  'x, y, z'
loop_
 _atom_site_type_symbol
 _atom_site_label
 _atom_site_symmetry_multiplicity
 _atom_site_fract_x
 _atom_site_fract_y
 _atom_site_fract_z
 _atom_site_occupancy
  Pr  Pr0  1  0.319092  0.819092  0.984277  1
  Pr  Pr1  1  0.680908  0.180908  0.984277  1
  Pr  Pr2  1  0.180908  0.319092  0.984277  1
  Pr  Pr3  1  0.819092  0.680908  0.984277  1
  Pr  Pr4  1  0.500000  0.500000  0.975575  1
  Pr  Pr5  1  0.000000  0.000000  0.975575  1
  Ge  Ge6  1  0.419187  0.293180  0.528311  1
  Ge  Ge7  1  0.580813  0.706820  0.528311  1
  Ge  Ge8  1  0.080813  0.793180  0.528311  1
  Ge  Ge9  1  0.919187  0.206820  0.528311  1
  Ge  Ge10  1  0.293180  0.580813  0.528311  1
  Ge  Ge11  1  0.706820  0.419187  0.528311  1
  Ge  Ge12  1  0.793180  0.919187  0.528311  1
  Ge  Ge13  1  0.206820  0.080813  0.528311  1
  Ge  Ge14  1  0.880165  0.380165  0.046017  1
  Ge  Ge15  1  0.119835  0.619835  0.046017  1
  Ge  Ge16  1  0.619835  0.880165  0.046017  1
  Ge  Ge17  1  0.380165  0.119835  0.046017  1
  N  N18  1  0.317201  0.421758  0.664468  1
  N  N19  1  0.682799  0.578242  0.664468  1
  N  N20  1  0.182799  0.921758  0.664468  1
  N  N21  1  0.817201  0.078242  0.664468  1
  N  N22  1  0.421758  0.682799  0.664468  1
  N  N23  1  0.578242  0.317201  0.664468  1
  N  N24  1  0.921758  0.817201  0.664468  1
  N  N25  1  0.078242  0.182799  0.664468  1
  N  N26  1  0.417978  0.282051  0.169625  1
  N  N27  1  0.582022  0.717949  0.169625  1
  N  N28  1  0.082022  0.782051  0.169625  1
  N  N29  1  0.917978  0.217949  0.169625  1
  N  N30  1  0.282051  0.582022  0.169625  1
  N  N31  1  0.717949  0.417978  0.169625  1
  N  N32  1  0.782051  0.917978  0.169625  1
  N  N33  1  0.217949  0.082022  0.169625  1
  N  N34  1  0.845366  0.345366  0.696563  1
  N  N35  1  0.154634  0.654634  0.696563  1
  N  N36  1  0.654634  0.845366  0.696563  1
  N  N37  1  0.345366  0.154634  0.696563  1
  N  N38  1  0.500000  0.000000  0.089633  1
  N  N39  1  0.000000  0.500000  0.089633  1
