# generated using pymatgen
data_Zr8Pa2Fe2Bi5Sb
_symmetry_space_group_name_H-M   'P 1'
_cell_length_a   5.94013734
_cell_length_b   9.01318783
_cell_length_c   9.03761635
_cell_angle_alpha   121.99168077
_cell_angle_beta   90.00244371
_cell_angle_gamma   90.00171074
_symmetry_Int_Tables_number   1
_chemical_formula_structural   Zr8Pa2Fe2Bi5Sb
_chemical_formula_sum   'Zr8 Pa2 Fe2 Bi5 Sb1'
_cell_volume   410.38236393
_cell_formula_units_Z   1
loop_
 _symmetry_equiv_pos_site_id
 _symmetry_equiv_pos_as_xyz
  1  'x, y, z'
loop_
 _atom_site_type_symbol
 _atom_site_label
 _atom_site_symmetry_multiplicity
 _atom_site_fract_x
 _atom_site_fract_y
 _atom_site_fract_z
 _atom_site_occupancy
  Zr  Zr0  1  0.750031  0.994478  0.253726  1
  Zr  Zr1  1  0.249972  0.012612  0.749975  1
  Zr  Zr2  1  0.750016  0.255327  0.992908  1
  Zr  Zr3  1  0.249986  0.741999  0.006204  1
  Zr  Zr4  1  0.001228  0.659527  0.332116  1
  Zr  Zr5  1  0.001332  0.337700  0.667774  1
  Zr  Zr6  1  0.498656  0.337644  0.667805  1
  Zr  Zr7  1  0.498769  0.659578  0.332102  1
  Pa  Pa8  1  0.749984  0.784723  0.785029  1
  Pa  Pa9  1  0.250008  0.217001  0.212561  1
  Fe  Fe10  1  0.000083  0.999701  0.999839  1
  Fe  Fe11  1  0.499932  0.999680  0.999832  1
  Bi  Bi12  1  0.749983  0.390699  0.392318  1
  Bi  Bi13  1  0.250013  0.610157  0.609310  1
  Bi  Bi14  1  0.749999  0.003087  0.602010  1
  Bi  Bi15  1  0.250000  0.995322  0.395859  1
  Bi  Bi16  1  0.750001  0.603817  0.005307  1
  Sb  Sb17  1  0.250007  0.396947  0.995322  1
