# generated using pymatgen
data_Ta2Ti6Co7Si14Rh
_symmetry_space_group_name_H-M   'P 1'
_cell_length_a   9.21957890
_cell_length_b   9.22471065
_cell_length_c   9.19823154
_cell_angle_alpha   94.22604352
_cell_angle_beta   94.20666574
_cell_angle_gamma   148.57535710
_symmetry_Int_Tables_number   1
_chemical_formula_structural   Ta2Ti6Co7Si14Rh
_chemical_formula_sum   'Ta2 Ti6 Co7 Si14 Rh1'
_cell_volume   392.54855440
_cell_formula_units_Z   1
loop_
 _symmetry_equiv_pos_site_id
 _symmetry_equiv_pos_as_xyz
  1  'x, y, z'
loop_
 _atom_site_type_symbol
 _atom_site_label
 _atom_site_symmetry_multiplicity
 _atom_site_fract_x
 _atom_site_fract_y
 _atom_site_fract_z
 _atom_site_occupancy
  Ta  Ta0  1  0.133749  0.133745  0.267547  1
  Ta  Ta1  1  0.866526  0.866508  0.733000  1
  Ti  Ti2  1  0.864617  0.132825  0.000864  1
  Ti  Ti3  1  0.136104  0.867957  0.000855  1
  Ti  Ti4  1  0.501976  0.691529  0.193689  1
  Ti  Ti5  1  0.497530  0.307910  0.807585  1
  Ti  Ti6  1  0.309939  0.499551  0.807573  1
  Ti  Ti7  1  0.691625  0.502096  0.193749  1
  Co  Co8  1  0.102711  0.602716  0.205448  1
  Co  Co9  1  0.101785  0.899258  0.500683  1
  Co  Co10  1  0.398870  0.601366  0.500675  1
  Co  Co11  1  0.598040  0.398962  0.496977  1
  Co  Co12  1  0.898918  0.097984  0.496969  1
  Co  Co13  1  0.899931  0.399941  0.798954  1
  Co  Co14  1  0.598584  0.098607  0.197214  1
  Si  Si15  1  0.293409  0.293404  0.586838  1
  Si  Si16  1  0.706471  0.706470  0.412949  1
  Si  Si17  1  0.722687  0.316226  0.005162  1
  Si  Si18  1  0.282417  0.688991  0.005024  1
  Si  Si19  1  0.998021  0.293615  0.293548  1
  Si  Si20  1  0.987102  0.696631  0.704964  1
  Si  Si21  1  0.717939  0.008268  0.704899  1
  Si  Si22  1  0.295469  0.999885  0.293535  1
  Si  Si23  1  0.502707  0.907455  0.405726  1
  Si  Si24  1  0.512405  0.109330  0.589018  1
  Si  Si25  1  0.076668  0.479761  0.589097  1
  Si  Si26  1  0.903018  0.498263  0.405731  1
  Si  Si27  1  0.749050  0.749285  0.000384  1
  Si  Si28  1  0.251308  0.251053  0.000392  1
  Rh  Rh29  1  0.400428  0.900412  0.800955  1
