# generated using pymatgen
data_Ac4CeThSe10
_symmetry_space_group_name_H-M   'P 1'
_cell_length_a   8.17334700
_cell_length_b   8.87477000
_cell_length_c   12.95302900
_cell_angle_alpha   90.00000000
_cell_angle_beta   90.00000000
_cell_angle_gamma   90.00000000
_symmetry_Int_Tables_number   1
_chemical_formula_structural   Ac4CeThSe10
_chemical_formula_sum   'Ac8 Ce2 Th2 Se20'
_cell_volume   939.56835636
_cell_formula_units_Z   2
loop_
 _symmetry_equiv_pos_site_id
 _symmetry_equiv_pos_as_xyz
  1  'x, y, z'
loop_
 _atom_site_type_symbol
 _atom_site_label
 _atom_site_symmetry_multiplicity
 _atom_site_fract_x
 _atom_site_fract_y
 _atom_site_fract_z
 _atom_site_occupancy
  Ac  Ac0  1  0.526375  0.502060  0.323610  1
  Ac  Ac1  1  0.973625  0.997940  0.823610  1
  Ac  Ac2  1  0.472205  0.999928  0.676631  1
  Ac  Ac3  1  0.027795  0.500072  0.176631  1
  Ac  Ac4  1  0.472205  0.500072  0.676631  1
  Ac  Ac5  1  0.027795  0.999928  0.176631  1
  Ac  Ac6  1  0.526375  0.997940  0.323610  1
  Ac  Ac7  1  0.973625  0.502060  0.823610  1
  Ce  Ce8  1  0.065969  0.750000  0.492918  1
  Ce  Ce9  1  0.434031  0.750000  0.992918  1
  Th  Th10  1  0.930328  0.250000  0.508096  1
  Th  Th11  1  0.569672  0.250000  0.008096  1
  Se  Se12  1  0.836666  0.958279  0.591499  1
  Se  Se13  1  0.663334  0.541721  0.091499  1
  Se  Se14  1  0.162560  0.463608  0.408507  1
  Se  Se15  1  0.337440  0.036392  0.908507  1
  Se  Se16  1  0.162560  0.036392  0.408507  1
  Se  Se17  1  0.337440  0.463608  0.908507  1
  Se  Se18  1  0.836666  0.541721  0.591499  1
  Se  Se19  1  0.663334  0.958279  0.091499  1
  Se  Se20  1  0.835798  0.750000  0.313725  1
  Se  Se21  1  0.664202  0.750000  0.813725  1
  Se  Se22  1  0.164964  0.250000  0.687042  1
  Se  Se23  1  0.335036  0.250000  0.187042  1
  Se  Se24  1  0.448263  0.750000  0.496836  1
  Se  Se25  1  0.051737  0.750000  0.996836  1
  Se  Se26  1  0.550083  0.250000  0.503299  1
  Se  Se27  1  0.949917  0.250000  0.003299  1
  Se  Se28  1  0.188929  0.750000  0.709616  1
  Se  Se29  1  0.311071  0.750000  0.209616  1
  Se  Se30  1  0.809471  0.250000  0.287974  1
  Se  Se31  1  0.690529  0.250000  0.787974  1
