# generated using pymatgen
data_HoEr2Sc2(In2Rh)2
_symmetry_space_group_name_H-M   'P 1'
_cell_length_a   3.52731200
_cell_length_b   7.86734700
_cell_length_c   17.91743700
_cell_angle_alpha   90.00000000
_cell_angle_beta   90.00000000
_cell_angle_gamma   90.00000000
_symmetry_Int_Tables_number   1
_chemical_formula_structural   HoEr2Sc2(In2Rh)2
_chemical_formula_sum   'Ho2 Er4 Sc4 In8 Rh4'
_cell_volume   497.21940291
_cell_formula_units_Z   2
loop_
 _symmetry_equiv_pos_site_id
 _symmetry_equiv_pos_as_xyz
  1  'x, y, z'
loop_
 _atom_site_type_symbol
 _atom_site_label
 _atom_site_symmetry_multiplicity
 _atom_site_fract_x
 _atom_site_fract_y
 _atom_site_fract_z
 _atom_site_occupancy
  Ho  Ho0  1  0.000000  0.000000  0.000000  1
  Ho  Ho1  1  0.000000  0.500000  0.500000  1
  Er  Er2  1  0.000000  0.748188  0.781928  1
  Er  Er3  1  0.000000  0.251812  0.218072  1
  Er  Er4  1  0.000000  0.248188  0.718072  1
  Er  Er5  1  0.000000  0.751812  0.281928  1
  Sc  Sc6  1  0.000000  0.877529  0.588727  1
  Sc  Sc7  1  0.000000  0.122471  0.411273  1
  Sc  Sc8  1  0.000000  0.377529  0.911273  1
  Sc  Sc9  1  0.000000  0.622471  0.088727  1
  In  In10  1  0.500000  0.809025  0.438102  1
  In  In11  1  0.500000  0.190975  0.561898  1
  In  In12  1  0.500000  0.309025  0.061898  1
  In  In13  1  0.500000  0.690975  0.938102  1
  In  In14  1  0.500000  0.925691  0.149608  1
  In  In15  1  0.500000  0.074309  0.850392  1
  In  In16  1  0.500000  0.425691  0.350392  1
  In  In17  1  0.500000  0.574309  0.649608  1
  Rh  Rh18  1  0.500000  0.962989  0.692776  1
  Rh  Rh19  1  0.500000  0.037011  0.307224  1
  Rh  Rh20  1  0.500000  0.462989  0.807224  1
  Rh  Rh21  1  0.500000  0.537011  0.192776  1
