# generated using pymatgen
data_Nb4Mo5Os
_symmetry_space_group_name_H-M   'P 1'
_cell_length_a   4.53629912
_cell_length_b   8.38806937
_cell_length_c   4.54443900
_cell_angle_alpha   90.00000000
_cell_angle_beta   90.00000000
_cell_angle_gamma   74.20828489
_symmetry_Int_Tables_number   1
_chemical_formula_structural   Nb4Mo5Os
_chemical_formula_sum   'Nb4 Mo5 Os1'
_cell_volume   166.39306232
_cell_formula_units_Z   1
loop_
 _symmetry_equiv_pos_site_id
 _symmetry_equiv_pos_as_xyz
  1  'x, y, z'
loop_
 _atom_site_type_symbol
 _atom_site_label
 _atom_site_symmetry_multiplicity
 _atom_site_fract_x
 _atom_site_fract_y
 _atom_site_fract_z
 _atom_site_occupancy
  Nb  Nb0  1  0.084084  0.998841  0.000000  1
  Nb  Nb1  1  0.282679  0.601244  0.000000  1
  Nb  Nb2  1  0.584055  0.998916  0.500001  1
  Nb  Nb3  1  0.782598  0.601167  0.500001  1
  Mo  Mo4  1  0.480428  0.205541  0.000000  1
  Mo  Mo5  1  0.886018  0.394367  0.000000  1
  Mo  Mo6  1  0.683478  0.800028  0.000000  1
  Mo  Mo7  1  0.980241  0.205674  0.500001  1
  Mo  Mo8  1  0.386182  0.394227  0.500001  1
  Os  Os9  1  0.183414  0.799996  0.500001  1
