# generated using pymatgen
data_CaYb9In3GaP12
_symmetry_space_group_name_H-M   'P 1'
_cell_length_a   4.11399800
_cell_length_b   11.13980388
_cell_length_c   12.90852105
_cell_angle_alpha   89.93255541
_cell_angle_beta   90.00000000
_cell_angle_gamma   90.00000000
_symmetry_Int_Tables_number   1
_chemical_formula_structural   CaYb9In3GaP12
_chemical_formula_sum   'Ca1 Yb9 In3 Ga1 P12'
_cell_volume   591.58589059
_cell_formula_units_Z   1
loop_
 _symmetry_equiv_pos_site_id
 _symmetry_equiv_pos_as_xyz
  1  'x, y, z'
loop_
 _atom_site_type_symbol
 _atom_site_label
 _atom_site_symmetry_multiplicity
 _atom_site_fract_x
 _atom_site_fract_y
 _atom_site_fract_z
 _atom_site_occupancy
  Ca  Ca0  1  0.500000  0.497642  0.000823  1
  Yb  Yb1  1  0.500000  0.678176  0.487026  1
  Yb  Yb2  1  0.500000  0.320858  0.511214  1
  Yb  Yb3  1  0.500000  0.824569  0.987670  1
  Yb  Yb4  1  0.500000  0.173748  0.020981  1
  Yb  Yb5  1  0.500000  0.002232  0.496914  1
  Yb  Yb6  1  0.500000  0.912216  0.247430  1
  Yb  Yb7  1  0.500000  0.087963  0.752536  1
  Yb  Yb8  1  0.500000  0.410825  0.252821  1
  Yb  Yb9  1  0.500000  0.587843  0.748747  1
  In  In10  1  0.000000  0.333464  0.716773  1
  In  In11  1  0.000000  0.666534  0.283092  1
  In  In12  1  0.000000  0.833519  0.783542  1
  Ga  Ga13  1  0.000000  0.171210  0.213320  1
  P  P14  1  0.000000  0.982248  0.088906  1
  P  P15  1  0.000000  0.025449  0.916390  1
  P  P16  1  0.000000  0.474179  0.414871  1
  P  P17  1  0.000000  0.525140  0.585348  1
  P  P18  1  0.500000  0.160099  0.315791  1
  P  P19  1  0.500000  0.839295  0.669524  1
  P  P20  1  0.500000  0.661822  0.169489  1
  P  P21  1  0.500000  0.336140  0.830885  1
  P  P22  1  0.000000  0.342772  0.103311  1
  P  P23  1  0.000000  0.651870  0.903667  1
  P  P24  1  0.000000  0.848432  0.403155  1
  P  P25  1  0.000000  0.151755  0.595775  1
