# generated using pymatgen
data_TbNd2Be2(PPd5)4
_symmetry_space_group_name_H-M   'P 1'
_cell_length_a   8.71989423
_cell_length_b   8.63868780
_cell_length_c   8.63868872
_cell_angle_alpha   60.62290035
_cell_angle_beta   59.68854410
_cell_angle_gamma   59.68854239
_symmetry_Int_Tables_number   1
_chemical_formula_structural   TbNd2Be2(PPd5)4
_chemical_formula_sum   'Tb1 Nd2 Be2 P4 Pd20'
_cell_volume   460.05980249
_cell_formula_units_Z   1
loop_
 _symmetry_equiv_pos_site_id
 _symmetry_equiv_pos_as_xyz
  1  'x, y, z'
loop_
 _atom_site_type_symbol
 _atom_site_label
 _atom_site_symmetry_multiplicity
 _atom_site_fract_x
 _atom_site_fract_y
 _atom_site_fract_z
 _atom_site_occupancy
  Tb  Tb0  1  0.000000  0.000000  0.000000  1
  Nd  Nd1  1  0.250000  0.250000  0.250000  1
  Nd  Nd2  1  0.750000  0.750000  0.750000  1
  Be  Be3  1  0.732887  0.267113  0.267113  1
  Be  Be4  1  0.267113  0.732887  0.732887  1
  P  P5  1  0.265507  0.734493  0.265507  1
  P  P6  1  0.734493  0.265507  0.734493  1
  P  P7  1  0.265507  0.265507  0.734493  1
  P  P8  1  0.734493  0.734493  0.265507  1
  Pd  Pd9  1  0.388816  0.384080  0.384080  1
  Pd  Pd10  1  0.611184  0.615920  0.615920  1
  Pd  Pd11  1  0.384080  0.388816  0.843026  1
  Pd  Pd12  1  0.384080  0.843026  0.388816  1
  Pd  Pd13  1  0.615920  0.611184  0.156974  1
  Pd  Pd14  1  0.615920  0.156974  0.611184  1
  Pd  Pd15  1  0.843026  0.384080  0.384080  1
  Pd  Pd16  1  0.156974  0.615920  0.615920  1
  Pd  Pd17  1  0.344873  0.000000  0.000000  1
  Pd  Pd18  1  0.655127  0.000000  0.000000  1
  Pd  Pd19  1  0.000000  0.344873  0.655127  1
  Pd  Pd20  1  0.000000  0.655127  0.344873  1
  Pd  Pd21  1  0.996750  0.344067  0.003250  1
  Pd  Pd22  1  0.655933  0.003250  0.344067  1
  Pd  Pd23  1  0.003250  0.655933  0.996750  1
  Pd  Pd24  1  0.344067  0.996750  0.655933  1
  Pd  Pd25  1  0.996750  0.003250  0.344067  1
  Pd  Pd26  1  0.003250  0.996750  0.655933  1
  Pd  Pd27  1  0.655933  0.344067  0.003250  1
  Pd  Pd28  1  0.344067  0.655933  0.996750  1
