# generated using pymatgen
data_Tb14ErTh(InIr)4
_symmetry_space_group_name_H-M   'P 1'
_cell_length_a   9.73842989
_cell_length_b   9.73076661
_cell_length_c   9.71732400
_cell_angle_alpha   60.04568084
_cell_angle_beta   60.07166036
_cell_angle_gamma   60.06877182
_symmetry_Int_Tables_number   1
_chemical_formula_structural   Tb14ErTh(InIr)4
_chemical_formula_sum   'Tb14 Er1 Th1 In4 Ir4'
_cell_volume   652.04537496
_cell_formula_units_Z   1
loop_
 _symmetry_equiv_pos_site_id
 _symmetry_equiv_pos_as_xyz
  1  'x, y, z'
loop_
 _atom_site_type_symbol
 _atom_site_label
 _atom_site_symmetry_multiplicity
 _atom_site_fract_x
 _atom_site_fract_y
 _atom_site_fract_z
 _atom_site_occupancy
  Tb  Tb0  1  0.939505  0.558968  0.939310  1
  Tb  Tb1  1  0.310789  0.689274  0.311501  1
  Tb  Tb2  1  0.939505  0.558968  0.562217  1
  Tb  Tb3  1  0.311378  0.308889  0.689867  1
  Tb  Tb4  1  0.099253  0.100174  0.099486  1
  Tb  Tb5  1  0.561078  0.558992  0.939965  1
  Tb  Tb6  1  0.099253  0.100174  0.701088  1
  Tb  Tb7  1  0.691408  0.307739  0.689624  1
  Tb  Tb8  1  0.689614  0.688496  0.310945  1
  Tb  Tb9  1  0.691408  0.307739  0.311229  1
  Tb  Tb10  1  0.310789  0.689274  0.688436  1
  Tb  Tb11  1  0.559702  0.940077  0.559485  1
  Tb  Tb12  1  0.699692  0.101420  0.099445  1
  Tb  Tb13  1  0.559702  0.940077  0.940737  1
  Er  Er14  1  0.941048  0.940080  0.559436  1
  Th  Th15  1  0.096711  0.710515  0.096387  1
  In  In16  1  0.332643  0.333061  0.332953  1
  In  In17  1  0.001228  0.333018  0.332877  1
  In  In18  1  0.332644  0.001126  0.333114  1
  In  In19  1  0.332643  0.333061  0.001342  1
  Ir  Ir20  1  0.892401  0.891897  0.890901  1
  Ir  Ir21  1  0.892401  0.891897  0.324799  1
  Ir  Ir22  1  0.323721  0.891212  0.892533  1
  Ir  Ir23  1  0.891486  0.323869  0.892323  1
