# generated using pymatgen
data_Pr8As(IrO8)3
_symmetry_space_group_name_H-M   'P 1'
_cell_length_a   5.46615467
_cell_length_b   9.44113706
_cell_length_c   10.20954112
_cell_angle_alpha   89.78401748
_cell_angle_beta   89.95967237
_cell_angle_gamma   90.08640395
_symmetry_Int_Tables_number   1
_chemical_formula_structural   Pr8As(IrO8)3
_chemical_formula_sum   'Pr8 As1 Ir3 O24'
_cell_volume   526.87640833
_cell_formula_units_Z   1
loop_
 _symmetry_equiv_pos_site_id
 _symmetry_equiv_pos_as_xyz
  1  'x, y, z'
loop_
 _atom_site_type_symbol
 _atom_site_label
 _atom_site_symmetry_multiplicity
 _atom_site_fract_x
 _atom_site_fract_y
 _atom_site_fract_z
 _atom_site_occupancy
  Pr  Pr0  1  0.035027  0.219292  0.131098  1
  Pr  Pr1  1  0.466780  0.770809  0.636570  1
  Pr  Pr2  1  0.968954  0.716252  0.372684  1
  Pr  Pr3  1  0.533452  0.291929  0.856518  1
  Pr  Pr4  1  0.027616  0.109975  0.540004  1
  Pr  Pr5  1  0.473654  0.899511  0.038655  1
  Pr  Pr6  1  0.973621  0.600822  0.953701  1
  Pr  Pr7  1  0.524711  0.400496  0.466848  1
  As  As8  1  0.040527  0.494012  0.641835  1
  Ir  Ir9  1  0.547993  0.002133  0.359398  1
  Ir  Ir10  1  0.955571  0.996864  0.857659  1
  Ir  Ir11  1  0.455878  0.504661  0.142703  1
  O  O12  1  0.441103  0.147936  0.480700  1
  O  O13  1  0.063366  0.850739  0.980541  1
  O  O14  1  0.559175  0.649658  0.017764  1
  O  O15  1  0.934065  0.356120  0.524067  1
  O  O16  1  0.725025  0.392038  0.065309  1
  O  O17  1  0.781856  0.608454  0.567376  1
  O  O18  1  0.284304  0.885631  0.435518  1
  O  O19  1  0.223604  0.111452  0.933851  1
  O  O20  1  0.250017  0.411707  0.006913  1
  O  O21  1  0.243341  0.584500  0.509861  1
  O  O22  1  0.756682  0.912609  0.494900  1
  O  O23  1  0.749076  0.089359  0.993930  1
  O  O24  1  0.188299  0.631042  0.180088  1
  O  O25  1  0.299487  0.367350  0.676063  1
  O  O26  1  0.816354  0.131842  0.321038  1
  O  O27  1  0.685670  0.866685  0.823865  1
  O  O28  1  0.338409  0.057888  0.217913  1
  O  O29  1  0.162644  0.943544  0.716998  1
  O  O30  1  0.659367  0.561903  0.282897  1
  O  O31  1  0.840838  0.443567  0.779210  1
  O  O32  1  0.329278  0.360161  0.257187  1
  O  O33  1  0.169247  0.631627  0.750877  1
  O  O34  1  0.677138  0.861188  0.243057  1
  O  O35  1  0.817871  0.136242  0.742405  1
