# generated using pymatgen
data_Al3Cd4Ga(AsO5)4
_symmetry_space_group_name_H-M   'P 1'
_cell_length_a   11.19572017
_cell_length_b   5.75407021
_cell_length_c   7.70569399
_cell_angle_alpha   83.74365132
_cell_angle_beta   90.18552338
_cell_angle_gamma   89.89735319
_symmetry_Int_Tables_number   1
_chemical_formula_structural   Al3Cd4Ga(AsO5)4
_chemical_formula_sum   'Al3 Cd4 Ga1 As4 O20'
_cell_volume   493.44799453
_cell_formula_units_Z   1
loop_
 _symmetry_equiv_pos_site_id
 _symmetry_equiv_pos_as_xyz
  1  'x, y, z'
loop_
 _atom_site_type_symbol
 _atom_site_label
 _atom_site_symmetry_multiplicity
 _atom_site_fract_x
 _atom_site_fract_y
 _atom_site_fract_z
 _atom_site_occupancy
  Al  Al0  1  0.321241  0.927331  0.859770  1
  Al  Al1  1  0.674433  0.071931  0.141901  1
  Al  Al2  1  0.178490  0.428219  0.860074  1
  Cd  Cd3  1  0.646745  0.605737  0.473025  1
  Cd  Cd4  1  0.852597  0.102499  0.468571  1
  Cd  Cd5  1  0.353974  0.389879  0.532328  1
  Cd  Cd6  1  0.147455  0.892299  0.527926  1
  Ga  Ga7  1  0.823400  0.572852  0.138633  1
  As  As8  1  0.404744  0.919871  0.264217  1
  As  As9  1  0.907131  0.577760  0.732704  1
  As  As10  1  0.096869  0.423657  0.262490  1
  As  As11  1  0.593259  0.076282  0.737844  1
  O  O12  1  0.810136  0.621643  0.897709  1
  O  O13  1  0.540856  0.344146  0.647708  1
  O  O14  1  0.758425  0.291266  0.231025  1
  O  O15  1  0.522114  0.101474  0.202595  1
  O  O16  1  0.260870  0.202445  0.775192  1
  O  O17  1  0.179685  0.547973  0.415799  1
  O  O18  1  0.458898  0.654809  0.356457  1
  O  O19  1  0.040794  0.160148  0.353477  1
  O  O20  1  0.826566  0.451081  0.578421  1
  O  O21  1  0.474084  0.898602  0.797651  1
  O  O22  1  0.683531  0.114392  0.911635  1
  O  O23  1  0.187520  0.380667  0.090817  1
  O  O24  1  0.322411  0.048414  0.415301  1
  O  O25  1  0.983095  0.616645  0.198769  1
  O  O26  1  0.314417  0.880477  0.090897  1
  O  O27  1  0.675871  0.950577  0.586234  1
  O  O28  1  0.238501  0.702363  0.774805  1
  O  O29  1  0.735962  0.801447  0.232950  1
  O  O30  1  0.961032  0.843623  0.641860  1
  O  O31  1  0.024895  0.399492  0.801217  1
