# generated using pymatgen
data_Ce3Hg3Pd2Au
_symmetry_space_group_name_H-M   'P 1'
_cell_length_a   7.91393402
_cell_length_b   7.91393496
_cell_length_c   3.89106900
_cell_angle_alpha   90.00000000
_cell_angle_beta   90.00000000
_cell_angle_gamma   120.00000293
_symmetry_Int_Tables_number   1
_chemical_formula_structural   Ce3Hg3Pd2Au
_chemical_formula_sum   'Ce3 Hg3 Pd2 Au1'
_cell_volume   211.04956103
_cell_formula_units_Z   1
loop_
 _symmetry_equiv_pos_site_id
 _symmetry_equiv_pos_as_xyz
  1  'x, y, z'
loop_
 _atom_site_type_symbol
 _atom_site_label
 _atom_site_symmetry_multiplicity
 _atom_site_fract_x
 _atom_site_fract_y
 _atom_site_fract_z
 _atom_site_occupancy
  Ce  Ce0  1  0.394635  0.401760  0.500000  1
  Ce  Ce1  1  0.598240  0.992875  0.500000  1
  Ce  Ce2  1  0.007125  0.605365  0.500000  1
  Hg  Hg3  1  0.734939  0.738798  0.000000  1
  Hg  Hg4  1  0.261202  0.996141  0.000000  1
  Hg  Hg5  1  0.003859  0.265061  0.000000  1
  Pd  Pd6  1  0.333333  0.666667  0.000000  1
  Pd  Pd7  1  0.000000  0.000000  0.500000  1
  Au  Au8  1  0.666667  0.333333  0.000000  1
