# generated using pymatgen
data_Tb4Er4SbPd24
_symmetry_space_group_name_H-M   'P 1'
_cell_length_a   8.39488505
_cell_length_b   8.39488505
_cell_length_c   8.39488505
_cell_angle_alpha   89.99103149
_cell_angle_beta   89.99103149
_cell_angle_gamma   89.99103149
_symmetry_Int_Tables_number   1
_chemical_formula_structural   Tb4Er4SbPd24
_chemical_formula_sum   'Tb4 Er4 Sb1 Pd24'
_cell_volume   591.62190511
_cell_formula_units_Z   1
loop_
 _symmetry_equiv_pos_site_id
 _symmetry_equiv_pos_as_xyz
  1  'x, y, z'
loop_
 _atom_site_type_symbol
 _atom_site_label
 _atom_site_symmetry_multiplicity
 _atom_site_fract_x
 _atom_site_fract_y
 _atom_site_fract_z
 _atom_site_occupancy
  Tb  Tb0  1  0.746313  0.746313  0.253803  1
  Tb  Tb1  1  0.746313  0.253803  0.746313  1
  Tb  Tb2  1  0.253803  0.746313  0.746313  1
  Tb  Tb3  1  0.746323  0.746323  0.746323  1
  Er  Er4  1  0.746229  0.253878  0.253878  1
  Er  Er5  1  0.253878  0.253878  0.746229  1
  Er  Er6  1  0.253878  0.746229  0.253878  1
  Er  Er7  1  0.253891  0.253891  0.253891  1
  Sb  Sb8  1  0.998939  0.998939  0.998939  1
  Pd  Pd9  1  0.001088  0.001088  0.304865  1
  Pd  Pd10  1  0.736007  0.001096  0.499146  1
  Pd  Pd11  1  0.736007  0.499146  0.001096  1
  Pd  Pd12  1  0.499146  0.001096  0.736007  1
  Pd  Pd13  1  0.001096  0.736007  0.499146  1
  Pd  Pd14  1  0.499183  0.001094  0.264268  1
  Pd  Pd15  1  0.001094  0.264268  0.499183  1
  Pd  Pd16  1  0.499146  0.736007  0.001096  1
  Pd  Pd17  1  0.254142  0.499030  0.499030  1
  Pd  Pd18  1  0.499014  0.499014  0.745890  1
  Pd  Pd19  1  0.499030  0.499030  0.254142  1
  Pd  Pd20  1  0.499030  0.254142  0.499030  1
  Pd  Pd21  1  0.499014  0.745890  0.499014  1
  Pd  Pd22  1  0.745890  0.499014  0.499014  1
  Pd  Pd23  1  0.304865  0.001088  0.001088  1
  Pd  Pd24  1  0.001048  0.001048  0.693592  1
  Pd  Pd25  1  0.001094  0.499183  0.264268  1
  Pd  Pd26  1  0.001088  0.304865  0.001088  1
  Pd  Pd27  1  0.001048  0.693592  0.001048  1
  Pd  Pd28  1  0.693592  0.001048  0.001048  1
  Pd  Pd29  1  0.264268  0.499183  0.001094  1
  Pd  Pd30  1  0.264268  0.001094  0.499183  1
  Pd  Pd31  1  0.001096  0.499146  0.736007  1
  Pd  Pd32  1  0.499183  0.264268  0.001094  1
