# generated using pymatgen
data_DyFe(OsO4)2
_symmetry_space_group_name_H-M   'P 1'
_cell_length_a   5.22104068
_cell_length_b   7.31524180
_cell_length_c   7.45776779
_cell_angle_alpha   79.70583406
_cell_angle_beta   87.06386158
_cell_angle_gamma   92.36509683
_symmetry_Int_Tables_number   1
_chemical_formula_structural   DyFe(OsO4)2
_chemical_formula_sum   'Dy2 Fe2 Os4 O16'
_cell_volume   279.51428582
_cell_formula_units_Z   2
loop_
 _symmetry_equiv_pos_site_id
 _symmetry_equiv_pos_as_xyz
  1  'x, y, z'
loop_
 _atom_site_type_symbol
 _atom_site_label
 _atom_site_symmetry_multiplicity
 _atom_site_fract_x
 _atom_site_fract_y
 _atom_site_fract_z
 _atom_site_occupancy
  Dy  Dy0  1  0.747930  0.372552  0.376995  1
  Dy  Dy1  1  0.252070  0.627448  0.623005  1
  Fe  Fe2  1  0.721317  0.857794  0.323155  1
  Fe  Fe3  1  0.278683  0.142206  0.676845  1
  Os  Os4  1  0.780462  0.302624  0.843345  1
  Os  Os5  1  0.219538  0.697376  0.156655  1
  Os  Os6  1  0.243187  0.188294  0.180391  1
  Os  Os7  1  0.756813  0.811706  0.819609  1
  O  O8  1  0.902274  0.805945  0.059908  1
  O  O9  1  0.097726  0.194055  0.940092  1
  O  O10  1  0.378973  0.939910  0.188908  1
  O  O11  1  0.621027  0.060090  0.811092  1
  O  O12  1  0.102528  0.436997  0.173983  1
  O  O13  1  0.897472  0.563003  0.826017  1
  O  O14  1  0.570253  0.296308  0.062912  1
  O  O15  1  0.429747  0.703692  0.937088  1
  O  O16  1  0.001781  0.319503  0.611246  1
  O  O17  1  0.998219  0.680497  0.388754  1
  O  O18  1  0.395216  0.182715  0.415907  1
  O  O19  1  0.604784  0.817285  0.584093  1
  O  O20  1  0.491800  0.614162  0.323672  1
  O  O21  1  0.508200  0.385838  0.676328  1
  O  O22  1  0.911918  0.095311  0.297238  1
  O  O23  1  0.088082  0.904689  0.702762  1
