# generated using pymatgen
data_UPaSb4Pd
_symmetry_space_group_name_H-M   'P 1'
_cell_length_a   4.37939000
_cell_length_b   4.42005600
_cell_length_c   9.28712700
_cell_angle_alpha   90.00000000
_cell_angle_beta   90.00000000
_cell_angle_gamma   90.00000000
_symmetry_Int_Tables_number   1
_chemical_formula_structural   UPaSb4Pd
_chemical_formula_sum   'U1 Pa1 Sb4 Pd1'
_cell_volume   179.77230155
_cell_formula_units_Z   1
loop_
 _symmetry_equiv_pos_site_id
 _symmetry_equiv_pos_as_xyz
  1  'x, y, z'
loop_
 _atom_site_type_symbol
 _atom_site_label
 _atom_site_symmetry_multiplicity
 _atom_site_fract_x
 _atom_site_fract_y
 _atom_site_fract_z
 _atom_site_occupancy
  U  U0  1  0.000000  0.500000  0.238387  1
  Pa  Pa1  1  0.500000  0.000000  0.765041  1
  Sb  Sb2  1  0.500000  0.000000  0.164530  1
  Sb  Sb3  1  0.000000  0.500000  0.833531  1
  Sb  Sb4  1  0.500000  0.500000  0.499731  1
  Sb  Sb5  1  0.000000  0.000000  0.500839  1
  Pd  Pd6  1  0.500000  0.500000  0.997940  1
