# generated using pymatgen
data_BaNd5(GePd)6
_symmetry_space_group_name_H-M   'P 1'
_cell_length_a   4.56385000
_cell_length_b   7.75379542
_cell_length_c   22.34956700
_cell_angle_alpha   90.01893160
_cell_angle_beta   90.00000000
_cell_angle_gamma   90.00000000
_symmetry_Int_Tables_number   1
_chemical_formula_structural   BaNd5(GePd)6
_chemical_formula_sum   'Ba2 Nd10 Ge12 Pd12'
_cell_volume   790.88764326
_cell_formula_units_Z   2
loop_
 _symmetry_equiv_pos_site_id
 _symmetry_equiv_pos_as_xyz
  1  'x, y, z'
loop_
 _atom_site_type_symbol
 _atom_site_label
 _atom_site_symmetry_multiplicity
 _atom_site_fract_x
 _atom_site_fract_y
 _atom_site_fract_z
 _atom_site_occupancy
  Ba  Ba0  1  0.750000  0.232760  0.498032  1
  Ba  Ba1  1  0.250000  0.767240  0.501968  1
  Nd  Nd2  1  0.250000  0.708074  0.320982  1
  Nd  Nd3  1  0.750000  0.291926  0.679018  1
  Nd  Nd4  1  0.750000  0.207626  0.160128  1
  Nd  Nd5  1  0.250000  0.792374  0.839872  1
  Nd  Nd6  1  0.250000  0.793147  0.160104  1
  Nd  Nd7  1  0.750000  0.206853  0.839896  1
  Nd  Nd8  1  0.750000  0.287751  0.321226  1
  Nd  Nd9  1  0.250000  0.712249  0.678774  1
  Nd  Nd10  1  0.250000  0.713763  0.001382  1
  Nd  Nd11  1  0.750000  0.286237  0.998618  1
  Ge  Ge12  1  0.250000  0.089878  0.067325  1
  Ge  Ge13  1  0.750000  0.910122  0.932675  1
  Ge  Ge14  1  0.750000  0.592832  0.406627  1
  Ge  Ge15  1  0.250000  0.407168  0.593373  1
  Ge  Ge16  1  0.250000  0.083950  0.258972  1
  Ge  Ge17  1  0.750000  0.916050  0.741028  1
  Ge  Ge18  1  0.750000  0.584092  0.220776  1
  Ge  Ge19  1  0.250000  0.415908  0.779224  1
  Ge  Ge20  1  0.250000  0.078416  0.381406  1
  Ge  Ge21  1  0.750000  0.921584  0.618594  1
  Ge  Ge22  1  0.750000  0.586851  0.098587  1
  Ge  Ge23  1  0.250000  0.413149  0.901413  1
  Pd  Pd24  1  0.250000  0.417920  0.227075  1
  Pd  Pd25  1  0.750000  0.582080  0.772925  1
  Pd  Pd26  1  0.750000  0.917080  0.251984  1
  Pd  Pd27  1  0.250000  0.082920  0.748016  1
  Pd  Pd28  1  0.250000  0.413739  0.408217  1
  Pd  Pd29  1  0.750000  0.586261  0.591783  1
  Pd  Pd30  1  0.750000  0.918193  0.061468  1
  Pd  Pd31  1  0.250000  0.081807  0.938532  1
  Pd  Pd32  1  0.250000  0.420491  0.090147  1
  Pd  Pd33  1  0.750000  0.579509  0.909853  1
  Pd  Pd34  1  0.750000  0.918737  0.389590  1
  Pd  Pd35  1  0.250000  0.081263  0.610410  1
