# generated using pymatgen
data_DyEr7In3Os
_symmetry_space_group_name_H-M   'P 1'
_cell_length_a   10.31603552
_cell_length_b   10.31603581
_cell_length_c   7.03212433
_cell_angle_alpha   89.96972736
_cell_angle_beta   90.03027253
_cell_angle_gamma   120.01981508
_symmetry_Int_Tables_number   1
_chemical_formula_structural   DyEr7In3Os
_chemical_formula_sum   'Dy2 Er14 In6 Os2'
_cell_volume   647.97165848
_cell_formula_units_Z   2
loop_
 _symmetry_equiv_pos_site_id
 _symmetry_equiv_pos_as_xyz
  1  'x, y, z'
loop_
 _atom_site_type_symbol
 _atom_site_label
 _atom_site_symmetry_multiplicity
 _atom_site_fract_x
 _atom_site_fract_y
 _atom_site_fract_z
 _atom_site_occupancy
  Dy  Dy0  1  0.532508  0.065149  0.793679  1
  Dy  Dy1  1  0.934851  0.467492  0.793679  1
  Er  Er2  1  0.532676  0.467324  0.793935  1
  Er  Er3  1  0.467071  0.934110  0.293790  1
  Er  Er4  1  0.065890  0.532929  0.293790  1
  Er  Er5  1  0.467151  0.532849  0.293859  1
  Er  Er6  1  0.822558  0.645422  0.498976  1
  Er  Er7  1  0.354578  0.177442  0.498976  1
  Er  Er8  1  0.822901  0.177099  0.498926  1
  Er  Er9  1  0.177447  0.354563  0.999432  1
  Er  Er10  1  0.645437  0.822553  0.999432  1
  Er  Er11  1  0.177187  0.822813  0.999544  1
  Er  Er12  1  0.666496  0.333504  0.171672  1
  Er  Er13  1  0.333471  0.666529  0.671298  1
  Er  Er14  1  0.000005  0.999995  0.777906  1
  Er  Er15  1  0.000024  0.999976  0.277714  1
  In  In16  1  0.836868  0.674051  0.039867  1
  In  In17  1  0.325949  0.163132  0.039867  1
  In  In18  1  0.837111  0.162889  0.040052  1
  In  In19  1  0.163125  0.326145  0.539636  1
  In  In20  1  0.673855  0.836875  0.539636  1
  In  In21  1  0.163082  0.836918  0.539661  1
  Os  Os22  1  0.666437  0.333563  0.569966  1
  Os  Os23  1  0.333321  0.666679  0.070612  1
