# generated using pymatgen
data_Pr2Nd2Ga4Pd3Ru
_symmetry_space_group_name_H-M   'P 1'
_cell_length_a   4.53598100
_cell_length_b   7.16806541
_cell_length_c   7.81444202
_cell_angle_alpha   90.02398130
_cell_angle_beta   90.00000000
_cell_angle_gamma   90.00000000
_symmetry_Int_Tables_number   1
_chemical_formula_structural   Pr2Nd2Ga4Pd3Ru
_chemical_formula_sum   'Pr2 Nd2 Ga4 Pd3 Ru1'
_cell_volume   254.08037523
_cell_formula_units_Z   1
loop_
 _symmetry_equiv_pos_site_id
 _symmetry_equiv_pos_as_xyz
  1  'x, y, z'
loop_
 _atom_site_type_symbol
 _atom_site_label
 _atom_site_symmetry_multiplicity
 _atom_site_fract_x
 _atom_site_fract_y
 _atom_site_fract_z
 _atom_site_occupancy
  Pr  Pr0  1  0.250000  0.028966  0.686702  1
  Pr  Pr1  1  0.250000  0.525165  0.808551  1
  Nd  Nd2  1  0.750000  0.982549  0.303896  1
  Nd  Nd3  1  0.750000  0.475975  0.200413  1
  Ga  Ga4  1  0.250000  0.170763  0.079913  1
  Ga  Ga5  1  0.250000  0.659664  0.425367  1
  Ga  Ga6  1  0.750000  0.833560  0.925923  1
  Ga  Ga7  1  0.750000  0.328086  0.570609  1
  Pd  Pd8  1  0.250000  0.789043  0.101665  1
  Pd  Pd9  1  0.750000  0.712479  0.599062  1
  Pd  Pd10  1  0.750000  0.213059  0.899430  1
  Ru  Ru11  1  0.250000  0.280690  0.398470  1
