# generated using pymatgen
data_Pr2SmY2(Sn5Rh2)2
_symmetry_space_group_name_H-M   'P 1'
_cell_length_a   14.17876200
_cell_length_b   14.17876200
_cell_length_c   4.57968800
_cell_angle_alpha   90.00000000
_cell_angle_beta   90.00000000
_cell_angle_gamma   90.00000000
_symmetry_Int_Tables_number   1
_chemical_formula_structural   Pr2SmY2(Sn5Rh2)2
_chemical_formula_sum   'Pr4 Sm2 Y4 Sn20 Rh8'
_cell_volume   920.68807305
_cell_formula_units_Z   2
loop_
 _symmetry_equiv_pos_site_id
 _symmetry_equiv_pos_as_xyz
  1  'x, y, z'
loop_
 _atom_site_type_symbol
 _atom_site_label
 _atom_site_symmetry_multiplicity
 _atom_site_fract_x
 _atom_site_fract_y
 _atom_site_fract_z
 _atom_site_occupancy
  Pr  Pr0  1  0.888059  0.388059  0.500000  1
  Pr  Pr1  1  0.111941  0.611941  0.500000  1
  Pr  Pr2  1  0.388059  0.111941  0.500000  1
  Pr  Pr3  1  0.611941  0.888059  0.500000  1
  Sm  Sm4  1  0.500000  0.500000  0.000000  1
  Sm  Sm5  1  0.000000  0.000000  0.000000  1
  Y  Y6  1  0.677273  0.177273  0.500000  1
  Y  Y7  1  0.322727  0.822727  0.500000  1
  Y  Y8  1  0.177273  0.322727  0.500000  1
  Y  Y9  1  0.822727  0.677273  0.500000  1
  Sn  Sn10  1  0.570342  0.070342  0.000000  1
  Sn  Sn11  1  0.429658  0.929658  0.000000  1
  Sn  Sn12  1  0.070342  0.429658  0.000000  1
  Sn  Sn13  1  0.929658  0.570342  0.000000  1
  Sn  Sn14  1  0.654254  0.698043  0.000000  1
  Sn  Sn15  1  0.345746  0.301957  0.000000  1
  Sn  Sn16  1  0.154254  0.801957  0.000000  1
  Sn  Sn17  1  0.845746  0.198043  0.000000  1
  Sn  Sn18  1  0.301957  0.654254  0.000000  1
  Sn  Sn19  1  0.698043  0.345746  0.000000  1
  Sn  Sn20  1  0.198043  0.154254  0.000000  1
  Sn  Sn21  1  0.801957  0.845746  0.000000  1
  Sn  Sn22  1  0.662194  0.505648  0.500000  1
  Sn  Sn23  1  0.337806  0.494352  0.500000  1
  Sn  Sn24  1  0.162194  0.994352  0.500000  1
  Sn  Sn25  1  0.837806  0.005648  0.500000  1
  Sn  Sn26  1  0.494352  0.662194  0.500000  1
  Sn  Sn27  1  0.505648  0.337806  0.500000  1
  Sn  Sn28  1  0.005648  0.162194  0.500000  1
  Sn  Sn29  1  0.994352  0.837806  0.500000  1
  Rh  Rh30  1  0.746296  0.529258  0.000000  1
  Rh  Rh31  1  0.253704  0.470742  0.000000  1
  Rh  Rh32  1  0.246296  0.970742  0.000000  1
  Rh  Rh33  1  0.753704  0.029258  0.000000  1
  Rh  Rh34  1  0.470742  0.746296  0.000000  1
  Rh  Rh35  1  0.529258  0.253704  0.000000  1
  Rh  Rh36  1  0.029258  0.246296  0.000000  1
  Rh  Rh37  1  0.970742  0.753704  0.000000  1
