# generated using pymatgen
data_Nd8Cd2TcPd
_symmetry_space_group_name_H-M   'P 1'
_cell_length_a   9.97844806
_cell_length_b   9.97844752
_cell_length_c   10.08494500
_cell_angle_alpha   59.64631908
_cell_angle_beta   59.64632091
_cell_angle_gamma   59.42039120
_symmetry_Int_Tables_number   1
_chemical_formula_structural   Nd8Cd2TcPd
_chemical_formula_sum   'Nd16 Cd4 Tc2 Pd2'
_cell_volume   703.11095452
_cell_formula_units_Z   2
loop_
 _symmetry_equiv_pos_site_id
 _symmetry_equiv_pos_as_xyz
  1  'x, y, z'
loop_
 _atom_site_type_symbol
 _atom_site_label
 _atom_site_symmetry_multiplicity
 _atom_site_fract_x
 _atom_site_fract_y
 _atom_site_fract_z
 _atom_site_occupancy
  Nd  Nd0  1  0.348008  0.348008  0.355477  1
  Nd  Nd1  1  0.348008  0.348008  0.948506  1
  Nd  Nd2  1  0.343458  0.956627  0.349958  1
  Nd  Nd3  1  0.956627  0.343458  0.349958  1
  Nd  Nd4  1  0.815282  0.190341  0.190517  1
  Nd  Nd5  1  0.190341  0.815282  0.803860  1
  Nd  Nd6  1  0.190341  0.815282  0.190517  1
  Nd  Nd7  1  0.815282  0.190341  0.803860  1
  Nd  Nd8  1  0.190293  0.190293  0.809707  1
  Nd  Nd9  1  0.806427  0.806427  0.193573  1
  Nd  Nd10  1  0.937141  0.557162  0.566175  1
  Nd  Nd11  1  0.557162  0.937141  0.939521  1
  Nd  Nd12  1  0.557162  0.937141  0.566175  1
  Nd  Nd13  1  0.937141  0.557162  0.939521  1
  Nd  Nd14  1  0.563740  0.563740  0.936260  1
  Nd  Nd15  1  0.940407  0.940407  0.559593  1
  Cd  Cd16  1  0.579952  0.579952  0.580272  1
  Cd  Cd17  1  0.579952  0.579952  0.259826  1
  Cd  Cd18  1  0.579700  0.258984  0.580658  1
  Cd  Cd19  1  0.258984  0.579700  0.580658  1
  Tc  Tc20  1  0.141856  0.141856  0.133838  1
  Tc  Tc21  1  0.141856  0.141856  0.582448  1
  Pd  Pd22  1  0.146707  0.574172  0.139560  1
  Pd  Pd23  1  0.574172  0.146707  0.139560  1
