# generated using pymatgen
data_La4RuPtAu2
_symmetry_space_group_name_H-M   'P 1'
_cell_length_a   4.72137700
_cell_length_b   5.84502626
_cell_length_c   7.62789808
_cell_angle_alpha   92.55941669
_cell_angle_beta   90.00000000
_cell_angle_gamma   90.00000000
_symmetry_Int_Tables_number   1
_chemical_formula_structural   La4RuPtAu2
_chemical_formula_sum   'La4 Ru1 Pt1 Au2'
_cell_volume   210.29385468
_cell_formula_units_Z   1
loop_
 _symmetry_equiv_pos_site_id
 _symmetry_equiv_pos_as_xyz
  1  'x, y, z'
loop_
 _atom_site_type_symbol
 _atom_site_label
 _atom_site_symmetry_multiplicity
 _atom_site_fract_x
 _atom_site_fract_y
 _atom_site_fract_z
 _atom_site_occupancy
  La  La0  1  0.250000  0.653198  0.165981  1
  La  La1  1  0.750000  0.372229  0.835556  1
  La  La2  1  0.750000  0.141247  0.295188  1
  La  La3  1  0.250000  0.862605  0.706208  1
  Ru  Ru4  1  0.750000  0.805111  0.948881  1
  Pt  Pt5  1  0.250000  0.158277  0.048907  1
  Au  Au6  1  0.750000  0.655201  0.460902  1
  Au  Au7  1  0.250000  0.352132  0.538377  1
