# generated using pymatgen
data_Tm4Ga3As5Rh16
_symmetry_space_group_name_H-M   'P 1'
_cell_length_a   4.24080300
_cell_length_b   9.13449470
_cell_length_c   11.50363075
_cell_angle_alpha   90.41296343
_cell_angle_beta   90.00000000
_cell_angle_gamma   90.00000000
_symmetry_Int_Tables_number   1
_chemical_formula_structural   Tm4Ga3As5Rh16
_chemical_formula_sum   'Tm4 Ga3 As5 Rh16'
_cell_volume   445.61138606
_cell_formula_units_Z   1
loop_
 _symmetry_equiv_pos_site_id
 _symmetry_equiv_pos_as_xyz
  1  'x, y, z'
loop_
 _atom_site_type_symbol
 _atom_site_label
 _atom_site_symmetry_multiplicity
 _atom_site_fract_x
 _atom_site_fract_y
 _atom_site_fract_z
 _atom_site_occupancy
  Tm  Tm0  1  0.250000  0.147262  0.822441  1
  Tm  Tm1  1  0.250000  0.348336  0.327943  1
  Tm  Tm2  1  0.750000  0.859961  0.182809  1
  Tm  Tm3  1  0.750000  0.648717  0.676075  1
  Ga  Ga4  1  0.250000  0.886262  0.556170  1
  Ga  Ga5  1  0.750000  0.376279  0.938667  1
  Ga  Ga6  1  0.750000  0.113383  0.443433  1
  As  As7  1  0.250000  0.416962  0.641177  1
  As  As8  1  0.250000  0.089316  0.140215  1
  As  As9  1  0.750000  0.584127  0.359232  1
  As  As10  1  0.750000  0.913057  0.857199  1
  As  As11  1  0.250000  0.616237  0.056193  1
  Rh  Rh12  1  0.250000  0.611958  0.499779  1
  Rh  Rh13  1  0.250000  0.885102  0.003562  1
  Rh  Rh14  1  0.750000  0.388855  0.498216  1
  Rh  Rh15  1  0.750000  0.107047  0.000529  1
  Rh  Rh16  1  0.250000  0.685411  0.264628  1
  Rh  Rh17  1  0.250000  0.810626  0.768968  1
  Rh  Rh18  1  0.750000  0.308892  0.727414  1
  Rh  Rh19  1  0.750000  0.192999  0.231706  1
  Rh  Rh20  1  0.250000  0.177459  0.562784  1
  Rh  Rh21  1  0.250000  0.328978  0.061306  1
  Rh  Rh22  1  0.750000  0.822757  0.437398  1
  Rh  Rh23  1  0.750000  0.676199  0.943828  1
  Rh  Rh24  1  0.250000  0.003277  0.340224  1
  Rh  Rh25  1  0.250000  0.497178  0.844285  1
  Rh  Rh26  1  0.750000  0.996333  0.658137  1
  Rh  Rh27  1  0.750000  0.507030  0.155679  1
