# generated using pymatgen
data_Pr8Y11ErIn16
_symmetry_space_group_name_H-M   'P 1'
_cell_length_a   8.10611600
_cell_length_b   8.41436009
_cell_length_c   16.01493800
_cell_angle_alpha   90.00000000
_cell_angle_beta   90.00000000
_cell_angle_gamma   90.00829371
_symmetry_Int_Tables_number   1
_chemical_formula_structural   Pr8Y11ErIn16
_chemical_formula_sum   'Pr8 Y11 Er1 In16'
_cell_volume   1092.34333940
_cell_formula_units_Z   1
loop_
 _symmetry_equiv_pos_site_id
 _symmetry_equiv_pos_as_xyz
  1  'x, y, z'
loop_
 _atom_site_type_symbol
 _atom_site_label
 _atom_site_symmetry_multiplicity
 _atom_site_fract_x
 _atom_site_fract_y
 _atom_site_fract_z
 _atom_site_occupancy
  Pr  Pr0  1  0.013872  0.181835  0.407165  1
  Pr  Pr1  1  0.513806  0.318170  0.407082  1
  Pr  Pr2  1  0.486406  0.682254  0.906700  1
  Pr  Pr3  1  0.486406  0.682254  0.593300  1
  Pr  Pr4  1  0.985927  0.818395  0.593298  1
  Pr  Pr5  1  0.985927  0.818395  0.906702  1
  Pr  Pr6  1  0.513806  0.318170  0.092918  1
  Pr  Pr7  1  0.013872  0.181835  0.092835  1
  Y  Y8  1  0.324324  0.169091  0.624247  1
  Y  Y9  1  0.675986  0.830672  0.376241  1
  Y  Y10  1  0.175864  0.669568  0.376074  1
  Y  Y11  1  0.824121  0.330091  0.875904  1
  Y  Y12  1  0.824121  0.330091  0.624096  1
  Y  Y13  1  0.845592  0.496596  0.250000  1
  Y  Y14  1  0.345726  0.003454  0.250000  1
  Y  Y15  1  0.324324  0.169091  0.875753  1
  Y  Y16  1  0.175864  0.669568  0.123926  1
  Y  Y17  1  0.675986  0.830672  0.123759  1
  Y  Y18  1  0.154156  0.503605  0.750000  1
  Er  Er19  1  0.654047  0.997037  0.750000  1
  In  In20  1  0.281508  0.866494  0.750000  1
  In  In21  1  0.478388  0.614084  0.250000  1
  In  In22  1  0.020743  0.112514  0.750000  1
  In  In23  1  0.521512  0.385773  0.750000  1
  In  In24  1  0.163959  0.468370  0.542254  1
  In  In25  1  0.978285  0.886135  0.250000  1
  In  In26  1  0.719582  0.133469  0.250000  1
  In  In27  1  0.836486  0.531663  0.042096  1
  In  In28  1  0.336163  0.968489  0.042055  1
  In  In29  1  0.163959  0.468370  0.957746  1
  In  In30  1  0.663622  0.031454  0.542564  1
  In  In31  1  0.336163  0.968489  0.457945  1
  In  In32  1  0.836486  0.531663  0.457904  1
  In  In33  1  0.779737  0.634117  0.750000  1
  In  In34  1  0.219650  0.366617  0.250000  1
  In  In35  1  0.663622  0.031454  0.957436  1
