# generated using pymatgen
data_TmLu5Al17Si7Os8
_symmetry_space_group_name_H-M   'P 1'
_cell_length_a   8.66651602
_cell_length_b   8.65852516
_cell_length_c   9.43505300
_cell_angle_alpha   90.00000000
_cell_angle_beta   90.00000000
_cell_angle_gamma   120.09278692
_symmetry_Int_Tables_number   1
_chemical_formula_structural   TmLu5Al17Si7Os8
_chemical_formula_sum   'Tm1 Lu5 Al17 Si7 Os8'
_cell_volume   612.57127225
_cell_formula_units_Z   1
loop_
 _symmetry_equiv_pos_site_id
 _symmetry_equiv_pos_as_xyz
  1  'x, y, z'
loop_
 _atom_site_type_symbol
 _atom_site_label
 _atom_site_symmetry_multiplicity
 _atom_site_fract_x
 _atom_site_fract_y
 _atom_site_fract_z
 _atom_site_occupancy
  Tm  Tm0  1  0.801558  0.192439  0.750000  1
  Lu  Lu1  1  0.194203  0.391292  0.250000  1
  Lu  Lu2  1  0.805373  0.611350  0.750000  1
  Lu  Lu3  1  0.607801  0.805785  0.250000  1
  Lu  Lu4  1  0.390921  0.192640  0.750000  1
  Lu  Lu5  1  0.197323  0.803682  0.250000  1
  Al  Al6  1  0.164273  0.329296  0.578900  1
  Al  Al7  1  0.834291  0.671394  0.420409  1
  Al  Al8  1  0.671597  0.835014  0.578483  1
  Al  Al9  1  0.834291  0.671394  0.079591  1
  Al  Al10  1  0.329559  0.165948  0.421608  1
  Al  Al11  1  0.164273  0.329296  0.921100  1
  Al  Al12  1  0.163524  0.834404  0.577534  1
  Al  Al13  1  0.329559  0.165948  0.078392  1
  Al  Al14  1  0.835619  0.164075  0.420566  1
  Al  Al15  1  0.671597  0.835014  0.921517  1
  Al  Al16  1  0.835619  0.164075  0.079434  1
  Al  Al17  1  0.163524  0.834404  0.922466  1
  Al  Al18  1  0.125056  0.565211  0.750000  1
  Al  Al19  1  0.564161  0.435487  0.250000  1
  Al  Al20  1  0.438969  0.565765  0.750000  1
  Al  Al21  1  0.999561  0.999365  0.250000  1
  Al  Al22  1  0.000194  0.000725  0.750000  1
  Si  Si23  1  0.333396  0.664786  0.040826  1
  Si  Si24  1  0.666359  0.335773  0.958480  1
  Si  Si25  1  0.666359  0.335773  0.541520  1
  Si  Si26  1  0.333396  0.664786  0.459174  1
  Si  Si27  1  0.564098  0.123648  0.250000  1
  Si  Si28  1  0.436467  0.873661  0.750000  1
  Si  Si29  1  0.875356  0.435357  0.250000  1
  Os  Os30  1  0.500676  0.000769  0.001236  1
  Os  Os31  1  0.998880  0.499777  0.006890  1
  Os  Os32  1  0.500676  0.000769  0.498764  1
  Os  Os33  1  0.500598  0.500276  0.000361  1
  Os  Os34  1  0.998880  0.499777  0.493110  1
  Os  Os35  1  0.500598  0.500276  0.499639  1
  Os  Os36  1  0.000708  0.000284  0.000150  1
  Os  Os37  1  0.000708  0.000284  0.499850  1
