# generated using pymatgen
data_Ho7Tm7Th2(CdNi)4
_symmetry_space_group_name_H-M   'P 1'
_cell_length_a   9.52135246
_cell_length_b   9.52135199
_cell_length_c   9.51804600
_cell_angle_alpha   60.01148522
_cell_angle_beta   60.01148685
_cell_angle_gamma   60.05634012
_symmetry_Int_Tables_number   1
_chemical_formula_structural   Ho7Tm7Th2(CdNi)4
_chemical_formula_sum   'Ho7 Tm7 Th2 Cd4 Ni4'
_cell_volume   610.50620464
_cell_formula_units_Z   1
loop_
 _symmetry_equiv_pos_site_id
 _symmetry_equiv_pos_as_xyz
  1  'x, y, z'
loop_
 _atom_site_type_symbol
 _atom_site_label
 _atom_site_symmetry_multiplicity
 _atom_site_fract_x
 _atom_site_fract_y
 _atom_site_fract_z
 _atom_site_occupancy
  Ho  Ho0  1  0.813389  0.813389  0.186611  1
  Ho  Ho1  1  0.936685  0.564592  0.565883  1
  Ho  Ho2  1  0.564592  0.936685  0.932840  1
  Ho  Ho3  1  0.564592  0.936685  0.565883  1
  Ho  Ho4  1  0.936685  0.564592  0.932840  1
  Ho  Ho5  1  0.564531  0.564531  0.935469  1
  Ho  Ho6  1  0.937434  0.937434  0.562566  1
  Tm  Tm7  1  0.349558  0.948978  0.350732  1
  Tm  Tm8  1  0.948978  0.349558  0.350732  1
  Tm  Tm9  1  0.813190  0.189921  0.186261  1
  Tm  Tm10  1  0.189921  0.813190  0.810626  1
  Tm  Tm11  1  0.189921  0.813190  0.186261  1
  Tm  Tm12  1  0.813190  0.189921  0.810626  1
  Tm  Tm13  1  0.186425  0.186425  0.813575  1
  Th  Th14  1  0.343242  0.343242  0.351997  1
  Th  Th15  1  0.343242  0.343242  0.961519  1
  Cd  Cd16  1  0.583005  0.583005  0.579772  1
  Cd  Cd17  1  0.583005  0.583005  0.254220  1
  Cd  Cd18  1  0.584018  0.254853  0.580565  1
  Cd  Cd19  1  0.254853  0.584018  0.580565  1
  Ni  Ni20  1  0.141139  0.141139  0.145111  1
  Ni  Ni21  1  0.141139  0.141139  0.572610  1
  Ni  Ni22  1  0.146018  0.571250  0.141366  1
  Ni  Ni23  1  0.571250  0.146018  0.141366  1
