# generated using pymatgen
data_Er9Lu3Co4SnPt
_symmetry_space_group_name_H-M   'P 1'
_cell_length_a   8.21019372
_cell_length_b   8.20536663
_cell_length_c   8.21019386
_cell_angle_alpha   111.20515739
_cell_angle_beta   110.71162667
_cell_angle_gamma   106.55927131
_symmetry_Int_Tables_number   1
_chemical_formula_structural   Er9Lu3Co4SnPt
_chemical_formula_sum   'Er9 Lu3 Co4 Sn1 Pt1'
_cell_volume   424.82406483
_cell_formula_units_Z   1
loop_
 _symmetry_equiv_pos_site_id
 _symmetry_equiv_pos_as_xyz
  1  'x, y, z'
loop_
 _atom_site_type_symbol
 _atom_site_label
 _atom_site_symmetry_multiplicity
 _atom_site_fract_x
 _atom_site_fract_y
 _atom_site_fract_z
 _atom_site_occupancy
  Er  Er0  1  0.685407  0.990973  0.305566  1
  Er  Er1  1  0.416869  0.217783  0.199768  1
  Er  Er2  1  0.582366  0.782225  0.799651  1
  Er  Er3  1  0.018015  0.217783  0.800913  1
  Er  Er4  1  0.982574  0.782225  0.199859  1
  Er  Er5  1  0.186887  0.289471  0.474912  1
  Er  Er6  1  0.814184  0.710484  0.525942  1
  Er  Er7  1  0.184542  0.710484  0.896300  1
  Er  Er8  1  0.814559  0.289471  0.102584  1
  Lu  Lu9  1  0.315217  0.622239  0.307022  1
  Lu  Lu10  1  0.684434  0.377631  0.693197  1
  Lu  Lu11  1  0.315264  0.008377  0.693113  1
  Co  Co12  1  0.113582  0.613174  0.499591  1
  Co  Co13  1  0.888099  0.388388  0.500289  1
  Co  Co14  1  0.376237  0.000173  0.377385  1
  Co  Co15  1  0.622787  0.000173  0.623936  1
  Sn  Sn16  1  0.498945  0.499053  0.000109  1
  Pt  Pt17  1  0.000034  0.999896  0.999863  1
