# generated using pymatgen
data_Na5P12Ir17Ru2
_symmetry_space_group_name_H-M   'P 1'
_cell_length_a   12.54529000
_cell_length_b   12.61918869
_cell_length_c   3.97294000
_cell_angle_alpha   90.00000000
_cell_angle_beta   90.00000000
_cell_angle_gamma   119.80647676
_symmetry_Int_Tables_number   1
_chemical_formula_structural   Na5P12Ir17Ru2
_chemical_formula_sum   'Na5 P12 Ir17 Ru2'
_cell_volume   545.75582848
_cell_formula_units_Z   1
loop_
 _symmetry_equiv_pos_site_id
 _symmetry_equiv_pos_as_xyz
  1  'x, y, z'
loop_
 _atom_site_type_symbol
 _atom_site_label
 _atom_site_symmetry_multiplicity
 _atom_site_fract_x
 _atom_site_fract_y
 _atom_site_fract_z
 _atom_site_occupancy
  Na  Na0  1  0.333561  0.666564  0.500000  1
  Na  Na1  1  0.666999  0.333436  0.500000  1
  Na  Na2  1  0.001285  0.822573  0.000000  1
  Na  Na3  1  0.178712  0.177427  0.000000  1
  Na  Na4  1  0.823462  0.000000  0.000000  1
  P  P5  1  0.998712  0.635859  0.500000  1
  P  P6  1  0.362854  0.364141  0.500000  1
  P  P7  1  0.642484  0.000000  0.500000  1
  P  P8  1  0.514311  0.686988  0.000000  1
  P  P9  1  0.310007  0.822997  0.000000  1
  P  P10  1  0.169446  0.485436  0.000000  1
  P  P11  1  0.487010  0.177003  0.000000  1
  P  P12  1  0.684010  0.514564  0.000000  1
  P  P13  1  0.827323  0.313012  0.000000  1
  P  P14  1  0.002069  0.179965  0.500000  1
  P  P15  1  0.822103  0.820035  0.500000  1
  P  P16  1  0.181623  0.000000  0.500000  1
  Ir  Ir17  1  0.510554  0.870255  0.000000  1
  Ir  Ir18  1  0.124026  0.639317  0.000000  1
  Ir  Ir19  1  0.357985  0.490955  0.000000  1
  Ir  Ir20  1  0.484711  0.360683  0.000000  1
  Ir  Ir21  1  0.867032  0.509045  0.000000  1
  Ir  Ir22  1  0.640300  0.129745  0.000000  1
  Ir  Ir23  1  0.459768  0.000000  0.500000  1
  Ir  Ir24  1  0.999762  0.289877  0.000000  1
  Ir  Ir25  1  0.709885  0.710123  0.000000  1
  Ir  Ir26  1  0.294237  0.000000  0.000000  1
  Ir  Ir27  1  0.623692  0.805105  0.500000  1
  Ir  Ir28  1  0.197256  0.818244  0.500000  1
  Ir  Ir29  1  0.181547  0.378115  0.500000  1
  Ir  Ir30  1  0.379011  0.181756  0.500000  1
  Ir  Ir31  1  0.803430  0.621885  0.500000  1
  Ir  Ir32  1  0.818585  0.194895  0.500000  1
  Ir  Ir33  1  0.001629  0.000000  0.500000  1
  Ru  Ru34  1  0.997234  0.453852  0.500000  1
  Ru  Ru35  1  0.543383  0.546148  0.500000  1
