# generated using pymatgen
data_YbTh3Ga18IrRh5
_symmetry_space_group_name_H-M   'P 1'
_cell_length_a   7.68129204
_cell_length_b   7.69422315
_cell_length_c   9.54302503
_cell_angle_alpha   89.99175948
_cell_angle_beta   89.99962791
_cell_angle_gamma   119.68662049
_symmetry_Int_Tables_number   1
_chemical_formula_structural   YbTh3Ga18IrRh5
_chemical_formula_sum   'Yb1 Th3 Ga18 Ir1 Rh5'
_cell_volume   489.98019274
_cell_formula_units_Z   1
loop_
 _symmetry_equiv_pos_site_id
 _symmetry_equiv_pos_as_xyz
  1  'x, y, z'
loop_
 _atom_site_type_symbol
 _atom_site_label
 _atom_site_symmetry_multiplicity
 _atom_site_fract_x
 _atom_site_fract_y
 _atom_site_fract_z
 _atom_site_occupancy
  Yb  Yb0  1  0.330377  0.003396  0.750030  1
  Th  Th1  1  0.997887  0.669809  0.249872  1
  Th  Th2  1  0.001871  0.330879  0.750168  1
  Th  Th3  1  0.668010  0.996404  0.249865  1
  Ga  Ga4  1  0.132589  0.130495  0.250001  1
  Ga  Ga5  1  0.874175  0.872072  0.750014  1
  Ga  Ga6  1  0.005751  0.334518  0.078337  1
  Ga  Ga7  1  0.003590  0.673240  0.916769  1
  Ga  Ga8  1  0.003250  0.672984  0.583183  1
  Ga  Ga9  1  0.334452  0.004545  0.429060  1
  Ga  Ga10  1  0.005445  0.334517  0.421650  1
  Ga  Ga11  1  0.657748  0.995559  0.583433  1
  Ga  Ga12  1  0.657745  0.995382  0.916541  1
  Ga  Ga13  1  0.334166  0.004201  0.070965  1
  Ga  Ga14  1  0.336457  0.330186  0.565845  1
  Ga  Ga15  1  0.663110  0.662961  0.441581  1
  Ga  Ga16  1  0.663168  0.663294  0.058455  1
  Ga  Ga17  1  0.336169  0.330128  0.934091  1
  Ga  Ga18  1  0.338906  0.541263  0.249999  1
  Ga  Ga19  1  0.658212  0.452209  0.749707  1
  Ga  Ga20  1  0.540710  0.336752  0.250371  1
  Ga  Ga21  1  0.454795  0.662661  0.749991  1
  Ir  Ir22  1  0.676476  0.331211  0.001513  1
  Rh  Rh23  1  0.327914  0.669936  0.001720  1
  Rh  Rh24  1  0.327967  0.669776  0.498266  1
  Rh  Rh25  1  0.675985  0.331272  0.498569  1
  Rh  Rh26  1  0.996493  0.000231  0.001434  1
  Rh  Rh27  1  0.996583  0.000117  0.498570  1
