# generated using pymatgen
data_LaTb11Fe2I17
_symmetry_space_group_name_H-M   'P 1'
_cell_length_a   9.78924796
_cell_length_b   11.84733605
_cell_length_c   11.77602636
_cell_angle_alpha   74.07602062
_cell_angle_beta   75.36885764
_cell_angle_gamma   65.55679366
_symmetry_Int_Tables_number   1
_chemical_formula_structural   LaTb11Fe2I17
_chemical_formula_sum   'La1 Tb11 Fe2 I17'
_cell_volume   1180.44060945
_cell_formula_units_Z   1
loop_
 _symmetry_equiv_pos_site_id
 _symmetry_equiv_pos_as_xyz
  1  'x, y, z'
loop_
 _atom_site_type_symbol
 _atom_site_label
 _atom_site_symmetry_multiplicity
 _atom_site_fract_x
 _atom_site_fract_y
 _atom_site_fract_z
 _atom_site_occupancy
  La  La0  1  0.144067  0.713503  0.153119  1
  Tb  Tb1  1  0.453669  0.492201  0.321912  1
  Tb  Tb2  1  0.550891  0.670359  0.011526  1
  Tb  Tb3  1  0.276717  0.982656  0.107738  1
  Tb  Tb4  1  0.855386  0.288479  0.846537  1
  Tb  Tb5  1  0.412070  0.241897  0.720084  1
  Tb  Tb6  1  0.721978  0.025835  0.889286  1
  Tb  Tb7  1  0.551468  0.498619  0.679804  1
  Tb  Tb8  1  0.456217  0.325866  0.982239  1
  Tb  Tb9  1  0.576078  0.756803  0.277158  1
  Tb  Tb10  1  0.813812  0.192909  0.591975  1
  Tb  Tb11  1  0.179639  0.811338  0.414853  1
  Fe  Fe12  1  0.358251  0.737362  0.210973  1
  Fe  Fe13  1  0.633681  0.261721  0.786844  1
  I  I14  1  0.055819  0.102645  0.324504  1
  I  I15  1  0.467446  0.946698  0.842823  1
  I  I16  1  0.430931  0.810152  0.534200  1
  I  I17  1  0.570780  0.187588  0.463241  1
  I  I18  1  0.832997  0.713155  0.046153  1
  I  I19  1  0.236416  0.408443  0.242108  1
  I  I20  1  0.688731  0.370626  0.103203  1
  I  I21  1  0.534033  0.048789  0.159048  1
  I  I22  1  0.742800  0.472981  0.415202  1
  I  I23  1  0.884077  0.788483  0.380052  1
  I  I24  1  0.948150  0.898567  0.675927  1
  I  I25  1  0.160205  0.290546  0.955438  1
  I  I26  1  0.319722  0.629330  0.892594  1
  I  I27  1  0.000019  0.006740  0.998704  1
  I  I28  1  0.111819  0.216013  0.632027  1
  I  I29  1  0.775240  0.581203  0.760042  1
  I  I30  1  0.256890  0.528490  0.580686  1
