# generated using pymatgen
data_YTm7Sc11Si16Ru
_symmetry_space_group_name_H-M   'P 1'
_cell_length_a   6.96496315
_cell_length_b   7.32637977
_cell_length_c   13.81629191
_cell_angle_alpha   90.03941338
_cell_angle_beta   90.01327870
_cell_angle_gamma   90.13439735
_symmetry_Int_Tables_number   1
_chemical_formula_structural   YTm7Sc11Si16Ru
_chemical_formula_sum   'Y1 Tm7 Sc11 Si16 Ru1'
_cell_volume   705.01513569
_cell_formula_units_Z   1
loop_
 _symmetry_equiv_pos_site_id
 _symmetry_equiv_pos_as_xyz
  1  'x, y, z'
loop_
 _atom_site_type_symbol
 _atom_site_label
 _atom_site_symmetry_multiplicity
 _atom_site_fract_x
 _atom_site_fract_y
 _atom_site_fract_z
 _atom_site_occupancy
  Y  Y0  1  0.011637  0.178217  0.092498  1
  Tm  Tm1  1  0.992499  0.817206  0.901179  1
  Tm  Tm2  1  0.489719  0.673910  0.902847  1
  Tm  Tm3  1  0.992469  0.817195  0.598373  1
  Tm  Tm4  1  0.510813  0.323039  0.094272  1
  Tm  Tm5  1  0.011939  0.179067  0.406888  1
  Tm  Tm6  1  0.510862  0.322726  0.406119  1
  Tm  Tm7  1  0.489425  0.673888  0.596833  1
  Sc  Sc8  1  0.841108  0.495922  0.250319  1
  Sc  Sc9  1  0.342170  0.003766  0.250304  1
  Sc  Sc10  1  0.656645  0.994905  0.749936  1
  Sc  Sc11  1  0.325787  0.176779  0.627340  1
  Sc  Sc12  1  0.671648  0.824627  0.374596  1
  Sc  Sc13  1  0.172761  0.673892  0.376784  1
  Sc  Sc14  1  0.671613  0.824363  0.125851  1
  Sc  Sc15  1  0.826249  0.330734  0.628614  1
  Sc  Sc16  1  0.325896  0.176717  0.872505  1
  Sc  Sc17  1  0.825894  0.331189  0.871144  1
  Sc  Sc18  1  0.172714  0.673643  0.123473  1
  Si  Si19  1  0.028074  0.111703  0.749944  1
  Si  Si20  1  0.973220  0.886752  0.250447  1
  Si  Si21  1  0.469642  0.613100  0.250206  1
  Si  Si22  1  0.515150  0.398306  0.749880  1
  Si  Si23  1  0.284254  0.859146  0.749916  1
  Si  Si24  1  0.715790  0.131525  0.250713  1
  Si  Si25  1  0.215657  0.369493  0.250738  1
  Si  Si26  1  0.794117  0.631801  0.749822  1
  Si  Si27  1  0.158428  0.466167  0.547027  1
  Si  Si28  1  0.841959  0.535321  0.463590  1
  Si  Si29  1  0.343674  0.965209  0.463297  1
  Si  Si30  1  0.841460  0.536846  0.035991  1
  Si  Si31  1  0.660166  0.034234  0.539801  1
  Si  Si32  1  0.158521  0.467261  0.952416  1
  Si  Si33  1  0.659915  0.034057  0.960004  1
  Si  Si34  1  0.345546  0.964110  0.036483  1
  Ru  Ru35  1  0.152575  0.503184  0.749850  1
