# generated using pymatgen
data_Yb8YThIr4
_symmetry_space_group_name_H-M   'P 1'
_cell_length_a   6.64053387
_cell_length_b   7.35888763
_cell_length_c   8.57747338
_cell_angle_alpha   97.36066559
_cell_angle_beta   112.77365180
_cell_angle_gamma   89.99999774
_symmetry_Int_Tables_number   1
_chemical_formula_structural   Yb8YThIr4
_chemical_formula_sum   'Yb8 Y1 Th1 Ir4'
_cell_volume   382.72920929
_cell_formula_units_Z   1
loop_
 _symmetry_equiv_pos_site_id
 _symmetry_equiv_pos_as_xyz
  1  'x, y, z'
loop_
 _atom_site_type_symbol
 _atom_site_label
 _atom_site_symmetry_multiplicity
 _atom_site_fract_x
 _atom_site_fract_y
 _atom_site_fract_z
 _atom_site_occupancy
  Yb  Yb0  1  0.978401  0.922173  0.173480  1
  Yb  Yb1  1  0.804922  0.577827  0.826520  1
  Yb  Yb2  1  0.022957  0.082544  0.826497  1
  Yb  Yb3  1  0.196460  0.417456  0.173503  1
  Yb  Yb4  1  0.643728  0.820709  0.441322  1
  Yb  Yb5  1  0.202404  0.679291  0.558678  1
  Yb  Yb6  1  0.359193  0.179968  0.565194  1
  Yb  Yb7  1  0.794001  0.320032  0.434806  1
  Y  Y8  1  0.567229  0.250000  0.000000  1
  Th  Th9  1  0.432781  0.750000  0.000000  1
  Ir  Ir10  1  0.807764  0.579446  0.208900  1
  Ir  Ir11  1  0.598863  0.920554  0.791100  1
  Ir  Ir12  1  0.191336  0.430101  0.791377  1
  Ir  Ir13  1  0.399960  0.069899  0.208623  1
