# generated using pymatgen
data_Sm2ThCoSn3Rh2
_symmetry_space_group_name_H-M   'P 1'
_cell_length_a   7.49083357
_cell_length_b   7.61671552
_cell_length_c   4.00779100
_cell_angle_alpha   90.00000000
_cell_angle_beta   90.00000000
_cell_angle_gamma   120.55747730
_symmetry_Int_Tables_number   1
_chemical_formula_structural   Sm2ThCoSn3Rh2
_chemical_formula_sum   'Sm2 Th1 Co1 Sn3 Rh2'
_cell_volume   196.90938415
_cell_formula_units_Z   1
loop_
 _symmetry_equiv_pos_site_id
 _symmetry_equiv_pos_as_xyz
  1  'x, y, z'
loop_
 _atom_site_type_symbol
 _atom_site_label
 _atom_site_symmetry_multiplicity
 _atom_site_fract_x
 _atom_site_fract_y
 _atom_site_fract_z
 _atom_site_occupancy
  Sm  Sm0  1  0.407093  0.407699  0.500000  1
  Sm  Sm1  1  0.592907  0.000606  0.500000  1
  Th  Th2  1  0.000000  0.587495  0.500000  1
  Co  Co3  1  0.000000  0.989607  0.500000  1
  Sn  Sn4  1  0.745487  0.754245  0.000000  1
  Sn  Sn5  1  0.254513  0.008758  0.000000  1
  Sn  Sn6  1  0.000000  0.236502  0.000000  1
  Rh  Rh7  1  0.685455  0.350271  0.000000  1
  Rh  Rh8  1  0.314545  0.664817  0.000000  1
