# generated using pymatgen
data_La6YbReBr12
_symmetry_space_group_name_H-M   'P 1'
_cell_length_a   9.62994713
_cell_length_b   9.79237540
_cell_length_c   9.90754464
_cell_angle_alpha   108.06451197
_cell_angle_beta   107.30438449
_cell_angle_gamma   106.53274095
_symmetry_Int_Tables_number   1
_chemical_formula_structural   La6YbReBr12
_chemical_formula_sum   'La6 Yb1 Re1 Br12'
_cell_volume   771.50475232
_cell_formula_units_Z   1
loop_
 _symmetry_equiv_pos_site_id
 _symmetry_equiv_pos_as_xyz
  1  'x, y, z'
loop_
 _atom_site_type_symbol
 _atom_site_label
 _atom_site_symmetry_multiplicity
 _atom_site_fract_x
 _atom_site_fract_y
 _atom_site_fract_z
 _atom_site_occupancy
  La  La0  1  0.305782  0.104982  0.026369  1
  La  La1  1  0.024318  0.316871  0.110795  1
  La  La2  1  0.116644  0.027009  0.324647  1
  La  La3  1  0.883356  0.972991  0.675354  1
  La  La4  1  0.975682  0.683130  0.889206  1
  La  La5  1  0.694219  0.895018  0.973632  1
  Yb  Yb6  1  0.500000  0.500000  0.500000  1
  Re  Re7  1  0.000000  0.000000  0.000000  1
  Br  Br8  1  0.680226  0.216245  0.067388  1
  Br  Br9  1  0.379686  0.458748  0.177735  1
  Br  Br10  1  0.068435  0.682989  0.212841  1
  Br  Br11  1  0.786695  0.933126  0.315530  1
  Br  Br12  1  0.464875  0.176659  0.381669  1
  Br  Br13  1  0.171782  0.378688  0.459546  1
  Br  Br14  1  0.828218  0.621313  0.540454  1
  Br  Br15  1  0.535125  0.823342  0.618331  1
  Br  Br16  1  0.213306  0.066875  0.684470  1
  Br  Br17  1  0.931565  0.317011  0.787160  1
  Br  Br18  1  0.620315  0.541252  0.822265  1
  Br  Br19  1  0.319775  0.783755  0.932612  1
