# generated using pymatgen
data_Ac11S16
_symmetry_space_group_name_H-M   'P 1'
_cell_length_a   9.11168800
_cell_length_b   9.17176500
_cell_length_c   18.39544100
_cell_angle_alpha   90.00000000
_cell_angle_beta   90.00000000
_cell_angle_gamma   90.00000000
_symmetry_Int_Tables_number   1
_chemical_formula_structural   Ac11S16
_chemical_formula_sum   'Ac22 S32'
_cell_volume   1537.31180722
_cell_formula_units_Z   2
loop_
 _symmetry_equiv_pos_site_id
 _symmetry_equiv_pos_as_xyz
  1  'x, y, z'
loop_
 _atom_site_type_symbol
 _atom_site_label
 _atom_site_symmetry_multiplicity
 _atom_site_fract_x
 _atom_site_fract_y
 _atom_site_fract_z
 _atom_site_occupancy
  Ac  Ac0  1  0.730110  0.119878  0.877919  1
  Ac  Ac1  1  0.498266  0.750508  0.820792  1
  Ac  Ac2  1  0.879619  0.504972  0.753080  1
  Ac  Ac3  1  0.738063  0.858596  0.621015  1
  Ac  Ac4  1  0.501734  0.250508  0.679208  1
  Ac  Ac5  1  0.269890  0.619878  0.622081  1
  Ac  Ac6  1  0.120381  0.004972  0.746920  1
  Ac  Ac7  1  0.975929  0.259133  0.561008  1
  Ac  Ac8  1  0.360536  0.000000  0.500000  1
  Ac  Ac9  1  0.269890  0.380122  0.377919  1
  Ac  Ac10  1  0.975929  0.740867  0.438992  1
  Ac  Ac11  1  0.738063  0.141404  0.378985  1
  Ac  Ac12  1  0.501734  0.749492  0.320792  1
  Ac  Ac13  1  0.879619  0.495028  0.246920  1
  Ac  Ac14  1  0.730110  0.880122  0.122081  1
  Ac  Ac15  1  0.498266  0.249492  0.179208  1
  Ac  Ac16  1  0.261937  0.641404  0.121015  1
  Ac  Ac17  1  0.120381  0.995028  0.253080  1
  Ac  Ac18  1  0.024071  0.240867  0.061008  1
  Ac  Ac19  1  0.261937  0.358596  0.878985  1
  Ac  Ac20  1  0.024071  0.759133  0.938992  1
  Ac  Ac21  1  0.639464  0.500000  0.000000  1
  S  S22  1  0.178614  0.685896  0.784534  1
  S  S23  1  0.579301  0.421228  0.842733  1
  S  S24  1  0.580865  0.574707  0.674821  1
  S  S25  1  0.419135  0.074707  0.825179  1
  S  S26  1  0.420699  0.921228  0.657267  1
  S  S27  1  0.180492  0.328980  0.716645  1
  S  S28  1  0.819508  0.828980  0.783355  1
  S  S29  1  0.821386  0.185896  0.715466  1
  S  S30  1  0.663339  0.163349  0.540652  1
  S  S31  1  0.057863  0.938751  0.588710  1
  S  S32  1  0.057863  0.061249  0.411290  1
  S  S33  1  0.944543  0.579816  0.594005  1
  S  S34  1  0.944543  0.420184  0.405995  1
  S  S35  1  0.663339  0.836651  0.459348  1
  S  S36  1  0.299037  0.315899  0.538255  1
  S  S37  1  0.299037  0.684101  0.461745  1
  S  S38  1  0.180492  0.671020  0.283355  1
  S  S39  1  0.580865  0.425293  0.325179  1
  S  S40  1  0.579301  0.578772  0.157267  1
  S  S41  1  0.420699  0.078772  0.342733  1
  S  S42  1  0.419135  0.925293  0.174821  1
  S  S43  1  0.178614  0.314104  0.215466  1
  S  S44  1  0.821386  0.814104  0.284534  1
  S  S45  1  0.819508  0.171020  0.216645  1
  S  S46  1  0.700963  0.184101  0.038255  1
  S  S47  1  0.055457  0.920184  0.094005  1
  S  S48  1  0.942137  0.561249  0.088710  1
  S  S49  1  0.055457  0.079816  0.905995  1
  S  S50  1  0.942137  0.438751  0.911290  1
  S  S51  1  0.700963  0.815899  0.961745  1
  S  S52  1  0.336661  0.336651  0.040652  1
  S  S53  1  0.336661  0.663349  0.959348  1
