# generated using pymatgen
data_Zr10Zn2SnBi5
_symmetry_space_group_name_H-M   'P 1'
_cell_length_a   8.85711500
_cell_length_b   8.82532196
_cell_length_c   5.92566500
_cell_angle_alpha   90.00000000
_cell_angle_beta   90.00000000
_cell_angle_gamma   119.88132813
_symmetry_Int_Tables_number   1
_chemical_formula_structural   Zr10Zn2SnBi5
_chemical_formula_sum   'Zr10 Zn2 Sn1 Bi5'
_cell_volume   401.61383395
_cell_formula_units_Z   1
loop_
 _symmetry_equiv_pos_site_id
 _symmetry_equiv_pos_as_xyz
  1  'x, y, z'
loop_
 _atom_site_type_symbol
 _atom_site_label
 _atom_site_symmetry_multiplicity
 _atom_site_fract_x
 _atom_site_fract_y
 _atom_site_fract_z
 _atom_site_occupancy
  Zr  Zr0  1  0.670422  0.334206  0.001449  1
  Zr  Zr1  1  0.329578  0.663785  0.001449  1
  Zr  Zr2  1  0.329578  0.663785  0.498551  1
  Zr  Zr3  1  0.670422  0.334206  0.498551  1
  Zr  Zr4  1  0.734966  0.734482  0.750000  1
  Zr  Zr5  1  0.265034  0.999516  0.750000  1
  Zr  Zr6  1  0.000000  0.265723  0.750000  1
  Zr  Zr7  1  0.263508  0.268495  0.250000  1
  Zr  Zr8  1  0.736492  0.004987  0.250000  1
  Zr  Zr9  1  0.000000  0.731085  0.250000  1
  Zn  Zn10  1  0.000000  0.999967  0.001380  1
  Zn  Zn11  1  0.000000  0.999967  0.498620  1
  Sn  Sn12  1  0.000000  0.384962  0.250000  1
  Bi  Bi13  1  0.385785  0.385319  0.750000  1
  Bi  Bi14  1  0.614215  0.999533  0.750000  1
  Bi  Bi15  1  0.000000  0.613721  0.750000  1
  Bi  Bi16  1  0.615695  0.615979  0.250000  1
  Bi  Bi17  1  0.384305  0.000284  0.250000  1
