# generated using pymatgen
data_DyY13(Ho3Sn8)2
_symmetry_space_group_name_H-M   'P 1'
_cell_length_a   8.05797720
_cell_length_b   8.18634061
_cell_length_c   15.48466407
_cell_angle_alpha   89.99232369
_cell_angle_beta   89.99124249
_cell_angle_gamma   89.93164366
_symmetry_Int_Tables_number   1
_chemical_formula_structural   DyY13(Ho3Sn8)2
_chemical_formula_sum   'Dy1 Y13 Ho6 Sn16'
_cell_volume   1021.45047422
_cell_formula_units_Z   1
loop_
 _symmetry_equiv_pos_site_id
 _symmetry_equiv_pos_as_xyz
  1  'x, y, z'
loop_
 _atom_site_type_symbol
 _atom_site_label
 _atom_site_symmetry_multiplicity
 _atom_site_fract_x
 _atom_site_fract_y
 _atom_site_fract_z
 _atom_site_occupancy
  Dy  Dy0  1  0.132889  0.337276  0.377635  1
  Y  Y1  1  0.367081  0.837068  0.622519  1
  Y  Y2  1  0.867425  0.662501  0.878010  1
  Y  Y3  1  0.520820  0.321248  0.902951  1
  Y  Y4  1  0.020962  0.178679  0.597298  1
  Y  Y5  1  0.479125  0.678553  0.402731  1
  Y  Y6  1  0.978851  0.821550  0.097308  1
  Y  Y7  1  0.479480  0.678877  0.097019  1
  Y  Y8  1  0.979627  0.821152  0.402876  1
  Y  Y9  1  0.520329  0.321124  0.597185  1
  Y  Y10  1  0.020890  0.179123  0.902896  1
  Y  Y11  1  0.698881  0.997164  0.750157  1
  Y  Y12  1  0.801020  0.497130  0.249879  1
  Y  Y13  1  0.301114  0.003073  0.249734  1
  Ho  Ho14  1  0.367193  0.836956  0.877546  1
  Ho  Ho15  1  0.867335  0.662617  0.622604  1
  Ho  Ho16  1  0.632986  0.163010  0.377379  1
  Ho  Ho17  1  0.132895  0.337531  0.122009  1
  Ho  Ho18  1  0.632186  0.162581  0.122570  1
  Ho  Ho19  1  0.198856  0.503229  0.750075  1
  Sn  Sn20  1  0.293713  0.037284  0.041302  1
  Sn  Sn21  1  0.793114  0.462691  0.458581  1
  Sn  Sn22  1  0.706921  0.962365  0.541235  1
  Sn  Sn23  1  0.207075  0.537376  0.958311  1
  Sn  Sn24  1  0.705948  0.963447  0.958844  1
  Sn  Sn25  1  0.205810  0.536729  0.541957  1
  Sn  Sn26  1  0.294387  0.036929  0.458144  1
  Sn  Sn27  1  0.793247  0.461377  0.041807  1
  Sn  Sn28  1  0.564427  0.618596  0.750433  1
  Sn  Sn29  1  0.065391  0.880890  0.750191  1
  Sn  Sn30  1  0.435308  0.380877  0.249624  1
  Sn  Sn31  1  0.934650  0.119552  0.249235  1
  Sn  Sn32  1  0.330023  0.148307  0.750361  1
  Sn  Sn33  1  0.830981  0.352791  0.749803  1
  Sn  Sn34  1  0.669485  0.852808  0.250087  1
  Sn  Sn35  1  0.169573  0.647538  0.249703  1
