# generated using pymatgen
data_CaCd2(H6Ir)2
_symmetry_space_group_name_H-M   'P 1'
_cell_length_a   4.82688000
_cell_length_b   4.82688026
_cell_length_c   7.99572000
_cell_angle_alpha   90.00000000
_cell_angle_beta   90.00000000
_cell_angle_gamma   119.99999823
_symmetry_Int_Tables_number   1
_chemical_formula_structural   CaCd2(H6Ir)2
_chemical_formula_sum   'Ca1 Cd2 H12 Ir2'
_cell_volume   161.33226986
_cell_formula_units_Z   1
loop_
 _symmetry_equiv_pos_site_id
 _symmetry_equiv_pos_as_xyz
  1  'x, y, z'
loop_
 _atom_site_type_symbol
 _atom_site_label
 _atom_site_symmetry_multiplicity
 _atom_site_fract_x
 _atom_site_fract_y
 _atom_site_fract_z
 _atom_site_occupancy
  Ca  Ca0  1  0.000000  0.000000  0.000000  1
  Cd  Cd1  1  0.666667  0.333333  0.361942  1
  Cd  Cd2  1  0.333333  0.666667  0.638058  1
  H  H3  1  0.164032  0.835968  0.367585  1
  H  H4  1  0.671936  0.835968  0.367585  1
  H  H5  1  0.164032  0.328064  0.367585  1
  H  H6  1  0.835968  0.164032  0.632415  1
  H  H7  1  0.328064  0.164032  0.632415  1
  H  H8  1  0.835968  0.671936  0.632415  1
  H  H9  1  0.510917  0.021836  0.873659  1
  H  H10  1  0.510917  0.489083  0.873659  1
  H  H11  1  0.978164  0.489083  0.873659  1
  H  H12  1  0.489083  0.978164  0.126341  1
  H  H13  1  0.489083  0.510917  0.126341  1
  H  H14  1  0.021836  0.510917  0.126341  1
  Ir  Ir15  1  0.666667  0.333333  0.741915  1
  Ir  Ir16  1  0.333333  0.666667  0.258085  1
