# generated using pymatgen
data_DyY5Lu4(In2Pt)4
_symmetry_space_group_name_H-M   'P 1'
_cell_length_a   3.62348500
_cell_length_b   8.15740542
_cell_length_c   18.08166149
_cell_angle_alpha   90.09288425
_cell_angle_beta   90.00000000
_cell_angle_gamma   90.00000000
_symmetry_Int_Tables_number   1
_chemical_formula_structural   DyY5Lu4(In2Pt)4
_chemical_formula_sum   'Dy1 Y5 Lu4 In8 Pt4'
_cell_volume   534.46131884
_cell_formula_units_Z   1
loop_
 _symmetry_equiv_pos_site_id
 _symmetry_equiv_pos_as_xyz
  1  'x, y, z'
loop_
 _atom_site_type_symbol
 _atom_site_label
 _atom_site_symmetry_multiplicity
 _atom_site_fract_x
 _atom_site_fract_y
 _atom_site_fract_z
 _atom_site_occupancy
  Dy  Dy0  1  0.000000  0.740810  0.281601  1
  Y  Y1  1  0.000000  0.240303  0.218044  1
  Y  Y2  1  0.000000  0.759929  0.782288  1
  Y  Y3  1  0.000000  0.259768  0.717847  1
  Y  Y4  1  0.000000  0.999859  0.999926  1
  Y  Y5  1  0.000000  0.499994  0.500065  1
  Lu  Lu6  1  0.000000  0.115850  0.413723  1
  Lu  Lu7  1  0.000000  0.883823  0.586128  1
  Lu  Lu8  1  0.000000  0.383746  0.913932  1
  Lu  Lu9  1  0.000000  0.615979  0.086197  1
  In  In10  1  0.500000  0.418811  0.350494  1
  In  In11  1  0.500000  0.582210  0.649825  1
  In  In12  1  0.500000  0.082156  0.850322  1
  In  In13  1  0.500000  0.918152  0.149253  1
  In  In14  1  0.500000  0.297229  0.063756  1
  In  In15  1  0.500000  0.702461  0.936507  1
  In  In16  1  0.500000  0.202606  0.563606  1
  In  In17  1  0.500000  0.796743  0.436170  1
  Pt  Pt18  1  0.500000  0.024527  0.305354  1
  Pt  Pt19  1  0.500000  0.973931  0.694438  1
  Pt  Pt20  1  0.500000  0.474030  0.805627  1
  Pt  Pt21  1  0.500000  0.527082  0.194899  1
