# generated using pymatgen
data_Sc5Cu(P2Ru3)6
_symmetry_space_group_name_H-M   'P 1'
_cell_length_a   12.39113900
_cell_length_b   12.39113862
_cell_length_c   3.92763900
_cell_angle_alpha   90.00000000
_cell_angle_beta   90.00000000
_cell_angle_gamma   119.99999836
_symmetry_Int_Tables_number   1
_chemical_formula_structural   Sc5Cu(P2Ru3)6
_chemical_formula_sum   'Sc5 Cu1 P12 Ru18'
_cell_volume   522.25745339
_cell_formula_units_Z   1
loop_
 _symmetry_equiv_pos_site_id
 _symmetry_equiv_pos_as_xyz
  1  'x, y, z'
loop_
 _atom_site_type_symbol
 _atom_site_label
 _atom_site_symmetry_multiplicity
 _atom_site_fract_x
 _atom_site_fract_y
 _atom_site_fract_z
 _atom_site_occupancy
  Sc  Sc0  1  0.333333  0.666667  0.000000  1
  Sc  Sc1  1  0.666667  0.333333  0.000000  1
  Sc  Sc2  1  0.805614  0.000000  0.500000  1
  Sc  Sc3  1  0.000000  0.805614  0.500000  1
  Sc  Sc4  1  0.194386  0.194386  0.500000  1
  Cu  Cu5  1  0.000000  0.000000  0.000000  1
  P  P6  1  0.178068  0.000000  0.000000  1
  P  P7  1  0.000000  0.178068  0.000000  1
  P  P8  1  0.821932  0.821932  0.000000  1
  P  P9  1  0.170833  0.476592  0.500000  1
  P  P10  1  0.523408  0.694241  0.500000  1
  P  P11  1  0.305759  0.829167  0.500000  1
  P  P12  1  0.694241  0.523408  0.500000  1
  P  P13  1  0.829167  0.305759  0.500000  1
  P  P14  1  0.476592  0.170833  0.500000  1
  P  P15  1  0.626608  0.000000  0.000000  1
  P  P16  1  0.000000  0.626608  0.000000  1
  P  P17  1  0.373392  0.373392  0.000000  1
  Ru  Ru18  1  0.442403  0.000000  0.000000  1
  Ru  Ru19  1  0.000000  0.442403  0.000000  1
  Ru  Ru20  1  0.557597  0.557597  0.000000  1
  Ru  Ru21  1  0.366079  0.494077  0.500000  1
  Ru  Ru22  1  0.505923  0.872002  0.500000  1
  Ru  Ru23  1  0.127998  0.633921  0.500000  1
  Ru  Ru24  1  0.872002  0.505923  0.500000  1
  Ru  Ru25  1  0.633921  0.127998  0.500000  1
  Ru  Ru26  1  0.494077  0.366079  0.500000  1
  Ru  Ru27  1  0.185158  0.372352  0.000000  1
  Ru  Ru28  1  0.627648  0.812807  0.000000  1
  Ru  Ru29  1  0.187193  0.814842  0.000000  1
  Ru  Ru30  1  0.812807  0.627648  0.000000  1
  Ru  Ru31  1  0.814842  0.187193  0.000000  1
  Ru  Ru32  1  0.372352  0.185158  0.000000  1
  Ru  Ru33  1  0.275529  0.000000  0.500000  1
  Ru  Ru34  1  0.000000  0.275529  0.500000  1
  Ru  Ru35  1  0.724471  0.724471  0.500000  1
