# generated using pymatgen
data_SmThSi3Ag
_symmetry_space_group_name_H-M   'P 1'
_cell_length_a   4.13331859
_cell_length_b   4.26022001
_cell_length_c   7.80398808
_cell_angle_alpha   74.16004065
_cell_angle_beta   74.64369391
_cell_angle_gamma   90.00000845
_symmetry_Int_Tables_number   1
_chemical_formula_structural   SmThSi3Ag
_chemical_formula_sum   'Sm1 Th1 Si3 Ag1'
_cell_volume   127.09365996
_cell_formula_units_Z   1
loop_
 _symmetry_equiv_pos_site_id
 _symmetry_equiv_pos_as_xyz
  1  'x, y, z'
loop_
 _atom_site_type_symbol
 _atom_site_label
 _atom_site_symmetry_multiplicity
 _atom_site_fract_x
 _atom_site_fract_y
 _atom_site_fract_z
 _atom_site_occupancy
  Sm  Sm0  1  0.134762  0.384762  0.730476  1
  Th  Th1  1  0.867875  0.617875  0.264252  1
  Si  Si2  1  0.292328  0.042328  0.415345  1
  Si  Si3  1  0.454316  0.204316  0.091368  1
  Si  Si4  1  0.709941  0.959941  0.580117  1
  Ag  Ag5  1  0.540779  0.790779  0.918443  1
