# generated using pymatgen
data_Rb3VSO3
_symmetry_space_group_name_H-M   'P 1'
_cell_length_a   6.20969200
_cell_length_b   6.94125611
_cell_length_c   9.24860760
_cell_angle_alpha   101.92901627
_cell_angle_beta   90.00000000
_cell_angle_gamma   90.00000000
_symmetry_Int_Tables_number   1
_chemical_formula_structural   Rb3VSO3
_chemical_formula_sum   'Rb6 V2 S2 O6'
_cell_volume   390.03438290
_cell_formula_units_Z   2
loop_
 _symmetry_equiv_pos_site_id
 _symmetry_equiv_pos_as_xyz
  1  'x, y, z'
loop_
 _atom_site_type_symbol
 _atom_site_label
 _atom_site_symmetry_multiplicity
 _atom_site_fract_x
 _atom_site_fract_y
 _atom_site_fract_z
 _atom_site_occupancy
  Rb  Rb0  1  0.250001  0.755552  0.003426  1
  Rb  Rb1  1  0.750001  0.779654  0.274033  1
  Rb  Rb2  1  0.750001  0.311164  0.469186  1
  Rb  Rb3  1  0.250001  0.688925  0.530916  1
  Rb  Rb4  1  0.250001  0.220436  0.726080  1
  Rb  Rb5  1  0.750001  0.244587  0.996640  1
  V  V6  1  0.250001  0.304348  0.210157  1
  V  V7  1  0.750001  0.695554  0.789749  1
  S  S8  1  0.250001  0.068290  0.347238  1
  S  S9  1  0.750001  0.931788  0.652775  1
  O  O10  1  0.250001  0.195307  0.024603  1
  O  O11  1  0.023336  0.448610  0.254333  1
  O  O12  1  0.476665  0.448610  0.254333  1
  O  O13  1  0.523278  0.551289  0.745635  1
  O  O14  1  0.976724  0.551289  0.745635  1
  O  O15  1  0.750001  0.804592  0.975265  1
