# generated using pymatgen
data_Ce5FeTcB6
_symmetry_space_group_name_H-M   'P 1'
_cell_length_a   5.42145907
_cell_length_b   5.42146132
_cell_length_c   8.29315544
_cell_angle_alpha   70.92146509
_cell_angle_beta   70.92147978
_cell_angle_gamma   59.99999037
_symmetry_Int_Tables_number   1
_chemical_formula_structural   Ce5FeTcB6
_chemical_formula_sum   'Ce5 Fe1 Tc1 B6'
_cell_volume   195.48428880
_cell_formula_units_Z   1
loop_
 _symmetry_equiv_pos_site_id
 _symmetry_equiv_pos_as_xyz
  1  'x, y, z'
loop_
 _atom_site_type_symbol
 _atom_site_label
 _atom_site_symmetry_multiplicity
 _atom_site_fract_x
 _atom_site_fract_y
 _atom_site_fract_z
 _atom_site_occupancy
  Ce  Ce0  1  0.004133  0.004133  0.987601  1
  Ce  Ce1  1  0.744556  0.744556  0.766331  1
  Ce  Ce2  1  0.255172  0.255172  0.234485  1
  Ce  Ce3  1  0.587611  0.587611  0.237168  1
  Ce  Ce4  1  0.410776  0.410776  0.767674  1
  Fe  Fe5  1  0.112422  0.112422  0.662734  1
  Tc  Tc6  1  0.893023  0.893023  0.320933  1
  B  B7  1  0.496113  0.168596  0.503846  1
  B  B8  1  0.831445  0.496113  0.503846  1
  B  B9  1  0.168596  0.831445  0.503846  1
  B  B10  1  0.168596  0.496113  0.503846  1
  B  B11  1  0.831445  0.168596  0.503846  1
  B  B12  1  0.496113  0.831445  0.503846  1
