# generated using pymatgen
data_Er4Zn4PdRh3
_symmetry_space_group_name_H-M   'P 1'
_cell_length_a   3.99515200
_cell_length_b   7.00441871
_cell_length_c   8.12778983
_cell_angle_alpha   89.94822632
_cell_angle_beta   90.00000000
_cell_angle_gamma   90.00000000
_symmetry_Int_Tables_number   1
_chemical_formula_structural   Er4Zn4PdRh3
_chemical_formula_sum   'Er4 Zn4 Pd1 Rh3'
_cell_volume   227.44568113
_cell_formula_units_Z   1
loop_
 _symmetry_equiv_pos_site_id
 _symmetry_equiv_pos_as_xyz
  1  'x, y, z'
loop_
 _atom_site_type_symbol
 _atom_site_label
 _atom_site_symmetry_multiplicity
 _atom_site_fract_x
 _atom_site_fract_y
 _atom_site_fract_z
 _atom_site_occupancy
  Er  Er0  1  0.250000  0.538013  0.189738  1
  Er  Er1  1  0.750000  0.450564  0.814261  1
  Er  Er2  1  0.750000  0.963552  0.679002  1
  Er  Er3  1  0.250000  0.041621  0.315231  1
  Zn  Zn4  1  0.250000  0.633927  0.563282  1
  Zn  Zn5  1  0.750000  0.364482  0.435577  1
  Zn  Zn6  1  0.750000  0.866824  0.067020  1
  Zn  Zn7  1  0.250000  0.138057  0.934912  1
  Pd  Pd8  1  0.250000  0.753247  0.878878  1
  Rh  Rh9  1  0.750000  0.248747  0.120971  1
  Rh  Rh10  1  0.750000  0.749207  0.378781  1
  Rh  Rh11  1  0.250000  0.251758  0.622346  1
