# generated using pymatgen
data_La10Sb9Se
_symmetry_space_group_name_H-M   'P 1'
_cell_length_a   7.96486879
_cell_length_b   9.23936451
_cell_length_c   10.29027572
_cell_angle_alpha   102.97842726
_cell_angle_beta   97.36787227
_cell_angle_gamma   106.86680324
_symmetry_Int_Tables_number   1
_chemical_formula_structural   La10Sb9Se
_chemical_formula_sum   'La10 Sb9 Se1'
_cell_volume   690.82221172
_cell_formula_units_Z   1
loop_
 _symmetry_equiv_pos_site_id
 _symmetry_equiv_pos_as_xyz
  1  'x, y, z'
loop_
 _atom_site_type_symbol
 _atom_site_label
 _atom_site_symmetry_multiplicity
 _atom_site_fract_x
 _atom_site_fract_y
 _atom_site_fract_z
 _atom_site_occupancy
  La  La0  1  0.899601  0.550669  0.799991  1
  La  La1  1  0.702947  0.148569  0.400428  1
  La  La2  1  0.499951  0.750481  0.999544  1
  La  La3  1  0.702561  0.653281  0.401427  1
  La  La4  1  0.297439  0.346719  0.598573  1
  La  La5  1  0.099438  0.951359  0.203204  1
  La  La6  1  0.500049  0.249519  0.000456  1
  La  La7  1  0.297053  0.851431  0.599572  1
  La  La8  1  0.100399  0.449331  0.200009  1
  La  La9  1  0.900562  0.048641  0.796796  1
  Sb  Sb10  1  0.800478  0.601473  0.101811  1
  Sb  Sb11  1  0.599382  0.198720  0.698920  1
  Sb  Sb12  1  0.400618  0.801280  0.301080  1
  Sb  Sb13  1  0.801601  0.099250  0.099306  1
  Sb  Sb14  1  0.199522  0.398527  0.898189  1
  Sb  Sb15  1  0.596619  0.699626  0.697584  1
  Sb  Sb16  1  0.403381  0.300374  0.302416  1
  Sb  Sb17  1  0.198399  0.900750  0.900694  1
  Sb  Sb18  1  0.000000  0.500000  0.500000  1
  Se  Se19  1  0.000000  0.000000  0.500000  1
