# generated using pymatgen
data_Eu2MgZn17Rh4
_symmetry_space_group_name_H-M   'P 1'
_cell_length_a   8.32000972
_cell_length_b   8.31996023
_cell_length_c   8.32000903
_cell_angle_alpha   100.18031769
_cell_angle_beta   100.18052549
_cell_angle_gamma   130.27885272
_symmetry_Int_Tables_number   1
_chemical_formula_structural   Eu2MgZn17Rh4
_chemical_formula_sum   'Eu2 Mg1 Zn17 Rh4'
_cell_volume   398.66315312
_cell_formula_units_Z   1
loop_
 _symmetry_equiv_pos_site_id
 _symmetry_equiv_pos_as_xyz
  1  'x, y, z'
loop_
 _atom_site_type_symbol
 _atom_site_label
 _atom_site_symmetry_multiplicity
 _atom_site_fract_x
 _atom_site_fract_y
 _atom_site_fract_z
 _atom_site_occupancy
  Eu  Eu0  1  0.000011  0.000000  0.999989  1
  Eu  Eu1  1  0.250006  0.750005  0.499999  1
  Mg  Mg2  1  0.750000  0.250004  0.500004  1
  Zn  Zn3  1  0.500001  0.500000  0.000000  1
  Zn  Zn4  1  0.186319  0.516211  0.085902  1
  Zn  Zn5  1  0.186322  0.100423  0.670111  1
  Zn  Zn6  1  0.768380  0.937381  0.584736  1
  Zn  Zn7  1  0.768382  0.183644  0.830999  1
  Zn  Zn8  1  0.430309  0.516211  0.329892  1
  Zn  Zn9  1  0.430312  0.100423  0.914101  1
  Zn  Zn10  1  0.352645  0.937381  0.169001  1
  Zn  Zn11  1  0.352645  0.183644  0.415262  1
  Zn  Zn12  1  0.062618  0.231621  0.415263  1
  Zn  Zn13  1  0.062617  0.647356  0.830995  1
  Zn  Zn14  1  0.483790  0.813678  0.914104  1
  Zn  Zn15  1  0.483792  0.569689  0.670113  1
  Zn  Zn16  1  0.816357  0.231621  0.169003  1
  Zn  Zn17  1  0.816361  0.647356  0.584739  1
  Zn  Zn18  1  0.899573  0.813678  0.329888  1
  Zn  Zn19  1  0.899576  0.569689  0.085898  1
  Rh  Rh20  1  0.129852  0.376412  0.753442  1
  Rh  Rh21  1  0.623578  0.870145  0.246567  1
  Rh  Rh22  1  0.623584  0.377018  0.753433  1
  Rh  Rh23  1  0.622970  0.376412  0.246559  1
