# generated using pymatgen
data_Sm(SbO3)3
_symmetry_space_group_name_H-M   'P 1'
_cell_length_a   5.55140408
_cell_length_b   5.55140384
_cell_length_c   11.72061300
_cell_angle_alpha   90.00000000
_cell_angle_beta   90.00000000
_cell_angle_gamma   106.62015842
_symmetry_Int_Tables_number   1
_chemical_formula_structural   Sm(SbO3)3
_chemical_formula_sum   'Sm2 Sb6 O18'
_cell_volume   346.11635883
_cell_formula_units_Z   2
loop_
 _symmetry_equiv_pos_site_id
 _symmetry_equiv_pos_as_xyz
  1  'x, y, z'
loop_
 _atom_site_type_symbol
 _atom_site_label
 _atom_site_symmetry_multiplicity
 _atom_site_fract_x
 _atom_site_fract_y
 _atom_site_fract_z
 _atom_site_occupancy
  Sm  Sm0  1  0.753172  0.246828  0.750000  1
  Sm  Sm1  1  0.246828  0.753172  0.250000  1
  Sb  Sb2  1  0.121831  0.878169  0.907357  1
  Sb  Sb3  1  0.878169  0.121831  0.407357  1
  Sb  Sb4  1  0.878169  0.121831  0.092643  1
  Sb  Sb5  1  0.121831  0.878169  0.592643  1
  Sb  Sb6  1  0.500000  0.500000  0.000000  1
  Sb  Sb7  1  0.500000  0.500000  0.500000  1
  O  O8  1  0.953210  0.046790  0.250000  1
  O  O9  1  0.046790  0.953210  0.750000  1
  O  O10  1  0.106118  0.893882  0.075266  1
  O  O11  1  0.893882  0.106118  0.575266  1
  O  O12  1  0.893882  0.106118  0.924734  1
  O  O13  1  0.106118  0.893882  0.424734  1
  O  O14  1  0.338049  0.661951  0.879741  1
  O  O15  1  0.661951  0.338049  0.379741  1
  O  O16  1  0.421208  0.190933  0.602390  1
  O  O17  1  0.578792  0.809067  0.102390  1
  O  O18  1  0.190933  0.421208  0.397610  1
  O  O19  1  0.809067  0.578792  0.897610  1
  O  O20  1  0.578792  0.809067  0.397610  1
  O  O21  1  0.421208  0.190933  0.897610  1
  O  O22  1  0.809067  0.578792  0.602390  1
  O  O23  1  0.190933  0.421208  0.102390  1
  O  O24  1  0.338049  0.661951  0.620259  1
  O  O25  1  0.661951  0.338049  0.120259  1
