# generated using pymatgen
data_Y7Ho3(SnSb)4
_symmetry_space_group_name_H-M   'P 1'
_cell_length_a   8.09429500
_cell_length_b   8.14534800
_cell_length_c   15.43987901
_cell_angle_alpha   89.99621896
_cell_angle_beta   90.00000000
_cell_angle_gamma   90.00000000
_symmetry_Int_Tables_number   1
_chemical_formula_structural   Y7Ho3(SnSb)4
_chemical_formula_sum   'Y14 Ho6 Sn8 Sb8'
_cell_volume   1017.96433892
_cell_formula_units_Z   2
loop_
 _symmetry_equiv_pos_site_id
 _symmetry_equiv_pos_as_xyz
  1  'x, y, z'
loop_
 _atom_site_type_symbol
 _atom_site_label
 _atom_site_symmetry_multiplicity
 _atom_site_fract_x
 _atom_site_fract_y
 _atom_site_fract_z
 _atom_site_occupancy
  Y  Y0  1  0.609150  0.161341  0.380921  1
  Y  Y1  1  0.109150  0.338659  0.119079  1
  Y  Y2  1  0.609172  0.161332  0.119103  1
  Y  Y3  1  0.109172  0.338668  0.380897  1
  Y  Y4  1  0.390839  0.838684  0.619099  1
  Y  Y5  1  0.890839  0.661316  0.880901  1
  Y  Y6  1  0.556936  0.329657  0.891955  1
  Y  Y7  1  0.056936  0.170343  0.608045  1
  Y  Y8  1  0.443087  0.670387  0.391946  1
  Y  Y9  1  0.943087  0.829613  0.108054  1
  Y  Y10  1  0.443100  0.670419  0.107971  1
  Y  Y11  1  0.943100  0.829581  0.392029  1
  Y  Y12  1  0.556995  0.329713  0.608058  1
  Y  Y13  1  0.056995  0.170287  0.891942  1
  Ho  Ho14  1  0.390782  0.838686  0.880741  1
  Ho  Ho15  1  0.890782  0.661314  0.619259  1
  Ho  Ho16  1  0.222274  0.499369  0.749987  1
  Ho  Ho17  1  0.722274  0.000631  0.750013  1
  Ho  Ho18  1  0.777652  0.500796  0.250009  1
  Ho  Ho19  1  0.277652  0.999204  0.249991  1
  Sn  Sn20  1  0.587684  0.628102  0.750031  1
  Sn  Sn21  1  0.087684  0.871898  0.749969  1
  Sn  Sn22  1  0.412317  0.372217  0.250008  1
  Sn  Sn23  1  0.912317  0.127783  0.249992  1
  Sn  Sn24  1  0.359982  0.142389  0.750123  1
  Sn  Sn25  1  0.859982  0.357611  0.749877  1
  Sn  Sn26  1  0.640071  0.857412  0.250005  1
  Sn  Sn27  1  0.140071  0.642588  0.249995  1
  Sb  Sb28  1  0.267205  0.017245  0.046692  1
  Sb  Sb29  1  0.767205  0.482755  0.453308  1
  Sb  Sb30  1  0.733150  0.982128  0.546991  1
  Sb  Sb31  1  0.233150  0.517872  0.953009  1
  Sb  Sb32  1  0.732567  0.982387  0.953037  1
  Sb  Sb33  1  0.232567  0.517613  0.546963  1
  Sb  Sb34  1  0.267039  0.017440  0.453108  1
  Sb  Sb35  1  0.767039  0.482560  0.046892  1
