# generated using pymatgen
data_Sc8V11Si16Au
_symmetry_space_group_name_H-M   'P 1'
_cell_length_a   6.65989691
_cell_length_b   6.65989583
_cell_length_c   12.29255514
_cell_angle_alpha   90.15671735
_cell_angle_beta   89.84328458
_cell_angle_gamma   89.62090103
_symmetry_Int_Tables_number   1
_chemical_formula_structural   Sc8V11Si16Au
_chemical_formula_sum   'Sc8 V11 Si16 Au1'
_cell_volume   545.21065004
_cell_formula_units_Z   1
loop_
 _symmetry_equiv_pos_site_id
 _symmetry_equiv_pos_as_xyz
  1  'x, y, z'
loop_
 _atom_site_type_symbol
 _atom_site_label
 _atom_site_symmetry_multiplicity
 _atom_site_fract_x
 _atom_site_fract_y
 _atom_site_fract_z
 _atom_site_occupancy
  Sc  Sc0  1  0.001087  0.661925  0.029742  1
  Sc  Sc1  1  0.835640  0.501542  0.281775  1
  Sc  Sc2  1  0.161471  0.499716  0.779516  1
  Sc  Sc3  1  0.501542  0.835640  0.718225  1
  Sc  Sc4  1  0.499716  0.161471  0.220484  1
  Sc  Sc5  1  0.998518  0.338075  0.530129  1
  Sc  Sc6  1  0.661925  0.001087  0.970258  1
  Sc  Sc7  1  0.338075  0.998518  0.469871  1
  V  V8  1  0.167180  0.832528  0.250746  1
  V  V9  1  0.832528  0.167180  0.749254  1
  V  V10  1  0.668066  0.668066  0.500000  1
  V  V11  1  0.003187  0.155018  0.126615  1
  V  V12  1  0.345346  0.505846  0.376754  1
  V  V13  1  0.660248  0.496110  0.875747  1
  V  V14  1  0.505846  0.345346  0.623246  1
  V  V15  1  0.496110  0.660248  0.124253  1
  V  V16  1  0.992446  0.844548  0.627271  1
  V  V17  1  0.155018  0.003187  0.873385  1
  V  V18  1  0.844548  0.992446  0.372729  1
  Si  Si19  1  0.286627  0.945899  0.066558  1
  Si  Si20  1  0.539066  0.794176  0.315001  1
  Si  Si21  1  0.464986  0.203174  0.808631  1
  Si  Si22  1  0.794176  0.539066  0.684999  1
  Si  Si23  1  0.203174  0.464986  0.191369  1
  Si  Si24  1  0.706097  0.039964  0.563862  1
  Si  Si25  1  0.945899  0.286627  0.933442  1
  Si  Si26  1  0.039964  0.706097  0.436138  1
  Si  Si27  1  0.717120  0.377287  0.073894  1
  Si  Si28  1  0.131675  0.202707  0.319962  1
  Si  Si29  1  0.869432  0.796277  0.819395  1
  Si  Si30  1  0.202707  0.131675  0.680038  1
  Si  Si31  1  0.796277  0.869432  0.180605  1
  Si  Si32  1  0.295385  0.630543  0.569992  1
  Si  Si33  1  0.377287  0.717120  0.926106  1
  Si  Si34  1  0.630543  0.295385  0.430008  1
  Au  Au35  1  0.331092  0.331092  0.000000  1
