# generated using pymatgen
data_Hf4CoRh
_symmetry_space_group_name_H-M   'P 1'
_cell_length_a   8.58114557
_cell_length_b   8.58114577
_cell_length_c   8.58114606
_cell_angle_alpha   60.04968570
_cell_angle_beta   60.04968506
_cell_angle_gamma   60.04969040
_symmetry_Int_Tables_number   1
_chemical_formula_structural   Hf4CoRh
_chemical_formula_sum   'Hf16 Co4 Rh4'
_cell_volume   447.31108686
_cell_formula_units_Z   4
loop_
 _symmetry_equiv_pos_site_id
 _symmetry_equiv_pos_as_xyz
  1  'x, y, z'
loop_
 _atom_site_type_symbol
 _atom_site_label
 _atom_site_symmetry_multiplicity
 _atom_site_fract_x
 _atom_site_fract_y
 _atom_site_fract_z
 _atom_site_occupancy
  Hf  Hf0  1  0.680634  0.106538  0.106538  1
  Hf  Hf1  1  0.106538  0.680634  0.106538  1
  Hf  Hf2  1  0.106538  0.106538  0.680634  1
  Hf  Hf3  1  0.105280  0.105280  0.105280  1
  Hf  Hf4  1  0.313473  0.313473  0.686884  1
  Hf  Hf5  1  0.687077  0.687077  0.313174  1
  Hf  Hf6  1  0.313473  0.686884  0.313473  1
  Hf  Hf7  1  0.687077  0.313174  0.687077  1
  Hf  Hf8  1  0.686884  0.313473  0.313473  1
  Hf  Hf9  1  0.313174  0.687077  0.687077  1
  Hf  Hf10  1  0.943882  0.943882  0.556003  1
  Hf  Hf11  1  0.557067  0.557067  0.943303  1
  Hf  Hf12  1  0.943882  0.556003  0.943882  1
  Hf  Hf13  1  0.557067  0.943303  0.557067  1
  Hf  Hf14  1  0.556003  0.943882  0.943882  1
  Hf  Hf15  1  0.943303  0.557067  0.557067  1
  Co  Co16  1  0.319205  0.892999  0.892999  1
  Co  Co17  1  0.892999  0.319205  0.892999  1
  Co  Co18  1  0.892999  0.892999  0.319205  1
  Co  Co19  1  0.893590  0.893590  0.893590  1
  Rh  Rh20  1  0.993919  0.335104  0.335104  1
  Rh  Rh21  1  0.335104  0.993919  0.335104  1
  Rh  Rh22  1  0.335104  0.335104  0.993919  1
  Rh  Rh23  1  0.335723  0.335723  0.335723  1
