# generated using pymatgen
data_Tb5LuSi10
_symmetry_space_group_name_H-M   'P 1'
_cell_length_a   6.66913020
_cell_length_b   6.66913046
_cell_length_c   8.30214001
_cell_angle_alpha   90.08518779
_cell_angle_beta   89.91480968
_cell_angle_gamma   120.28989939
_symmetry_Int_Tables_number   1
_chemical_formula_structural   Tb5LuSi10
_chemical_formula_sum   'Tb5 Lu1 Si10'
_cell_volume   318.84701865
_cell_formula_units_Z   1
loop_
 _symmetry_equiv_pos_site_id
 _symmetry_equiv_pos_as_xyz
  1  'x, y, z'
loop_
 _atom_site_type_symbol
 _atom_site_label
 _atom_site_symmetry_multiplicity
 _atom_site_fract_x
 _atom_site_fract_y
 _atom_site_fract_z
 _atom_site_occupancy
  Tb  Tb0  1  0.331373  0.000645  0.000473  1
  Tb  Tb1  1  0.330794  0.999451  0.499297  1
  Tb  Tb2  1  0.999451  0.330794  0.500703  1
  Tb  Tb3  1  0.000645  0.331373  0.999527  1
  Tb  Tb4  1  0.669963  0.669963  0.000000  1
  Lu  Lu5  1  0.669707  0.669707  0.500000  1
  Si  Si6  1  0.384024  0.334409  0.252691  1
  Si  Si7  1  0.669534  0.048657  0.250628  1
  Si  Si8  1  0.946780  0.617861  0.253243  1
  Si  Si9  1  0.617861  0.946780  0.746757  1
  Si  Si10  1  0.999438  0.999283  0.252583  1
  Si  Si11  1  0.665809  0.332273  0.747912  1
  Si  Si12  1  0.048657  0.669534  0.749372  1
  Si  Si13  1  0.334409  0.384024  0.747309  1
  Si  Si14  1  0.332273  0.665809  0.252088  1
  Si  Si15  1  0.999283  0.999438  0.747417  1
