# generated using pymatgen
data_Tm3LuPdPt3F28
_symmetry_space_group_name_H-M   'P 1'
_cell_length_a   5.48296198
_cell_length_b   8.74429212
_cell_length_c   11.84991715
_cell_angle_alpha   62.71158367
_cell_angle_beta   89.92571598
_cell_angle_gamma   90.03744235
_symmetry_Int_Tables_number   1
_chemical_formula_structural   Tm3LuPdPt3F28
_chemical_formula_sum   'Tm3 Lu1 Pd1 Pt3 F28'
_cell_volume   504.91055683
_cell_formula_units_Z   1
loop_
 _symmetry_equiv_pos_site_id
 _symmetry_equiv_pos_as_xyz
  1  'x, y, z'
loop_
 _atom_site_type_symbol
 _atom_site_label
 _atom_site_symmetry_multiplicity
 _atom_site_fract_x
 _atom_site_fract_y
 _atom_site_fract_z
 _atom_site_occupancy
  Tm  Tm0  1  0.261243  0.814970  0.262988  1
  Tm  Tm1  1  0.738827  0.183801  0.735819  1
  Tm  Tm2  1  0.761369  0.186373  0.235078  1
  Lu  Lu3  1  0.236750  0.814930  0.764693  1
  Pd  Pd4  1  0.760699  0.727979  0.042399  1
  Pt  Pt5  1  0.241208  0.272690  0.956615  1
  Pt  Pt6  1  0.258961  0.271932  0.457035  1
  Pt  Pt7  1  0.739280  0.728138  0.544003  1
  F  F8  1  0.938148  0.701977  0.415925  1
  F  F9  1  0.061622  0.297829  0.585730  1
  F  F10  1  0.438174  0.299031  0.084959  1
  F  F11  1  0.564393  0.701258  0.916093  1
  F  F12  1  0.467446  0.722881  0.137129  1
  F  F13  1  0.538185  0.273952  0.863160  1
  F  F14  1  0.962722  0.275840  0.362605  1
  F  F15  1  0.033497  0.723957  0.640187  1
  F  F16  1  0.949524  0.747391  0.175490  1
  F  F17  1  0.050749  0.252443  0.823138  1
  F  F18  1  0.449381  0.252971  0.322954  1
  F  F19  1  0.545820  0.748116  0.677321  1
  F  F20  1  0.781593  0.478079  0.141735  1
  F  F21  1  0.226548  0.525193  0.857665  1
  F  F22  1  0.276412  0.524166  0.357076  1
  F  F23  1  0.720922  0.475864  0.643678  1
  F  F24  1  0.935918  0.277658  0.042824  1
  F  F25  1  0.063357  0.724585  0.955629  1
  F  F26  1  0.436154  0.724207  0.455716  1
  F  F27  1  0.563514  0.275916  0.544087  1
  F  F28  1  0.745986  0.980075  0.448986  1
  F  F29  1  0.252537  0.019930  0.551738  1
  F  F30  1  0.246266  0.020735  0.050256  1
  F  F31  1  0.752042  0.977326  0.949305  1
  F  F32  1  0.582620  0.971608  0.231994  1
  F  F33  1  0.416697  0.026762  0.767052  1
  F  F34  1  0.082685  0.029848  0.266204  1
  F  F35  1  0.918749  0.969589  0.732732  1
