# generated using pymatgen
data_Sr3ScCoO6
_symmetry_space_group_name_H-M   'P 1'
_cell_length_a   6.67400049
_cell_length_b   6.67400104
_cell_length_c   6.67400199
_cell_angle_alpha   93.42744125
_cell_angle_beta   93.42743908
_cell_angle_gamma   93.42743600
_symmetry_Int_Tables_number   1
_chemical_formula_structural   Sr3ScCoO6
_chemical_formula_sum   'Sr6 Sc2 Co2 O12'
_cell_volume   295.61336753
_cell_formula_units_Z   2
loop_
 _symmetry_equiv_pos_site_id
 _symmetry_equiv_pos_as_xyz
  1  'x, y, z'
loop_
 _atom_site_type_symbol
 _atom_site_label
 _atom_site_symmetry_multiplicity
 _atom_site_fract_x
 _atom_site_fract_y
 _atom_site_fract_z
 _atom_site_occupancy
  Sr  Sr0  1  0.882488  0.617512  0.250000  1
  Sr  Sr1  1  0.250000  0.882488  0.617512  1
  Sr  Sr2  1  0.617512  0.250000  0.882488  1
  Sr  Sr3  1  0.750000  0.117512  0.382488  1
  Sr  Sr4  1  0.382488  0.750000  0.117512  1
  Sr  Sr5  1  0.117512  0.382488  0.750000  1
  Sc  Sc6  1  0.250000  0.250000  0.250000  1
  Sc  Sc7  1  0.750000  0.750000  0.750000  1
  Co  Co8  1  0.500000  0.500000  0.500000  1
  Co  Co9  1  0.000000  0.000000  0.000000  1
  O  O10  1  0.217542  0.535343  0.406924  1
  O  O11  1  0.406924  0.217542  0.535343  1
  O  O12  1  0.535343  0.406924  0.217542  1
  O  O13  1  0.906924  0.035343  0.717542  1
  O  O14  1  0.717542  0.906924  0.035343  1
  O  O15  1  0.035343  0.717542  0.906924  1
  O  O16  1  0.782458  0.464657  0.593076  1
  O  O17  1  0.593076  0.782458  0.464657  1
  O  O18  1  0.464657  0.593076  0.782458  1
  O  O19  1  0.093076  0.964657  0.282458  1
  O  O20  1  0.282458  0.093076  0.964657  1
  O  O21  1  0.964657  0.282458  0.093076  1
