# generated using pymatgen
data_Dy5Ho15(GaBi2)4
_symmetry_space_group_name_H-M   'P 1'
_cell_length_a   8.08913800
_cell_length_b   9.30315901
_cell_length_c   12.01009901
_cell_angle_alpha   89.99601523
_cell_angle_beta   90.00219509
_cell_angle_gamma   89.99858348
_symmetry_Int_Tables_number   1
_chemical_formula_structural   Dy5Ho15(GaBi2)4
_chemical_formula_sum   'Dy5 Ho15 Ga4 Bi8'
_cell_volume   903.81443785
_cell_formula_units_Z   1
loop_
 _symmetry_equiv_pos_site_id
 _symmetry_equiv_pos_as_xyz
  1  'x, y, z'
loop_
 _atom_site_type_symbol
 _atom_site_label
 _atom_site_symmetry_multiplicity
 _atom_site_fract_x
 _atom_site_fract_y
 _atom_site_fract_z
 _atom_site_occupancy
  Dy  Dy0  1  0.819476  0.553649  0.062329  1
  Dy  Dy1  1  0.174376  0.750029  0.218037  1
  Dy  Dy2  1  0.325623  0.750022  0.718036  1
  Dy  Dy3  1  0.825706  0.249985  0.781961  1
  Dy  Dy4  1  0.674316  0.249966  0.281964  1
  Ho  Ho5  1  0.680377  0.946273  0.562304  1
  Ho  Ho6  1  0.180402  0.053778  0.937671  1
  Ho  Ho7  1  0.319653  0.446236  0.437722  1
  Ho  Ho8  1  0.180404  0.446188  0.937670  1
  Ho  Ho9  1  0.319654  0.053769  0.437728  1
  Ho  Ho10  1  0.819591  0.946349  0.062341  1
  Ho  Ho11  1  0.680344  0.553721  0.562280  1
  Ho  Ho12  1  0.463067  0.750028  0.003642  1
  Ho  Ho13  1  0.036856  0.750018  0.503659  1
  Ho  Ho14  1  0.536744  0.249946  0.996389  1
  Ho  Ho15  1  0.963185  0.250011  0.496421  1
  Ho  Ho16  1  0.644687  0.750033  0.294891  1
  Ho  Ho17  1  0.855357  0.750071  0.794783  1
  Ho  Ho18  1  0.355214  0.250001  0.705125  1
  Ho  Ho19  1  0.144766  0.250003  0.205108  1
  Ga  Ga20  1  0.404893  0.749968  0.475743  1
  Ga  Ga21  1  0.095228  0.750135  0.975657  1
  Ga  Ga22  1  0.595068  0.250027  0.524270  1
  Ga  Ga23  1  0.904991  0.249769  0.024202  1
  Bi  Bi24  1  0.937432  0.509543  0.324665  1
  Bi  Bi25  1  0.562617  0.990468  0.824573  1
  Bi  Bi26  1  0.062642  0.009583  0.675399  1
  Bi  Bi27  1  0.437308  0.490430  0.175463  1
  Bi  Bi28  1  0.062632  0.490414  0.675399  1
  Bi  Bi29  1  0.437387  0.009582  0.175413  1
  Bi  Bi30  1  0.937371  0.990463  0.324612  1
  Bi  Bi31  1  0.562631  0.509544  0.824543  1
