# generated using pymatgen
data_Sc5(Re11Tc)2
_symmetry_space_group_name_H-M   'P 1'
_cell_length_a   8.44454108
_cell_length_b   8.45320443
_cell_length_c   8.44443603
_cell_angle_alpha   109.56447107
_cell_angle_beta   109.38832930
_cell_angle_gamma   109.41956854
_symmetry_Int_Tables_number   1
_chemical_formula_structural   Sc5(Re11Tc)2
_chemical_formula_sum   'Sc5 Re22 Tc2'
_cell_volume   464.26552109
_cell_formula_units_Z   1
loop_
 _symmetry_equiv_pos_site_id
 _symmetry_equiv_pos_as_xyz
  1  'x, y, z'
loop_
 _atom_site_type_symbol
 _atom_site_label
 _atom_site_symmetry_multiplicity
 _atom_site_fract_x
 _atom_site_fract_y
 _atom_site_fract_z
 _atom_site_occupancy
  Sc  Sc0  1  0.366182  0.367345  0.367559  1
  Sc  Sc1  1  0.000227  0.632675  0.998863  1
  Sc  Sc2  1  0.633108  0.999553  0.999916  1
  Sc  Sc3  1  0.000353  0.000434  0.633556  1
  Sc  Sc4  1  0.000181  0.999999  0.000184  1
  Re  Re5  1  0.720800  0.322885  0.323010  1
  Re  Re6  1  0.322281  0.720702  0.323216  1
  Re  Re7  1  0.676891  0.000343  0.398117  1
  Re  Re8  1  0.000095  0.677090  0.397882  1
  Re  Re9  1  0.601976  0.601959  0.278843  1
  Re  Re10  1  0.808454  0.808715  0.186215  1
  Re  Re11  1  0.377488  0.191293  0.999741  1
  Re  Re12  1  0.192371  0.377458  0.000674  1
  Re  Re13  1  0.622722  0.814600  0.622494  1
  Re  Re14  1  0.377196  0.999258  0.191213  1
  Re  Re15  1  0.999068  0.377053  0.191769  1
  Re  Re16  1  0.814705  0.622957  0.622010  1
  Re  Re17  1  0.186401  0.807773  0.807099  1
  Re  Re18  1  0.807882  0.185405  0.808127  1
  Re  Re19  1  0.191956  0.000736  0.377940  1
  Re  Re20  1  0.999355  0.192250  0.378619  1
  Re  Re21  1  0.623199  0.622544  0.814878  1
  Re  Re22  1  0.397746  0.999606  0.676525  1
  Re  Re23  1  0.602506  0.279303  0.601596  1
  Re  Re24  1  0.676868  0.398030  0.000008  1
  Re  Re25  1  0.397160  0.676100  0.999068  1
  Re  Re26  1  0.322979  0.323908  0.721066  1
  Tc  Tc27  1  0.999863  0.398370  0.678325  1
  Tc  Tc28  1  0.279989  0.601656  0.601486  1
