# generated using pymatgen
data_RbSm5Y(CBr6)2
_symmetry_space_group_name_H-M   'P 1'
_cell_length_a   9.04986022
_cell_length_b   9.03186101
_cell_length_c   9.53383403
_cell_angle_alpha   72.17226021
_cell_angle_beta   70.98458787
_cell_angle_gamma   72.83440499
_symmetry_Int_Tables_number   1
_chemical_formula_structural   RbSm5Y(CBr6)2
_chemical_formula_sum   'Rb1 Sm5 Y1 C2 Br12'
_cell_volume   684.64098351
_cell_formula_units_Z   1
loop_
 _symmetry_equiv_pos_site_id
 _symmetry_equiv_pos_as_xyz
  1  'x, y, z'
loop_
 _atom_site_type_symbol
 _atom_site_label
 _atom_site_symmetry_multiplicity
 _atom_site_fract_x
 _atom_site_fract_y
 _atom_site_fract_z
 _atom_site_occupancy
  Rb  Rb0  1  0.999023  0.500532  0.000113  1
  Sm  Sm1  1  0.474403  0.117506  0.181074  1
  Sm  Sm2  1  0.780565  0.033136  0.406287  1
  Sm  Sm3  1  0.594514  0.721388  0.474150  1
  Sm  Sm4  1  0.405216  0.278187  0.525632  1
  Sm  Sm5  1  0.219433  0.966436  0.595211  1
  Y  Y6  1  0.526342  0.883712  0.814825  1
  C  C7  1  0.493142  0.025679  0.424649  1
  C  C8  1  0.507056  0.973142  0.576753  1
  Br  Br9  1  0.797946  0.162877  0.081348  1
  Br  Br10  1  0.585395  0.785693  0.136091  1
  Br  Br11  1  0.349171  0.434678  0.224400  1
  Br  Br12  1  0.135616  0.072321  0.294228  1
  Br  Br13  1  0.924541  0.722210  0.351906  1
  Br  Br14  1  0.716125  0.367189  0.429233  1
  Br  Br15  1  0.283429  0.633087  0.571630  1
  Br  Br16  1  0.074666  0.277559  0.648232  1
  Br  Br17  1  0.860383  0.926566  0.709381  1
  Br  Br18  1  0.648396  0.570497  0.778476  1
  Br  Br19  1  0.416284  0.209777  0.857174  1
  Br  Br20  1  0.208356  0.837823  0.919207  1
