# generated using pymatgen
data_Tm2Bi2Ru2O11
_symmetry_space_group_name_H-M   'P 1'
_cell_length_a   6.51244754
_cell_length_b   7.51478111
_cell_length_c   9.66864900
_cell_angle_alpha   101.24260671
_cell_angle_beta   90.64335023
_cell_angle_gamma   90.05456603
_symmetry_Int_Tables_number   1
_chemical_formula_structural   Tm2Bi2Ru2O11
_chemical_formula_sum   'Tm4 Bi4 Ru4 O22'
_cell_volume   464.06823609
_cell_formula_units_Z   2
loop_
 _symmetry_equiv_pos_site_id
 _symmetry_equiv_pos_as_xyz
  1  'x, y, z'
loop_
 _atom_site_type_symbol
 _atom_site_label
 _atom_site_symmetry_multiplicity
 _atom_site_fract_x
 _atom_site_fract_y
 _atom_site_fract_z
 _atom_site_occupancy
  Tm  Tm0  1  0.745844  0.368526  0.482112  1
  Tm  Tm1  1  0.254156  0.631474  0.517888  1
  Tm  Tm2  1  0.758481  0.872860  0.490366  1
  Tm  Tm3  1  0.241519  0.127140  0.509634  1
  Bi  Bi4  1  0.461171  0.955130  0.816352  1
  Bi  Bi5  1  0.538829  0.044870  0.183648  1
  Bi  Bi6  1  0.391267  0.455176  0.823188  1
  Bi  Bi7  1  0.608733  0.544824  0.176812  1
  Ru  Ru8  1  0.925899  0.702211  0.807667  1
  Ru  Ru9  1  0.074101  0.297789  0.192333  1
  Ru  Ru10  1  0.927460  0.200752  0.806860  1
  Ru  Ru11  1  0.072540  0.799248  0.193140  1
  O  O12  1  0.223103  0.718820  0.754990  1
  O  O13  1  0.776897  0.281180  0.245010  1
  O  O14  1  0.631927  0.677287  0.841082  1
  O  O15  1  0.368073  0.322713  0.158918  1
  O  O16  1  0.633319  0.242979  0.838645  1
  O  O17  1  0.366681  0.757021  0.161355  1
  O  O18  1  0.893457  0.159615  0.588552  1
  O  O19  1  0.106543  0.840385  0.411448  1
  O  O20  1  0.222031  0.156941  0.750488  1
  O  O21  1  0.777969  0.843059  0.249512  1
  O  O22  1  0.893266  0.634069  0.595767  1
  O  O23  1  0.106734  0.365931  0.404233  1
  O  O24  1  0.015526  0.546273  0.183513  1
  O  O25  1  0.984474  0.453727  0.816487  1
  O  O26  1  0.998604  0.783752  0.001546  1
  O  O27  1  0.001396  0.216248  0.998454  1
  O  O28  1  0.572182  0.599522  0.399541  1
  O  O29  1  0.427818  0.400478  0.600459  1
  O  O30  1  0.160672  0.056221  0.225635  1
  O  O31  1  0.839328  0.943779  0.774365  1
  O  O32  1  0.543856  0.103791  0.405817  1
  O  O33  1  0.456144  0.896209  0.594183  1
