# generated using pymatgen
data_HoNb6InS12
_symmetry_space_group_name_H-M   'P 1'
_cell_length_a   5.80696400
_cell_length_b   5.80696420
_cell_length_c   14.18493900
_cell_angle_alpha   90.00000000
_cell_angle_beta   90.00000000
_cell_angle_gamma   120.00001024
_symmetry_Int_Tables_number   1
_chemical_formula_structural   HoNb6InS12
_chemical_formula_sum   'Ho1 Nb6 In1 S12'
_cell_volume   414.24410988
_cell_formula_units_Z   1
loop_
 _symmetry_equiv_pos_site_id
 _symmetry_equiv_pos_as_xyz
  1  'x, y, z'
loop_
 _atom_site_type_symbol
 _atom_site_label
 _atom_site_symmetry_multiplicity
 _atom_site_fract_x
 _atom_site_fract_y
 _atom_site_fract_z
 _atom_site_occupancy
  Ho  Ho0  1  0.000000  0.000000  0.000000  1
  Nb  Nb1  1  0.333333  0.666667  0.243782  1
  Nb  Nb2  1  0.666667  0.333333  0.756218  1
  Nb  Nb3  1  0.666667  0.333333  0.243782  1
  Nb  Nb4  1  0.333333  0.666667  0.756218  1
  Nb  Nb5  1  0.000000  0.000000  0.241608  1
  Nb  Nb6  1  0.000000  0.000000  0.758392  1
  In  In7  1  0.000000  0.000000  0.500000  1
  S  S8  1  0.337911  0.000000  0.131454  1
  S  S9  1  0.000000  0.337911  0.131454  1
  S  S10  1  0.662089  0.662089  0.131454  1
  S  S11  1  0.332789  0.332789  0.646903  1
  S  S12  1  0.667211  0.667211  0.353097  1
  S  S13  1  0.667211  0.000000  0.646903  1
  S  S14  1  0.000000  0.667211  0.646903  1
  S  S15  1  0.000000  0.662089  0.868546  1
  S  S16  1  0.337911  0.337911  0.868546  1
  S  S17  1  0.000000  0.332789  0.353097  1
  S  S18  1  0.332789  0.000000  0.353097  1
  S  S19  1  0.662089  0.000000  0.868546  1
