# generated using pymatgen
data_Na3Sr2BiO6
_symmetry_space_group_name_H-M   'P 1'
_cell_length_a   11.69103744
_cell_length_b   11.09908837
_cell_length_c   6.13608972
_cell_angle_alpha   79.78278574
_cell_angle_beta   69.11735442
_cell_angle_gamma   31.09985922
_symmetry_Int_Tables_number   1
_chemical_formula_structural   Na3Sr2BiO6
_chemical_formula_sum   'Na6 Sr4 Bi2 O12'
_cell_volume   370.52900727
_cell_formula_units_Z   2
loop_
 _symmetry_equiv_pos_site_id
 _symmetry_equiv_pos_as_xyz
  1  'x, y, z'
loop_
 _atom_site_type_symbol
 _atom_site_label
 _atom_site_symmetry_multiplicity
 _atom_site_fract_x
 _atom_site_fract_y
 _atom_site_fract_z
 _atom_site_occupancy
  Na  Na0  1  0.583368  0.583368  0.916632  1
  Na  Na1  1  0.916632  0.916632  0.583368  1
  Na  Na2  1  0.666632  0.666632  0.333368  1
  Na  Na3  1  0.333368  0.333368  0.666632  1
  Na  Na4  1  0.500000  0.500000  0.500000  1
  Na  Na5  1  0.750000  0.750000  0.750000  1
  Sr  Sr6  1  0.080827  0.080827  0.419173  1
  Sr  Sr7  1  0.830827  0.830827  0.169173  1
  Sr  Sr8  1  0.419173  0.419173  0.080827  1
  Sr  Sr9  1  0.169173  0.169173  0.830827  1
  Bi  Bi10  1  0.250000  0.250000  0.250000  1
  Bi  Bi11  1  0.000000  0.000000  0.000000  1
  O  O12  1  0.403532  0.949019  0.101400  1
  O  O13  1  0.101400  0.546048  0.403532  1
  O  O14  1  0.546048  0.101400  0.949019  1
  O  O15  1  0.148600  0.703952  0.846468  1
  O  O16  1  0.214945  0.785055  0.214945  1
  O  O17  1  0.300981  0.846468  0.703952  1
  O  O18  1  0.035055  0.464945  0.035055  1
  O  O19  1  0.464945  0.035055  0.464945  1
  O  O20  1  0.703952  0.148600  0.300981  1
  O  O21  1  0.846468  0.300981  0.148600  1
  O  O22  1  0.949019  0.403532  0.546048  1
  O  O23  1  0.785055  0.214945  0.785055  1
