# generated using pymatgen
data_Tb5Ho5Pt18
_symmetry_space_group_name_H-M   'P 1'
_cell_length_a   9.78545643
_cell_length_b   9.79391242
_cell_length_c   5.78132400
_cell_angle_alpha   90.00000000
_cell_angle_beta   90.00000000
_cell_angle_gamma   90.09587260
_symmetry_Int_Tables_number   1
_chemical_formula_structural   Tb5Ho5Pt18
_chemical_formula_sum   'Tb5 Ho5 Pt18'
_cell_volume   554.06919473
_cell_formula_units_Z   1
loop_
 _symmetry_equiv_pos_site_id
 _symmetry_equiv_pos_as_xyz
  1  'x, y, z'
loop_
 _atom_site_type_symbol
 _atom_site_label
 _atom_site_symmetry_multiplicity
 _atom_site_fract_x
 _atom_site_fract_y
 _atom_site_fract_z
 _atom_site_occupancy
  Tb  Tb0  1  0.452647  0.809238  0.000000  1
  Tb  Tb1  1  0.547532  0.190733  0.000000  1
  Tb  Tb2  1  0.190642  0.547406  0.000000  1
  Tb  Tb3  1  0.809356  0.452619  0.000000  1
  Tb  Tb4  1  0.309142  0.047538  0.500000  1
  Ho  Ho5  1  0.500033  0.499995  0.500000  1
  Ho  Ho6  1  0.690946  0.952417  0.500000  1
  Ho  Ho7  1  0.952393  0.690795  0.500000  1
  Ho  Ho8  1  0.047467  0.309302  0.500000  1
  Ho  Ho9  1  0.999918  0.999979  0.000000  1
  Pt  Pt10  1  0.190795  0.808364  0.251248  1
  Pt  Pt11  1  0.809045  0.191023  0.748291  1
  Pt  Pt12  1  0.809045  0.191023  0.251709  1
  Pt  Pt13  1  0.190795  0.808364  0.748752  1
  Pt  Pt14  1  0.440390  0.780732  0.500000  1
  Pt  Pt15  1  0.560444  0.218985  0.500000  1
  Pt  Pt16  1  0.218513  0.559841  0.500000  1
  Pt  Pt17  1  0.781507  0.440198  0.500000  1
  Pt  Pt18  1  0.307889  0.308652  0.249965  1
  Pt  Pt19  1  0.692122  0.692104  0.749493  1
  Pt  Pt20  1  0.692122  0.692104  0.250507  1
  Pt  Pt21  1  0.307889  0.308652  0.750035  1
  Pt  Pt22  1  0.280426  0.060096  0.000000  1
  Pt  Pt23  1  0.719467  0.939960  0.000000  1
  Pt  Pt24  1  0.939915  0.719482  0.000000  1
  Pt  Pt25  1  0.060011  0.280457  0.000000  1
  Pt  Pt26  1  0.999494  0.999885  0.500000  1
  Pt  Pt27  1  0.500052  0.500056  0.000000  1
