# generated using pymatgen
data_K4CdSb7Au8
_symmetry_space_group_name_H-M   'P 1'
_cell_length_a   4.84308800
_cell_length_b   9.02282404
_cell_length_c   12.37593800
_cell_angle_alpha   90.00567063
_cell_angle_beta   90.00000000
_cell_angle_gamma   90.00000000
_symmetry_Int_Tables_number   1
_chemical_formula_structural   K4CdSb7Au8
_chemical_formula_sum   'K4 Cd1 Sb7 Au8'
_cell_volume   540.80783071
_cell_formula_units_Z   1
loop_
 _symmetry_equiv_pos_site_id
 _symmetry_equiv_pos_as_xyz
  1  'x, y, z'
loop_
 _atom_site_type_symbol
 _atom_site_label
 _atom_site_symmetry_multiplicity
 _atom_site_fract_x
 _atom_site_fract_y
 _atom_site_fract_z
 _atom_site_occupancy
  K  K0  1  0.750000  0.743789  0.334871  1
  K  K1  1  0.250000  0.759286  0.837790  1
  K  K2  1  0.250000  0.258505  0.662837  1
  K  K3  1  0.750000  0.238869  0.166120  1
  Cd  Cd4  1  0.250000  0.391608  0.955083  1
  Sb  Sb5  1  0.250000  0.396697  0.344687  1
  Sb  Sb6  1  0.250000  0.899185  0.155423  1
  Sb  Sb7  1  0.750000  0.600627  0.039634  1
  Sb  Sb8  1  0.750000  0.602318  0.653323  1
  Sb  Sb9  1  0.750000  0.109094  0.849750  1
  Sb  Sb10  1  0.250000  0.891885  0.549774  1
  Sb  Sb11  1  0.750000  0.110736  0.455582  1
  Au  Au12  1  0.250000  0.077523  0.962850  1
  Au  Au13  1  0.750000  0.433254  0.838402  1
  Au  Au14  1  0.750000  0.930807  0.661779  1
  Au  Au15  1  0.250000  0.566964  0.156349  1
  Au  Au16  1  0.250000  0.071212  0.344937  1
  Au  Au17  1  0.750000  0.911999  0.036453  1
  Au  Au18  1  0.250000  0.585504  0.530990  1
  Au  Au19  1  0.750000  0.420139  0.463364  1
