# generated using pymatgen
data_PrTl3W2O9
_symmetry_space_group_name_H-M   'P 1'
_cell_length_a   6.20115545
_cell_length_b   6.20124673
_cell_length_c   14.96310900
_cell_angle_alpha   89.91229037
_cell_angle_beta   89.91117110
_cell_angle_gamma   119.91574419
_symmetry_Int_Tables_number   1
_chemical_formula_structural   PrTl3W2O9
_chemical_formula_sum   'Pr2 Tl6 W4 O18'
_cell_volume   498.73533921
_cell_formula_units_Z   2
loop_
 _symmetry_equiv_pos_site_id
 _symmetry_equiv_pos_as_xyz
  1  'x, y, z'
loop_
 _atom_site_type_symbol
 _atom_site_label
 _atom_site_symmetry_multiplicity
 _atom_site_fract_x
 _atom_site_fract_y
 _atom_site_fract_z
 _atom_site_occupancy
  Pr  Pr0  1  0.000000  0.000000  0.000000  1
  Pr  Pr1  1  0.000000  0.000000  0.500000  1
  Tl  Tl2  1  0.999481  0.000475  0.250009  1
  Tl  Tl3  1  0.000519  0.999525  0.749991  1
  Tl  Tl4  1  0.331982  0.665889  0.124485  1
  Tl  Tl5  1  0.668018  0.334111  0.875515  1
  Tl  Tl6  1  0.665911  0.332017  0.624290  1
  Tl  Tl7  1  0.334089  0.667983  0.375710  1
  W  W8  1  0.667799  0.334978  0.348049  1
  W  W9  1  0.332201  0.665022  0.651951  1
  W  W10  1  0.334995  0.667801  0.848033  1
  W  W11  1  0.665005  0.332199  0.151967  1
  O  O12  1  0.641763  0.821872  0.906371  1
  O  O13  1  0.529300  0.470693  0.250005  1
  O  O14  1  0.177764  0.816129  0.592336  1
  O  O15  1  0.529793  0.059718  0.251003  1
  O  O16  1  0.183886  0.822226  0.907651  1
  O  O17  1  0.940280  0.470200  0.249000  1
  O  O18  1  0.358237  0.178128  0.093629  1
  O  O19  1  0.822236  0.183871  0.407664  1
  O  O20  1  0.470207  0.940282  0.748997  1
  O  O21  1  0.470700  0.529307  0.749995  1
  O  O22  1  0.821884  0.641767  0.406391  1
  O  O23  1  0.815941  0.636022  0.091289  1
  O  O24  1  0.636047  0.815956  0.591270  1
  O  O25  1  0.184059  0.363978  0.908711  1
  O  O26  1  0.059720  0.529800  0.751000  1
  O  O27  1  0.363953  0.184044  0.408730  1
  O  O28  1  0.178116  0.358233  0.593609  1
  O  O29  1  0.816114  0.177774  0.092349  1
