# generated using pymatgen
data_Dy6Er4Si5Ge
_symmetry_space_group_name_H-M   'P 1'
_cell_length_a   8.42570900
_cell_length_b   8.42702981
_cell_length_c   6.32582300
_cell_angle_alpha   90.00000000
_cell_angle_beta   90.00000000
_cell_angle_gamma   119.99480363
_symmetry_Int_Tables_number   1
_chemical_formula_structural   Dy6Er4Si5Ge
_chemical_formula_sum   'Dy6 Er4 Si5 Ge1'
_cell_volume   389.00160355
_cell_formula_units_Z   1
loop_
 _symmetry_equiv_pos_site_id
 _symmetry_equiv_pos_as_xyz
  1  'x, y, z'
loop_
 _atom_site_type_symbol
 _atom_site_label
 _atom_site_symmetry_multiplicity
 _atom_site_fract_x
 _atom_site_fract_y
 _atom_site_fract_z
 _atom_site_occupancy
  Dy  Dy0  1  0.999229  0.756171  0.750000  1
  Dy  Dy1  1  0.999970  0.243271  0.250000  1
  Dy  Dy2  1  0.756699  0.756729  0.250000  1
  Dy  Dy3  1  0.757326  0.000000  0.750000  1
  Dy  Dy4  1  0.243058  0.243829  0.750000  1
  Dy  Dy5  1  0.243017  0.000000  0.250000  1
  Er  Er6  1  0.333237  0.666095  0.499508  1
  Er  Er7  1  0.667143  0.333905  0.000492  1
  Er  Er8  1  0.667143  0.333905  0.499508  1
  Er  Er9  1  0.333237  0.666095  0.000492  1
  Si  Si10  1  0.394789  0.394773  0.250000  1
  Si  Si11  1  0.000015  0.605227  0.250000  1
  Si  Si12  1  0.999994  0.394787  0.750000  1
  Si  Si13  1  0.605207  0.605213  0.750000  1
  Si  Si14  1  0.605316  0.000000  0.250000  1
  Ge  Ge15  1  0.394623  0.000000  0.750000  1
