# generated using pymatgen
data_Lu3Th(TiAl3)2
_symmetry_space_group_name_H-M   'P 1'
_cell_length_a   9.52662543
_cell_length_b   9.52662612
_cell_length_c   9.52662700
_cell_angle_alpha   34.25243101
_cell_angle_beta   34.25242488
_cell_angle_gamma   34.25242987
_symmetry_Int_Tables_number   1
_chemical_formula_structural   Lu3Th(TiAl3)2
_chemical_formula_sum   'Lu3 Th1 Ti2 Al6'
_cell_volume   244.24815554
_cell_formula_units_Z   1
loop_
 _symmetry_equiv_pos_site_id
 _symmetry_equiv_pos_as_xyz
  1  'x, y, z'
loop_
 _atom_site_type_symbol
 _atom_site_label
 _atom_site_symmetry_multiplicity
 _atom_site_fract_x
 _atom_site_fract_y
 _atom_site_fract_z
 _atom_site_occupancy
  Lu  Lu0  1  0.185877  0.185877  0.185877  1
  Lu  Lu1  1  0.815345  0.815345  0.815345  1
  Lu  Lu2  1  0.314055  0.314055  0.314055  1
  Th  Th3  1  0.685721  0.685721  0.685721  1
  Ti  Ti4  1  0.000254  0.000254  0.000254  1
  Ti  Ti5  1  0.499234  0.499234  0.499234  1
  Al  Al6  1  0.752149  0.250527  0.250527  1
  Al  Al7  1  0.248238  0.749035  0.749035  1
  Al  Al8  1  0.250527  0.752149  0.250527  1
  Al  Al9  1  0.749035  0.248238  0.749035  1
  Al  Al10  1  0.250527  0.250527  0.752149  1
  Al  Al11  1  0.749035  0.749035  0.248238  1
