# generated using pymatgen
data_Lu5Ni2Pd
_symmetry_space_group_name_H-M   'P 1'
_cell_length_a   8.28623930
_cell_length_b   8.28623974
_cell_length_c   8.28623949
_cell_angle_alpha   127.73047329
_cell_angle_beta   127.73047931
_cell_angle_gamma   77.06205674
_symmetry_Int_Tables_number   1
_chemical_formula_structural   Lu5Ni2Pd
_chemical_formula_sum   'Lu10 Ni4 Pd2'
_cell_volume   345.42181592
_cell_formula_units_Z   2
loop_
 _symmetry_equiv_pos_site_id
 _symmetry_equiv_pos_as_xyz
  1  'x, y, z'
loop_
 _atom_site_type_symbol
 _atom_site_label
 _atom_site_symmetry_multiplicity
 _atom_site_fract_x
 _atom_site_fract_y
 _atom_site_fract_z
 _atom_site_occupancy
  Lu  Lu0  1  0.000000  0.000000  0.000000  1
  Lu  Lu1  1  0.500000  0.500000  0.000000  1
  Lu  Lu2  1  0.804065  0.304065  0.825550  1
  Lu  Lu3  1  0.195935  0.695935  0.174450  1
  Lu  Lu4  1  0.478516  0.978516  0.174450  1
  Lu  Lu5  1  0.304065  0.478516  0.500000  1
  Lu  Lu6  1  0.021484  0.195935  0.500000  1
  Lu  Lu7  1  0.521484  0.021484  0.825550  1
  Lu  Lu8  1  0.695935  0.521484  0.500000  1
  Lu  Lu9  1  0.978516  0.804065  0.500000  1
  Ni  Ni10  1  0.128525  0.628525  0.757050  1
  Ni  Ni11  1  0.871475  0.371475  0.242950  1
  Ni  Ni12  1  0.628525  0.871475  0.500000  1
  Ni  Ni13  1  0.371475  0.128525  0.500000  1
  Pd  Pd14  1  0.250000  0.250000  0.000000  1
  Pd  Pd15  1  0.750000  0.750000  0.000000  1
