# generated using pymatgen
data_HgBi3Ir3RhO14
_symmetry_space_group_name_H-M   'P 1'
_cell_length_a   7.41999374
_cell_length_b   7.27066918
_cell_length_c   7.41999400
_cell_angle_alpha   59.31825149
_cell_angle_beta   59.99999884
_cell_angle_gamma   59.31824924
_symmetry_Int_Tables_number   1
_chemical_formula_structural   HgBi3Ir3RhO14
_chemical_formula_sum   'Hg1 Bi3 Ir3 Rh1 O14'
_cell_volume   280.10025682
_cell_formula_units_Z   1
loop_
 _symmetry_equiv_pos_site_id
 _symmetry_equiv_pos_as_xyz
  1  'x, y, z'
loop_
 _atom_site_type_symbol
 _atom_site_label
 _atom_site_symmetry_multiplicity
 _atom_site_fract_x
 _atom_site_fract_y
 _atom_site_fract_z
 _atom_site_occupancy
  Hg  Hg0  1  0.125000  0.625000  0.125000  1
  Bi  Bi1  1  0.125000  0.125000  0.125000  1
  Bi  Bi2  1  0.625000  0.125000  0.125000  1
  Bi  Bi3  1  0.125000  0.125000  0.625000  1
  Ir  Ir4  1  0.625000  0.625000  0.625000  1
  Ir  Ir5  1  0.625000  0.625000  0.125000  1
  Ir  Ir6  1  0.125000  0.625000  0.625000  1
  Rh  Rh7  1  0.625000  0.125000  0.625000  1
  O  O8  1  0.246616  0.260152  0.246616  1
  O  O9  1  0.300015  0.705862  0.300015  1
  O  O10  1  0.957945  0.958021  0.542018  1
  O  O11  1  0.542018  0.958021  0.542018  1
  O  O12  1  0.694109  0.705862  0.300015  1
  O  O13  1  0.949985  0.544138  0.555891  1
  O  O14  1  0.707982  0.291979  0.707982  1
  O  O15  1  0.292055  0.291979  0.707982  1
  O  O16  1  0.707982  0.291979  0.292055  1
  O  O17  1  0.300015  0.705862  0.694109  1
  O  O18  1  0.949985  0.544138  0.949985  1
  O  O19  1  0.555891  0.544138  0.949985  1
  O  O20  1  0.003384  0.989848  0.003384  1
  O  O21  1  0.542018  0.958021  0.957945  1
