# generated using pymatgen
data_Tb2Dy2Tc3B8Ru
_symmetry_space_group_name_H-M   'P 1'
_cell_length_a   5.95943043
_cell_length_b   5.30749400
_cell_length_c   6.44378701
_cell_angle_alpha   90.00000000
_cell_angle_beta   90.10475508
_cell_angle_gamma   90.00000000
_symmetry_Int_Tables_number   1
_chemical_formula_structural   Tb2Dy2Tc3B8Ru
_chemical_formula_sum   'Tb2 Dy2 Tc3 B8 Ru1'
_cell_volume   203.81433073
_cell_formula_units_Z   1
loop_
 _symmetry_equiv_pos_site_id
 _symmetry_equiv_pos_as_xyz
  1  'x, y, z'
loop_
 _atom_site_type_symbol
 _atom_site_label
 _atom_site_symmetry_multiplicity
 _atom_site_fract_x
 _atom_site_fract_y
 _atom_site_fract_z
 _atom_site_occupancy
  Tb  Tb0  1  0.013457  0.250000  0.340076  1
  Tb  Tb1  1  0.512240  0.250000  0.160911  1
  Dy  Dy2  1  0.986936  0.750000  0.660963  1
  Dy  Dy3  1  0.485742  0.750000  0.838001  1
  Tc  Tc4  1  0.181790  0.250000  0.814850  1
  Tc  Tc5  1  0.679986  0.250000  0.684528  1
  Tc  Tc6  1  0.819913  0.750000  0.185208  1
  B  B7  1  0.371581  0.079776  0.538264  1
  B  B8  1  0.871549  0.421486  0.962604  1
  B  B9  1  0.629573  0.581073  0.463388  1
  B  B10  1  0.129099  0.919265  0.035900  1
  B  B11  1  0.629573  0.918927  0.463388  1
  B  B12  1  0.129099  0.580735  0.035900  1
  B  B13  1  0.371581  0.420224  0.538264  1
  B  B14  1  0.871549  0.078514  0.962604  1
  Ru  Ru15  1  0.316332  0.750000  0.315156  1
