# generated using pymatgen
data_Zr4Ti2Si4IrW
_symmetry_space_group_name_H-M   'P 1'
_cell_length_a   3.64423800
_cell_length_b   6.87936785
_cell_length_c   8.17711863
_cell_angle_alpha   89.49455978
_cell_angle_beta   90.00000000
_cell_angle_gamma   90.00000000
_symmetry_Int_Tables_number   1
_chemical_formula_structural   Zr4Ti2Si4IrW
_chemical_formula_sum   'Zr4 Ti2 Si4 Ir1 W1'
_cell_volume   204.99282676
_cell_formula_units_Z   1
loop_
 _symmetry_equiv_pos_site_id
 _symmetry_equiv_pos_as_xyz
  1  'x, y, z'
loop_
 _atom_site_type_symbol
 _atom_site_label
 _atom_site_symmetry_multiplicity
 _atom_site_fract_x
 _atom_site_fract_y
 _atom_site_fract_z
 _atom_site_occupancy
  Zr  Zr0  1  0.250000  0.034028  0.332040  1
  Zr  Zr1  1  0.250000  0.540451  0.167716  1
  Zr  Zr2  1  0.750000  0.965853  0.666892  1
  Zr  Zr3  1  0.750000  0.464380  0.825826  1
  Ti  Ti4  1  0.250000  0.133351  0.941176  1
  Ti  Ti5  1  0.250000  0.631459  0.561189  1
  Si  Si6  1  0.250000  0.260364  0.630893  1
  Si  Si7  1  0.250000  0.759806  0.862833  1
  Si  Si8  1  0.750000  0.733989  0.361574  1
  Si  Si9  1  0.750000  0.242133  0.144301  1
  Ir  Ir10  1  0.750000  0.364979  0.443284  1
  W  W11  1  0.750000  0.869208  0.062277  1
