# generated using pymatgen
data_Li4TbTm3Si8
_symmetry_space_group_name_H-M   'P 1'
_cell_length_a   3.77456500
_cell_length_b   7.59180483
_cell_length_c   10.08577399
_cell_angle_alpha   89.97882076
_cell_angle_beta   90.00000000
_cell_angle_gamma   90.00000000
_symmetry_Int_Tables_number   1
_chemical_formula_structural   Li4TbTm3Si8
_chemical_formula_sum   'Li4 Tb1 Tm3 Si8'
_cell_volume   289.01550713
_cell_formula_units_Z   1
loop_
 _symmetry_equiv_pos_site_id
 _symmetry_equiv_pos_as_xyz
  1  'x, y, z'
loop_
 _atom_site_type_symbol
 _atom_site_label
 _atom_site_symmetry_multiplicity
 _atom_site_fract_x
 _atom_site_fract_y
 _atom_site_fract_z
 _atom_site_occupancy
  Li  Li0  1  0.250000  0.990007  0.393461  1
  Li  Li1  1  0.750000  0.013502  0.607812  1
  Li  Li2  1  0.250000  0.486609  0.106441  1
  Li  Li3  1  0.750000  0.511667  0.894702  1
  Tb  Tb4  1  0.750000  0.361461  0.362808  1
  Tm  Tm5  1  0.250000  0.135816  0.862482  1
  Tm  Tm6  1  0.750000  0.861107  0.136703  1
  Tm  Tm7  1  0.250000  0.638785  0.636669  1
  Si  Si8  1  0.750000  0.261913  0.064319  1
  Si  Si9  1  0.250000  0.733849  0.933471  1
  Si  Si10  1  0.750000  0.768497  0.433430  1
  Si  Si11  1  0.250000  0.235491  0.569021  1
  Si  Si12  1  0.750000  0.844116  0.818683  1
  Si  Si13  1  0.250000  0.152346  0.178969  1
  Si  Si14  1  0.750000  0.347001  0.682373  1
  Si  Si15  1  0.250000  0.657831  0.318653  1
