# generated using pymatgen
data_Pr2AlSiPt4
_symmetry_space_group_name_H-M   'P 1'
_cell_length_a   4.15995777
_cell_length_b   4.20982400
_cell_length_c   9.48562443
_cell_angle_alpha   90.00000000
_cell_angle_beta   102.66656437
_cell_angle_gamma   90.00000000
_symmetry_Int_Tables_number   1
_chemical_formula_structural   Pr2AlSiPt4
_chemical_formula_sum   'Pr2 Al1 Si1 Pt4'
_cell_volume   162.07591291
_cell_formula_units_Z   1
loop_
 _symmetry_equiv_pos_site_id
 _symmetry_equiv_pos_as_xyz
  1  'x, y, z'
loop_
 _atom_site_type_symbol
 _atom_site_label
 _atom_site_symmetry_multiplicity
 _atom_site_fract_x
 _atom_site_fract_y
 _atom_site_fract_z
 _atom_site_occupancy
  Pr  Pr0  1  0.602588  0.250000  0.205173  1
  Pr  Pr1  1  0.402255  0.750000  0.804510  1
  Al  Al2  1  0.822378  0.250000  0.644755  1
  Si  Si3  1  0.177257  0.750000  0.354516  1
  Pt  Pt4  1  0.955409  0.250000  0.910818  1
  Pt  Pt5  1  0.048493  0.750000  0.096987  1
  Pt  Pt6  1  0.246061  0.250000  0.492122  1
  Pt  Pt7  1  0.745558  0.750000  0.491118  1
