# generated using pymatgen
data_Tb5Er3Sc12(GaSi3)4
_symmetry_space_group_name_H-M   'P 1'
_cell_length_a   7.12878572
_cell_length_b   7.40971797
_cell_length_c   14.15877272
_cell_angle_alpha   89.96626002
_cell_angle_beta   89.85281228
_cell_angle_gamma   90.16091805
_symmetry_Int_Tables_number   1
_chemical_formula_structural   Tb5Er3Sc12(GaSi3)4
_chemical_formula_sum   'Tb5 Er3 Sc12 Ga4 Si12'
_cell_volume   747.89327141
_cell_formula_units_Z   1
loop_
 _symmetry_equiv_pos_site_id
 _symmetry_equiv_pos_as_xyz
  1  'x, y, z'
loop_
 _atom_site_type_symbol
 _atom_site_label
 _atom_site_symmetry_multiplicity
 _atom_site_fract_x
 _atom_site_fract_y
 _atom_site_fract_z
 _atom_site_occupancy
  Tb  Tb0  1  0.013008  0.174442  0.096810  1
  Tb  Tb1  1  0.988903  0.825448  0.901710  1
  Tb  Tb2  1  0.487543  0.676724  0.901810  1
  Tb  Tb3  1  0.988649  0.828109  0.600256  1
  Tb  Tb4  1  0.510271  0.321295  0.097214  1
  Er  Er5  1  0.008961  0.175287  0.399664  1
  Er  Er6  1  0.509997  0.323480  0.399849  1
  Er  Er7  1  0.491379  0.676240  0.601190  1
  Sc  Sc8  1  0.163599  0.500234  0.751360  1
  Sc  Sc9  1  0.835305  0.498527  0.250355  1
  Sc  Sc10  1  0.334984  0.001062  0.248610  1
  Sc  Sc11  1  0.664666  0.999705  0.749796  1
  Sc  Sc12  1  0.335274  0.174755  0.628130  1
  Sc  Sc13  1  0.667883  0.826688  0.373483  1
  Sc  Sc14  1  0.169191  0.672674  0.372829  1
  Sc  Sc15  1  0.668170  0.826819  0.125943  1
  Sc  Sc16  1  0.829530  0.325059  0.626781  1
  Sc  Sc17  1  0.331380  0.175618  0.874533  1
  Sc  Sc18  1  0.829865  0.323870  0.874258  1
  Sc  Sc19  1  0.172732  0.674481  0.124472  1
  Ga  Ga20  1  0.163469  0.460315  0.539292  1
  Ga  Ga21  1  0.837802  0.537695  0.461537  1
  Ga  Ga22  1  0.337998  0.961213  0.462008  1
  Ga  Ga23  1  0.839549  0.539217  0.038482  1
  Si  Si24  1  0.034545  0.117741  0.751375  1
  Si  Si25  1  0.966249  0.883620  0.249209  1
  Si  Si26  1  0.466444  0.614131  0.248662  1
  Si  Si27  1  0.534434  0.385699  0.751288  1
  Si  Si28  1  0.287971  0.872702  0.750756  1
  Si  Si29  1  0.713749  0.127672  0.249355  1
  Si  Si30  1  0.212715  0.371694  0.249281  1
  Si  Si31  1  0.787321  0.628080  0.751278  1
  Si  Si32  1  0.657692  0.037202  0.538724  1
  Si  Si33  1  0.157512  0.462830  0.960844  1
  Si  Si34  1  0.656372  0.036665  0.961403  1
  Si  Si35  1  0.344889  0.963007  0.037453  1
