# generated using pymatgen
data_U3Pa5Se12
_symmetry_space_group_name_H-M   'P 1'
_cell_length_a   3.97857400
_cell_length_b   11.03279666
_cell_length_c   11.12523767
_cell_angle_alpha   89.90676136
_cell_angle_beta   90.00000000
_cell_angle_gamma   90.00000000
_symmetry_Int_Tables_number   1
_chemical_formula_structural   U3Pa5Se12
_chemical_formula_sum   'U3 Pa5 Se12'
_cell_volume   488.33941315
_cell_formula_units_Z   1
loop_
 _symmetry_equiv_pos_site_id
 _symmetry_equiv_pos_as_xyz
  1  'x, y, z'
loop_
 _atom_site_type_symbol
 _atom_site_label
 _atom_site_symmetry_multiplicity
 _atom_site_fract_x
 _atom_site_fract_y
 _atom_site_fract_z
 _atom_site_occupancy
  U  U0  1  0.750000  0.682541  0.984929  1
  U  U1  1  0.250000  0.509498  0.691447  1
  U  U2  1  0.250000  0.182693  0.514071  1
  Pa  Pa3  1  0.750000  0.816487  0.486154  1
  Pa  Pa4  1  0.750000  0.491118  0.309363  1
  Pa  Pa5  1  0.250000  0.991188  0.191775  1
  Pa  Pa6  1  0.750000  0.008469  0.807450  1
  Pa  Pa7  1  0.250000  0.317430  0.014506  1
  Se  Se8  1  0.250000  0.555405  0.125754  1
  Se  Se9  1  0.750000  0.371703  0.550953  1
  Se  Se10  1  0.250000  0.628819  0.447947  1
  Se  Se11  1  0.250000  0.294048  0.274627  1
  Se  Se12  1  0.250000  0.204931  0.776409  1
  Se  Se13  1  0.750000  0.128447  0.051175  1
  Se  Se14  1  0.750000  0.706287  0.724424  1
  Se  Se15  1  0.250000  0.872699  0.949105  1
  Se  Se16  1  0.750000  0.794508  0.225073  1
  Se  Se17  1  0.750000  0.055290  0.374409  1
  Se  Se18  1  0.750000  0.444241  0.875306  1
  Se  Se19  1  0.250000  0.944199  0.625123  1
