# generated using pymatgen
data_Er6Al24NiPd2Ru5
_symmetry_space_group_name_H-M   'P 1'
_cell_length_a   8.79012199
_cell_length_b   8.75835232
_cell_length_c   9.48306545
_cell_angle_alpha   90.25993749
_cell_angle_beta   89.92526968
_cell_angle_gamma   119.62132205
_symmetry_Int_Tables_number   1
_chemical_formula_structural   Er6Al24NiPd2Ru5
_chemical_formula_sum   'Er6 Al24 Ni1 Pd2 Ru5'
_cell_volume   634.65329807
_cell_formula_units_Z   1
loop_
 _symmetry_equiv_pos_site_id
 _symmetry_equiv_pos_as_xyz
  1  'x, y, z'
loop_
 _atom_site_type_symbol
 _atom_site_label
 _atom_site_symmetry_multiplicity
 _atom_site_fract_x
 _atom_site_fract_y
 _atom_site_fract_z
 _atom_site_occupancy
  Er  Er0  1  0.188269  0.387558  0.250592  1
  Er  Er1  1  0.811731  0.612442  0.749408  1
  Er  Er2  1  0.615234  0.810499  0.249721  1
  Er  Er3  1  0.384766  0.189501  0.750279  1
  Er  Er4  1  0.192345  0.805352  0.250075  1
  Er  Er5  1  0.807655  0.194648  0.749925  1
  Al  Al6  1  0.331702  0.671665  0.026346  1
  Al  Al7  1  0.668298  0.328335  0.973654  1
  Al  Al8  1  0.669179  0.330219  0.526670  1
  Al  Al9  1  0.330821  0.669781  0.473330  1
  Al  Al10  1  0.158049  0.325242  0.577204  1
  Al  Al11  1  0.841951  0.674758  0.422796  1
  Al  Al12  1  0.675256  0.843028  0.576614  1
  Al  Al13  1  0.841754  0.674815  0.077308  1
  Al  Al14  1  0.324744  0.156972  0.423386  1
  Al  Al15  1  0.158246  0.325185  0.922692  1
  Al  Al16  1  0.164925  0.837341  0.578102  1
  Al  Al17  1  0.324660  0.158829  0.077637  1
  Al  Al18  1  0.835075  0.162659  0.421898  1
  Al  Al19  1  0.675340  0.841171  0.922363  1
  Al  Al20  1  0.837703  0.165003  0.078324  1
  Al  Al21  1  0.162297  0.834997  0.921676  1
  Al  Al22  1  0.559807  0.120817  0.247722  1
  Al  Al23  1  0.440193  0.879183  0.752278  1
  Al  Al24  1  0.876552  0.439198  0.249471  1
  Al  Al25  1  0.123448  0.560802  0.750529  1
  Al  Al26  1  0.563136  0.436695  0.249308  1
  Al  Al27  1  0.436864  0.563305  0.750692  1
  Al  Al28  1  0.997162  0.000733  0.250092  1
  Al  Al29  1  0.002838  0.999267  0.749908  1
  Ni  Ni30  1  0.500000  0.000000  0.000000  1
  Pd  Pd31  1  0.500000  0.500000  0.000000  1
  Pd  Pd32  1  0.500000  0.500000  0.500000  1
  Ru  Ru33  1  0.000000  0.500000  0.000000  1
  Ru  Ru34  1  0.500000  0.000000  0.500000  1
  Ru  Ru35  1  0.000000  0.500000  0.500000  1
  Ru  Ru36  1  0.000000  0.000000  0.000000  1
  Ru  Ru37  1  0.000000  0.000000  0.500000  1
