# generated using pymatgen
data_Er3In3CuHgIr
_symmetry_space_group_name_H-M   'P 1'
_cell_length_a   7.71645900
_cell_length_b   7.71645830
_cell_length_c   3.87061300
_cell_angle_alpha   90.00000000
_cell_angle_beta   90.00000000
_cell_angle_gamma   119.99999872
_symmetry_Int_Tables_number   1
_chemical_formula_structural   Er3In3CuHgIr
_chemical_formula_sum   'Er3 In3 Cu1 Hg1 Ir1'
_cell_volume   199.59352796
_cell_formula_units_Z   1
loop_
 _symmetry_equiv_pos_site_id
 _symmetry_equiv_pos_as_xyz
  1  'x, y, z'
loop_
 _atom_site_type_symbol
 _atom_site_label
 _atom_site_symmetry_multiplicity
 _atom_site_fract_x
 _atom_site_fract_y
 _atom_site_fract_z
 _atom_site_occupancy
  Er  Er0  1  0.029312  0.606103  0.500000  1
  Er  Er1  1  0.393897  0.423209  0.500000  1
  Er  Er2  1  0.576791  0.970688  0.500000  1
  In  In3  1  0.749890  0.753019  0.000000  1
  In  In4  1  0.003129  0.250110  0.000000  1
  In  In5  1  0.246981  0.996871  0.000000  1
  Cu  Cu6  1  0.000000  0.000000  0.500000  1
  Hg  Hg7  1  0.666667  0.333333  0.000000  1
  Ir  Ir8  1  0.333333  0.666667  0.000000  1
