# generated using pymatgen
data_MnAlCrB2
_symmetry_space_group_name_H-M   'P 1'
_cell_length_a   5.67367031
_cell_length_b   5.67367181
_cell_length_c   2.92283500
_cell_angle_alpha   90.00000000
_cell_angle_beta   90.00000000
_cell_angle_gamma   150.37626358
_symmetry_Int_Tables_number   1
_chemical_formula_structural   MnAlCrB2
_chemical_formula_sum   'Mn1 Al1 Cr1 B2'
_cell_volume   46.50771542
_cell_formula_units_Z   1
loop_
 _symmetry_equiv_pos_site_id
 _symmetry_equiv_pos_as_xyz
  1  'x, y, z'
loop_
 _atom_site_type_symbol
 _atom_site_label
 _atom_site_symmetry_multiplicity
 _atom_site_fract_x
 _atom_site_fract_y
 _atom_site_fract_z
 _atom_site_occupancy
  Mn  Mn0  1  0.354649  0.645351  0.500000  1
  Al  Al1  1  0.999733  0.000267  0.000000  1
  Cr  Cr2  1  0.647333  0.352667  0.500000  1
  B  B3  1  0.204955  0.795045  0.000000  1
  B  B4  1  0.793331  0.206669  0.000000  1
