# generated using pymatgen
data_Tb3Pr5(Si3Ir)4
_symmetry_space_group_name_H-M   'P 1'
_cell_length_a   8.25628100
_cell_length_b   8.25628017
_cell_length_c   8.30423700
_cell_angle_alpha   90.00000000
_cell_angle_beta   90.00000000
_cell_angle_gamma   119.99999129
_symmetry_Int_Tables_number   1
_chemical_formula_structural   Tb3Pr5(Si3Ir)4
_chemical_formula_sum   'Tb3 Pr5 Si12 Ir4'
_cell_volume   490.22933202
_cell_formula_units_Z   1
loop_
 _symmetry_equiv_pos_site_id
 _symmetry_equiv_pos_as_xyz
  1  'x, y, z'
loop_
 _atom_site_type_symbol
 _atom_site_label
 _atom_site_symmetry_multiplicity
 _atom_site_fract_x
 _atom_site_fract_y
 _atom_site_fract_z
 _atom_site_occupancy
  Tb  Tb0  1  0.492496  0.507504  0.750000  1
  Tb  Tb1  1  0.492496  0.984990  0.750000  1
  Tb  Tb2  1  0.015010  0.507504  0.750000  1
  Pr  Pr3  1  0.000000  0.000000  0.250000  1
  Pr  Pr4  1  0.000000  0.000000  0.750000  1
  Pr  Pr5  1  0.504665  0.495335  0.250000  1
  Pr  Pr6  1  0.504665  0.009329  0.250000  1
  Pr  Pr7  1  0.990671  0.495335  0.250000  1
  Si  Si8  1  0.166923  0.833077  0.507320  1
  Si  Si9  1  0.166923  0.333847  0.507320  1
  Si  Si10  1  0.666153  0.833077  0.507320  1
  Si  Si11  1  0.831528  0.168472  0.503981  1
  Si  Si12  1  0.831528  0.663054  0.503981  1
  Si  Si13  1  0.336946  0.168472  0.503981  1
  Si  Si14  1  0.831528  0.168472  0.996019  1
  Si  Si15  1  0.831528  0.663054  0.996019  1
  Si  Si16  1  0.336946  0.168472  0.996019  1
  Si  Si17  1  0.166923  0.833077  0.992680  1
  Si  Si18  1  0.166923  0.333847  0.992680  1
  Si  Si19  1  0.666153  0.833077  0.992680  1
  Ir  Ir20  1  0.333333  0.666667  0.492095  1
  Ir  Ir21  1  0.666667  0.333333  0.542808  1
  Ir  Ir22  1  0.666667  0.333333  0.957192  1
  Ir  Ir23  1  0.333333  0.666667  0.007905  1
