# generated using pymatgen
data_Nd2ThSn3Pt2Rh
_symmetry_space_group_name_H-M   'P 1'
_cell_length_a   7.61332792
_cell_length_b   7.63350998
_cell_length_c   4.16039500
_cell_angle_alpha   90.00000000
_cell_angle_beta   90.00000000
_cell_angle_gamma   120.08772545
_symmetry_Int_Tables_number   1
_chemical_formula_structural   Nd2ThSn3Pt2Rh
_chemical_formula_sum   'Nd2 Th1 Sn3 Pt2 Rh1'
_cell_volume   209.20854761
_cell_formula_units_Z   1
loop_
 _symmetry_equiv_pos_site_id
 _symmetry_equiv_pos_as_xyz
  1  'x, y, z'
loop_
 _atom_site_type_symbol
 _atom_site_label
 _atom_site_symmetry_multiplicity
 _atom_site_fract_x
 _atom_site_fract_y
 _atom_site_fract_z
 _atom_site_occupancy
  Nd  Nd0  1  0.410505  0.410739  0.000000  1
  Nd  Nd1  1  0.589495  0.000235  0.000000  1
  Th  Th2  1  0.000000  0.587964  0.000000  1
  Sn  Sn3  1  0.744286  0.752169  0.500000  1
  Sn  Sn4  1  0.000000  0.240114  0.500000  1
  Sn  Sn5  1  0.255714  0.007883  0.500000  1
  Pt  Pt6  1  0.681894  0.347499  0.500000  1
  Pt  Pt7  1  0.318106  0.665604  0.500000  1
  Rh  Rh8  1  0.000000  0.987793  0.000000  1
