# generated using pymatgen
data_SmPa2(Ga3Os)3
_symmetry_space_group_name_H-M   'P 1'
_cell_length_a   6.48682900
_cell_length_b   6.43352900
_cell_length_c   6.48682900
_cell_angle_alpha   90.00000000
_cell_angle_beta   90.00000000
_cell_angle_gamma   90.00000000
_symmetry_Int_Tables_number   1
_chemical_formula_structural   SmPa2(Ga3Os)3
_chemical_formula_sum   'Sm1 Pa2 Ga9 Os3'
_cell_volume   270.71614817
_cell_formula_units_Z   1
loop_
 _symmetry_equiv_pos_site_id
 _symmetry_equiv_pos_as_xyz
  1  'x, y, z'
loop_
 _atom_site_type_symbol
 _atom_site_label
 _atom_site_symmetry_multiplicity
 _atom_site_fract_x
 _atom_site_fract_y
 _atom_site_fract_z
 _atom_site_occupancy
  Sm  Sm0  1  0.000000  0.500000  0.000000  1
  Pa  Pa1  1  0.500000  0.000000  0.000000  1
  Pa  Pa2  1  0.000000  0.000000  0.500000  1
  Ga  Ga3  1  0.000000  0.000000  0.000000  1
  Ga  Ga4  1  0.710511  0.708038  0.710511  1
  Ga  Ga5  1  0.710511  0.291962  0.710511  1
  Ga  Ga6  1  0.289489  0.708038  0.710511  1
  Ga  Ga7  1  0.710511  0.708038  0.289489  1
  Ga  Ga8  1  0.710511  0.291962  0.289489  1
  Ga  Ga9  1  0.289489  0.291962  0.289489  1
  Ga  Ga10  1  0.289489  0.708038  0.289489  1
  Ga  Ga11  1  0.289489  0.291962  0.710511  1
  Os  Os12  1  0.000000  0.500000  0.500000  1
  Os  Os13  1  0.500000  0.500000  0.000000  1
  Os  Os14  1  0.500000  0.000000  0.500000  1
