# generated using pymatgen
data_Er8Sc2TiSi16Mo9
_symmetry_space_group_name_H-M   'P 1'
_cell_length_a   6.93399277
_cell_length_b   6.93399229
_cell_length_c   12.81190831
_cell_angle_alpha   89.96864822
_cell_angle_beta   90.03135375
_cell_angle_gamma   89.92791616
_symmetry_Int_Tables_number   1
_chemical_formula_structural   Er8Sc2TiSi16Mo9
_chemical_formula_sum   'Er8 Sc2 Ti1 Si16 Mo9'
_cell_volume   615.99911312
_cell_formula_units_Z   1
loop_
 _symmetry_equiv_pos_site_id
 _symmetry_equiv_pos_as_xyz
  1  'x, y, z'
loop_
 _atom_site_type_symbol
 _atom_site_label
 _atom_site_symmetry_multiplicity
 _atom_site_fract_x
 _atom_site_fract_y
 _atom_site_fract_z
 _atom_site_occupancy
  Er  Er0  1  0.340382  0.002698  0.469319  1
  Er  Er1  1  0.495813  0.838250  0.718982  1
  Er  Er2  1  0.500464  0.162799  0.217078  1
  Er  Er3  1  0.838250  0.495813  0.281018  1
  Er  Er4  1  0.162799  0.500464  0.782922  1
  Er  Er5  1  0.657728  0.999569  0.969510  1
  Er  Er6  1  0.002698  0.340382  0.530681  1
  Er  Er7  1  0.999569  0.657728  0.030490  1
  Sc  Sc8  1  0.170174  0.830736  0.248894  1
  Sc  Sc9  1  0.830736  0.170174  0.751106  1
  Ti  Ti10  1  0.669156  0.669156  0.500000  1
  Si  Si11  1  0.204292  0.129308  0.682610  1
  Si  Si12  1  0.373950  0.698351  0.933631  1
  Si  Si13  1  0.628674  0.299408  0.433442  1
  Si  Si14  1  0.698351  0.373950  0.066369  1
  Si  Si15  1  0.299408  0.628674  0.566558  1
  Si  Si16  1  0.793622  0.871892  0.182461  1
  Si  Si17  1  0.129308  0.204292  0.317390  1
  Si  Si18  1  0.871892  0.793622  0.817539  1
  Si  Si19  1  0.287948  0.966426  0.059693  1
  Si  Si20  1  0.544716  0.789851  0.313814  1
  Si  Si21  1  0.453927  0.211725  0.816173  1
  Si  Si22  1  0.789851  0.544716  0.686186  1
  Si  Si23  1  0.211725  0.453927  0.183827  1
  Si  Si24  1  0.709250  0.039099  0.561356  1
  Si  Si25  1  0.966426  0.287948  0.940307  1
  Si  Si26  1  0.039099  0.709250  0.438644  1
  Mo  Mo27  1  0.332342  0.332342  0.000000  1
  Mo  Mo28  1  0.158567  0.999269  0.872989  1
  Mo  Mo29  1  0.496264  0.665560  0.123434  1
  Mo  Mo30  1  0.503787  0.341404  0.623463  1
  Mo  Mo31  1  0.665560  0.496264  0.876566  1
  Mo  Mo32  1  0.341404  0.503787  0.376537  1
  Mo  Mo33  1  0.838421  0.994181  0.375018  1
  Mo  Mo34  1  0.999269  0.158567  0.127011  1
  Mo  Mo35  1  0.994181  0.838421  0.624982  1
