# generated using pymatgen
data_YLu3Mg2(ZnPt2)2
_symmetry_space_group_name_H-M   'P 1'
_cell_length_a   4.17808700
_cell_length_b   6.87130921
_cell_length_c   8.35256268
_cell_angle_alpha   89.10144870
_cell_angle_beta   90.00000000
_cell_angle_gamma   90.00000000
_symmetry_Int_Tables_number   1
_chemical_formula_structural   YLu3Mg2(ZnPt2)2
_chemical_formula_sum   'Y1 Lu3 Mg2 Zn2 Pt4'
_cell_volume   239.76363049
_cell_formula_units_Z   1
loop_
 _symmetry_equiv_pos_site_id
 _symmetry_equiv_pos_as_xyz
  1  'x, y, z'
loop_
 _atom_site_type_symbol
 _atom_site_label
 _atom_site_symmetry_multiplicity
 _atom_site_fract_x
 _atom_site_fract_y
 _atom_site_fract_z
 _atom_site_occupancy
  Y  Y0  1  0.250000  0.549135  0.173963  1
  Lu  Lu1  1  0.750000  0.455588  0.821337  1
  Lu  Lu2  1  0.750000  0.958401  0.679173  1
  Lu  Lu3  1  0.250000  0.051912  0.329190  1
  Mg  Mg4  1  0.250000  0.629079  0.554295  1
  Mg  Mg5  1  0.250000  0.124276  0.946444  1
  Zn  Zn6  1  0.750000  0.366398  0.440341  1
  Zn  Zn7  1  0.750000  0.865566  0.057340  1
  Pt  Pt8  1  0.250000  0.742793  0.863653  1
  Pt  Pt9  1  0.750000  0.249244  0.130722  1
  Pt  Pt10  1  0.750000  0.763918  0.372647  1
  Pt  Pt11  1  0.250000  0.243691  0.630896  1
