# generated using pymatgen
data_Li4CoP4Os3
_symmetry_space_group_name_H-M   'P 1'
_cell_length_a   3.76912600
_cell_length_b   6.61661575
_cell_length_c   6.60766556
_cell_angle_alpha   89.19747347
_cell_angle_beta   90.00000000
_cell_angle_gamma   90.00000000
_symmetry_Int_Tables_number   1
_chemical_formula_structural   Li4CoP4Os3
_chemical_formula_sum   'Li4 Co1 P4 Os3'
_cell_volume   164.77147176
_cell_formula_units_Z   1
loop_
 _symmetry_equiv_pos_site_id
 _symmetry_equiv_pos_as_xyz
  1  'x, y, z'
loop_
 _atom_site_type_symbol
 _atom_site_label
 _atom_site_symmetry_multiplicity
 _atom_site_fract_x
 _atom_site_fract_y
 _atom_site_fract_z
 _atom_site_occupancy
  Li  Li0  1  0.250000  0.026852  0.844785  1
  Li  Li1  1  0.250000  0.520390  0.650298  1
  Li  Li2  1  0.750000  0.979405  0.152794  1
  Li  Li3  1  0.750000  0.474772  0.349216  1
  Co  Co4  1  0.250000  0.142056  0.447316  1
  P  P5  1  0.250000  0.806936  0.363753  1
  P  P6  1  0.250000  0.284231  0.139782  1
  P  P7  1  0.750000  0.206249  0.626793  1
  P  P8  1  0.750000  0.703533  0.866226  1
  Os  Os9  1  0.250000  0.640622  0.060949  1
  Os  Os10  1  0.750000  0.863529  0.553255  1
  Os  Os11  1  0.750000  0.351425  0.944834  1
