# generated using pymatgen
data_Dy3Er(AuCl6)4
_symmetry_space_group_name_H-M   'P 1'
_cell_length_a   7.77379709
_cell_length_b   9.89438259
_cell_length_c   14.06592819
_cell_angle_alpha   103.36752571
_cell_angle_beta   97.16945253
_cell_angle_gamma   112.57008676
_symmetry_Int_Tables_number   1
_chemical_formula_structural   Dy3Er(AuCl6)4
_chemical_formula_sum   'Dy3 Er1 Au4 Cl24'
_cell_volume   944.12202696
_cell_formula_units_Z   1
loop_
 _symmetry_equiv_pos_site_id
 _symmetry_equiv_pos_as_xyz
  1  'x, y, z'
loop_
 _atom_site_type_symbol
 _atom_site_label
 _atom_site_symmetry_multiplicity
 _atom_site_fract_x
 _atom_site_fract_y
 _atom_site_fract_z
 _atom_site_occupancy
  Dy  Dy0  1  0.579557  0.927682  0.622257  1
  Dy  Dy1  1  0.029052  0.685726  0.128098  1
  Dy  Dy2  1  0.420602  0.072460  0.377855  1
  Er  Er3  1  0.970378  0.314321  0.871803  1
  Au  Au4  1  0.292156  0.633323  0.764121  1
  Au  Au5  1  0.500014  0.500023  0.500020  1
  Au  Au6  1  0.707747  0.366531  0.235936  1
  Au  Au7  1  0.999998  0.000136  0.999915  1
  Cl  Cl8  1  0.783684  0.104088  0.970754  1
  Cl  Cl9  1  0.720554  0.149433  0.265227  1
  Cl  Cl10  1  0.279428  0.850540  0.734766  1
  Cl  Cl11  1  0.771510  0.790510  0.030014  1
  Cl  Cl12  1  0.620138  0.193048  0.744944  1
  Cl  Cl13  1  0.301404  0.411742  0.789070  1
  Cl  Cl14  1  0.697567  0.587937  0.211134  1
  Cl  Cl15  1  0.306389  0.629783  0.499455  1
  Cl  Cl16  1  0.227812  0.209734  0.969726  1
  Cl  Cl17  1  0.758699  0.734447  0.527055  1
  Cl  Cl18  1  0.217143  0.896725  0.028834  1
  Cl  Cl19  1  0.720964  0.047552  0.483707  1
  Cl  Cl20  1  0.606033  0.732670  0.747122  1
  Cl  Cl21  1  0.943035  0.061472  0.731790  1
  Cl  Cl22  1  0.241362  0.265630  0.472987  1
  Cl  Cl23  1  0.381384  0.807444  0.255575  1
  Cl  Cl24  1  0.976312  0.535723  0.777943  1
  Cl  Cl25  1  0.768621  0.436798  0.976700  1
  Cl  Cl26  1  0.230846  0.561219  0.021999  1
  Cl  Cl27  1  0.023760  0.463412  0.222435  1
  Cl  Cl28  1  0.393931  0.267311  0.252862  1
  Cl  Cl29  1  0.279117  0.952498  0.516373  1
  Cl  Cl30  1  0.693623  0.370222  0.500558  1
  Cl  Cl31  1  0.057178  0.939861  0.268964  1
