# generated using pymatgen
data_Er4HfZrSnO12
_symmetry_space_group_name_H-M   'P 1'
_cell_length_a   6.31304409
_cell_length_b   6.36475091
_cell_length_c   6.51145482
_cell_angle_alpha   99.93857607
_cell_angle_beta   98.48465128
_cell_angle_gamma   99.71731793
_symmetry_Int_Tables_number   1
_chemical_formula_structural   Er4HfZrSnO12
_chemical_formula_sum   'Er4 Hf1 Zr1 Sn1 O12'
_cell_volume   249.77130200
_cell_formula_units_Z   1
loop_
 _symmetry_equiv_pos_site_id
 _symmetry_equiv_pos_as_xyz
  1  'x, y, z'
loop_
 _atom_site_type_symbol
 _atom_site_label
 _atom_site_symmetry_multiplicity
 _atom_site_fract_x
 _atom_site_fract_y
 _atom_site_fract_z
 _atom_site_occupancy
  Er  Er0  1  0.388624  0.697694  0.863759  1
  Er  Er1  1  0.697666  0.866032  0.391041  1
  Er  Er2  1  0.611134  0.300471  0.134994  1
  Er  Er3  1  0.305049  0.135610  0.609669  1
  Hf  Hf4  1  0.850106  0.397366  0.672746  1
  Zr  Zr5  1  0.149616  0.603632  0.324416  1
  Sn  Sn6  1  0.998821  0.999017  0.998261  1
  O  O7  1  0.027896  0.676544  0.890954  1
  O  O8  1  0.686240  0.933084  0.056025  1
  O  O9  1  0.921615  0.085791  0.693597  1
  O  O10  1  0.970272  0.319922  0.109633  1
  O  O11  1  0.312679  0.065764  0.943198  1
  O  O12  1  0.077061  0.918594  0.307291  1
  O  O13  1  0.591915  0.188136  0.435379  1
  O  O14  1  0.170039  0.428140  0.575157  1
  O  O15  1  0.417766  0.582723  0.178086  1
  O  O16  1  0.411595  0.813495  0.565929  1
  O  O17  1  0.826002  0.571577  0.430036  1
  O  O18  1  0.585906  0.416410  0.819830  1
