# generated using pymatgen
data_La2Y4FeBr10
_symmetry_space_group_name_H-M   'P 1'
_cell_length_a   7.48577217
_cell_length_b   9.40758871
_cell_length_c   9.22827027
_cell_angle_alpha   106.60678181
_cell_angle_beta   94.85919730
_cell_angle_gamma   106.25726304
_symmetry_Int_Tables_number   1
_chemical_formula_structural   La2Y4FeBr10
_chemical_formula_sum   'La2 Y4 Fe1 Br10'
_cell_volume   588.21228217
_cell_formula_units_Z   1
loop_
 _symmetry_equiv_pos_site_id
 _symmetry_equiv_pos_as_xyz
  1  'x, y, z'
loop_
 _atom_site_type_symbol
 _atom_site_label
 _atom_site_symmetry_multiplicity
 _atom_site_fract_x
 _atom_site_fract_y
 _atom_site_fract_z
 _atom_site_occupancy
  La  La0  1  0.118236  0.045479  0.771101  1
  La  La1  1  0.881764  0.954521  0.228899  1
  Y  Y2  1  0.970676  0.297502  0.091715  1
  Y  Y3  1  0.029324  0.702498  0.908285  1
  Y  Y4  1  0.360162  0.134026  0.172920  1
  Y  Y5  1  0.639838  0.865974  0.827080  1
  Fe  Fe6  1  0.000000  0.000000  0.000000  1
  Br  Br7  1  0.342025  0.443117  0.265854  1
  Br  Br8  1  0.657975  0.556883  0.734146  1
  Br  Br9  1  0.263841  0.085759  0.448916  1
  Br  Br10  1  0.736159  0.914241  0.551084  1
  Br  Br11  1  0.081235  0.377238  0.828873  1
  Br  Br12  1  0.918765  0.622762  0.171127  1
  Br  Br13  1  0.448106  0.823646  0.085371  1
  Br  Br14  1  0.551894  0.176354  0.914629  1
  Br  Br15  1  0.775220  0.259639  0.338037  1
  Br  Br16  1  0.224780  0.740361  0.661963  1
