# generated using pymatgen
data_La8Sc12Si15Sb
_symmetry_space_group_name_H-M   'P 1'
_cell_length_a   7.35840928
_cell_length_b   7.64177529
_cell_length_c   14.32692000
_cell_angle_alpha   90.00000000
_cell_angle_beta   90.00000000
_cell_angle_gamma   90.47373195
_symmetry_Int_Tables_number   1
_chemical_formula_structural   La8Sc12Si15Sb
_chemical_formula_sum   'La8 Sc12 Si15 Sb1'
_cell_volume   805.59394584
_cell_formula_units_Z   1
loop_
 _symmetry_equiv_pos_site_id
 _symmetry_equiv_pos_as_xyz
  1  'x, y, z'
loop_
 _atom_site_type_symbol
 _atom_site_label
 _atom_site_symmetry_multiplicity
 _atom_site_fract_x
 _atom_site_fract_y
 _atom_site_fract_z
 _atom_site_occupancy
  La  La0  1  0.012578  0.171586  0.401576  1
  La  La1  1  0.511505  0.327739  0.400395  1
  La  La2  1  0.497558  0.660272  0.909716  1
  La  La3  1  0.497558  0.660272  0.590284  1
  La  La4  1  0.982303  0.829610  0.595436  1
  La  La5  1  0.982303  0.829610  0.904564  1
  La  La6  1  0.511505  0.327739  0.099605  1
  La  La7  1  0.012578  0.171586  0.098424  1
  Sc  Sc8  1  0.329608  0.181793  0.623855  1
  Sc  Sc9  1  0.669908  0.825501  0.373501  1
  Sc  Sc10  1  0.669368  0.007528  0.750000  1
  Sc  Sc11  1  0.169672  0.675189  0.374204  1
  Sc  Sc12  1  0.827642  0.327232  0.875678  1
  Sc  Sc13  1  0.827642  0.327232  0.624322  1
  Sc  Sc14  1  0.841460  0.504451  0.250000  1
  Sc  Sc15  1  0.342396  0.994992  0.250000  1
  Sc  Sc16  1  0.329608  0.181793  0.876145  1
  Sc  Sc17  1  0.169672  0.675189  0.125796  1
  Sc  Sc18  1  0.669908  0.825501  0.126499  1
  Sc  Sc19  1  0.155642  0.488880  0.750000  1
  Si  Si20  1  0.465551  0.628389  0.250000  1
  Si  Si21  1  0.022823  0.142298  0.750000  1
  Si  Si22  1  0.531763  0.371123  0.750000  1
  Si  Si23  1  0.149806  0.465463  0.540481  1
  Si  Si24  1  0.968101  0.871921  0.250000  1
  Si  Si25  1  0.710273  0.114229  0.250000  1
  Si  Si26  1  0.849451  0.536518  0.041657  1
  Si  Si27  1  0.349661  0.963350  0.039476  1
  Si  Si28  1  0.149806  0.465463  0.959519  1
  Si  Si29  1  0.647223  0.037091  0.540330  1
  Si  Si30  1  0.349661  0.963350  0.460524  1
  Si  Si31  1  0.849451  0.536518  0.458343  1
  Si  Si32  1  0.790987  0.616929  0.750000  1
  Si  Si33  1  0.210034  0.386950  0.250000  1
  Si  Si34  1  0.647223  0.037091  0.959670  1
  Sb  Sb35  1  0.297767  0.869621  0.750000  1
