# generated using pymatgen
data_Dy4ErBe3P9Ir19
_symmetry_space_group_name_H-M   'P 1'
_cell_length_a   12.63482900
_cell_length_b   12.63482798
_cell_length_c   3.95145600
_cell_angle_alpha   90.00000000
_cell_angle_beta   90.00000000
_cell_angle_gamma   120.00000005
_symmetry_Int_Tables_number   1
_chemical_formula_structural   Dy4ErBe3P9Ir19
_chemical_formula_sum   'Dy4 Er1 Be3 P9 Ir19'
_cell_volume   546.29406709
_cell_formula_units_Z   1
loop_
 _symmetry_equiv_pos_site_id
 _symmetry_equiv_pos_as_xyz
  1  'x, y, z'
loop_
 _atom_site_type_symbol
 _atom_site_label
 _atom_site_symmetry_multiplicity
 _atom_site_fract_x
 _atom_site_fract_y
 _atom_site_fract_z
 _atom_site_occupancy
  Dy  Dy0  1  0.666667  0.333333  0.000000  1
  Dy  Dy1  1  0.815487  0.809257  0.500000  1
  Dy  Dy2  1  0.190743  0.006230  0.500000  1
  Dy  Dy3  1  0.993770  0.184513  0.500000  1
  Er  Er4  1  0.333333  0.666667  0.000000  1
  Be  Be5  1  0.683221  0.162340  0.500000  1
  Be  Be6  1  0.837660  0.520881  0.500000  1
  Be  Be7  1  0.479119  0.316779  0.500000  1
  P  P8  1  0.178130  0.696579  0.500000  1
  P  P9  1  0.518449  0.821870  0.500000  1
  P  P10  1  0.303421  0.481551  0.500000  1
  P  P11  1  0.639604  0.626655  0.000000  1
  P  P12  1  0.373345  0.012948  0.000000  1
  P  P13  1  0.987052  0.360396  0.000000  1
  P  P14  1  0.178778  0.181550  0.000000  1
  P  P15  1  0.818450  0.997229  0.000000  1
  P  P16  1  0.002771  0.821222  0.000000  1
  Ir  Ir17  1  0.801511  0.175398  0.000000  1
  Ir  Ir18  1  0.824602  0.626113  0.000000  1
  Ir  Ir19  1  0.373887  0.198489  0.000000  1
  Ir  Ir20  1  0.190386  0.812650  0.000000  1
  Ir  Ir21  1  0.622264  0.809614  0.000000  1
  Ir  Ir22  1  0.187350  0.377736  0.000000  1
  Ir  Ir23  1  0.455138  0.446496  0.000000  1
  Ir  Ir24  1  0.553504  0.008642  0.000000  1
  Ir  Ir25  1  0.991358  0.544862  0.000000  1
  Ir  Ir26  1  0.280823  0.288062  0.500000  1
  Ir  Ir27  1  0.711938  0.992762  0.500000  1
  Ir  Ir28  1  0.007238  0.719177  0.500000  1
  Ir  Ir29  1  0.871090  0.354522  0.500000  1
  Ir  Ir30  1  0.645478  0.516570  0.500000  1
  Ir  Ir31  1  0.483430  0.128910  0.500000  1
  Ir  Ir32  1  0.369389  0.870456  0.500000  1
  Ir  Ir33  1  0.501069  0.630611  0.500000  1
  Ir  Ir34  1  0.129544  0.498931  0.500000  1
  Ir  Ir35  1  0.000000  0.000000  0.000000  1
