# generated using pymatgen
data_La8MgIr5Pt
_symmetry_space_group_name_H-M   'P 1'
_cell_length_a   7.78776719
_cell_length_b   7.80914196
_cell_length_c   7.79531299
_cell_angle_alpha   69.51591892
_cell_angle_beta   69.27519839
_cell_angle_gamma   69.70181222
_symmetry_Int_Tables_number   1
_chemical_formula_structural   La8MgIr5Pt
_chemical_formula_sum   'La8 Mg1 Ir5 Pt1'
_cell_volume   401.67686562
_cell_formula_units_Z   1
loop_
 _symmetry_equiv_pos_site_id
 _symmetry_equiv_pos_as_xyz
  1  'x, y, z'
loop_
 _atom_site_type_symbol
 _atom_site_label
 _atom_site_symmetry_multiplicity
 _atom_site_fract_x
 _atom_site_fract_y
 _atom_site_fract_z
 _atom_site_occupancy
  La  La0  1  0.809869  0.813931  0.810346  1
  La  La1  1  0.193969  0.189484  0.193597  1
  La  La2  1  0.317667  0.618589  0.861000  1
  La  La3  1  0.855778  0.311342  0.611258  1
  La  La4  1  0.616577  0.857284  0.313842  1
  La  La5  1  0.680572  0.383841  0.144810  1
  La  La6  1  0.139537  0.689027  0.380599  1
  La  La7  1  0.390446  0.133245  0.683806  1
  Mg  Mg8  1  0.999795  0.999278  0.000606  1
  Ir  Ir9  1  0.181961  0.947354  0.584743  1
  Ir  Ir10  1  0.580529  0.186594  0.946570  1
  Ir  Ir11  1  0.949299  0.581259  0.180223  1
  Ir  Ir12  1  0.814681  0.051561  0.417957  1
  Ir  Ir13  1  0.419394  0.821344  0.049813  1
  Pt  Pt14  1  0.049926  0.415867  0.820828  1
