# generated using pymatgen
data_Cr22CuC6
_symmetry_space_group_name_H-M   'P 1'
_cell_length_a   7.45790955
_cell_length_b   7.45790912
_cell_length_c   7.45791000
_cell_angle_alpha   59.99999610
_cell_angle_beta   59.99999801
_cell_angle_gamma   59.99999676
_symmetry_Int_Tables_number   1
_chemical_formula_structural   Cr22CuC6
_chemical_formula_sum   'Cr22 Cu1 C6'
_cell_volume   293.31637506
_cell_formula_units_Z   1
loop_
 _symmetry_equiv_pos_site_id
 _symmetry_equiv_pos_as_xyz
  1  'x, y, z'
loop_
 _atom_site_type_symbol
 _atom_site_label
 _atom_site_symmetry_multiplicity
 _atom_site_fract_x
 _atom_site_fract_y
 _atom_site_fract_z
 _atom_site_occupancy
  Cr  Cr0  1  0.750000  0.750000  0.750000  1
  Cr  Cr1  1  0.250000  0.250000  0.250000  1
  Cr  Cr2  1  0.619653  0.619653  0.141040  1
  Cr  Cr3  1  0.619653  0.141040  0.619653  1
  Cr  Cr4  1  0.141040  0.619653  0.619653  1
  Cr  Cr5  1  0.619653  0.619653  0.619653  1
  Cr  Cr6  1  0.380347  0.380347  0.858960  1
  Cr  Cr7  1  0.380347  0.858960  0.380347  1
  Cr  Cr8  1  0.858960  0.380347  0.380347  1
  Cr  Cr9  1  0.380347  0.380347  0.380347  1
  Cr  Cr10  1  0.000000  0.000000  0.342952  1
  Cr  Cr11  1  0.657048  0.000000  0.342952  1
  Cr  Cr12  1  0.000000  0.657048  0.342952  1
  Cr  Cr13  1  0.657048  0.342952  0.000000  1
  Cr  Cr14  1  0.000000  0.342952  0.000000  1
  Cr  Cr15  1  0.000000  0.342952  0.657048  1
  Cr  Cr16  1  0.342952  0.657048  0.000000  1
  Cr  Cr17  1  0.342952  0.000000  0.657048  1
  Cr  Cr18  1  0.342952  0.000000  0.000000  1
  Cr  Cr19  1  0.000000  0.000000  0.657048  1
  Cr  Cr20  1  0.000000  0.657048  0.000000  1
  Cr  Cr21  1  0.657048  0.000000  0.000000  1
  Cu  Cu22  1  0.000000  0.000000  0.000000  1
  C  C23  1  0.721910  0.721910  0.278090  1
  C  C24  1  0.278090  0.721910  0.278090  1
  C  C25  1  0.721910  0.278090  0.278090  1
  C  C26  1  0.278090  0.278090  0.721910  1
  C  C27  1  0.721910  0.278090  0.721910  1
  C  C28  1  0.278090  0.721910  0.721910  1
