# generated using pymatgen
data_HoU5(Co3As2)6
_symmetry_space_group_name_H-M   'P 1'
_cell_length_a   3.82136600
_cell_length_b   10.80686000
_cell_length_c   12.73862300
_cell_angle_alpha   90.00000000
_cell_angle_beta   90.00000000
_cell_angle_gamma   90.00000000
_symmetry_Int_Tables_number   1
_chemical_formula_structural   HoU5(Co3As2)6
_chemical_formula_sum   'Ho1 U5 Co18 As12'
_cell_volume   526.06649838
_cell_formula_units_Z   1
loop_
 _symmetry_equiv_pos_site_id
 _symmetry_equiv_pos_as_xyz
  1  'x, y, z'
loop_
 _atom_site_type_symbol
 _atom_site_label
 _atom_site_symmetry_multiplicity
 _atom_site_fract_x
 _atom_site_fract_y
 _atom_site_fract_z
 _atom_site_occupancy
  Ho  Ho0  1  0.500000  0.000000  0.479687  1
  U  U1  1  0.000000  0.500000  0.525220  1
  U  U2  1  0.500000  0.821106  0.208608  1
  U  U3  1  0.500000  0.178894  0.208608  1
  U  U4  1  0.000000  0.680772  0.792295  1
  U  U5  1  0.000000  0.319228  0.792295  1
  Co  Co6  1  0.500000  0.500000  0.156582  1
  Co  Co7  1  0.000000  0.000000  0.842989  1
  Co  Co8  1  0.500000  0.500000  0.699486  1
  Co  Co9  1  0.000000  0.000000  0.291455  1
  Co  Co10  1  0.000000  0.500000  0.985861  1
  Co  Co11  1  0.500000  0.000000  0.013293  1
  Co  Co12  1  0.500000  0.332808  0.996925  1
  Co  Co13  1  0.500000  0.667192  0.996925  1
  Co  Co14  1  0.000000  0.169406  0.002540  1
  Co  Co15  1  0.000000  0.830594  0.002540  1
  Co  Co16  1  0.500000  0.302498  0.429803  1
  Co  Co17  1  0.500000  0.697502  0.429803  1
  Co  Co18  1  0.000000  0.198850  0.571045  1
  Co  Co19  1  0.000000  0.801150  0.571045  1
  Co  Co20  1  0.500000  0.879077  0.710246  1
  Co  Co21  1  0.500000  0.120923  0.710246  1
  Co  Co22  1  0.000000  0.621272  0.292159  1
  Co  Co23  1  0.000000  0.378728  0.292159  1
  As  As24  1  0.500000  0.500000  0.881924  1
  As  As25  1  0.000000  0.000000  0.113281  1
  As  As26  1  0.500000  0.500000  0.346073  1
  As  As27  1  0.000000  0.000000  0.654517  1
  As  As28  1  0.500000  0.309059  0.613236  1
  As  As29  1  0.500000  0.690941  0.613236  1
  As  As30  1  0.000000  0.186769  0.386930  1
  As  As31  1  0.000000  0.813231  0.386930  1
  As  As32  1  0.500000  0.845612  0.890903  1
  As  As33  1  0.500000  0.154388  0.890903  1
  As  As34  1  0.000000  0.653956  0.110126  1
  As  As35  1  0.000000  0.346044  0.110126  1
