# generated using pymatgen
data_Li4LaSm3Pt4
_symmetry_space_group_name_H-M   'P 1'
_cell_length_a   4.09694700
_cell_length_b   7.26675357
_cell_length_c   8.68294800
_cell_angle_alpha   89.90702421
_cell_angle_beta   90.00000000
_cell_angle_gamma   90.00000000
_symmetry_Int_Tables_number   1
_chemical_formula_structural   Li4LaSm3Pt4
_chemical_formula_sum   'Li4 La1 Sm3 Pt4'
_cell_volume   258.50408274
_cell_formula_units_Z   1
loop_
 _symmetry_equiv_pos_site_id
 _symmetry_equiv_pos_as_xyz
  1  'x, y, z'
loop_
 _atom_site_type_symbol
 _atom_site_label
 _atom_site_symmetry_multiplicity
 _atom_site_fract_x
 _atom_site_fract_y
 _atom_site_fract_z
 _atom_site_occupancy
  Li  Li0  1  0.250000  0.126332  0.057219  1
  Li  Li1  1  0.250000  0.624214  0.443307  1
  Li  Li2  1  0.750000  0.872871  0.946408  1
  Li  Li3  1  0.750000  0.376317  0.554408  1
  La  La4  1  0.250000  0.046570  0.684616  1
  Sm  Sm5  1  0.250000  0.547344  0.818905  1
  Sm  Sm6  1  0.750000  0.952070  0.314695  1
  Sm  Sm7  1  0.750000  0.453803  0.182690  1
  Pt  Pt8  1  0.250000  0.246986  0.376320  1
  Pt  Pt9  1  0.250000  0.746230  0.120787  1
  Pt  Pt10  1  0.750000  0.750634  0.619377  1
  Pt  Pt11  1  0.750000  0.256627  0.881267  1
