# generated using pymatgen
data_Tb3Ho17(SiBi2)4
_symmetry_space_group_name_H-M   'P 1'
_cell_length_a   8.04592031
_cell_length_b   9.16635300
_cell_length_c   12.02978946
_cell_angle_alpha   90.00000000
_cell_angle_beta   90.03173073
_cell_angle_gamma   90.00000000
_symmetry_Int_Tables_number   1
_chemical_formula_structural   Tb3Ho17(SiBi2)4
_chemical_formula_sum   'Tb3 Ho17 Si4 Bi8'
_cell_volume   887.21783780
_cell_formula_units_Z   1
loop_
 _symmetry_equiv_pos_site_id
 _symmetry_equiv_pos_as_xyz
  1  'x, y, z'
loop_
 _atom_site_type_symbol
 _atom_site_label
 _atom_site_symmetry_multiplicity
 _atom_site_fract_x
 _atom_site_fract_y
 _atom_site_fract_z
 _atom_site_occupancy
  Tb  Tb0  1  0.166577  0.750000  0.212183  1
  Tb  Tb1  1  0.333475  0.750000  0.712034  1
  Tb  Tb2  1  0.833521  0.250000  0.788005  1
  Ho  Ho3  1  0.820718  0.552999  0.062668  1
  Ho  Ho4  1  0.679270  0.946734  0.562612  1
  Ho  Ho5  1  0.179252  0.053151  0.937472  1
  Ho  Ho6  1  0.320726  0.446818  0.437335  1
  Ho  Ho7  1  0.179252  0.446849  0.937472  1
  Ho  Ho8  1  0.320726  0.053182  0.437335  1
  Ho  Ho9  1  0.820718  0.947001  0.062668  1
  Ho  Ho10  1  0.679270  0.553266  0.562612  1
  Ho  Ho11  1  0.666297  0.250000  0.288385  1
  Ho  Ho12  1  0.461316  0.750000  0.001431  1
  Ho  Ho13  1  0.038630  0.750000  0.501318  1
  Ho  Ho14  1  0.538997  0.250000  0.998690  1
  Ho  Ho15  1  0.961073  0.250000  0.498516  1
  Ho  Ho16  1  0.637247  0.750000  0.295314  1
  Ho  Ho17  1  0.862805  0.750000  0.795189  1
  Ho  Ho18  1  0.362874  0.250000  0.704585  1
  Ho  Ho19  1  0.136862  0.250000  0.204848  1
  Si  Si20  1  0.412124  0.750000  0.477906  1
  Si  Si21  1  0.087827  0.750000  0.978003  1
  Si  Si22  1  0.588057  0.250000  0.521171  1
  Si  Si23  1  0.912310  0.250000  0.021889  1
  Bi  Bi24  1  0.932229  0.510422  0.325846  1
  Bi  Bi25  1  0.567241  0.989265  0.825920  1
  Bi  Bi26  1  0.067257  0.010793  0.674039  1
  Bi  Bi27  1  0.433311  0.488722  0.174374  1
  Bi  Bi28  1  0.067257  0.489207  0.674039  1
  Bi  Bi29  1  0.433311  0.011278  0.174374  1
  Bi  Bi30  1  0.932229  0.989578  0.325846  1
  Bi  Bi31  1  0.567241  0.510735  0.825920  1
