# generated using pymatgen
data_Y5Bi2Rh
_symmetry_space_group_name_H-M   'P 1'
_cell_length_a   8.05352400
_cell_length_b   9.03528900
_cell_length_c   12.48933500
_cell_angle_alpha   90.00000000
_cell_angle_beta   90.00000000
_cell_angle_gamma   90.00000000
_symmetry_Int_Tables_number   1
_chemical_formula_structural   Y5Bi2Rh
_chemical_formula_sum   'Y20 Bi8 Rh4'
_cell_volume   908.79791160
_cell_formula_units_Z   4
loop_
 _symmetry_equiv_pos_site_id
 _symmetry_equiv_pos_as_xyz
  1  'x, y, z'
loop_
 _atom_site_type_symbol
 _atom_site_label
 _atom_site_symmetry_multiplicity
 _atom_site_fract_x
 _atom_site_fract_y
 _atom_site_fract_z
 _atom_site_occupancy
  Y  Y0  1  0.841276  0.750000  0.793772  1
  Y  Y1  1  0.158724  0.250000  0.206228  1
  Y  Y2  1  0.341276  0.250000  0.706228  1
  Y  Y3  1  0.658724  0.750000  0.293772  1
  Y  Y4  1  0.374875  0.750000  0.694010  1
  Y  Y5  1  0.625125  0.250000  0.305990  1
  Y  Y6  1  0.874875  0.250000  0.805990  1
  Y  Y7  1  0.125125  0.750000  0.194010  1
  Y  Y8  1  0.953994  0.750000  0.501247  1
  Y  Y9  1  0.046006  0.250000  0.498753  1
  Y  Y10  1  0.453994  0.250000  0.998753  1
  Y  Y11  1  0.546006  0.750000  0.001247  1
  Y  Y12  1  0.678013  0.040845  0.566060  1
  Y  Y13  1  0.321987  0.959155  0.433940  1
  Y  Y14  1  0.178013  0.959155  0.933940  1
  Y  Y15  1  0.321987  0.540845  0.433940  1
  Y  Y16  1  0.821987  0.040845  0.066060  1
  Y  Y17  1  0.678013  0.459155  0.566060  1
  Y  Y18  1  0.821987  0.459155  0.066060  1
  Y  Y19  1  0.178013  0.540845  0.933940  1
  Bi  Bi20  1  0.569290  0.491647  0.826394  1
  Bi  Bi21  1  0.430710  0.508353  0.173606  1
  Bi  Bi22  1  0.069290  0.508353  0.673606  1
  Bi  Bi23  1  0.430710  0.991647  0.173606  1
  Bi  Bi24  1  0.930710  0.491647  0.326394  1
  Bi  Bi25  1  0.569290  0.008353  0.826394  1
  Bi  Bi26  1  0.930710  0.008353  0.326394  1
  Bi  Bi27  1  0.069290  0.991647  0.673606  1
  Rh  Rh28  1  0.570279  0.750000  0.510210  1
  Rh  Rh29  1  0.429721  0.250000  0.489790  1
  Rh  Rh30  1  0.070279  0.250000  0.989790  1
  Rh  Rh31  1  0.929721  0.750000  0.010210  1
