# generated using pymatgen
data_ErBi3(MoO6)2
_symmetry_space_group_name_H-M   'P 1'
_cell_length_a   10.43270711
_cell_length_b   10.43270713
_cell_length_c   5.53514811
_cell_angle_alpha   76.95200105
_cell_angle_beta   76.95200671
_cell_angle_gamma   68.68538759
_symmetry_Int_Tables_number   1
_chemical_formula_structural   ErBi3(MoO6)2
_chemical_formula_sum   'Er2 Bi6 Mo4 O24'
_cell_volume   539.85613314
_cell_formula_units_Z   2
loop_
 _symmetry_equiv_pos_site_id
 _symmetry_equiv_pos_as_xyz
  1  'x, y, z'
loop_
 _atom_site_type_symbol
 _atom_site_label
 _atom_site_symmetry_multiplicity
 _atom_site_fract_x
 _atom_site_fract_y
 _atom_site_fract_z
 _atom_site_occupancy
  Er  Er0  1  0.098305  0.901695  0.750000  1
  Er  Er1  1  0.901695  0.098305  0.250000  1
  Bi  Bi2  1  0.726087  0.957738  0.935564  1
  Bi  Bi3  1  0.273913  0.042262  0.064436  1
  Bi  Bi4  1  0.042262  0.273913  0.564436  1
  Bi  Bi5  1  0.957738  0.726087  0.435564  1
  Bi  Bi6  1  0.660081  0.339919  0.750000  1
  Bi  Bi7  1  0.339919  0.660081  0.250000  1
  Mo  Mo8  1  0.538140  0.798087  0.574027  1
  Mo  Mo9  1  0.461860  0.201913  0.425973  1
  Mo  Mo10  1  0.201913  0.461860  0.925973  1
  Mo  Mo11  1  0.798087  0.538140  0.074027  1
  O  O12  1  0.553323  0.637736  0.777603  1
  O  O13  1  0.446677  0.362264  0.222397  1
  O  O14  1  0.362264  0.446677  0.722397  1
  O  O15  1  0.637736  0.553323  0.277603  1
  O  O16  1  0.892598  0.933544  0.590370  1
  O  O17  1  0.107402  0.066456  0.409630  1
  O  O18  1  0.066456  0.107402  0.909630  1
  O  O19  1  0.933544  0.892598  0.090370  1
  O  O20  1  0.605558  0.168710  0.602706  1
  O  O21  1  0.394442  0.831290  0.397294  1
  O  O22  1  0.831290  0.394442  0.897294  1
  O  O23  1  0.168710  0.605558  0.102706  1
  O  O24  1  0.299912  0.206705  0.635900  1
  O  O25  1  0.700088  0.793295  0.364100  1
  O  O26  1  0.793295  0.700088  0.864100  1
  O  O27  1  0.206705  0.299912  0.135900  1
  O  O28  1  0.736629  0.155605  0.017442  1
  O  O29  1  0.263371  0.844395  0.982558  1
  O  O30  1  0.844395  0.263371  0.482558  1
  O  O31  1  0.155605  0.736629  0.517442  1
  O  O32  1  0.505607  0.929516  0.762364  1
  O  O33  1  0.494393  0.070484  0.237636  1
  O  O34  1  0.070484  0.494393  0.737636  1
  O  O35  1  0.929516  0.505607  0.262364  1
