# generated using pymatgen
data_Y6Ho2Sc12Si15Pb
_symmetry_space_group_name_H-M   'P 1'
_cell_length_a   7.14257667
_cell_length_b   7.42962637
_cell_length_c   14.08436717
_cell_angle_alpha   89.99429482
_cell_angle_beta   89.52727235
_cell_angle_gamma   90.04917454
_symmetry_Int_Tables_number   1
_chemical_formula_structural   Y6Ho2Sc12Si15Pb
_chemical_formula_sum   'Y6 Ho2 Sc12 Si15 Pb1'
_cell_volume   747.38483123
_cell_formula_units_Z   1
loop_
 _symmetry_equiv_pos_site_id
 _symmetry_equiv_pos_as_xyz
  1  'x, y, z'
loop_
 _atom_site_type_symbol
 _atom_site_label
 _atom_site_symmetry_multiplicity
 _atom_site_fract_x
 _atom_site_fract_y
 _atom_site_fract_z
 _atom_site_occupancy
  Y  Y0  1  0.012668  0.175860  0.096757  1
  Y  Y1  1  0.987600  0.824584  0.903940  1
  Y  Y2  1  0.488596  0.676359  0.903794  1
  Y  Y3  1  0.986871  0.832372  0.598515  1
  Y  Y4  1  0.511886  0.323753  0.097036  1
  Y  Y5  1  0.006054  0.168921  0.398746  1
  Ho  Ho6  1  0.514731  0.319226  0.398589  1
  Ho  Ho7  1  0.502865  0.685846  0.600339  1
  Sc  Sc8  1  0.161219  0.502415  0.756577  1
  Sc  Sc9  1  0.838263  0.497871  0.249411  1
  Sc  Sc10  1  0.338893  0.002397  0.249411  1
  Sc  Sc11  1  0.662432  0.997529  0.751401  1
  Sc  Sc12  1  0.342448  0.160305  0.631196  1
  Sc  Sc13  1  0.664950  0.825419  0.372728  1
  Sc  Sc14  1  0.164719  0.684071  0.368916  1
  Sc  Sc15  1  0.669174  0.823068  0.124324  1
  Sc  Sc16  1  0.820641  0.322834  0.626810  1
  Sc  Sc17  1  0.330229  0.175629  0.875239  1
  Sc  Sc18  1  0.830318  0.323339  0.875319  1
  Sc  Sc19  1  0.169429  0.676917  0.125158  1
  Si  Si20  1  0.033799  0.119171  0.751299  1
  Si  Si21  1  0.964598  0.884667  0.247016  1
  Si  Si22  1  0.466717  0.615837  0.248785  1
  Si  Si23  1  0.531207  0.385351  0.751468  1
  Si  Si24  1  0.285493  0.869770  0.751919  1
  Si  Si25  1  0.713413  0.126454  0.247851  1
  Si  Si26  1  0.213375  0.373102  0.249425  1
  Si  Si27  1  0.788672  0.627487  0.751118  1
  Si  Si28  1  0.826007  0.539377  0.458129  1
  Si  Si29  1  0.339303  0.964152  0.459985  1
  Si  Si30  1  0.842931  0.534702  0.039418  1
  Si  Si31  1  0.660352  0.037396  0.538184  1
  Si  Si32  1  0.156556  0.464683  0.961653  1
  Si  Si33  1  0.656496  0.035262  0.960552  1
  Si  Si34  1  0.342790  0.965039  0.039766  1
  Pb  Pb35  1  0.174307  0.458838  0.539231  1
