# generated using pymatgen
data_TcCl3O
_symmetry_space_group_name_H-M   'P 1'
_cell_length_a   11.97539700
_cell_length_b   11.97539700
_cell_length_c   3.72841100
_cell_angle_alpha   90.00000000
_cell_angle_beta   90.00000000
_cell_angle_gamma   90.00000000
_symmetry_Int_Tables_number   1
_chemical_formula_structural   TcCl3O
_chemical_formula_sum   'Tc4 Cl12 O4'
_cell_volume   534.69191854
_cell_formula_units_Z   4
loop_
 _symmetry_equiv_pos_site_id
 _symmetry_equiv_pos_as_xyz
  1  'x, y, z'
loop_
 _atom_site_type_symbol
 _atom_site_label
 _atom_site_symmetry_multiplicity
 _atom_site_fract_x
 _atom_site_fract_y
 _atom_site_fract_z
 _atom_site_occupancy
  Tc  Tc0  1  0.110443  0.110443  0.000000  1
  Tc  Tc1  1  0.610443  0.389557  0.500000  1
  Tc  Tc2  1  0.889557  0.889557  0.000000  1
  Tc  Tc3  1  0.389557  0.610443  0.500000  1
  Cl  Cl4  1  0.901742  0.699366  0.000000  1
  Cl  Cl5  1  0.596635  0.596635  0.500000  1
  Cl  Cl6  1  0.800634  0.401742  0.500000  1
  Cl  Cl7  1  0.096635  0.903365  0.000000  1
  Cl  Cl8  1  0.403365  0.403365  0.500000  1
  Cl  Cl9  1  0.300634  0.098258  0.000000  1
  Cl  Cl10  1  0.098258  0.300634  0.000000  1
  Cl  Cl11  1  0.401742  0.800634  0.500000  1
  Cl  Cl12  1  0.199366  0.598258  0.500000  1
  Cl  Cl13  1  0.598258  0.199366  0.500000  1
  Cl  Cl14  1  0.699366  0.901742  0.000000  1
  Cl  Cl15  1  0.903365  0.096635  0.000000  1
  O  O16  1  0.607677  0.392323  0.000000  1
  O  O17  1  0.107677  0.107677  0.500000  1
  O  O18  1  0.892323  0.892323  0.500000  1
  O  O19  1  0.392323  0.607677  0.000000  1
