# generated using pymatgen
data_Na8Sr4MnV8Fe3O32
_symmetry_space_group_name_H-M   'P 1'
_cell_length_a   5.64822100
_cell_length_b   9.79197709
_cell_length_c   14.00242400
_cell_angle_alpha   89.94156307
_cell_angle_beta   90.00000000
_cell_angle_gamma   90.00000000
_symmetry_Int_Tables_number   1
_chemical_formula_structural   Na8Sr4MnV8Fe3O32
_chemical_formula_sum   'Na8 Sr4 Mn1 V8 Fe3 O32'
_cell_volume   774.43517105
_cell_formula_units_Z   1
loop_
 _symmetry_equiv_pos_site_id
 _symmetry_equiv_pos_as_xyz
  1  'x, y, z'
loop_
 _atom_site_type_symbol
 _atom_site_label
 _atom_site_symmetry_multiplicity
 _atom_site_fract_x
 _atom_site_fract_y
 _atom_site_fract_z
 _atom_site_occupancy
  Na  Na0  1  0.474843  0.817322  0.915645  1
  Na  Na1  1  0.974502  0.681346  0.084665  1
  Na  Na2  1  0.525157  0.182678  0.084355  1
  Na  Na3  1  0.025498  0.318654  0.915335  1
  Na  Na4  1  0.519813  0.149204  0.584976  1
  Na  Na5  1  0.019503  0.350116  0.414689  1
  Na  Na6  1  0.480187  0.850796  0.415024  1
  Na  Na7  1  0.980497  0.649884  0.585311  1
  Sr  Sr8  1  0.562533  0.460124  0.750828  1
  Sr  Sr9  1  0.064194  0.039854  0.250154  1
  Sr  Sr10  1  0.437467  0.539876  0.249172  1
  Sr  Sr11  1  0.935806  0.960146  0.749846  1
  Mn  Mn12  1  0.000000  0.000000  0.000000  1
  V  V13  1  0.465795  0.817259  0.636209  1
  V  V14  1  0.965416  0.682571  0.364139  1
  V  V15  1  0.534205  0.182741  0.363791  1
  V  V16  1  0.034584  0.317429  0.635861  1
  V  V17  1  0.479122  0.149095  0.863541  1
  V  V18  1  0.981699  0.352559  0.135297  1
  V  V19  1  0.520878  0.850905  0.136459  1
  V  V20  1  0.018301  0.647441  0.864703  1
  Fe  Fe21  1  0.500000  0.500000  0.500000  1
  Fe  Fe22  1  0.000000  0.000000  0.500000  1
  Fe  Fe23  1  0.500000  0.500000  0.000000  1
  O  O24  1  0.496063  0.640073  0.618295  1
  O  O25  1  0.994571  0.860105  0.382836  1
  O  O26  1  0.503937  0.359927  0.381705  1
  O  O27  1  0.005429  0.139895  0.617164  1
  O  O28  1  0.686001  0.907024  0.574097  1
  O  O29  1  0.185777  0.593130  0.426006  1
  O  O30  1  0.313999  0.092976  0.425903  1
  O  O31  1  0.814223  0.406870  0.573994  1
  O  O32  1  0.190993  0.082225  0.876244  1
  O  O33  1  0.695429  0.420139  0.122180  1
  O  O34  1  0.809007  0.917775  0.123756  1
  O  O35  1  0.304571  0.579861  0.877820  1
  O  O36  1  0.690192  0.038428  0.913421  1
  O  O37  1  0.195625  0.461612  0.083867  1
  O  O38  1  0.309808  0.961572  0.086579  1
  O  O39  1  0.804375  0.538388  0.916133  1
  O  O40  1  0.484823  0.303578  0.926252  1
  O  O41  1  0.985528  0.197270  0.073351  1
  O  O42  1  0.515177  0.696422  0.073748  1
  O  O43  1  0.014472  0.802730  0.926649  1
  O  O44  1  0.190251  0.870318  0.591460  1
  O  O45  1  0.690246  0.628930  0.409449  1
  O  O46  1  0.809749  0.129682  0.408540  1
  O  O47  1  0.309754  0.371070  0.590551  1
  O  O48  1  0.488173  0.862559  0.754047  1
  O  O49  1  0.987539  0.637293  0.246258  1
  O  O50  1  0.511827  0.137441  0.245953  1
  O  O51  1  0.012461  0.362707  0.753742  1
  O  O52  1  0.555166  0.186709  0.747522  1
  O  O53  1  0.055035  0.315598  0.251399  1
  O  O54  1  0.444834  0.813291  0.252478  1
  O  O55  1  0.944965  0.684402  0.748601  1
