# generated using pymatgen
data_Nd2B4RuRh4
_symmetry_space_group_name_H-M   'P 1'
_cell_length_a   7.55725065
_cell_length_b   6.36834629
_cell_length_c   5.65134335
_cell_angle_alpha   77.66115455
_cell_angle_beta   55.40794355
_cell_angle_gamma   46.93090249
_symmetry_Int_Tables_number   1
_chemical_formula_structural   Nd2B4RuRh4
_chemical_formula_sum   'Nd2 B4 Ru1 Rh4'
_cell_volume   156.57053047
_cell_formula_units_Z   1
loop_
 _symmetry_equiv_pos_site_id
 _symmetry_equiv_pos_as_xyz
  1  'x, y, z'
loop_
 _atom_site_type_symbol
 _atom_site_label
 _atom_site_symmetry_multiplicity
 _atom_site_fract_x
 _atom_site_fract_y
 _atom_site_fract_z
 _atom_site_occupancy
  Nd  Nd0  1  0.856859  0.856859  0.143141  1
  Nd  Nd1  1  0.143141  0.143141  0.856859  1
  B  B2  1  0.786348  0.476611  0.536316  1
  B  B3  1  0.200725  0.536316  0.476611  1
  B  B4  1  0.536316  0.200725  0.786348  1
  B  B5  1  0.476611  0.786348  0.200725  1
  Ru  Ru6  1  0.750000  0.750000  0.750000  1
  Rh  Rh7  1  0.500000  0.500000  0.500000  1
  Rh  Rh8  1  0.498911  0.498911  0.001089  1
  Rh  Rh9  1  0.001089  0.001089  0.498911  1
  Rh  Rh10  1  0.250000  0.250000  0.250000  1
