# generated using pymatgen
data_Ce6Ta4Al12Os7
_symmetry_space_group_name_H-M   'P 1'
_cell_length_a   9.03284901
_cell_length_b   9.03284933
_cell_length_c   9.03285000
_cell_angle_alpha   60.00000487
_cell_angle_beta   60.00000369
_cell_angle_gamma   60.00000364
_symmetry_Int_Tables_number   1
_chemical_formula_structural   Ce6Ta4Al12Os7
_chemical_formula_sum   'Ce6 Ta4 Al12 Os7'
_cell_volume   521.14593842
_cell_formula_units_Z   1
loop_
 _symmetry_equiv_pos_site_id
 _symmetry_equiv_pos_as_xyz
  1  'x, y, z'
loop_
 _atom_site_type_symbol
 _atom_site_label
 _atom_site_symmetry_multiplicity
 _atom_site_fract_x
 _atom_site_fract_y
 _atom_site_fract_z
 _atom_site_occupancy
  Ce  Ce0  1  0.691562  0.691562  0.308438  1
  Ce  Ce1  1  0.308438  0.691562  0.308438  1
  Ce  Ce2  1  0.691562  0.308438  0.308438  1
  Ce  Ce3  1  0.308438  0.308438  0.691562  1
  Ce  Ce4  1  0.691562  0.308438  0.691562  1
  Ce  Ce5  1  0.308438  0.691562  0.691562  1
  Ta  Ta6  1  0.880122  0.880122  0.359631  1
  Ta  Ta7  1  0.880122  0.359631  0.880122  1
  Ta  Ta8  1  0.359631  0.880122  0.880122  1
  Ta  Ta9  1  0.880122  0.880122  0.880122  1
  Al  Al10  1  0.119417  0.119417  0.641750  1
  Al  Al11  1  0.119417  0.641750  0.119417  1
  Al  Al12  1  0.641750  0.119417  0.119417  1
  Al  Al13  1  0.119417  0.119417  0.119417  1
  Al  Al14  1  0.667786  0.667786  0.996645  1
  Al  Al15  1  0.667786  0.996645  0.667786  1
  Al  Al16  1  0.996645  0.667786  0.667786  1
  Al  Al17  1  0.667786  0.667786  0.667786  1
  Al  Al18  1  0.328582  0.328582  0.014254  1
  Al  Al19  1  0.328582  0.014254  0.328582  1
  Al  Al20  1  0.014254  0.328582  0.328582  1
  Al  Al21  1  0.328582  0.328582  0.328582  1
  Os  Os22  1  0.000000  0.000000  0.000000  1
  Os  Os23  1  0.996387  0.996387  0.503613  1
  Os  Os24  1  0.503613  0.996387  0.503613  1
  Os  Os25  1  0.996387  0.503613  0.503613  1
  Os  Os26  1  0.503613  0.503613  0.996387  1
  Os  Os27  1  0.996387  0.503613  0.996387  1
  Os  Os28  1  0.503613  0.996387  0.996387  1
