# generated using pymatgen
data_SmLu2Cu3(Ni5B)2
_symmetry_space_group_name_H-M   'P 1'
_cell_length_a   4.96103000
_cell_length_b   4.96103049
_cell_length_c   10.88601100
_cell_angle_alpha   90.00000000
_cell_angle_beta   90.00000000
_cell_angle_gamma   120.00001005
_symmetry_Int_Tables_number   1
_chemical_formula_structural   SmLu2Cu3(Ni5B)2
_chemical_formula_sum   'Sm1 Lu2 Cu3 Ni10 B2'
_cell_volume   232.02944764
_cell_formula_units_Z   1
loop_
 _symmetry_equiv_pos_site_id
 _symmetry_equiv_pos_as_xyz
  1  'x, y, z'
loop_
 _atom_site_type_symbol
 _atom_site_label
 _atom_site_symmetry_multiplicity
 _atom_site_fract_x
 _atom_site_fract_y
 _atom_site_fract_z
 _atom_site_occupancy
  Sm  Sm0  1  0.000000  0.000000  0.329787  1
  Lu  Lu1  1  0.000000  0.000000  0.998598  1
  Lu  Lu2  1  0.000000  0.000000  0.667418  1
  Cu  Cu3  1  0.666667  0.333333  0.683174  1
  Cu  Cu4  1  0.333333  0.666667  0.683450  1
  Cu  Cu5  1  0.333333  0.666667  0.316628  1
  Ni  Ni6  1  0.500392  0.499608  0.500835  1
  Ni  Ni7  1  0.500392  0.000783  0.500835  1
  Ni  Ni8  1  0.999217  0.499608  0.500835  1
  Ni  Ni9  1  0.666667  0.333333  0.318585  1
  Ni  Ni10  1  0.499926  0.500074  0.870199  1
  Ni  Ni11  1  0.499926  0.999851  0.870199  1
  Ni  Ni12  1  0.000149  0.500074  0.870199  1
  Ni  Ni13  1  0.501002  0.498998  0.129594  1
  Ni  Ni14  1  0.501002  0.002005  0.129594  1
  Ni  Ni15  1  0.997995  0.498998  0.129594  1
  B  B16  1  0.666667  0.333333  0.999809  1
  B  B17  1  0.333333  0.666667  0.000663  1
