# generated using pymatgen
data_La8TbDy11Sn16
_symmetry_space_group_name_H-M   'P 1'
_cell_length_a   8.23615740
_cell_length_b   8.38717082
_cell_length_c   15.83253500
_cell_angle_alpha   89.98593423
_cell_angle_beta   89.98220498
_cell_angle_gamma   89.95518191
_symmetry_Int_Tables_number   1
_chemical_formula_structural   La8TbDy11Sn16
_chemical_formula_sum   'La8 Tb1 Dy11 Sn16'
_cell_volume   1093.68036623
_cell_formula_units_Z   1
loop_
 _symmetry_equiv_pos_site_id
 _symmetry_equiv_pos_as_xyz
  1  'x, y, z'
loop_
 _atom_site_type_symbol
 _atom_site_label
 _atom_site_symmetry_multiplicity
 _atom_site_fract_x
 _atom_site_fract_y
 _atom_site_fract_z
 _atom_site_occupancy
  La  La0  1  0.518351  0.321210  0.902724  1
  La  La1  1  0.018318  0.179147  0.597136  1
  La  La2  1  0.481501  0.678922  0.402634  1
  La  La3  1  0.981993  0.821109  0.097294  1
  La  La4  1  0.481730  0.678835  0.097667  1
  La  La5  1  0.981561  0.821022  0.402719  1
  La  La6  1  0.518518  0.321026  0.597038  1
  La  La7  1  0.018108  0.179348  0.902849  1
  Tb  Tb8  1  0.364075  0.836334  0.877497  1
  Dy  Dy9  1  0.864145  0.663296  0.622618  1
  Dy  Dy10  1  0.636028  0.163383  0.377106  1
  Dy  Dy11  1  0.135889  0.336648  0.123381  1
  Dy  Dy12  1  0.636065  0.163295  0.122893  1
  Dy  Dy13  1  0.136017  0.336703  0.377100  1
  Dy  Dy14  1  0.363947  0.836638  0.622788  1
  Dy  Dy15  1  0.863755  0.663530  0.876909  1
  Dy  Dy16  1  0.196423  0.504108  0.749744  1
  Dy  Dy17  1  0.696641  0.995736  0.749829  1
  Dy  Dy18  1  0.803314  0.495662  0.250021  1
  Dy  Dy19  1  0.303398  0.004360  0.250168  1
  Sn  Sn20  1  0.301120  0.040575  0.043252  1
  Sn  Sn21  1  0.801089  0.459895  0.457191  1
  Sn  Sn22  1  0.698756  0.959949  0.542600  1
  Sn  Sn23  1  0.198063  0.539315  0.957550  1
  Sn  Sn24  1  0.699927  0.960111  0.957453  1
  Sn  Sn25  1  0.199047  0.540071  0.542571  1
  Sn  Sn26  1  0.301106  0.040006  0.457335  1
  Sn  Sn27  1  0.801448  0.459945  0.042640  1
  Sn  Sn28  1  0.562188  0.624234  0.749565  1
  Sn  Sn29  1  0.061850  0.875294  0.749592  1
  Sn  Sn30  1  0.438086  0.374976  0.250132  1
  Sn  Sn31  1  0.937867  0.124826  0.250251  1
  Sn  Sn32  1  0.325880  0.141832  0.749738  1
  Sn  Sn33  1  0.825941  0.358470  0.749875  1
  Sn  Sn34  1  0.673932  0.858517  0.250066  1
  Sn  Sn35  1  0.173921  0.641674  0.250078  1
