# generated using pymatgen
data_Y3ZnPd5
_symmetry_space_group_name_H-M   'P 1'
_cell_length_a   8.23159301
_cell_length_b   8.23159266
_cell_length_c   13.14546800
_cell_angle_alpha   90.00000000
_cell_angle_beta   90.00000000
_cell_angle_gamma   127.45104989
_symmetry_Int_Tables_number   1
_chemical_formula_structural   Y3ZnPd5
_chemical_formula_sum   'Y12 Zn4 Pd20'
_cell_volume   707.12293236
_cell_formula_units_Z   4
loop_
 _symmetry_equiv_pos_site_id
 _symmetry_equiv_pos_as_xyz
  1  'x, y, z'
loop_
 _atom_site_type_symbol
 _atom_site_label
 _atom_site_symmetry_multiplicity
 _atom_site_fract_x
 _atom_site_fract_y
 _atom_site_fract_z
 _atom_site_occupancy
  Y  Y0  1  0.927887  0.072113  0.250000  1
  Y  Y1  1  0.072113  0.927887  0.750000  1
  Y  Y2  1  0.320725  0.679275  0.250000  1
  Y  Y3  1  0.679275  0.320725  0.750000  1
  Y  Y4  1  0.629770  0.370230  0.462597  1
  Y  Y5  1  0.370230  0.629770  0.537403  1
  Y  Y6  1  0.629770  0.370230  0.037403  1
  Y  Y7  1  0.370230  0.629770  0.962597  1
  Y  Y8  1  0.879522  0.120478  0.947520  1
  Y  Y9  1  0.120478  0.879522  0.052480  1
  Y  Y10  1  0.879522  0.120478  0.552480  1
  Y  Y11  1  0.120478  0.879522  0.447520  1
  Zn  Zn12  1  0.722767  0.277233  0.250000  1
  Zn  Zn13  1  0.277233  0.722767  0.750000  1
  Zn  Zn14  1  0.531536  0.468464  0.250000  1
  Zn  Zn15  1  0.468464  0.531536  0.750000  1
  Pd  Pd16  1  0.323722  0.070084  0.250000  1
  Pd  Pd17  1  0.070084  0.323722  0.750000  1
  Pd  Pd18  1  0.676278  0.929916  0.750000  1
  Pd  Pd19  1  0.929916  0.676278  0.250000  1
  Pd  Pd20  1  0.565403  0.000420  0.395944  1
  Pd  Pd21  1  0.000420  0.565403  0.604056  1
  Pd  Pd22  1  0.565403  0.000420  0.104056  1
  Pd  Pd23  1  0.000420  0.565403  0.895944  1
  Pd  Pd24  1  0.434597  0.999580  0.604056  1
  Pd  Pd25  1  0.999580  0.434597  0.395944  1
  Pd  Pd26  1  0.434597  0.999580  0.895944  1
  Pd  Pd27  1  0.999580  0.434597  0.104056  1
  Pd  Pd28  1  0.692256  0.747047  0.393415  1
  Pd  Pd29  1  0.747047  0.692256  0.606585  1
  Pd  Pd30  1  0.692256  0.747047  0.106585  1
  Pd  Pd31  1  0.747047  0.692256  0.893415  1
  Pd  Pd32  1  0.307744  0.252953  0.606585  1
  Pd  Pd33  1  0.252953  0.307744  0.393415  1
  Pd  Pd34  1  0.307744  0.252953  0.893415  1
  Pd  Pd35  1  0.252953  0.307744  0.106585  1
