# generated using pymatgen
data_Er9Mg(Ni2Pd)2
_symmetry_space_group_name_H-M   'P 1'
_cell_length_a   8.38237378
_cell_length_b   8.38237459
_cell_length_c   8.38237454
_cell_angle_alpha   128.15492813
_cell_angle_beta   128.15492756
_cell_angle_gamma   76.37418571
_symmetry_Int_Tables_number   1
_chemical_formula_structural   Er9Mg(Ni2Pd)2
_chemical_formula_sum   'Er9 Mg1 Ni4 Pd2'
_cell_volume   353.87804837
_cell_formula_units_Z   1
loop_
 _symmetry_equiv_pos_site_id
 _symmetry_equiv_pos_as_xyz
  1  'x, y, z'
loop_
 _atom_site_type_symbol
 _atom_site_label
 _atom_site_symmetry_multiplicity
 _atom_site_fract_x
 _atom_site_fract_y
 _atom_site_fract_z
 _atom_site_occupancy
  Er  Er0  1  0.500000  0.500000  0.000000  1
  Er  Er1  1  0.816133  0.293384  0.836149  1
  Er  Er2  1  0.183867  0.706616  0.163851  1
  Er  Er3  1  0.457235  0.979983  0.163851  1
  Er  Er4  1  0.293384  0.457235  0.477251  1
  Er  Er5  1  0.020017  0.183867  0.477251  1
  Er  Er6  1  0.542765  0.020017  0.836149  1
  Er  Er7  1  0.706616  0.542765  0.522749  1
  Er  Er8  1  0.979983  0.816133  0.522749  1
  Mg  Mg9  1  0.000000  0.000000  0.000000  1
  Ni  Ni10  1  0.128305  0.623493  0.751798  1
  Ni  Ni11  1  0.871695  0.376507  0.248202  1
  Ni  Ni12  1  0.623493  0.871695  0.495189  1
  Ni  Ni13  1  0.376507  0.128305  0.504811  1
  Pd  Pd14  1  0.255072  0.255072  0.000000  1
  Pd  Pd15  1  0.744928  0.744928  0.000000  1
