# generated using pymatgen
data_Yb3Ag(Pt2O7)2
_symmetry_space_group_name_H-M   'P 1'
_cell_length_a   7.16646432
_cell_length_b   7.16646488
_cell_length_c   7.16646353
_cell_angle_alpha   61.10925555
_cell_angle_beta   61.10925343
_cell_angle_gamma   61.10925795
_symmetry_Int_Tables_number   1
_chemical_formula_structural   Yb3Ag(Pt2O7)2
_chemical_formula_sum   'Yb3 Ag1 Pt4 O14'
_cell_volume   266.75331741
_cell_formula_units_Z   1
loop_
 _symmetry_equiv_pos_site_id
 _symmetry_equiv_pos_as_xyz
  1  'x, y, z'
loop_
 _atom_site_type_symbol
 _atom_site_label
 _atom_site_symmetry_multiplicity
 _atom_site_fract_x
 _atom_site_fract_y
 _atom_site_fract_z
 _atom_site_occupancy
  Yb  Yb0  1  0.625000  0.625000  0.125000  1
  Yb  Yb1  1  0.625000  0.125000  0.625000  1
  Yb  Yb2  1  0.125000  0.625000  0.625000  1
  Ag  Ag3  1  0.625000  0.625000  0.625000  1
  Pt  Pt4  1  0.125000  0.125000  0.625000  1
  Pt  Pt5  1  0.125000  0.625000  0.125000  1
  Pt  Pt6  1  0.625000  0.125000  0.125000  1
  Pt  Pt7  1  0.125000  0.125000  0.125000  1
  O  O8  1  0.508827  0.508827  0.508827  1
  O  O9  1  0.741173  0.741173  0.741173  1
  O  O10  1  0.455370  0.045427  0.455370  1
  O  O11  1  0.210672  0.791013  0.210672  1
  O  O12  1  0.455370  0.455370  0.045427  1
  O  O13  1  0.045427  0.455370  0.455370  1
  O  O14  1  0.458987  0.039328  0.039328  1
  O  O15  1  0.039328  0.039328  0.458987  1
  O  O16  1  0.039328  0.458987  0.039328  1
  O  O17  1  0.791013  0.210672  0.210672  1
  O  O18  1  0.204573  0.794630  0.794630  1
  O  O19  1  0.794630  0.204573  0.794630  1
  O  O20  1  0.210672  0.210672  0.791013  1
  O  O21  1  0.794630  0.794630  0.204573  1
