# generated using pymatgen
data_Tb4Pt3RhF28
_symmetry_space_group_name_H-M   'P 1'
_cell_length_a   5.59772317
_cell_length_b   8.91713135
_cell_length_c   11.97952087
_cell_angle_alpha   62.61000916
_cell_angle_beta   90.13020115
_cell_angle_gamma   90.11823675
_symmetry_Int_Tables_number   1
_chemical_formula_structural   Tb4Pt3RhF28
_chemical_formula_sum   'Tb4 Pt3 Rh1 F28'
_cell_volume   530.92919474
_cell_formula_units_Z   1
loop_
 _symmetry_equiv_pos_site_id
 _symmetry_equiv_pos_as_xyz
  1  'x, y, z'
loop_
 _atom_site_type_symbol
 _atom_site_label
 _atom_site_symmetry_multiplicity
 _atom_site_fract_x
 _atom_site_fract_y
 _atom_site_fract_z
 _atom_site_occupancy
  Tb  Tb0  1  0.261522  0.812195  0.263971  1
  Tb  Tb1  1  0.739797  0.186707  0.734650  1
  Tb  Tb2  1  0.761498  0.185436  0.235624  1
  Tb  Tb3  1  0.237421  0.812879  0.766210  1
  Pt  Pt4  1  0.242850  0.272400  0.957085  1
  Pt  Pt5  1  0.257848  0.272198  0.456584  1
  Pt  Pt6  1  0.741570  0.727305  0.543669  1
  Rh  Rh7  1  0.757289  0.726954  0.043586  1
  F  F8  1  0.936900  0.703638  0.416359  1
  F  F9  1  0.062409  0.296491  0.583599  1
  F  F10  1  0.440428  0.297494  0.083215  1
  F  F11  1  0.558762  0.707038  0.918530  1
  F  F12  1  0.470197  0.728202  0.137756  1
  F  F13  1  0.533138  0.270347  0.865549  1
  F  F14  1  0.967506  0.273427  0.363655  1
  F  F15  1  0.031831  0.726320  0.636666  1
  F  F16  1  0.951748  0.746284  0.171432  1
  F  F17  1  0.050406  0.252436  0.826763  1
  F  F18  1  0.448546  0.254294  0.325100  1
  F  F19  1  0.551323  0.745836  0.675184  1
  F  F20  1  0.769460  0.483278  0.140950  1
  F  F21  1  0.233799  0.519711  0.858044  1
  F  F22  1  0.269327  0.519656  0.358353  1
  F  F23  1  0.728126  0.479477  0.642302  1
  F  F24  1  0.946223  0.282443  0.042173  1
  F  F25  1  0.052179  0.720165  0.955075  1
  F  F26  1  0.444381  0.720004  0.457652  1
  F  F27  1  0.555477  0.279862  0.542058  1
  F  F28  1  0.745150  0.975062  0.450112  1
  F  F29  1  0.256057  0.024694  0.550026  1
  F  F30  1  0.242480  0.024961  0.049790  1
  F  F31  1  0.754850  0.969795  0.950843  1
  F  F32  1  0.582810  0.971187  0.232082  1
  F  F33  1  0.417202  0.030001  0.768007  1
  F  F34  1  0.083583  0.029828  0.266806  1
  F  F35  1  0.915908  0.971994  0.730537  1
