# generated using pymatgen
data_Nd8Se5S7
_symmetry_space_group_name_H-M   'P 1'
_cell_length_a   4.08308500
_cell_length_b   7.68093631
_cell_length_c   15.98381665
_cell_angle_alpha   90.03256487
_cell_angle_beta   90.00000000
_cell_angle_gamma   90.00000000
_symmetry_Int_Tables_number   1
_chemical_formula_structural   Nd8Se5S7
_chemical_formula_sum   'Nd8 Se5 S7'
_cell_volume   501.28303137
_cell_formula_units_Z   1
loop_
 _symmetry_equiv_pos_site_id
 _symmetry_equiv_pos_as_xyz
  1  'x, y, z'
loop_
 _atom_site_type_symbol
 _atom_site_label
 _atom_site_symmetry_multiplicity
 _atom_site_fract_x
 _atom_site_fract_y
 _atom_site_fract_z
 _atom_site_occupancy
  Nd  Nd0  1  0.750000  0.245949  0.539819  1
  Nd  Nd1  1  0.250000  0.752264  0.456157  1
  Nd  Nd2  1  0.750000  0.746034  0.957600  1
  Nd  Nd3  1  0.250000  0.252724  0.044131  1
  Nd  Nd4  1  0.250000  0.135737  0.798830  1
  Nd  Nd5  1  0.750000  0.857076  0.205321  1
  Nd  Nd6  1  0.250000  0.650109  0.703636  1
  Nd  Nd7  1  0.750000  0.357402  0.293732  1
  Se  Se8  1  0.250000  0.007583  0.609311  1
  Se  Se9  1  0.750000  0.992208  0.389127  1
  Se  Se10  1  0.250000  0.507885  0.891177  1
  Se  Se11  1  0.750000  0.492424  0.110403  1
  Se  Se12  1  0.750000  0.355943  0.718823  1
  S  S13  1  0.250000  0.646661  0.281957  1
  S  S14  1  0.750000  0.854156  0.782925  1
  S  S15  1  0.250000  0.146431  0.217886  1
  S  S16  1  0.250000  0.375018  0.430308  1
  S  S17  1  0.750000  0.625305  0.566831  1
  S  S18  1  0.250000  0.875202  0.068851  1
  S  S19  1  0.750000  0.123890  0.933176  1
