# generated using pymatgen
data_Tm16CdIn3Rh4
_symmetry_space_group_name_H-M   'P 1'
_cell_length_a   9.52648054
_cell_length_b   9.52648041
_cell_length_c   9.52648008
_cell_angle_alpha   59.98775209
_cell_angle_beta   59.98775348
_cell_angle_gamma   59.98775846
_symmetry_Int_Tables_number   1
_chemical_formula_structural   Tm16CdIn3Rh4
_chemical_formula_sum   'Tm16 Cd1 In3 Rh4'
_cell_volume   611.16972036
_cell_formula_units_Z   1
loop_
 _symmetry_equiv_pos_site_id
 _symmetry_equiv_pos_as_xyz
  1  'x, y, z'
loop_
 _atom_site_type_symbol
 _atom_site_label
 _atom_site_symmetry_multiplicity
 _atom_site_fract_x
 _atom_site_fract_y
 _atom_site_fract_z
 _atom_site_occupancy
  Tm  Tm0  1  0.061646  0.061646  0.438025  1
  Tm  Tm1  1  0.436492  0.064753  0.436492  1
  Tm  Tm2  1  0.061646  0.438025  0.061646  1
  Tm  Tm3  1  0.050516  0.648604  0.648604  1
  Tm  Tm4  1  0.436492  0.436492  0.064753  1
  Tm  Tm5  1  0.648604  0.050516  0.648604  1
  Tm  Tm6  1  0.188529  0.812857  0.188529  1
  Tm  Tm7  1  0.188529  0.188529  0.812857  1
  Tm  Tm8  1  0.810134  0.810134  0.191094  1
  Tm  Tm9  1  0.438025  0.061646  0.061646  1
  Tm  Tm10  1  0.812857  0.188529  0.188529  1
  Tm  Tm11  1  0.064753  0.436492  0.436492  1
  Tm  Tm12  1  0.810134  0.191094  0.810134  1
  Tm  Tm13  1  0.191094  0.810134  0.810134  1
  Tm  Tm14  1  0.648604  0.648604  0.050516  1
  Tm  Tm15  1  0.651456  0.651456  0.651456  1
  Cd  Cd16  1  0.417462  0.417462  0.417462  1
  In  In17  1  0.748254  0.417162  0.417162  1
  In  In18  1  0.417162  0.748254  0.417162  1
  In  In19  1  0.417162  0.417162  0.748254  1
  Rh  Rh20  1  0.858195  0.858195  0.427134  1
  Rh  Rh21  1  0.856926  0.856926  0.856926  1
  Rh  Rh22  1  0.427134  0.858195  0.858195  1
  Rh  Rh23  1  0.858195  0.427134  0.858195  1
