# generated using pymatgen
data_Lu4Sn4Sb2Rh7
_symmetry_space_group_name_H-M   'P 1'
_cell_length_a   7.54317395
_cell_length_b   7.54660375
_cell_length_c   7.54317428
_cell_angle_alpha   109.53761882
_cell_angle_beta   109.32004274
_cell_angle_gamma   109.53762847
_symmetry_Int_Tables_number   1
_chemical_formula_structural   Lu4Sn4Sb2Rh7
_chemical_formula_sum   'Lu4 Sn4 Sb2 Rh7'
_cell_volume   330.62431202
_cell_formula_units_Z   1
loop_
 _symmetry_equiv_pos_site_id
 _symmetry_equiv_pos_as_xyz
  1  'x, y, z'
loop_
 _atom_site_type_symbol
 _atom_site_label
 _atom_site_symmetry_multiplicity
 _atom_site_fract_x
 _atom_site_fract_y
 _atom_site_fract_z
 _atom_site_occupancy
  Lu  Lu0  1  0.498615  0.997229  0.998615  1
  Lu  Lu1  1  0.998511  0.492005  0.998511  1
  Lu  Lu2  1  0.998615  0.997229  0.498615  1
  Lu  Lu3  1  0.493495  0.492005  0.493495  1
  Sn  Sn4  1  0.311960  0.994355  0.311960  1
  Sn  Sn5  1  0.997034  0.689289  0.692256  1
  Sn  Sn6  1  0.692256  0.689289  0.997034  1
  Sn  Sn7  1  0.682395  0.994355  0.682395  1
  Sb  Sb8  1  0.997541  0.317624  0.320083  1
  Sb  Sb9  1  0.320083  0.317624  0.997541  1
  Rh  Rh10  1  0.251202  0.502404  0.751202  1
  Rh  Rh11  1  0.501254  0.250541  0.749287  1
  Rh  Rh12  1  0.749287  0.250541  0.501254  1
  Rh  Rh13  1  0.501363  0.748494  0.247132  1
  Rh  Rh14  1  0.008057  0.016114  0.008057  1
  Rh  Rh15  1  0.247132  0.748494  0.501363  1
  Rh  Rh16  1  0.751202  0.502404  0.251202  1
