# generated using pymatgen
data_Tm4Cr5MoO24
_symmetry_space_group_name_H-M   'P 1'
_cell_length_a   9.96767168
_cell_length_b   9.90643580
_cell_length_c   9.90643600
_cell_angle_alpha   58.26399276
_cell_angle_beta   57.94479767
_cell_angle_gamma   57.94480810
_symmetry_Int_Tables_number   1
_chemical_formula_structural   Tm4Cr5MoO24
_chemical_formula_sum   'Tm4 Cr5 Mo1 O24'
_cell_volume   660.76639338
_cell_formula_units_Z   1
loop_
 _symmetry_equiv_pos_site_id
 _symmetry_equiv_pos_as_xyz
  1  'x, y, z'
loop_
 _atom_site_type_symbol
 _atom_site_label
 _atom_site_symmetry_multiplicity
 _atom_site_fract_x
 _atom_site_fract_y
 _atom_site_fract_z
 _atom_site_occupancy
  Tm  Tm0  1  0.640612  0.636589  0.642370  1
  Tm  Tm1  1  0.349132  0.365364  0.358227  1
  Tm  Tm2  1  0.150868  0.141773  0.134636  1
  Tm  Tm3  1  0.859388  0.857630  0.863411  1
  Cr  Cr4  1  0.962773  0.532228  0.253136  1
  Cr  Cr5  1  0.537227  0.246864  0.967773  1
  Cr  Cr6  1  0.470504  0.748273  0.031880  1
  Cr  Cr7  1  0.029496  0.468120  0.751727  1
  Cr  Cr8  1  0.250000  0.966862  0.533138  1
  Mo  Mo9  1  0.750000  0.036290  0.463710  1
  O  O10  1  0.931663  0.064634  0.278905  1
  O  O11  1  0.777961  0.004117  0.643585  1
  O  O12  1  0.005790  0.366552  0.215280  1
  O  O13  1  0.710480  0.076846  0.949192  1
  O  O14  1  0.568337  0.221095  0.435366  1
  O  O15  1  0.863439  0.497282  0.725833  1
  O  O16  1  0.494210  0.284720  0.133448  1
  O  O17  1  0.789520  0.550808  0.423154  1
  O  O18  1  0.932969  0.706902  0.088090  1
  O  O19  1  0.567031  0.411910  0.793098  1
  O  O20  1  0.376997  0.214492  0.993579  1
  O  O21  1  0.276779  0.134425  0.501418  1
  O  O22  1  0.722039  0.856415  0.495883  1
  O  O23  1  0.636561  0.774167  0.002718  1
  O  O24  1  0.435593  0.583385  0.205206  1
  O  O25  1  0.064407  0.294794  0.916615  1
  O  O26  1  0.198813  0.446233  0.579295  1
  O  O27  1  0.503560  0.717808  0.865696  1
  O  O28  1  0.123003  0.506421  0.285508  1
  O  O29  1  0.418854  0.795037  0.561630  1
  O  O30  1  0.301187  0.920705  0.053767  1
  O  O31  1  0.996440  0.634304  0.782192  1
  O  O32  1  0.223221  0.998582  0.365575  1
  O  O33  1  0.081146  0.938370  0.704963  1
