# generated using pymatgen
data_ErCuP3Rh4
_symmetry_space_group_name_H-M   'P 1'
_cell_length_a   3.95122700
_cell_length_b   10.72759000
_cell_length_c   12.64495600
_cell_angle_alpha   90.00000000
_cell_angle_beta   90.00000000
_cell_angle_gamma   90.00000000
_symmetry_Int_Tables_number   1
_chemical_formula_structural   ErCuP3Rh4
_chemical_formula_sum   'Er4 Cu4 P12 Rh16'
_cell_volume   535.98356140
_cell_formula_units_Z   4
loop_
 _symmetry_equiv_pos_site_id
 _symmetry_equiv_pos_as_xyz
  1  'x, y, z'
loop_
 _atom_site_type_symbol
 _atom_site_label
 _atom_site_symmetry_multiplicity
 _atom_site_fract_x
 _atom_site_fract_y
 _atom_site_fract_z
 _atom_site_occupancy
  Er  Er0  1  0.250000  0.570558  0.702138  1
  Er  Er1  1  0.250000  0.929442  0.202138  1
  Er  Er2  1  0.750000  0.429442  0.297862  1
  Er  Er3  1  0.750000  0.070558  0.797862  1
  Cu  Cu4  1  0.250000  0.720124  0.993679  1
  Cu  Cu5  1  0.250000  0.779876  0.493679  1
  Cu  Cu6  1  0.750000  0.279876  0.006321  1
  Cu  Cu7  1  0.750000  0.220124  0.506321  1
  P  P8  1  0.250000  0.433564  0.118846  1
  P  P9  1  0.250000  0.066436  0.618846  1
  P  P10  1  0.750000  0.566436  0.881154  1
  P  P11  1  0.750000  0.933564  0.381154  1
  P  P12  1  0.250000  0.257127  0.856206  1
  P  P13  1  0.250000  0.242873  0.356206  1
  P  P14  1  0.750000  0.742873  0.143794  1
  P  P15  1  0.750000  0.757127  0.643794  1
  P  P16  1  0.250000  0.604666  0.391049  1
  P  P17  1  0.250000  0.895334  0.891049  1
  P  P18  1  0.750000  0.395334  0.608951  1
  P  P19  1  0.750000  0.104666  0.108951  1
  Rh  Rh20  1  0.250000  0.407728  0.474924  1
  Rh  Rh21  1  0.250000  0.092272  0.974924  1
  Rh  Rh22  1  0.750000  0.592272  0.525076  1
  Rh  Rh23  1  0.750000  0.907728  0.025076  1
  Rh  Rh24  1  0.250000  0.234614  0.170604  1
  Rh  Rh25  1  0.250000  0.265386  0.670604  1
  Rh  Rh26  1  0.750000  0.765386  0.829396  1
  Rh  Rh27  1  0.750000  0.734614  0.329396  1
  Rh  Rh28  1  0.250000  0.871532  0.701474  1
  Rh  Rh29  1  0.250000  0.628468  0.201474  1
  Rh  Rh30  1  0.750000  0.128468  0.298526  1
  Rh  Rh31  1  0.750000  0.371532  0.798526  1
  Rh  Rh32  1  0.250000  0.457074  0.934056  1
  Rh  Rh33  1  0.250000  0.042926  0.434056  1
  Rh  Rh34  1  0.750000  0.542926  0.065944  1
  Rh  Rh35  1  0.750000  0.957074  0.565944  1
