# generated using pymatgen
data_LiEu2InPd2
_symmetry_space_group_name_H-M   'P 1'
_cell_length_a   4.43725300
_cell_length_b   7.32281600
_cell_length_c   8.68054500
_cell_angle_alpha   90.00000000
_cell_angle_beta   90.00000000
_cell_angle_gamma   90.00000000
_symmetry_Int_Tables_number   1
_chemical_formula_structural   LiEu2InPd2
_chemical_formula_sum   'Li2 Eu4 In2 Pd4'
_cell_volume   282.05857424
_cell_formula_units_Z   2
loop_
 _symmetry_equiv_pos_site_id
 _symmetry_equiv_pos_as_xyz
  1  'x, y, z'
loop_
 _atom_site_type_symbol
 _atom_site_label
 _atom_site_symmetry_multiplicity
 _atom_site_fract_x
 _atom_site_fract_y
 _atom_site_fract_z
 _atom_site_occupancy
  Li  Li0  1  0.250000  0.126358  0.944523  1
  Li  Li1  1  0.750000  0.373642  0.444523  1
  Eu  Eu2  1  0.250000  0.537311  0.178988  1
  Eu  Eu3  1  0.750000  0.461564  0.819606  1
  Eu  Eu4  1  0.250000  0.038436  0.319606  1
  Eu  Eu5  1  0.750000  0.962689  0.678988  1
  In  In6  1  0.250000  0.635130  0.560105  1
  In  In7  1  0.750000  0.864870  0.060105  1
  Pd  Pd8  1  0.750000  0.240295  0.122918  1
  Pd  Pd9  1  0.250000  0.259705  0.622918  1
  Pd  Pd10  1  0.750000  0.736686  0.373859  1
  Pd  Pd11  1  0.250000  0.763314  0.873859  1
