# generated using pymatgen
data_Li6TaAl5Rh12
_symmetry_space_group_name_H-M   'P 1'
_cell_length_a   4.18297801
_cell_length_b   5.95291301
_cell_length_c   12.57694400
_cell_angle_alpha   90.00028874
_cell_angle_beta   89.99624692
_cell_angle_gamma   89.99764194
_symmetry_Int_Tables_number   1
_chemical_formula_structural   Li6TaAl5Rh12
_chemical_formula_sum   'Li6 Ta1 Al5 Rh12'
_cell_volume   313.17727660
_cell_formula_units_Z   1
loop_
 _symmetry_equiv_pos_site_id
 _symmetry_equiv_pos_as_xyz
  1  'x, y, z'
loop_
 _atom_site_type_symbol
 _atom_site_label
 _atom_site_symmetry_multiplicity
 _atom_site_fract_x
 _atom_site_fract_y
 _atom_site_fract_z
 _atom_site_occupancy
  Li  Li0  1  0.000014  0.999994  0.002035  1
  Li  Li1  1  0.499860  0.500022  0.169129  1
  Li  Li2  1  0.999846  0.999988  0.333354  1
  Li  Li3  1  0.500016  0.499997  0.497508  1
  Li  Li4  1  0.000147  0.999996  0.664643  1
  Li  Li5  1  0.500094  0.500021  0.833380  1
  Ta  Ta6  1  0.500110  0.999988  0.833325  1
  Al  Al7  1  0.000010  0.499993  0.006069  1
  Al  Al8  1  0.499816  0.000002  0.169063  1
  Al  Al9  1  0.999875  0.500000  0.333353  1
  Al  Al10  1  0.500007  0.000007  0.497552  1
  Al  Al11  1  0.000161  0.499995  0.660619  1
  Rh  Rh12  1  0.500014  0.252467  0.001406  1
  Rh  Rh13  1  0.500021  0.747531  0.001410  1
  Rh  Rh14  1  0.999840  0.248142  0.167732  1
  Rh  Rh15  1  0.999869  0.751860  0.167736  1
  Rh  Rh16  1  0.499875  0.250910  0.333310  1
  Rh  Rh17  1  0.499867  0.749109  0.333316  1
  Rh  Rh18  1  0.000002  0.248140  0.498905  1
  Rh  Rh19  1  0.000027  0.751865  0.498892  1
  Rh  Rh20  1  0.500146  0.252511  0.665288  1
  Rh  Rh21  1  0.500148  0.747474  0.665282  1
  Rh  Rh22  1  0.000122  0.259523  0.833343  1
  Rh  Rh23  1  0.000115  0.740471  0.833345  1
