# generated using pymatgen
data_K6Mo2O9
_symmetry_space_group_name_H-M   'P 1'
_cell_length_a   8.46648605
_cell_length_b   8.46648611
_cell_length_c   10.66817800
_cell_angle_alpha   67.93168481
_cell_angle_beta   67.93168465
_cell_angle_gamma   92.94646888
_symmetry_Int_Tables_number   1
_chemical_formula_structural   K6Mo2O9
_chemical_formula_sum   'K12 Mo4 O18'
_cell_volume   640.04289368
_cell_formula_units_Z   2
loop_
 _symmetry_equiv_pos_site_id
 _symmetry_equiv_pos_as_xyz
  1  'x, y, z'
loop_
 _atom_site_type_symbol
 _atom_site_label
 _atom_site_symmetry_multiplicity
 _atom_site_fract_x
 _atom_site_fract_y
 _atom_site_fract_z
 _atom_site_occupancy
  K  K0  1  0.498537  0.692289  0.021000  1
  K  K1  1  0.307711  0.501463  0.479000  1
  K  K2  1  0.501463  0.307711  0.979000  1
  K  K3  1  0.692289  0.498537  0.521000  1
  K  K4  1  0.000481  0.703003  0.027724  1
  K  K5  1  0.296997  0.999519  0.472276  1
  K  K6  1  0.999519  0.296997  0.972276  1
  K  K7  1  0.703003  0.000481  0.527724  1
  K  K8  1  0.092592  0.315348  0.269086  1
  K  K9  1  0.684652  0.907408  0.230914  1
  K  K10  1  0.907408  0.684652  0.730914  1
  K  K11  1  0.315348  0.092592  0.769086  1
  Mo  Mo12  1  0.370805  0.629195  0.750000  1
  Mo  Mo13  1  0.629195  0.370805  0.250000  1
  Mo  Mo14  1  0.148203  0.851797  0.250000  1
  Mo  Mo15  1  0.851797  0.148203  0.750000  1
  O  O16  1  0.092699  0.625065  0.288385  1
  O  O17  1  0.374935  0.907301  0.211615  1
  O  O18  1  0.907301  0.374935  0.711615  1
  O  O19  1  0.625065  0.092699  0.788385  1
  O  O20  1  0.885459  0.014781  0.910524  1
  O  O21  1  0.985219  0.114541  0.589476  1
  O  O22  1  0.114541  0.985219  0.089476  1
  O  O23  1  0.014781  0.885459  0.410524  1
  O  O24  1  0.679051  0.584161  0.255963  1
  O  O25  1  0.415839  0.320949  0.244037  1
  O  O26  1  0.320949  0.415839  0.744037  1
  O  O27  1  0.584161  0.679051  0.755963  1
  O  O28  1  0.518262  0.255953  0.466974  1
  O  O29  1  0.744047  0.481738  0.033026  1
  O  O30  1  0.481738  0.744047  0.533026  1
  O  O31  1  0.255953  0.518262  0.966974  1
  O  O32  1  0.217786  0.782214  0.750000  1
  O  O33  1  0.782214  0.217786  0.250000  1
