# generated using pymatgen
data_TbSm(SeO4)3
_symmetry_space_group_name_H-M   'P 1'
_cell_length_a   10.10852845
_cell_length_b   10.10853831
_cell_length_c   10.10853526
_cell_angle_alpha   57.74808130
_cell_angle_beta   57.74808687
_cell_angle_gamma   57.74807943
_symmetry_Int_Tables_number   1
_chemical_formula_structural   TbSm(SeO4)3
_chemical_formula_sum   'Tb2 Sm2 Se6 O24'
_cell_volume   692.60152236
_cell_formula_units_Z   2
loop_
 _symmetry_equiv_pos_site_id
 _symmetry_equiv_pos_as_xyz
  1  'x, y, z'
loop_
 _atom_site_type_symbol
 _atom_site_label
 _atom_site_symmetry_multiplicity
 _atom_site_fract_x
 _atom_site_fract_y
 _atom_site_fract_z
 _atom_site_occupancy
  Tb  Tb0  1  0.144311  0.144311  0.144311  1
  Tb  Tb1  1  0.855689  0.855689  0.855689  1
  Sm  Sm2  1  0.356376  0.356376  0.356376  1
  Sm  Sm3  1  0.643624  0.643624  0.643624  1
  Se  Se4  1  0.035796  0.463893  0.753217  1
  Se  Se5  1  0.463893  0.753217  0.035796  1
  Se  Se6  1  0.753217  0.035796  0.463892  1
  Se  Se7  1  0.964204  0.536107  0.246783  1
  Se  Se8  1  0.246783  0.964204  0.536108  1
  Se  Se9  1  0.536107  0.246783  0.964204  1
  O  O10  1  0.224720  0.994602  0.369351  1
  O  O11  1  0.369351  0.224720  0.994602  1
  O  O12  1  0.994602  0.369351  0.224720  1
  O  O13  1  0.775280  0.005398  0.630649  1
  O  O14  1  0.630649  0.775280  0.005398  1
  O  O15  1  0.005398  0.630649  0.775280  1
  O  O16  1  0.270336  0.128619  0.509206  1
  O  O17  1  0.509206  0.270336  0.128619  1
  O  O18  1  0.128619  0.509206  0.270336  1
  O  O19  1  0.729664  0.871381  0.490794  1
  O  O20  1  0.064761  0.295525  0.919767  1
  O  O21  1  0.295526  0.919767  0.064761  1
  O  O22  1  0.919766  0.064761  0.295526  1
  O  O23  1  0.935239  0.704475  0.080233  1
  O  O24  1  0.704474  0.080233  0.935239  1
  O  O25  1  0.080234  0.935239  0.704474  1
  O  O26  1  0.204213  0.436854  0.586073  1
  O  O27  1  0.436855  0.586073  0.204213  1
  O  O28  1  0.586073  0.204213  0.436854  1
  O  O29  1  0.795787  0.563146  0.413927  1
  O  O30  1  0.563145  0.413927  0.795787  1
  O  O31  1  0.413927  0.795787  0.563146  1
  O  O32  1  0.871381  0.490794  0.729664  1
  O  O33  1  0.490794  0.729664  0.871381  1
