# generated using pymatgen
data_Sc2MnFeHg4(AsO5)4
_symmetry_space_group_name_H-M   'P 1'
_cell_length_a   6.32214235
_cell_length_b   8.27050927
_cell_length_c   8.60462900
_cell_angle_alpha   90.81636254
_cell_angle_beta   89.23579102
_cell_angle_gamma   91.30152637
_symmetry_Int_Tables_number   1
_chemical_formula_structural   Sc2MnFeHg4(AsO5)4
_chemical_formula_sum   'Sc2 Mn1 Fe1 Hg4 As4 O20'
_cell_volume   449.71328932
_cell_formula_units_Z   1
loop_
 _symmetry_equiv_pos_site_id
 _symmetry_equiv_pos_as_xyz
  1  'x, y, z'
loop_
 _atom_site_type_symbol
 _atom_site_label
 _atom_site_symmetry_multiplicity
 _atom_site_fract_x
 _atom_site_fract_y
 _atom_site_fract_z
 _atom_site_occupancy
  Sc  Sc0  1  0.250510  0.249709  0.499541  1
  Sc  Sc1  1  0.750527  0.250204  0.500454  1
  Mn  Mn2  1  0.749531  0.749746  0.000230  1
  Fe  Fe3  1  0.249593  0.749958  0.999742  1
  Hg  Hg4  1  0.994422  0.823762  0.661585  1
  Hg  Hg5  1  0.501357  0.175566  0.155012  1
  Hg  Hg6  1  0.999162  0.324709  0.844917  1
  Hg  Hg7  1  0.504747  0.676004  0.338460  1
  As  As8  1  0.490710  0.065734  0.792335  1
  As  As9  1  0.000666  0.926129  0.288868  1
  As  As10  1  0.500151  0.573818  0.711096  1
  As  As11  1  0.008218  0.434329  0.207755  1
  O  O12  1  0.486202  0.888471  0.896188  1
  O  O13  1  0.998099  0.109137  0.391654  1
  O  O14  1  0.501970  0.390819  0.608426  1
  O  O15  1  0.013656  0.611548  0.103768  1
  O  O16  1  0.495343  0.229087  0.922460  1
  O  O17  1  0.000183  0.773168  0.424771  1
  O  O18  1  0.507087  0.726839  0.575239  1
  O  O19  1  0.997115  0.271124  0.077588  1
  O  O20  1  0.717454  0.079339  0.682569  1
  O  O21  1  0.774479  0.906865  0.180738  1
  O  O22  1  0.272542  0.587216  0.819727  1
  O  O23  1  0.232757  0.417286  0.314598  1
  O  O24  1  0.267972  0.080916  0.683235  1
  O  O25  1  0.226693  0.914396  0.178303  1
  O  O26  1  0.724723  0.591395  0.821115  1
  O  O27  1  0.783448  0.422633  0.319690  1
  O  O28  1  0.996964  0.846398  0.901205  1
  O  O29  1  0.500264  0.143277  0.389430  1
  O  O30  1  0.002231  0.356845  0.610480  1
  O  O31  1  0.501219  0.653571  0.098822  1
