# generated using pymatgen
data_Sm8Pd14Pt10Pb
_symmetry_space_group_name_H-M   'P 1'
_cell_length_a   8.51142300
_cell_length_b   8.51235100
_cell_length_c   8.51676500
_cell_angle_alpha   90.00000000
_cell_angle_beta   90.00000000
_cell_angle_gamma   89.99947496
_symmetry_Int_Tables_number   1
_chemical_formula_structural   Sm8Pd14Pt10Pb
_chemical_formula_sum   'Sm8 Pd14 Pt10 Pb1'
_cell_volume   617.05853218
_cell_formula_units_Z   1
loop_
 _symmetry_equiv_pos_site_id
 _symmetry_equiv_pos_as_xyz
  1  'x, y, z'
loop_
 _atom_site_type_symbol
 _atom_site_label
 _atom_site_symmetry_multiplicity
 _atom_site_fract_x
 _atom_site_fract_y
 _atom_site_fract_z
 _atom_site_occupancy
  Sm  Sm0  1  0.252467  0.252430  0.252522  1
  Sm  Sm1  1  0.747770  0.747037  0.747231  1
  Sm  Sm2  1  0.747770  0.747037  0.252769  1
  Sm  Sm3  1  0.747504  0.252958  0.747018  1
  Sm  Sm4  1  0.252467  0.252430  0.747478  1
  Sm  Sm5  1  0.252209  0.747562  0.252292  1
  Sm  Sm6  1  0.252209  0.747562  0.747708  1
  Sm  Sm7  1  0.747504  0.252958  0.252982  1
  Pd  Pd8  1  0.500051  0.000114  0.268575  1
  Pd  Pd9  1  0.268372  0.000135  0.500000  1
  Pd  Pd10  1  0.500051  0.000114  0.731425  1
  Pd  Pd11  1  0.731419  0.000135  0.500000  1
  Pd  Pd12  1  0.999951  0.500050  0.267801  1
  Pd  Pd13  1  0.999951  0.500050  0.732199  1
  Pd  Pd14  1  0.500070  0.744378  0.500000  1
  Pd  Pd15  1  0.500058  0.500019  0.255709  1
  Pd  Pd16  1  0.500058  0.500019  0.744291  1
  Pd  Pd17  1  0.681733  0.999950  0.000000  1
  Pd  Pd18  1  0.999798  0.318898  0.000000  1
  Pd  Pd19  1  0.999796  0.681248  0.000000  1
  Pd  Pd20  1  0.999813  0.999955  0.318566  1
  Pd  Pd21  1  0.999813  0.999955  0.681434  1
  Pt  Pt22  1  0.267375  0.500068  0.000000  1
  Pt  Pt23  1  0.732258  0.500064  0.000000  1
  Pt  Pt24  1  0.999963  0.267453  0.500000  1
  Pt  Pt25  1  0.499768  0.267377  0.000000  1
  Pt  Pt26  1  0.999965  0.732356  0.500000  1
  Pt  Pt27  1  0.499791  0.732513  0.000000  1
  Pt  Pt28  1  0.255224  0.499916  0.500000  1
  Pt  Pt29  1  0.744927  0.499941  0.500000  1
  Pt  Pt30  1  0.500086  0.255320  0.500000  1
  Pt  Pt31  1  0.319593  0.999942  0.000000  1
  Pb  Pb32  1  0.000214  0.000057  0.000000  1
