# generated using pymatgen
data_Tb5In4PtRh
_symmetry_space_group_name_H-M   'P 1'
_cell_length_a   3.65288100
_cell_length_b   8.15036998
_cell_length_c   18.32906409
_cell_angle_alpha   90.10063241
_cell_angle_beta   90.00000000
_cell_angle_gamma   90.00000000
_symmetry_Int_Tables_number   1
_chemical_formula_structural   Tb5In4PtRh
_chemical_formula_sum   'Tb10 In8 Pt2 Rh2'
_cell_volume   545.69813299
_cell_formula_units_Z   2
loop_
 _symmetry_equiv_pos_site_id
 _symmetry_equiv_pos_as_xyz
  1  'x, y, z'
loop_
 _atom_site_type_symbol
 _atom_site_label
 _atom_site_symmetry_multiplicity
 _atom_site_fract_x
 _atom_site_fract_y
 _atom_site_fract_z
 _atom_site_occupancy
  Tb  Tb0  1  0.000000  0.115411  0.411877  1
  Tb  Tb1  1  0.000000  0.884589  0.588123  1
  Tb  Tb2  1  0.000000  0.383221  0.913895  1
  Tb  Tb3  1  0.000000  0.616779  0.086105  1
  Tb  Tb4  1  0.000000  0.238847  0.220997  1
  Tb  Tb5  1  0.000000  0.761153  0.779003  1
  Tb  Tb6  1  0.000000  0.250239  0.720222  1
  Tb  Tb7  1  0.000000  0.749761  0.279778  1
  Tb  Tb8  1  0.000000  0.000000  0.000000  1
  Tb  Tb9  1  0.000000  0.500000  0.500000  1
  In  In10  1  0.500000  0.423623  0.350925  1
  In  In11  1  0.500000  0.576377  0.649075  1
  In  In12  1  0.500000  0.073475  0.849944  1
  In  In13  1  0.500000  0.926525  0.150056  1
  In  In14  1  0.500000  0.292131  0.067002  1
  In  In15  1  0.500000  0.707869  0.932998  1
  In  In16  1  0.500000  0.206124  0.568298  1
  In  In17  1  0.500000  0.793876  0.431702  1
  Pt  Pt18  1  0.500000  0.477851  0.803171  1
  Pt  Pt19  1  0.500000  0.522149  0.196829  1
  Rh  Rh20  1  0.500000  0.021721  0.304640  1
  Rh  Rh21  1  0.500000  0.978279  0.695360  1
