# generated using pymatgen
data_K3Li2NbAs3
_symmetry_space_group_name_H-M   'P 1'
_cell_length_a   10.08178842
_cell_length_b   10.08178792
_cell_length_c   15.31594700
_cell_angle_alpha   90.00000000
_cell_angle_beta   90.00000000
_cell_angle_gamma   142.54836096
_symmetry_Int_Tables_number   1
_chemical_formula_structural   K3Li2NbAs3
_chemical_formula_sum   'K12 Li8 Nb4 As12'
_cell_volume   946.64681478
_cell_formula_units_Z   4
loop_
 _symmetry_equiv_pos_site_id
 _symmetry_equiv_pos_as_xyz
  1  'x, y, z'
loop_
 _atom_site_type_symbol
 _atom_site_label
 _atom_site_symmetry_multiplicity
 _atom_site_fract_x
 _atom_site_fract_y
 _atom_site_fract_z
 _atom_site_occupancy
  K  K0  1  0.605576  0.944988  0.828283  1
  K  K1  1  0.281545  0.281545  0.320150  1
  K  K2  1  0.218455  0.218455  0.820150  1
  K  K3  1  0.718455  0.718455  0.679850  1
  K  K4  1  0.444988  0.105576  0.671717  1
  K  K5  1  0.894424  0.555012  0.328283  1
  K  K6  1  0.055012  0.394424  0.171717  1
  K  K7  1  0.394424  0.055012  0.171717  1
  K  K8  1  0.555012  0.894424  0.328283  1
  K  K9  1  0.105576  0.444988  0.671717  1
  K  K10  1  0.944988  0.605576  0.828283  1
  K  K11  1  0.781545  0.781545  0.179850  1
  Li  Li12  1  0.082254  0.917746  0.000000  1
  Li  Li13  1  0.582254  0.417746  0.500000  1
  Li  Li14  1  0.917746  0.082254  0.000000  1
  Li  Li15  1  0.750270  0.249730  0.000000  1
  Li  Li16  1  0.749730  0.250270  0.500000  1
  Li  Li17  1  0.249730  0.750270  0.000000  1
  Li  Li18  1  0.250270  0.749730  0.500000  1
  Li  Li19  1  0.417746  0.582254  0.500000  1
  Nb  Nb20  1  0.083441  0.916559  0.500000  1
  Nb  Nb21  1  0.416559  0.583441  0.000000  1
  Nb  Nb22  1  0.916559  0.083441  0.500000  1
  Nb  Nb23  1  0.583441  0.416559  0.000000  1
  As  As24  1  0.067266  0.388442  0.407563  1
  As  As25  1  0.888442  0.567266  0.092437  1
  As  As26  1  0.432734  0.111558  0.907563  1
  As  As27  1  0.611558  0.932734  0.592437  1
  As  As28  1  0.932734  0.611558  0.592437  1
  As  As29  1  0.111558  0.432734  0.907563  1
  As  As30  1  0.567266  0.888442  0.092437  1
  As  As31  1  0.388442  0.067266  0.407563  1
  As  As32  1  0.228860  0.228860  0.591736  1
  As  As33  1  0.728860  0.728860  0.908264  1
  As  As34  1  0.271140  0.271140  0.091736  1
  As  As35  1  0.771140  0.771140  0.408264  1
