# generated using pymatgen
data_Ce4Tc(AsRu)6
_symmetry_space_group_name_H-M   'P 1'
_cell_length_a   7.30303870
_cell_length_b   7.30303830
_cell_length_c   7.30303900
_cell_angle_alpha   109.47121980
_cell_angle_beta   109.47121869
_cell_angle_gamma   109.47121976
_symmetry_Int_Tables_number   1
_chemical_formula_structural   Ce4Tc(AsRu)6
_chemical_formula_sum   'Ce4 Tc1 As6 Ru6'
_cell_volume   299.83955803
_cell_formula_units_Z   1
loop_
 _symmetry_equiv_pos_site_id
 _symmetry_equiv_pos_as_xyz
  1  'x, y, z'
loop_
 _atom_site_type_symbol
 _atom_site_label
 _atom_site_symmetry_multiplicity
 _atom_site_fract_x
 _atom_site_fract_y
 _atom_site_fract_z
 _atom_site_occupancy
  Ce  Ce0  1  0.000000  0.000000  0.500000  1
  Ce  Ce1  1  0.500000  0.000000  0.000000  1
  Ce  Ce2  1  0.000000  0.500000  0.000000  1
  Ce  Ce3  1  0.500000  0.500000  0.500000  1
  Tc  Tc4  1  0.000000  0.000000  0.000000  1
  As  As5  1  0.316733  0.000000  0.316733  1
  As  As6  1  0.000000  0.316733  0.316733  1
  As  As7  1  0.000000  0.683267  0.683267  1
  As  As8  1  0.316733  0.316733  0.000000  1
  As  As9  1  0.683267  0.683267  0.000000  1
  As  As10  1  0.683267  0.000000  0.683267  1
  Ru  Ru11  1  0.750000  0.500000  0.250000  1
  Ru  Ru12  1  0.500000  0.750000  0.250000  1
  Ru  Ru13  1  0.500000  0.250000  0.750000  1
  Ru  Ru14  1  0.750000  0.250000  0.500000  1
  Ru  Ru15  1  0.250000  0.750000  0.500000  1
  Ru  Ru16  1  0.250000  0.500000  0.750000  1
