# generated using pymatgen
data_Sc5NbH18
_symmetry_space_group_name_H-M   'P 1'
_cell_length_a   5.77150800
_cell_length_b   5.78495265
_cell_length_c   6.05246124
_cell_angle_alpha   89.60471947
_cell_angle_beta   90.00007966
_cell_angle_gamma   119.92320704
_symmetry_Int_Tables_number   1
_chemical_formula_structural   Sc5NbH18
_chemical_formula_sum   'Sc5 Nb1 H18'
_cell_volume   175.13524229
_cell_formula_units_Z   1
loop_
 _symmetry_equiv_pos_site_id
 _symmetry_equiv_pos_as_xyz
  1  'x, y, z'
loop_
 _atom_site_type_symbol
 _atom_site_label
 _atom_site_symmetry_multiplicity
 _atom_site_fract_x
 _atom_site_fract_y
 _atom_site_fract_z
 _atom_site_occupancy
  Sc  Sc0  1  0.665883  0.999993  0.750000  1
  Sc  Sc1  1  0.333484  0.335395  0.747002  1
  Sc  Sc2  1  0.998098  0.664623  0.752996  1
  Sc  Sc3  1  0.666244  0.662969  0.249856  1
  Sc  Sc4  1  0.003278  0.337033  0.250146  1
  Nb  Nb5  1  0.340699  0.999981  0.249999  1
  H  H6  1  0.323339  0.983144  0.918810  1
  H  H7  1  0.655859  0.675003  0.911311  1
  H  H8  1  0.018203  0.338967  0.911565  1
  H  H9  1  0.327537  0.349488  0.405354  1
  H  H10  1  0.043269  0.691534  0.402553  1
  H  H11  1  0.633882  0.974887  0.402170  1
  H  H12  1  0.658996  0.025111  0.097828  1
  H  H13  1  0.351734  0.308467  0.097446  1
  H  H14  1  0.978050  0.650513  0.094647  1
  H  H15  1  0.679237  0.661036  0.588433  1
  H  H16  1  0.980860  0.325001  0.588687  1
  H  H17  1  0.340197  0.016858  0.581190  1
  H  H18  1  0.999795  0.999995  0.749998  1
  H  H19  1  0.009987  0.999998  0.250002  1
  H  H20  1  0.665879  0.332707  0.784528  1
  H  H21  1  0.655925  0.319532  0.314310  1
  H  H22  1  0.336391  0.680473  0.185693  1
  H  H23  1  0.333175  0.667293  0.715474  1
