# generated using pymatgen
data_Sm8TiPt23Au
_symmetry_space_group_name_H-M   'P 1'
_cell_length_a   8.47068400
_cell_length_b   8.47068400
_cell_length_c   8.48640100
_cell_angle_alpha   90.00000000
_cell_angle_beta   90.00000000
_cell_angle_gamma   90.00000000
_symmetry_Int_Tables_number   1
_chemical_formula_structural   Sm8TiPt23Au
_chemical_formula_sum   'Sm8 Ti1 Pt23 Au1'
_cell_volume   608.92038106
_cell_formula_units_Z   1
loop_
 _symmetry_equiv_pos_site_id
 _symmetry_equiv_pos_as_xyz
  1  'x, y, z'
loop_
 _atom_site_type_symbol
 _atom_site_label
 _atom_site_symmetry_multiplicity
 _atom_site_fract_x
 _atom_site_fract_y
 _atom_site_fract_z
 _atom_site_occupancy
  Sm  Sm0  1  0.250696  0.250696  0.251031  1
  Sm  Sm1  1  0.752140  0.752140  0.749282  1
  Sm  Sm2  1  0.749304  0.749304  0.251031  1
  Sm  Sm3  1  0.752140  0.247860  0.749282  1
  Sm  Sm4  1  0.247860  0.247860  0.749282  1
  Sm  Sm5  1  0.250696  0.749304  0.251031  1
  Sm  Sm6  1  0.247860  0.752140  0.749282  1
  Sm  Sm7  1  0.749304  0.250696  0.251031  1
  Ti  Ti8  1  0.000000  0.000000  0.000912  1
  Pt  Pt9  1  0.263816  0.500000  0.000419  1
  Pt  Pt10  1  0.736184  0.500000  0.000419  1
  Pt  Pt11  1  0.000000  0.264661  0.499970  1
  Pt  Pt12  1  0.500000  0.263816  0.000419  1
  Pt  Pt13  1  0.000000  0.735339  0.499970  1
  Pt  Pt14  1  0.500000  0.736184  0.000419  1
  Pt  Pt15  1  0.500000  0.000000  0.264113  1
  Pt  Pt16  1  0.264661  0.000000  0.499970  1
  Pt  Pt17  1  0.500000  0.000000  0.735601  1
  Pt  Pt18  1  0.735339  0.000000  0.499970  1
  Pt  Pt19  1  0.000000  0.500000  0.264113  1
  Pt  Pt20  1  0.000000  0.500000  0.735601  1
  Pt  Pt21  1  0.253833  0.500000  0.499599  1
  Pt  Pt22  1  0.746167  0.500000  0.499599  1
  Pt  Pt23  1  0.500000  0.253833  0.499599  1
  Pt  Pt24  1  0.500000  0.746167  0.499599  1
  Pt  Pt25  1  0.500000  0.500000  0.254921  1
  Pt  Pt26  1  0.301153  0.000000  0.999971  1
  Pt  Pt27  1  0.698847  0.000000  0.999971  1
  Pt  Pt28  1  0.000000  0.301153  0.999971  1
  Pt  Pt29  1  0.000000  0.698847  0.999971  1
  Pt  Pt30  1  0.000000  0.000000  0.301486  1
  Pt  Pt31  1  0.000000  0.000000  0.698804  1
  Au  Au32  1  0.500000  0.500000  0.743356  1
