# generated using pymatgen
data_Dy3TmAgRh
_symmetry_space_group_name_H-M   'P 1'
_cell_length_a   9.49651782
_cell_length_b   9.49651869
_cell_length_c   9.46534919
_cell_angle_alpha   60.09005755
_cell_angle_beta   60.09005763
_cell_angle_gamma   60.23369396
_symmetry_Int_Tables_number   1
_chemical_formula_structural   Dy3TmAgRh
_chemical_formula_sum   'Dy12 Tm4 Ag4 Rh4'
_cell_volume   605.48520834
_cell_formula_units_Z   4
loop_
 _symmetry_equiv_pos_site_id
 _symmetry_equiv_pos_as_xyz
  1  'x, y, z'
loop_
 _atom_site_type_symbol
 _atom_site_label
 _atom_site_symmetry_multiplicity
 _atom_site_fract_x
 _atom_site_fract_y
 _atom_site_fract_z
 _atom_site_occupancy
  Dy  Dy0  1  0.064375  0.064375  0.436542  1
  Dy  Dy1  1  0.435491  0.063520  0.436572  1
  Dy  Dy2  1  0.064607  0.436198  0.063831  1
  Dy  Dy3  1  0.059535  0.646583  0.647581  1
  Dy  Dy4  1  0.436888  0.436888  0.062169  1
  Dy  Dy5  1  0.646583  0.059535  0.647581  1
  Dy  Dy6  1  0.188171  0.812864  0.186561  1
  Dy  Dy7  1  0.186837  0.186837  0.812445  1
  Dy  Dy8  1  0.812865  0.812865  0.186777  1
  Dy  Dy9  1  0.436198  0.064607  0.063831  1
  Dy  Dy10  1  0.812864  0.188171  0.186561  1
  Dy  Dy11  1  0.063520  0.435491  0.436572  1
  Tm  Tm12  1  0.813896  0.187276  0.812224  1
  Tm  Tm13  1  0.187276  0.813896  0.812224  1
  Tm  Tm14  1  0.647411  0.647411  0.057578  1
  Tm  Tm15  1  0.646498  0.646498  0.647746  1
  Ag  Ag16  1  0.418141  0.418141  0.417273  1
  Ag  Ag17  1  0.745715  0.418610  0.418169  1
  Ag  Ag18  1  0.418610  0.745715  0.418169  1
  Ag  Ag19  1  0.418287  0.418287  0.746589  1
  Rh  Rh20  1  0.855015  0.855015  0.431249  1
  Rh  Rh21  1  0.856244  0.856244  0.858259  1
  Rh  Rh22  1  0.432211  0.852760  0.856748  1
  Rh  Rh23  1  0.852760  0.432211  0.856748  1
