# generated using pymatgen
data_Tb3CoSn4Ir
_symmetry_space_group_name_H-M   'P 1'
_cell_length_a   7.49369300
_cell_length_b   7.49369368
_cell_length_c   4.07840100
_cell_angle_alpha   90.00000000
_cell_angle_beta   90.00000000
_cell_angle_gamma   120.00000142
_symmetry_Int_Tables_number   1
_chemical_formula_structural   Tb3CoSn4Ir
_chemical_formula_sum   'Tb3 Co1 Sn4 Ir1'
_cell_volume   198.34094743
_cell_formula_units_Z   1
loop_
 _symmetry_equiv_pos_site_id
 _symmetry_equiv_pos_as_xyz
  1  'x, y, z'
loop_
 _atom_site_type_symbol
 _atom_site_label
 _atom_site_symmetry_multiplicity
 _atom_site_fract_x
 _atom_site_fract_y
 _atom_site_fract_z
 _atom_site_occupancy
  Tb  Tb0  1  0.688537  0.945807  0.500000  1
  Tb  Tb1  1  0.257269  0.311463  0.500000  1
  Tb  Tb2  1  0.054193  0.742731  0.500000  1
  Co  Co3  1  0.666667  0.333333  0.500000  1
  Sn  Sn4  1  0.902305  0.321135  0.000000  1
  Sn  Sn5  1  0.418831  0.097695  0.000000  1
  Sn  Sn6  1  0.678865  0.581169  0.000000  1
  Sn  Sn7  1  0.333333  0.666667  0.000000  1
  Ir  Ir8  1  0.000000  0.000000  0.000000  1
