# generated using pymatgen
data_CaCe8Nd(Sn3H)2
_symmetry_space_group_name_H-M   'P 1'
_cell_length_a   9.05683976
_cell_length_b   9.05683889
_cell_length_c   9.05684033
_cell_angle_alpha   124.61406138
_cell_angle_beta   124.61406247
_cell_angle_gamma   82.17825970
_symmetry_Int_Tables_number   1
_chemical_formula_structural   CaCe8Nd(Sn3H)2
_chemical_formula_sum   'Ca1 Ce8 Nd1 Sn6 H2'
_cell_volume   483.71487483
_cell_formula_units_Z   1
loop_
 _symmetry_equiv_pos_site_id
 _symmetry_equiv_pos_as_xyz
  1  'x, y, z'
loop_
 _atom_site_type_symbol
 _atom_site_label
 _atom_site_symmetry_multiplicity
 _atom_site_fract_x
 _atom_site_fract_y
 _atom_site_fract_z
 _atom_site_occupancy
  Ca  Ca0  1  0.500000  0.500000  0.000000  1
  Ce  Ce1  1  0.510701  0.011081  0.842217  1
  Ce  Ce2  1  0.168864  0.668485  0.157783  1
  Ce  Ce3  1  0.011081  0.168864  0.500380  1
  Ce  Ce4  1  0.668485  0.510701  0.499620  1
  Ce  Ce5  1  0.489299  0.988919  0.157783  1
  Ce  Ce6  1  0.831136  0.331515  0.842217  1
  Ce  Ce7  1  0.988919  0.831136  0.499620  1
  Ce  Ce8  1  0.331515  0.489299  0.500380  1
  Nd  Nd9  1  0.000000  0.000000  0.000000  1
  Sn  Sn10  1  0.249039  0.249039  0.000000  1
  Sn  Sn11  1  0.750961  0.750961  0.000000  1
  Sn  Sn12  1  0.872518  0.371218  0.243737  1
  Sn  Sn13  1  0.127482  0.628782  0.756263  1
  Sn  Sn14  1  0.371218  0.127482  0.498700  1
  Sn  Sn15  1  0.628782  0.872518  0.501300  1
  H  H16  1  0.250000  0.750000  0.500000  1
  H  H17  1  0.750000  0.250000  0.500000  1
