# generated using pymatgen
data_Er10In5Te
_symmetry_space_group_name_H-M   'P 1'
_cell_length_a   8.92258293
_cell_length_b   8.92258308
_cell_length_c   6.52772000
_cell_angle_alpha   90.00000000
_cell_angle_beta   90.00000000
_cell_angle_gamma   119.77029345
_symmetry_Int_Tables_number   1
_chemical_formula_structural   Er10In5Te
_chemical_formula_sum   'Er10 In5 Te1'
_cell_volume   451.10116319
_cell_formula_units_Z   1
loop_
 _symmetry_equiv_pos_site_id
 _symmetry_equiv_pos_as_xyz
  1  'x, y, z'
loop_
 _atom_site_type_symbol
 _atom_site_label
 _atom_site_symmetry_multiplicity
 _atom_site_fract_x
 _atom_site_fract_y
 _atom_site_fract_z
 _atom_site_occupancy
  Er  Er0  1  0.671301  0.334908  0.004318  1
  Er  Er1  1  0.334908  0.671301  0.004318  1
  Er  Er2  1  0.334908  0.671301  0.495682  1
  Er  Er3  1  0.671301  0.334908  0.495682  1
  Er  Er4  1  0.767329  0.767329  0.750000  1
  Er  Er5  1  0.235038  0.991695  0.750000  1
  Er  Er6  1  0.991695  0.235038  0.750000  1
  Er  Er7  1  0.236554  0.236554  0.250000  1
  Er  Er8  1  0.763181  0.000774  0.250000  1
  Er  Er9  1  0.000774  0.763181  0.250000  1
  In  In10  1  0.597490  0.998126  0.750000  1
  In  In11  1  0.998126  0.597490  0.750000  1
  In  In12  1  0.604035  0.604035  0.250000  1
  In  In13  1  0.399507  0.004649  0.250000  1
  In  In14  1  0.004649  0.399507  0.250000  1
  Te  Te15  1  0.389203  0.389203  0.750000  1
