# generated using pymatgen
data_CeThNiB10
_symmetry_space_group_name_H-M   'P 1'
_cell_length_a   4.17269600
_cell_length_b   5.62939426
_cell_length_c   11.18327144
_cell_angle_alpha   90.12312826
_cell_angle_beta   90.00000000
_cell_angle_gamma   90.00000000
_symmetry_Int_Tables_number   1
_chemical_formula_structural   CeThNiB10
_chemical_formula_sum   'Ce2 Th2 Ni2 B20'
_cell_volume   262.69165381
_cell_formula_units_Z   2
loop_
 _symmetry_equiv_pos_site_id
 _symmetry_equiv_pos_as_xyz
  1  'x, y, z'
loop_
 _atom_site_type_symbol
 _atom_site_label
 _atom_site_symmetry_multiplicity
 _atom_site_fract_x
 _atom_site_fract_y
 _atom_site_fract_z
 _atom_site_occupancy
  Ce  Ce0  1  0.500000  0.310573  0.863549  1
  Ce  Ce1  1  0.500000  0.689427  0.136451  1
  Th  Th2  1  0.500000  0.808148  0.638276  1
  Th  Th3  1  0.500000  0.191852  0.361724  1
  Ni  Ni4  1  0.000000  0.500000  0.500000  1
  Ni  Ni5  1  0.000000  0.000000  0.000000  1
  B  B6  1  0.000000  0.125107  0.540922  1
  B  B7  1  0.000000  0.874893  0.459078  1
  B  B8  1  0.000000  0.625168  0.959701  1
  B  B9  1  0.000000  0.374832  0.040299  1
  B  B10  1  0.000000  0.154207  0.698241  1
  B  B11  1  0.000000  0.845793  0.301759  1
  B  B12  1  0.300643  0.201616  0.113243  1
  B  B13  1  0.300643  0.798384  0.886757  1
  B  B14  1  0.699349  0.701457  0.385418  1
  B  B15  1  0.699349  0.298543  0.614582  1
  B  B16  1  0.699357  0.798384  0.886757  1
  B  B17  1  0.699357  0.201616  0.113243  1
  B  B18  1  0.300651  0.298543  0.614582  1
  B  B19  1  0.300651  0.701457  0.385418  1
  B  B20  1  0.000000  0.034187  0.187548  1
  B  B21  1  0.000000  0.965813  0.812452  1
  B  B22  1  0.000000  0.534885  0.311177  1
  B  B23  1  0.000000  0.465115  0.688823  1
  B  B24  1  0.000000  0.346198  0.196740  1
  B  B25  1  0.000000  0.653802  0.803260  1
