# generated using pymatgen
data_Dy4YSiSn3
_symmetry_space_group_name_H-M   'P 1'
_cell_length_a   9.21889900
_cell_length_b   9.21889948
_cell_length_c   6.45967400
_cell_angle_alpha   90.00000000
_cell_angle_beta   90.00000000
_cell_angle_gamma   120.00000185
_symmetry_Int_Tables_number   1
_chemical_formula_structural   Dy4YSiSn3
_chemical_formula_sum   'Dy8 Y2 Si2 Sn6'
_cell_volume   475.44398945
_cell_formula_units_Z   2
loop_
 _symmetry_equiv_pos_site_id
 _symmetry_equiv_pos_as_xyz
  1  'x, y, z'
loop_
 _atom_site_type_symbol
 _atom_site_label
 _atom_site_symmetry_multiplicity
 _atom_site_fract_x
 _atom_site_fract_y
 _atom_site_fract_z
 _atom_site_occupancy
  Dy  Dy0  1  0.333333  0.666667  0.500000  1
  Dy  Dy1  1  0.666667  0.333333  0.500000  1
  Dy  Dy2  1  0.747576  0.747576  0.749801  1
  Dy  Dy3  1  0.252424  0.000000  0.749801  1
  Dy  Dy4  1  0.000000  0.252424  0.749801  1
  Dy  Dy5  1  0.252424  0.252424  0.250199  1
  Dy  Dy6  1  0.747576  0.000000  0.250199  1
  Dy  Dy7  1  0.000000  0.747576  0.250199  1
  Y  Y8  1  0.666667  0.333333  0.000000  1
  Y  Y9  1  0.333333  0.666667  0.000000  1
  Si  Si10  1  0.000000  0.000000  0.000000  1
  Si  Si11  1  0.000000  0.000000  0.500000  1
  Sn  Sn12  1  0.391117  0.391117  0.749748  1
  Sn  Sn13  1  0.608883  0.000000  0.749748  1
  Sn  Sn14  1  0.000000  0.608883  0.749748  1
  Sn  Sn15  1  0.608883  0.608883  0.250252  1
  Sn  Sn16  1  0.391117  0.000000  0.250252  1
  Sn  Sn17  1  0.000000  0.391117  0.250252  1
