# generated using pymatgen
data_HoAl8(CrCu)2
_symmetry_space_group_name_H-M   'P 1'
_cell_length_a   6.79613068
_cell_length_b   6.79612984
_cell_length_c   6.71362767
_cell_angle_alpha   98.05208126
_cell_angle_beta   98.05208058
_cell_angle_gamma   136.32383439
_symmetry_Int_Tables_number   1
_chemical_formula_structural   HoAl8(CrCu)2
_chemical_formula_sum   'Ho1 Al8 Cr2 Cu2'
_cell_volume   198.37698887
_cell_formula_units_Z   1
loop_
 _symmetry_equiv_pos_site_id
 _symmetry_equiv_pos_as_xyz
  1  'x, y, z'
loop_
 _atom_site_type_symbol
 _atom_site_label
 _atom_site_symmetry_multiplicity
 _atom_site_fract_x
 _atom_site_fract_y
 _atom_site_fract_z
 _atom_site_occupancy
  Ho  Ho0  1  0.000000  0.000000  0.000000  1
  Al  Al1  1  0.007503  0.346393  0.353896  1
  Al  Al2  1  0.992497  0.653607  0.646104  1
  Al  Al3  1  0.653607  0.992497  0.646104  1
  Al  Al4  1  0.346393  0.007503  0.353896  1
  Al  Al5  1  0.498674  0.282165  0.780839  1
  Al  Al6  1  0.501326  0.717835  0.219161  1
  Al  Al7  1  0.717835  0.501326  0.219161  1
  Al  Al8  1  0.282165  0.498674  0.780839  1
  Cr  Cr9  1  0.000000  0.000000  0.500000  1
  Cr  Cr10  1  0.500000  0.500000  0.500000  1
  Cu  Cu11  1  0.500000  0.000000  0.000000  1
  Cu  Cu12  1  0.000000  0.500000  0.000000  1
