# generated using pymatgen
data_Sc12Ir3I16
_symmetry_space_group_name_H-M   'P 1'
_cell_length_a   9.10567965
_cell_length_b   11.93084131
_cell_length_c   12.63779941
_cell_angle_alpha   116.55583606
_cell_angle_beta   101.09939131
_cell_angle_gamma   100.63161789
_symmetry_Int_Tables_number   1
_chemical_formula_structural   Sc12Ir3I16
_chemical_formula_sum   'Sc12 Ir3 I16'
_cell_volume   1146.45292903
_cell_formula_units_Z   1
loop_
 _symmetry_equiv_pos_site_id
 _symmetry_equiv_pos_as_xyz
  1  'x, y, z'
loop_
 _atom_site_type_symbol
 _atom_site_label
 _atom_site_symmetry_multiplicity
 _atom_site_fract_x
 _atom_site_fract_y
 _atom_site_fract_z
 _atom_site_occupancy
  Sc  Sc0  1  0.089370  0.273613  0.360407  1
  Sc  Sc1  1  0.910630  0.726387  0.639593  1
  Sc  Sc2  1  0.781534  0.534043  0.332274  1
  Sc  Sc3  1  0.218466  0.465957  0.667726  1
  Sc  Sc4  1  0.274125  0.727172  0.639326  1
  Sc  Sc5  1  0.725875  0.272828  0.360674  1
  Sc  Sc6  1  0.144988  0.534638  0.332144  1
  Sc  Sc7  1  0.855012  0.465362  0.667856  1
  Sc  Sc8  1  0.407576  0.361687  0.278528  1
  Sc  Sc9  1  0.592424  0.638313  0.721472  1
  Sc  Sc10  1  0.460084  0.314110  0.520465  1
  Sc  Sc11  1  0.539916  0.685890  0.479535  1
  Ir  Ir12  1  0.000000  0.500000  0.500000  1
  Ir  Ir13  1  0.339451  0.500249  0.499745  1
  Ir  Ir14  1  0.660550  0.499751  0.500255  1
  I  I15  1  0.392950  0.739405  0.882953  1
  I  I16  1  0.607050  0.260595  0.117047  1
  I  I17  1  0.186954  0.963165  0.781483  1
  I  I18  1  0.813046  0.036835  0.218517  1
  I  I19  1  0.337949  0.097077  0.255069  1
  I  I20  1  0.662051  0.902923  0.744931  1
  I  I21  1  0.560805  0.434922  0.796970  1
  I  I22  1  0.439195  0.565078  0.203030  1
  I  I23  1  0.302830  0.827253  0.462620  1
  I  I24  1  0.697170  0.172747  0.537380  1
  I  I25  1  0.162824  0.173193  0.535916  1
  I  I26  1  0.837176  0.826807  0.464084  1
  I  I27  1  0.926004  0.575414  0.160122  1
  I  I28  1  0.073996  0.424586  0.839878  1
  I  I29  1  0.926345  0.738251  0.883172  1
  I  I30  1  0.073655  0.261749  0.116828  1
