# generated using pymatgen
data_Nd5Sc3(P3Ir4)4
_symmetry_space_group_name_H-M   'P 1'
_cell_length_a   12.94072600
_cell_length_b   12.94072647
_cell_length_c   4.00839200
_cell_angle_alpha   90.00000000
_cell_angle_beta   90.00000000
_cell_angle_gamma   119.99999880
_symmetry_Int_Tables_number   1
_chemical_formula_structural   Nd5Sc3(P3Ir4)4
_chemical_formula_sum   'Nd5 Sc3 P12 Ir16'
_cell_volume   581.32382559
_cell_formula_units_Z   1
loop_
 _symmetry_equiv_pos_site_id
 _symmetry_equiv_pos_as_xyz
  1  'x, y, z'
loop_
 _atom_site_type_symbol
 _atom_site_label
 _atom_site_symmetry_multiplicity
 _atom_site_fract_x
 _atom_site_fract_y
 _atom_site_fract_z
 _atom_site_occupancy
  Nd  Nd0  1  0.333333  0.666667  0.500000  1
  Nd  Nd1  1  0.666667  0.333333  0.500000  1
  Nd  Nd2  1  0.000000  0.811631  0.000000  1
  Nd  Nd3  1  0.188369  0.188369  0.000000  1
  Nd  Nd4  1  0.811631  0.000000  0.000000  1
  Sc  Sc5  1  0.000000  0.443701  0.500000  1
  Sc  Sc6  1  0.556299  0.556299  0.500000  1
  Sc  Sc7  1  0.443701  0.000000  0.500000  1
  P  P8  1  0.000000  0.642601  0.500000  1
  P  P9  1  0.357399  0.357399  0.500000  1
  P  P10  1  0.642601  0.000000  0.500000  1
  P  P11  1  0.518569  0.686913  0.000000  1
  P  P12  1  0.313087  0.831656  0.000000  1
  P  P13  1  0.168344  0.481431  0.000000  1
  P  P14  1  0.481431  0.168344  0.000000  1
  P  P15  1  0.686913  0.518569  0.000000  1
  P  P16  1  0.831656  0.313087  0.000000  1
  P  P17  1  0.000000  0.178735  0.500000  1
  P  P18  1  0.821265  0.821265  0.500000  1
  P  P19  1  0.178735  0.000000  0.500000  1
  Ir  Ir20  1  0.511908  0.869643  0.000000  1
  Ir  Ir21  1  0.130357  0.642266  0.000000  1
  Ir  Ir22  1  0.357734  0.488092  0.000000  1
  Ir  Ir23  1  0.488092  0.357734  0.000000  1
  Ir  Ir24  1  0.869643  0.511908  0.000000  1
  Ir  Ir25  1  0.642266  0.130357  0.000000  1
  Ir  Ir26  1  0.000000  0.279912  0.000000  1
  Ir  Ir27  1  0.720088  0.720088  0.000000  1
  Ir  Ir28  1  0.279912  0.000000  0.000000  1
  Ir  Ir29  1  0.625745  0.804410  0.500000  1
  Ir  Ir30  1  0.195590  0.821334  0.500000  1
  Ir  Ir31  1  0.178666  0.374255  0.500000  1
  Ir  Ir32  1  0.374255  0.178666  0.500000  1
  Ir  Ir33  1  0.804410  0.625745  0.500000  1
  Ir  Ir34  1  0.821334  0.195590  0.500000  1
  Ir  Ir35  1  0.000000  0.000000  0.500000  1
