# generated using pymatgen
data_BaTa6GaSe12
_symmetry_space_group_name_H-M   'P 1'
_cell_length_a   6.09215500
_cell_length_b   6.09215476
_cell_length_c   15.80170900
_cell_angle_alpha   90.00000000
_cell_angle_beta   90.00000000
_cell_angle_gamma   119.99999590
_symmetry_Int_Tables_number   1
_chemical_formula_structural   BaTa6GaSe12
_chemical_formula_sum   'Ba1 Ta6 Ga1 Se12'
_cell_volume   507.89809117
_cell_formula_units_Z   1
loop_
 _symmetry_equiv_pos_site_id
 _symmetry_equiv_pos_as_xyz
  1  'x, y, z'
loop_
 _atom_site_type_symbol
 _atom_site_label
 _atom_site_symmetry_multiplicity
 _atom_site_fract_x
 _atom_site_fract_y
 _atom_site_fract_z
 _atom_site_occupancy
  Ba  Ba0  1  0.000000  0.000000  0.000000  1
  Ta  Ta1  1  0.000000  0.000000  0.257535  1
  Ta  Ta2  1  0.000000  0.000000  0.742465  1
  Ta  Ta3  1  0.333333  0.666667  0.261168  1
  Ta  Ta4  1  0.666667  0.333333  0.738832  1
  Ta  Ta5  1  0.666667  0.333333  0.261168  1
  Ta  Ta6  1  0.333333  0.666667  0.738832  1
  Ga  Ga7  1  0.000000  0.000000  0.500000  1
  Se  Se8  1  0.341337  0.000000  0.154804  1
  Se  Se9  1  0.000000  0.341337  0.154804  1
  Se  Se10  1  0.658663  0.658663  0.154804  1
  Se  Se11  1  0.330358  0.330358  0.636153  1
  Se  Se12  1  0.669642  0.669642  0.363847  1
  Se  Se13  1  0.669642  0.000000  0.636153  1
  Se  Se14  1  0.000000  0.669642  0.636153  1
  Se  Se15  1  0.000000  0.658663  0.845196  1
  Se  Se16  1  0.341337  0.341337  0.845196  1
  Se  Se17  1  0.000000  0.330358  0.363847  1
  Se  Se18  1  0.330358  0.000000  0.363847  1
  Se  Se19  1  0.658663  0.000000  0.845196  1
