# generated using pymatgen
data_Tb5Pr4SmSn8
_symmetry_space_group_name_H-M   'P 1'
_cell_length_a   8.15716100
_cell_length_b   8.33792222
_cell_length_c   15.77593900
_cell_angle_alpha   89.91954600
_cell_angle_beta   90.00000000
_cell_angle_gamma   90.00000000
_symmetry_Int_Tables_number   1
_chemical_formula_structural   Tb5Pr4SmSn8
_chemical_formula_sum   'Tb10 Pr8 Sm2 Sn16'
_cell_volume   1072.98009125
_cell_formula_units_Z   2
loop_
 _symmetry_equiv_pos_site_id
 _symmetry_equiv_pos_as_xyz
  1  'x, y, z'
loop_
 _atom_site_type_symbol
 _atom_site_label
 _atom_site_symmetry_multiplicity
 _atom_site_fract_x
 _atom_site_fract_y
 _atom_site_fract_z
 _atom_site_occupancy
  Tb  Tb0  1  0.641767  0.164407  0.375426  1
  Tb  Tb1  1  0.141767  0.335593  0.124574  1
  Tb  Tb2  1  0.641818  0.163881  0.123141  1
  Tb  Tb3  1  0.141818  0.336119  0.376859  1
  Tb  Tb4  1  0.357053  0.835090  0.623183  1
  Tb  Tb5  1  0.857053  0.664910  0.876817  1
  Tb  Tb6  1  0.191300  0.501521  0.749561  1
  Tb  Tb7  1  0.691300  0.998479  0.750439  1
  Tb  Tb8  1  0.807977  0.498283  0.249371  1
  Tb  Tb9  1  0.307977  0.001717  0.250629  1
  Pr  Pr10  1  0.511658  0.320912  0.903860  1
  Pr  Pr11  1  0.011658  0.179088  0.596140  1
  Pr  Pr12  1  0.487753  0.678002  0.402570  1
  Pr  Pr13  1  0.987753  0.821998  0.097430  1
  Pr  Pr14  1  0.487514  0.678651  0.097744  1
  Pr  Pr15  1  0.987514  0.821349  0.402256  1
  Pr  Pr16  1  0.512734  0.320650  0.595822  1
  Pr  Pr17  1  0.012734  0.179350  0.904178  1
  Sm  Sm18  1  0.359648  0.834589  0.879470  1
  Sm  Sm19  1  0.859648  0.665411  0.620530  1
  Sn  Sn20  1  0.304483  0.041690  0.044238  1
  Sn  Sn21  1  0.804483  0.458310  0.455762  1
  Sn  Sn22  1  0.690979  0.962239  0.540946  1
  Sn  Sn23  1  0.190979  0.537761  0.959054  1
  Sn  Sn24  1  0.699524  0.960673  0.958845  1
  Sn  Sn25  1  0.199524  0.539327  0.541155  1
  Sn  Sn26  1  0.306477  0.040349  0.458152  1
  Sn  Sn27  1  0.806477  0.459651  0.041848  1
  Sn  Sn28  1  0.557588  0.621090  0.750269  1
  Sn  Sn29  1  0.057588  0.878910  0.749731  1
  Sn  Sn30  1  0.442686  0.377469  0.249682  1
  Sn  Sn31  1  0.942686  0.122531  0.250318  1
  Sn  Sn32  1  0.319785  0.142398  0.749765  1
  Sn  Sn33  1  0.819785  0.357602  0.750235  1
  Sn  Sn34  1  0.679256  0.857730  0.249893  1
  Sn  Sn35  1  0.179256  0.642270  0.250107  1
