# generated using pymatgen
data_Mg4Al2(PdPt)5
_symmetry_space_group_name_H-M   'P 1'
_cell_length_a   4.13142700
_cell_length_b   5.52157725
_cell_length_c   10.79295727
_cell_angle_alpha   89.87609357
_cell_angle_beta   90.00000000
_cell_angle_gamma   90.00000000
_symmetry_Int_Tables_number   1
_chemical_formula_structural   Mg4Al2(PdPt)5
_chemical_formula_sum   'Mg4 Al2 Pd5 Pt5'
_cell_volume   246.20829348
_cell_formula_units_Z   1
loop_
 _symmetry_equiv_pos_site_id
 _symmetry_equiv_pos_as_xyz
  1  'x, y, z'
loop_
 _atom_site_type_symbol
 _atom_site_label
 _atom_site_symmetry_multiplicity
 _atom_site_fract_x
 _atom_site_fract_y
 _atom_site_fract_z
 _atom_site_occupancy
  Mg  Mg0  1  0.500000  0.165637  0.359394  1
  Mg  Mg1  1  0.500000  0.834436  0.640329  1
  Mg  Mg2  1  0.500000  0.666034  0.139666  1
  Mg  Mg3  1  0.500000  0.334109  0.859719  1
  Al  Al4  1  0.000000  0.998020  0.001314  1
  Al  Al5  1  0.000000  0.499684  0.500547  1
  Pd  Pd6  1  0.000000  0.999839  0.500108  1
  Pd  Pd7  1  0.000000  0.497978  0.999481  1
  Pd  Pd8  1  0.000000  0.086257  0.761310  1
  Pd  Pd9  1  0.000000  0.414912  0.261487  1
  Pd  Pd10  1  0.000000  0.586611  0.738821  1
  Pt  Pt11  1  0.500000  0.179070  0.105894  1
  Pt  Pt12  1  0.500000  0.822253  0.894003  1
  Pt  Pt13  1  0.500000  0.678480  0.394127  1
  Pt  Pt14  1  0.500000  0.322156  0.605287  1
  Pt  Pt15  1  0.000000  0.914524  0.238511  1
