# generated using pymatgen
data_BiSb3Pb4O13
_symmetry_space_group_name_H-M   'P 1'
_cell_length_a   7.75215800
_cell_length_b   7.75215904
_cell_length_c   7.75215811
_cell_angle_alpha   59.40484410
_cell_angle_beta   59.40484463
_cell_angle_gamma   59.40483873
_symmetry_Int_Tables_number   1
_chemical_formula_structural   BiSb3Pb4O13
_chemical_formula_sum   'Bi1 Sb3 Pb4 O13'
_cell_volume   324.96078502
_cell_formula_units_Z   1
loop_
 _symmetry_equiv_pos_site_id
 _symmetry_equiv_pos_as_xyz
  1  'x, y, z'
loop_
 _atom_site_type_symbol
 _atom_site_label
 _atom_site_symmetry_multiplicity
 _atom_site_fract_x
 _atom_site_fract_y
 _atom_site_fract_z
 _atom_site_occupancy
  Bi  Bi0  1  0.499148  0.499148  0.499148  1
  Sb  Sb1  1  0.001157  0.499732  0.499732  1
  Sb  Sb2  1  0.499732  0.499732  0.001157  1
  Sb  Sb3  1  0.499732  0.001157  0.499732  1
  Pb  Pb4  1  0.999587  0.999587  0.999587  1
  Pb  Pb5  1  0.496806  0.005788  0.005788  1
  Pb  Pb6  1  0.005788  0.005788  0.496806  1
  Pb  Pb7  1  0.005788  0.496806  0.005788  1
  O  O8  1  0.873779  0.406902  0.406902  1
  O  O9  1  0.416694  0.810134  0.810134  1
  O  O10  1  0.406902  0.406902  0.873779  1
  O  O11  1  0.810134  0.810134  0.416694  1
  O  O12  1  0.810134  0.416694  0.810134  1
  O  O13  1  0.406902  0.873779  0.406902  1
  O  O14  1  0.140180  0.584602  0.584602  1
  O  O15  1  0.584667  0.188742  0.188742  1
  O  O16  1  0.584602  0.584602  0.140180  1
  O  O17  1  0.188742  0.188742  0.584667  1
  O  O18  1  0.188742  0.584667  0.188742  1
  O  O19  1  0.584602  0.140180  0.584602  1
  O  O20  1  0.121183  0.121183  0.121183  1
