# generated using pymatgen
data_Gd14Dy6Si15Os
_symmetry_space_group_name_H-M   'P 1'
_cell_length_a   7.41317545
_cell_length_b   7.77184021
_cell_length_c   14.64977700
_cell_angle_alpha   90.01150805
_cell_angle_beta   90.02001788
_cell_angle_gamma   90.05852411
_symmetry_Int_Tables_number   1
_chemical_formula_structural   Gd14Dy6Si15Os
_chemical_formula_sum   'Gd14 Dy6 Si15 Os1'
_cell_volume   844.03196405
_cell_formula_units_Z   1
loop_
 _symmetry_equiv_pos_site_id
 _symmetry_equiv_pos_as_xyz
  1  'x, y, z'
loop_
 _atom_site_type_symbol
 _atom_site_label
 _atom_site_symmetry_multiplicity
 _atom_site_fract_x
 _atom_site_fract_y
 _atom_site_fract_z
 _atom_site_occupancy
  Gd  Gd0  1  0.316118  0.819766  0.123030  1
  Gd  Gd1  1  0.816889  0.678347  0.377669  1
  Gd  Gd2  1  0.319721  0.819385  0.377159  1
  Gd  Gd3  1  0.815933  0.678301  0.121993  1
  Gd  Gd4  1  0.672463  0.185506  0.873948  1
  Gd  Gd5  1  0.193366  0.324919  0.627652  1
  Gd  Gd6  1  0.521086  0.675612  0.596435  1
  Gd  Gd7  1  0.023951  0.818239  0.904085  1
  Gd  Gd8  1  0.475524  0.316820  0.095563  1
  Gd  Gd9  1  0.974029  0.183352  0.403763  1
  Gd  Gd10  1  0.475997  0.317320  0.404309  1
  Gd  Gd11  1  0.977085  0.180383  0.095848  1
  Gd  Gd12  1  0.520154  0.673778  0.903839  1
  Gd  Gd13  1  0.024885  0.817400  0.596149  1
  Dy  Dy14  1  0.674804  0.183444  0.625456  1
  Dy  Dy15  1  0.191293  0.324363  0.873140  1
  Dy  Dy16  1  0.840095  0.513257  0.749979  1
  Dy  Dy17  1  0.355710  0.983987  0.750273  1
  Dy  Dy18  1  0.149767  0.483941  0.249233  1
  Dy  Dy19  1  0.648043  0.013872  0.249404  1
  Si  Si20  1  0.646904  0.973934  0.460686  1
  Si  Si21  1  0.148356  0.526666  0.038818  1
  Si  Si22  1  0.349869  0.026518  0.960536  1
  Si  Si23  1  0.857113  0.470069  0.539536  1
  Si  Si24  1  0.353144  0.025056  0.540136  1
  Si  Si25  1  0.858701  0.470611  0.960196  1
  Si  Si26  1  0.644235  0.972210  0.039292  1
  Si  Si27  1  0.146073  0.525967  0.460478  1
  Si  Si28  1  0.980099  0.100534  0.749974  1
  Si  Si29  1  0.522847  0.598961  0.249793  1
  Si  Si30  1  0.020365  0.899253  0.250370  1
  Si  Si31  1  0.742434  0.877357  0.749494  1
  Si  Si32  1  0.231657  0.633751  0.751282  1
  Si  Si33  1  0.264196  0.125745  0.250862  1
  Si  Si34  1  0.765545  0.373138  0.249784  1
  Os  Os35  1  0.481544  0.408237  0.749835  1
