# generated using pymatgen
data_Yb2CeNpH11
_symmetry_space_group_name_H-M   'P 1'
_cell_length_a   6.55396863
_cell_length_b   6.55396749
_cell_length_c   6.55396703
_cell_angle_alpha   133.56635064
_cell_angle_beta   133.56633674
_cell_angle_gamma   67.76612123
_symmetry_Int_Tables_number   1
_chemical_formula_structural   Yb2CeNpH11
_chemical_formula_sum   'Yb2 Ce1 Np1 H11'
_cell_volume   145.27905467
_cell_formula_units_Z   1
loop_
 _symmetry_equiv_pos_site_id
 _symmetry_equiv_pos_as_xyz
  1  'x, y, z'
loop_
 _atom_site_type_symbol
 _atom_site_label
 _atom_site_symmetry_multiplicity
 _atom_site_fract_x
 _atom_site_fract_y
 _atom_site_fract_z
 _atom_site_occupancy
  Yb  Yb0  1  0.499784  0.999784  0.500000  1
  Yb  Yb1  1  0.999784  0.499784  0.500000  1
  Ce  Ce2  1  0.738105  0.738105  0.000000  1
  Np  Np3  1  0.262367  0.262367  0.000000  1
  H  H4  1  0.635697  0.113225  0.000000  1
  H  H5  1  0.351609  0.351609  0.451468  1
  H  H6  1  0.113225  0.635697  0.000000  1
  H  H7  1  0.900140  0.900140  0.548532  1
  H  H8  1  0.900140  0.351609  0.000000  1
  H  H9  1  0.635697  0.635697  0.522473  1
  H  H10  1  0.351609  0.900140  0.000000  1
  H  H11  1  0.113225  0.113225  0.477527  1
  H  H12  1  0.750213  0.250213  0.500000  1
  H  H13  1  0.498191  0.498191  0.000000  1
  H  H14  1  0.250213  0.750213  0.500000  1
