# generated using pymatgen
data_Yb4ZnCo12GeB6
_symmetry_space_group_name_H-M   'P 1'
_cell_length_a   5.15614500
_cell_length_b   5.16155078
_cell_length_c   12.14725802
_cell_angle_alpha   90.00340501
_cell_angle_beta   89.99471480
_cell_angle_gamma   119.95066822
_symmetry_Int_Tables_number   1
_chemical_formula_structural   Yb4ZnCo12GeB6
_chemical_formula_sum   'Yb4 Zn1 Co12 Ge1 B6'
_cell_volume   280.11082086
_cell_formula_units_Z   1
loop_
 _symmetry_equiv_pos_site_id
 _symmetry_equiv_pos_as_xyz
  1  'x, y, z'
loop_
 _atom_site_type_symbol
 _atom_site_label
 _atom_site_symmetry_multiplicity
 _atom_site_fract_x
 _atom_site_fract_y
 _atom_site_fract_z
 _atom_site_occupancy
  Yb  Yb0  1  0.999996  0.000011  0.499949  1
  Yb  Yb1  1  0.999998  0.999997  0.260424  1
  Yb  Yb2  1  0.999983  0.000002  0.739757  1
  Yb  Yb3  1  0.000028  0.000020  0.999908  1
  Zn  Zn4  1  0.333302  0.666623  0.999954  1
  Co  Co5  1  0.499705  0.999427  0.387027  1
  Co  Co6  1  0.000556  0.500284  0.387030  1
  Co  Co7  1  0.499717  0.500281  0.386994  1
  Co  Co8  1  0.499703  0.999429  0.613001  1
  Co  Co9  1  0.499706  0.500282  0.613003  1
  Co  Co10  1  0.000546  0.500279  0.613009  1
  Co  Co11  1  0.501559  0.003148  0.162593  1
  Co  Co12  1  0.996848  0.498468  0.162580  1
  Co  Co13  1  0.501599  0.498458  0.162550  1
  Co  Co14  1  0.501525  0.003088  0.837396  1
  Co  Co15  1  0.501584  0.498471  0.837449  1
  Co  Co16  1  0.996882  0.498488  0.837411  1
  Ge  Ge17  1  0.666722  0.333309  0.999875  1
  B  B18  1  0.333348  0.666360  0.269972  1
  B  B19  1  0.666626  0.333589  0.272022  1
  B  B20  1  0.666913  0.333688  0.728036  1
  B  B21  1  0.333074  0.666307  0.730099  1
  B  B22  1  0.333228  0.666369  0.499982  1
  B  B23  1  0.666746  0.333625  0.499977  1
