# generated using pymatgen
data_TbCe2Lu7(Al2Ru3)2
_symmetry_space_group_name_H-M   'P 1'
_cell_length_a   8.36498652
_cell_length_b   8.27862749
_cell_length_c   8.25414429
_cell_angle_alpha   109.99730592
_cell_angle_beta   109.37234392
_cell_angle_gamma   110.15146208
_symmetry_Int_Tables_number   1
_chemical_formula_structural   TbCe2Lu7(Al2Ru3)2
_chemical_formula_sum   'Tb1 Ce2 Lu7 Al4 Ru6'
_cell_volume   433.88647870
_cell_formula_units_Z   1
loop_
 _symmetry_equiv_pos_site_id
 _symmetry_equiv_pos_as_xyz
  1  'x, y, z'
loop_
 _atom_site_type_symbol
 _atom_site_label
 _atom_site_symmetry_multiplicity
 _atom_site_fract_x
 _atom_site_fract_y
 _atom_site_fract_z
 _atom_site_occupancy
  Tb  Tb0  1  0.253940  0.187108  0.931477  1
  Ce  Ce1  1  0.943251  0.252273  0.195347  1
  Ce  Ce2  1  0.196765  0.941115  0.252229  1
  Lu  Lu3  1  0.780056  0.784091  0.778140  1
  Lu  Lu4  1  0.319712  0.569867  0.753484  1
  Lu  Lu5  1  0.750400  0.319359  0.570661  1
  Lu  Lu6  1  0.570785  0.748476  0.315986  1
  Lu  Lu7  1  0.718071  0.503518  0.997848  1
  Lu  Lu8  1  0.998157  0.717775  0.505673  1
  Lu  Lu9  1  0.501842  0.992887  0.715103  1
  Al  Al10  1  0.418639  0.414323  0.411929  1
  Al  Al11  1  0.091370  0.492685  0.995397  1
  Al  Al12  1  0.996416  0.090632  0.502728  1
  Al  Al13  1  0.502870  0.007634  0.093709  1
  Ru  Ru14  1  0.864223  0.114479  0.740077  1
  Ru  Ru15  1  0.752486  0.896082  0.120448  1
  Ru  Ru16  1  0.123643  0.759935  0.900564  1
  Ru  Ru17  1  0.227673  0.596630  0.366573  1
  Ru  Ru18  1  0.361005  0.225588  0.599957  1
  Ru  Ru19  1  0.628692  0.385547  0.252674  1
