# generated using pymatgen
data_Hf18FeCuRe5W3
_symmetry_space_group_name_H-M   'P 1'
_cell_length_a   8.45578700
_cell_length_b   8.65170623
_cell_length_c   8.66875251
_cell_angle_alpha   119.93376839
_cell_angle_beta   90.00000000
_cell_angle_gamma   90.00000000
_symmetry_Int_Tables_number   1
_chemical_formula_structural   Hf18FeCuRe5W3
_chemical_formula_sum   'Hf18 Fe1 Cu1 Re5 W3'
_cell_volume   549.58199178
_cell_formula_units_Z   1
loop_
 _symmetry_equiv_pos_site_id
 _symmetry_equiv_pos_as_xyz
  1  'x, y, z'
loop_
 _atom_site_type_symbol
 _atom_site_label
 _atom_site_symmetry_multiplicity
 _atom_site_fract_x
 _atom_site_fract_y
 _atom_site_fract_z
 _atom_site_occupancy
  Hf  Hf0  1  0.554364  0.803973  0.607942  1
  Hf  Hf1  1  0.553641  0.803781  0.196045  1
  Hf  Hf2  1  0.553621  0.392238  0.196029  1
  Hf  Hf3  1  0.440441  0.201454  0.402906  1
  Hf  Hf4  1  0.440588  0.201508  0.798423  1
  Hf  Hf5  1  0.440603  0.596941  0.798435  1
  Hf  Hf6  1  0.059559  0.201454  0.402906  1
  Hf  Hf7  1  0.059412  0.201508  0.798423  1
  Hf  Hf8  1  0.059397  0.596941  0.798435  1
  Hf  Hf9  1  0.945636  0.803973  0.607942  1
  Hf  Hf10  1  0.946359  0.803781  0.196045  1
  Hf  Hf11  1  0.946379  0.392238  0.196029  1
  Hf  Hf12  1  0.750000  0.458629  0.917287  1
  Hf  Hf13  1  0.750000  0.459778  0.542117  1
  Hf  Hf14  1  0.750000  0.082321  0.542122  1
  Hf  Hf15  1  0.250000  0.540428  0.080834  1
  Hf  Hf16  1  0.250000  0.540822  0.459744  1
  Hf  Hf17  1  0.250000  0.918925  0.459734  1
  Fe  Fe18  1  0.250000  0.333853  0.667628  1
  Cu  Cu19  1  0.750000  0.666716  0.333517  1
  Re  Re20  1  0.750000  0.111816  0.887944  1
  Re  Re21  1  0.750000  0.776126  0.887953  1
  Re  Re22  1  0.250000  0.888538  0.777063  1
  Re  Re23  1  0.250000  0.887766  0.111548  1
  Re  Re24  1  0.250000  0.223796  0.111539  1
  W  W25  1  0.750000  0.111833  0.223692  1
  W  W26  1  0.498943  0.999431  0.998860  1
  W  W27  1  0.001057  0.999431  0.998860  1
