# generated using pymatgen
data_Li2YbTh(Al3Pd)6
_symmetry_space_group_name_H-M   'P 1'
_cell_length_a   7.62688188
_cell_length_b   7.62973828
_cell_length_c   9.42332600
_cell_angle_alpha   90.00000000
_cell_angle_beta   90.00000000
_cell_angle_gamma   119.79140230
_symmetry_Int_Tables_number   1
_chemical_formula_structural   Li2YbTh(Al3Pd)6
_chemical_formula_sum   'Li2 Yb1 Th1 Al18 Pd6'
_cell_volume   475.88339380
_cell_formula_units_Z   1
loop_
 _symmetry_equiv_pos_site_id
 _symmetry_equiv_pos_as_xyz
  1  'x, y, z'
loop_
 _atom_site_type_symbol
 _atom_site_label
 _atom_site_symmetry_multiplicity
 _atom_site_fract_x
 _atom_site_fract_y
 _atom_site_fract_z
 _atom_site_occupancy
  Li  Li0  1  0.007932  0.327345  0.750000  1
  Li  Li1  1  0.322078  0.002561  0.750000  1
  Yb  Yb2  1  0.997754  0.669130  0.250000  1
  Th  Th3  1  0.668174  0.998340  0.250000  1
  Al  Al4  1  0.132860  0.133011  0.250000  1
  Al  Al5  1  0.877974  0.875371  0.750000  1
  Al  Al6  1  0.006692  0.337898  0.060905  1
  Al  Al7  1  0.010137  0.664912  0.909125  1
  Al  Al8  1  0.010137  0.664912  0.590875  1
  Al  Al9  1  0.330309  0.002597  0.440228  1
  Al  Al10  1  0.006692  0.337898  0.439095  1
  Al  Al11  1  0.664818  0.012378  0.596395  1
  Al  Al12  1  0.664818  0.012378  0.903605  1
  Al  Al13  1  0.330309  0.002597  0.059772  1
  Al  Al14  1  0.323485  0.323381  0.578660  1
  Al  Al15  1  0.665120  0.662357  0.460762  1
  Al  Al16  1  0.665120  0.662357  0.039238  1
  Al  Al17  1  0.323485  0.323381  0.921340  1
  Al  Al18  1  0.338967  0.539453  0.250000  1
  Al  Al19  1  0.661164  0.444082  0.750000  1
  Al  Al20  1  0.539892  0.337646  0.250000  1
  Al  Al21  1  0.447275  0.659029  0.750000  1
  Pd  Pd22  1  0.673698  0.331479  0.001826  1
  Pd  Pd23  1  0.334121  0.674955  0.000813  1
  Pd  Pd24  1  0.334121  0.674955  0.499187  1
  Pd  Pd25  1  0.673698  0.331479  0.498174  1
  Pd  Pd26  1  0.994583  0.997062  0.000475  1
  Pd  Pd27  1  0.994583  0.997062  0.499525  1
