# generated using pymatgen
data_Y4MgCu2Sb
_symmetry_space_group_name_H-M   'P 1'
_cell_length_a   8.64187549
_cell_length_b   8.64187554
_cell_length_c   8.64187600
_cell_angle_alpha   127.11034699
_cell_angle_beta   127.11033061
_cell_angle_gamma   78.07074635
_symmetry_Int_Tables_number   1
_chemical_formula_structural   Y4MgCu2Sb
_chemical_formula_sum   'Y8 Mg2 Cu4 Sb2'
_cell_volume   397.69007491
_cell_formula_units_Z   2
loop_
 _symmetry_equiv_pos_site_id
 _symmetry_equiv_pos_as_xyz
  1  'x, y, z'
loop_
 _atom_site_type_symbol
 _atom_site_label
 _atom_site_symmetry_multiplicity
 _atom_site_fract_x
 _atom_site_fract_y
 _atom_site_fract_z
 _atom_site_occupancy
  Y  Y0  1  0.799509  0.299509  0.824524  1
  Y  Y1  1  0.200491  0.700491  0.175476  1
  Y  Y2  1  0.474985  0.974985  0.175476  1
  Y  Y3  1  0.299509  0.474985  0.500000  1
  Y  Y4  1  0.025015  0.200491  0.500000  1
  Y  Y5  1  0.525015  0.025015  0.824524  1
  Y  Y6  1  0.700491  0.525015  0.500000  1
  Y  Y7  1  0.974985  0.799509  0.500000  1
  Mg  Mg8  1  0.000000  0.000000  0.000000  1
  Mg  Mg9  1  0.500000  0.500000  0.000000  1
  Cu  Cu10  1  0.125492  0.625492  0.750983  1
  Cu  Cu11  1  0.874508  0.374508  0.249017  1
  Cu  Cu12  1  0.625492  0.874508  0.500000  1
  Cu  Cu13  1  0.374508  0.125492  0.500000  1
  Sb  Sb14  1  0.250000  0.250000  0.000000  1
  Sb  Sb15  1  0.750000  0.750000  0.000000  1
