# generated using pymatgen
data_Dy5Ho3Mn2(OsC4)2
_symmetry_space_group_name_H-M   'P 1'
_cell_length_a   5.07726100
_cell_length_b   6.40505100
_cell_length_c   9.71900601
_cell_angle_alpha   90.50471836
_cell_angle_beta   90.00000000
_cell_angle_gamma   90.00000000
_symmetry_Int_Tables_number   1
_chemical_formula_structural   Dy5Ho3Mn2(OsC4)2
_chemical_formula_sum   'Dy5 Ho3 Mn2 Os2 C8'
_cell_volume   316.05093657
_cell_formula_units_Z   1
loop_
 _symmetry_equiv_pos_site_id
 _symmetry_equiv_pos_as_xyz
  1  'x, y, z'
loop_
 _atom_site_type_symbol
 _atom_site_label
 _atom_site_symmetry_multiplicity
 _atom_site_fract_x
 _atom_site_fract_y
 _atom_site_fract_z
 _atom_site_occupancy
  Dy  Dy0  1  0.250000  0.181460  0.948085  1
  Dy  Dy1  1  0.250000  0.524668  0.216099  1
  Dy  Dy2  1  0.750000  0.475518  0.783877  1
  Dy  Dy3  1  0.750000  0.975547  0.714498  1
  Dy  Dy4  1  0.250000  0.024237  0.285610  1
  Ho  Ho5  1  0.250000  0.684763  0.556920  1
  Ho  Ho6  1  0.750000  0.315278  0.442945  1
  Ho  Ho7  1  0.750000  0.819331  0.052472  1
  Mn  Mn8  1  0.250000  0.729178  0.861003  1
  Mn  Mn9  1  0.750000  0.270691  0.139093  1
  Os  Os10  1  0.750000  0.772732  0.360511  1
  Os  Os11  1  0.250000  0.227155  0.639345  1
  C  C12  1  0.250000  0.470885  0.764011  1
  C  C13  1  0.750000  0.529345  0.235593  1
  C  C14  1  0.750000  0.044106  0.254323  1
  C  C15  1  0.250000  0.955656  0.745467  1
  C  C16  1  0.250000  0.812385  0.038654  1
  C  C17  1  0.750000  0.187026  0.961638  1
  C  C18  1  0.750000  0.678115  0.549008  1
  C  C19  1  0.250000  0.321924  0.450848  1
