# generated using pymatgen
data_CaLa15(ErIr3)4
_symmetry_space_group_name_H-M   'P 1'
_cell_length_a   11.27726174
_cell_length_b   11.28755339
_cell_length_c   6.57118300
_cell_angle_alpha   89.93701681
_cell_angle_beta   90.25276298
_cell_angle_gamma   89.87833279
_symmetry_Int_Tables_number   1
_chemical_formula_structural   CaLa15(ErIr3)4
_chemical_formula_sum   'Ca1 La15 Er4 Ir12'
_cell_volume   836.45304679
_cell_formula_units_Z   1
loop_
 _symmetry_equiv_pos_site_id
 _symmetry_equiv_pos_as_xyz
  1  'x, y, z'
loop_
 _atom_site_type_symbol
 _atom_site_label
 _atom_site_symmetry_multiplicity
 _atom_site_fract_x
 _atom_site_fract_y
 _atom_site_fract_z
 _atom_site_occupancy
  Ca  Ca0  1  0.289288  0.087310  0.382521  1
  La  La1  1  0.287620  0.913556  0.886818  1
  La  La2  1  0.711870  0.087630  0.885065  1
  La  La3  1  0.712925  0.913108  0.385229  1
  La  La4  1  0.587894  0.788200  0.884319  1
  La  La5  1  0.583042  0.210704  0.385660  1
  La  La6  1  0.411058  0.792320  0.384895  1
  La  La7  1  0.410153  0.210151  0.886213  1
  La  La8  1  0.211503  0.411400  0.616888  1
  La  La9  1  0.212582  0.588172  0.115101  1
  La  La10  1  0.788019  0.410724  0.115842  1
  La  La11  1  0.788433  0.587974  0.615709  1
  La  La12  1  0.911900  0.711443  0.115330  1
  La  La13  1  0.911712  0.287328  0.618618  1
  La  La14  1  0.087329  0.711907  0.615506  1
  La  La15  1  0.090433  0.287050  0.118721  1
  Er  Er16  1  0.004664  0.001377  0.497633  1
  Er  Er17  1  0.999223  0.000142  0.998751  1
  Er  Er18  1  0.500342  0.500095  0.997437  1
  Er  Er19  1  0.499101  0.501210  0.496885  1
  Ir  Ir20  1  0.853606  0.148875  0.250684  1
  Ir  Ir21  1  0.853042  0.852135  0.748225  1
  Ir  Ir22  1  0.146201  0.148340  0.757635  1
  Ir  Ir23  1  0.144507  0.847039  0.245713  1
  Ir  Ir24  1  0.646669  0.351503  0.748340  1
  Ir  Ir25  1  0.648265  0.647695  0.249787  1
  Ir  Ir26  1  0.351716  0.357042  0.245986  1
  Ir  Ir27  1  0.351945  0.648729  0.747892  1
  Ir  Ir28  1  0.501780  0.999508  0.117283  1
  Ir  Ir29  1  0.502803  0.998800  0.624432  1
  Ir  Ir30  1  0.000251  0.499441  0.880437  1
  Ir  Ir31  1  0.000124  0.499091  0.380443  1
