# generated using pymatgen
data_TbEr3Co4(P3Ir4)4
_symmetry_space_group_name_H-M   'P 1'
_cell_length_a   3.92157800
_cell_length_b   10.70947803
_cell_length_c   12.38144704
_cell_angle_alpha   89.99126208
_cell_angle_beta   90.00000000
_cell_angle_gamma   90.00000000
_symmetry_Int_Tables_number   1
_chemical_formula_structural   TbEr3Co4(P3Ir4)4
_chemical_formula_sum   'Tb1 Er3 Co4 P12 Ir16'
_cell_volume   519.99666822
_cell_formula_units_Z   1
loop_
 _symmetry_equiv_pos_site_id
 _symmetry_equiv_pos_as_xyz
  1  'x, y, z'
loop_
 _atom_site_type_symbol
 _atom_site_label
 _atom_site_symmetry_multiplicity
 _atom_site_fract_x
 _atom_site_fract_y
 _atom_site_fract_z
 _atom_site_occupancy
  Tb  Tb0  1  0.250000  0.585083  0.709894  1
  Er  Er1  1  0.250000  0.915096  0.209816  1
  Er  Er2  1  0.750000  0.414583  0.290318  1
  Er  Er3  1  0.750000  0.085223  0.790026  1
  Co  Co4  1  0.250000  0.460636  0.934416  1
  Co  Co5  1  0.250000  0.038672  0.433799  1
  Co  Co6  1  0.750000  0.539534  0.066446  1
  Co  Co7  1  0.750000  0.962051  0.566088  1
  P  P8  1  0.250000  0.426210  0.105953  1
  P  P9  1  0.250000  0.073619  0.605591  1
  P  P10  1  0.750000  0.573513  0.894666  1
  P  P11  1  0.750000  0.926473  0.394441  1
  P  P12  1  0.250000  0.270332  0.870798  1
  P  P13  1  0.250000  0.229243  0.371285  1
  P  P14  1  0.750000  0.729898  0.128921  1
  P  P15  1  0.750000  0.771272  0.628023  1
  P  P16  1  0.250000  0.594272  0.384878  1
  P  P17  1  0.250000  0.905364  0.884625  1
  P  P18  1  0.750000  0.404941  0.615223  1
  P  P19  1  0.750000  0.094357  0.115223  1
  Ir  Ir20  1  0.250000  0.720639  0.981035  1
  Ir  Ir21  1  0.250000  0.779152  0.480351  1
  Ir  Ir22  1  0.750000  0.279680  0.020498  1
  Ir  Ir23  1  0.750000  0.220812  0.518735  1
  Ir  Ir24  1  0.250000  0.407319  0.477430  1
  Ir  Ir25  1  0.250000  0.092422  0.977433  1
  Ir  Ir26  1  0.750000  0.592200  0.520865  1
  Ir  Ir27  1  0.750000  0.907772  0.022335  1
  Ir  Ir28  1  0.250000  0.232522  0.180593  1
  Ir  Ir29  1  0.250000  0.267451  0.679367  1
  Ir  Ir30  1  0.750000  0.768441  0.820501  1
  Ir  Ir31  1  0.750000  0.733221  0.319562  1
  Ir  Ir32  1  0.250000  0.886602  0.698822  1
  Ir  Ir33  1  0.250000  0.613412  0.199463  1
  Ir  Ir34  1  0.750000  0.113411  0.300772  1
  Ir  Ir35  1  0.750000  0.384571  0.801808  1
