# generated using pymatgen
data_UHg2(MoO5)2
_symmetry_space_group_name_H-M   'P 1'
_cell_length_a   6.56533124
_cell_length_b   6.06160264
_cell_length_c   8.44272446
_cell_angle_alpha   102.48755723
_cell_angle_beta   98.79498918
_cell_angle_gamma   100.15214895
_symmetry_Int_Tables_number   1
_chemical_formula_structural   UHg2(MoO5)2
_chemical_formula_sum   'U1 Hg2 Mo2 O10'
_cell_volume   316.46360970
_cell_formula_units_Z   1
loop_
 _symmetry_equiv_pos_site_id
 _symmetry_equiv_pos_as_xyz
  1  'x, y, z'
loop_
 _atom_site_type_symbol
 _atom_site_label
 _atom_site_symmetry_multiplicity
 _atom_site_fract_x
 _atom_site_fract_y
 _atom_site_fract_z
 _atom_site_occupancy
  U  U0  1  0.000000  0.000000  0.000000  1
  Hg  Hg1  1  0.535918  0.177764  0.439215  1
  Hg  Hg2  1  0.464080  0.822236  0.560785  1
  Mo  Mo3  1  0.854680  0.574773  0.270525  1
  Mo  Mo4  1  0.145320  0.425227  0.729475  1
  O  O5  1  0.816161  0.770801  0.138347  1
  O  O6  1  0.240957  0.017615  0.145726  1
  O  O7  1  0.945546  0.331033  0.160558  1
  O  O8  1  0.609331  0.479025  0.336966  1
  O  O9  1  0.046435  0.725134  0.445509  1
  O  O10  1  0.953564  0.274865  0.554490  1
  O  O11  1  0.390670  0.520975  0.663035  1
  O  O12  1  0.054455  0.668968  0.839443  1
  O  O13  1  0.759044  0.982385  0.854274  1
  O  O14  1  0.183839  0.229199  0.861653  1
