# generated using pymatgen
data_Tb3Er5Cd2IrPd
_symmetry_space_group_name_H-M   'P 1'
_cell_length_a   9.62953544
_cell_length_b   9.62953469
_cell_length_c   9.60437700
_cell_angle_alpha   60.08638163
_cell_angle_beta   60.08638420
_cell_angle_gamma   60.26359456
_symmetry_Int_Tables_number   1
_chemical_formula_structural   Tb3Er5Cd2IrPd
_chemical_formula_sum   'Tb6 Er10 Cd4 Ir2 Pd2'
_cell_volume   631.81600183
_cell_formula_units_Z   2
loop_
 _symmetry_equiv_pos_site_id
 _symmetry_equiv_pos_as_xyz
  1  'x, y, z'
loop_
 _atom_site_type_symbol
 _atom_site_label
 _atom_site_symmetry_multiplicity
 _atom_site_fract_x
 _atom_site_fract_y
 _atom_site_fract_z
 _atom_site_occupancy
  Tb  Tb0  1  0.187408  0.815601  0.811372  1
  Tb  Tb1  1  0.815601  0.187408  0.185619  1
  Tb  Tb2  1  0.815601  0.187408  0.811372  1
  Tb  Tb3  1  0.187408  0.815601  0.185619  1
  Tb  Tb4  1  0.813566  0.813566  0.186434  1
  Tb  Tb5  1  0.186727  0.186727  0.813273  1
  Er  Er6  1  0.601342  0.601342  0.594749  1
  Er  Er7  1  0.601342  0.601342  0.202568  1
  Er  Er8  1  0.608725  0.191783  0.599747  1
  Er  Er9  1  0.191783  0.608725  0.599747  1
  Er  Er10  1  0.056244  0.439646  0.439380  1
  Er  Er11  1  0.439646  0.056244  0.064730  1
  Er  Er12  1  0.439646  0.056244  0.439380  1
  Er  Er13  1  0.056244  0.439646  0.064730  1
  Er  Er14  1  0.440742  0.440742  0.059258  1
  Er  Er15  1  0.061867  0.061867  0.438133  1
  Cd  Cd16  1  0.831012  0.831012  0.832064  1
  Cd  Cd17  1  0.831012  0.831012  0.505911  1
  Cd  Cd18  1  0.830157  0.506252  0.831796  1
  Cd  Cd19  1  0.506252  0.830157  0.831796  1
  Ir  Ir20  1  0.390493  0.822645  0.393432  1
  Ir  Ir21  1  0.822645  0.390493  0.393432  1
  Pd  Pd22  1  0.392270  0.392270  0.395986  1
  Pd  Pd23  1  0.392270  0.392270  0.819473  1
