# generated using pymatgen
data_Ba2Be2AlCu15Si8
_symmetry_space_group_name_H-M   'P 1'
_cell_length_a   8.22855344
_cell_length_b   8.22858309
_cell_length_c   8.24649874
_cell_angle_alpha   121.01590697
_cell_angle_beta   120.34964590
_cell_angle_gamma   88.68997573
_symmetry_Int_Tables_number   1
_chemical_formula_structural   Ba2Be2AlCu15Si8
_chemical_formula_sum   'Ba2 Be2 Al1 Cu15 Si8'
_cell_volume   391.08241920
_cell_formula_units_Z   1
loop_
 _symmetry_equiv_pos_site_id
 _symmetry_equiv_pos_as_xyz
  1  'x, y, z'
loop_
 _atom_site_type_symbol
 _atom_site_label
 _atom_site_symmetry_multiplicity
 _atom_site_fract_x
 _atom_site_fract_y
 _atom_site_fract_z
 _atom_site_occupancy
  Ba  Ba0  1  0.252454  0.251026  0.001062  1
  Ba  Ba1  1  0.750028  0.748446  0.001024  1
  Be  Be2  1  0.499518  0.998520  0.498083  1
  Be  Be3  1  0.002366  0.503340  0.505794  1
  Al  Al4  1  0.944969  0.197725  0.142716  1
  Cu  Cu5  1  0.214969  0.060198  0.275217  1
  Cu  Cu6  1  0.783412  0.944979  0.728426  1
  Cu  Cu7  1  0.444351  0.289486  0.733460  1
  Cu  Cu8  1  0.054311  0.792695  0.846962  1
  Cu  Cu9  1  0.795041  0.058260  0.498639  1
  Cu  Cu10  1  0.559877  0.295207  0.497177  1
  Cu  Cu11  1  0.201691  0.937570  0.496867  1
  Cu  Cu12  1  0.441479  0.704195  0.500304  1
  Cu  Cu13  1  0.941191  0.443932  0.738898  1
  Cu  Cu14  1  0.710938  0.205289  0.263549  1
  Cu  Cu15  1  0.058853  0.552336  0.263646  1
  Cu  Cu16  1  0.714941  0.439888  0.155074  1
  Cu  Cu17  1  0.556253  0.710718  0.266578  1
  Cu  Cu18  1  0.294015  0.797717  0.738166  1
  Cu  Cu19  1  0.286238  0.558898  0.845353  1
  Si  Si20  1  0.786598  0.294563  0.842042  1
  Si  Si21  1  0.547150  0.055615  0.842053  1
  Si  Si22  1  0.062309  0.211127  0.511190  1
  Si  Si23  1  0.300239  0.448864  0.511438  1
  Si  Si24  1  0.938088  0.789483  0.497876  1
  Si  Si25  1  0.440609  0.940797  0.149765  1
  Si  Si26  1  0.209469  0.709173  0.150266  1
  Si  Si27  1  0.708639  0.559952  0.498375  1
