# generated using pymatgen
data_LiZr14Pd19
_symmetry_space_group_name_H-M   'P 1'
_cell_length_a   8.17836685
_cell_length_b   8.17836703
_cell_length_c   9.73630815
_cell_angle_alpha   90.37362529
_cell_angle_beta   90.37362312
_cell_angle_gamma   106.68802858
_symmetry_Int_Tables_number   1
_chemical_formula_structural   LiZr14Pd19
_chemical_formula_sum   'Li1 Zr14 Pd19'
_cell_volume   623.75470317
_cell_formula_units_Z   1
loop_
 _symmetry_equiv_pos_site_id
 _symmetry_equiv_pos_as_xyz
  1  'x, y, z'
loop_
 _atom_site_type_symbol
 _atom_site_label
 _atom_site_symmetry_multiplicity
 _atom_site_fract_x
 _atom_site_fract_y
 _atom_site_fract_z
 _atom_site_occupancy
  Li  Li0  1  0.888417  0.888417  0.112160  1
  Zr  Zr1  1  0.690580  0.307589  0.499413  1
  Zr  Zr2  1  0.202307  0.808915  0.995875  1
  Zr  Zr3  1  0.503924  0.999882  0.748664  1
  Zr  Zr4  1  0.999899  0.498346  0.250587  1
  Zr  Zr5  1  0.999882  0.503924  0.748664  1
  Zr  Zr6  1  0.498345  0.999898  0.250587  1
  Zr  Zr7  1  0.814239  0.814239  0.805426  1
  Zr  Zr8  1  0.195247  0.195247  0.185855  1
  Zr  Zr9  1  0.311458  0.311458  0.688025  1
  Zr  Zr10  1  0.674411  0.674411  0.324466  1
  Zr  Zr11  1  0.998584  0.998584  0.497872  1
  Zr  Zr12  1  0.501280  0.501280  0.002348  1
  Zr  Zr13  1  0.307589  0.690580  0.499413  1
  Zr  Zr14  1  0.808915  0.202307  0.995875  1
  Pd  Pd15  1  0.357597  0.648087  0.793095  1
  Pd  Pd16  1  0.349823  0.647034  0.207208  1
  Pd  Pd17  1  0.859285  0.151463  0.707128  1
  Pd  Pd18  1  0.853356  0.134136  0.285093  1
  Pd  Pd19  1  0.151463  0.859285  0.707128  1
  Pd  Pd20  1  0.134136  0.853356  0.285093  1
  Pd  Pd21  1  0.648087  0.357597  0.793095  1
  Pd  Pd22  1  0.647034  0.349823  0.207208  1
  Pd  Pd23  1  0.645964  0.939063  0.501858  1
  Pd  Pd24  1  0.061174  0.352235  0.496590  1
  Pd  Pd25  1  0.144688  0.438789  0.995587  1
  Pd  Pd26  1  0.576320  0.856328  0.006243  1
  Pd  Pd27  1  0.939063  0.645964  0.501858  1
  Pd  Pd28  1  0.352235  0.061174  0.496590  1
  Pd  Pd29  1  0.438789  0.144688  0.995587  1
  Pd  Pd30  1  0.856328  0.576320  0.006243  1
  Pd  Pd31  1  0.603004  0.603004  0.604657  1
  Pd  Pd32  1  0.394624  0.394624  0.396284  1
  Pd  Pd33  1  0.091953  0.091953  0.908224  1
