# generated using pymatgen
data_PrSmLu3Si4
_symmetry_space_group_name_H-M   'P 1'
_cell_length_a   7.37898929
_cell_length_b   7.68404637
_cell_length_c   14.55646810
_cell_angle_alpha   90.00921233
_cell_angle_beta   90.06084497
_cell_angle_gamma   90.08951421
_symmetry_Int_Tables_number   1
_chemical_formula_structural   PrSmLu3Si4
_chemical_formula_sum   'Pr4 Sm4 Lu12 Si16'
_cell_volume   825.35747592
_cell_formula_units_Z   4
loop_
 _symmetry_equiv_pos_site_id
 _symmetry_equiv_pos_as_xyz
  1  'x, y, z'
loop_
 _atom_site_type_symbol
 _atom_site_label
 _atom_site_symmetry_multiplicity
 _atom_site_fract_x
 _atom_site_fract_y
 _atom_site_fract_z
 _atom_site_occupancy
  Pr  Pr0  1  0.013705  0.175440  0.098190  1
  Pr  Pr1  1  0.986084  0.824939  0.902151  1
  Pr  Pr2  1  0.486732  0.674728  0.902948  1
  Pr  Pr3  1  0.985931  0.824589  0.596841  1
  Sm  Sm4  1  0.513981  0.323973  0.098751  1
  Sm  Sm5  1  0.014737  0.176575  0.401390  1
  Sm  Sm6  1  0.514358  0.323704  0.401992  1
  Sm  Sm7  1  0.485602  0.675930  0.597672  1
  Lu  Lu8  1  0.161226  0.506436  0.749478  1
  Lu  Lu9  1  0.838791  0.492719  0.250499  1
  Lu  Lu10  1  0.339345  0.007467  0.250464  1
  Lu  Lu11  1  0.660649  0.993332  0.749537  1
  Lu  Lu12  1  0.329390  0.177516  0.623687  1
  Lu  Lu13  1  0.670705  0.822682  0.375918  1
  Lu  Lu14  1  0.171544  0.676645  0.376149  1
  Lu  Lu15  1  0.670783  0.822995  0.124670  1
  Lu  Lu16  1  0.828708  0.323279  0.623485  1
  Lu  Lu17  1  0.329448  0.177161  0.875676  1
  Lu  Lu18  1  0.828614  0.323490  0.875914  1
  Lu  Lu19  1  0.171490  0.676239  0.124501  1
  Si  Si20  1  0.034600  0.118167  0.749774  1
  Si  Si21  1  0.965941  0.883377  0.250933  1
  Si  Si22  1  0.466173  0.614612  0.250237  1
  Si  Si23  1  0.534339  0.383765  0.749129  1
  Si  Si24  1  0.284557  0.877381  0.748927  1
  Si  Si25  1  0.715771  0.124686  0.251217  1
  Si  Si26  1  0.219273  0.376276  0.251047  1
  Si  Si27  1  0.781130  0.621756  0.748795  1
  Si  Si28  1  0.156297  0.464593  0.538583  1
  Si  Si29  1  0.844023  0.531346  0.459883  1
  Si  Si30  1  0.345391  0.967073  0.460535  1
  Si  Si31  1  0.843807  0.533107  0.039825  1
  Si  Si32  1  0.652450  0.034810  0.538425  1
  Si  Si33  1  0.154015  0.465091  0.961241  1
  Si  Si34  1  0.652736  0.036531  0.961921  1
  Si  Si35  1  0.347673  0.967590  0.039618  1
