# generated using pymatgen
data_Yb4DyHo5Ir4
_symmetry_space_group_name_H-M   'P 1'
_cell_length_a   6.51317985
_cell_length_b   7.26580427
_cell_length_c   8.47035924
_cell_angle_alpha   97.01383107
_cell_angle_beta   112.62754847
_cell_angle_gamma   90.02868741
_symmetry_Int_Tables_number   1
_chemical_formula_structural   Yb4DyHo5Ir4
_chemical_formula_sum   'Yb4 Dy1 Ho5 Ir4'
_cell_volume   366.72959913
_cell_formula_units_Z   1
loop_
 _symmetry_equiv_pos_site_id
 _symmetry_equiv_pos_as_xyz
  1  'x, y, z'
loop_
 _atom_site_type_symbol
 _atom_site_label
 _atom_site_symmetry_multiplicity
 _atom_site_fract_x
 _atom_site_fract_y
 _atom_site_fract_z
 _atom_site_occupancy
  Yb  Yb0  1  0.973800  0.920953  0.182866  1
  Yb  Yb1  1  0.790908  0.579012  0.817191  1
  Yb  Yb2  1  0.026343  0.079151  0.817189  1
  Yb  Yb3  1  0.209023  0.420869  0.182833  1
  Dy  Dy4  1  0.650717  0.817972  0.439926  1
  Ho  Ho5  1  0.210798  0.681961  0.560250  1
  Ho  Ho6  1  0.349338  0.182054  0.560251  1
  Ho  Ho7  1  0.789366  0.317970  0.439809  1
  Ho  Ho8  1  0.431232  0.749978  0.999813  1
  Ho  Ho9  1  0.568718  0.250002  0.000009  1
  Ir  Ir10  1  0.815355  0.572059  0.226443  1
  Ir  Ir11  1  0.588547  0.927752  0.773626  1
  Ir  Ir12  1  0.184716  0.427707  0.773353  1
  Ir  Ir13  1  0.411140  0.072561  0.226442  1
