# generated using pymatgen
data_Ca2Zn9Cu
_symmetry_space_group_name_H-M   'P 1'
_cell_length_a   6.86975697
_cell_length_b   6.86975832
_cell_length_c   6.87036927
_cell_angle_alpha   134.46121928
_cell_angle_beta   103.65292349
_cell_angle_gamma   93.63787040
_symmetry_Int_Tables_number   1
_chemical_formula_structural   Ca2Zn9Cu
_chemical_formula_sum   'Ca2 Zn9 Cu1'
_cell_volume   212.29048597
_cell_formula_units_Z   1
loop_
 _symmetry_equiv_pos_site_id
 _symmetry_equiv_pos_as_xyz
  1  'x, y, z'
loop_
 _atom_site_type_symbol
 _atom_site_label
 _atom_site_symmetry_multiplicity
 _atom_site_fract_x
 _atom_site_fract_y
 _atom_site_fract_z
 _atom_site_occupancy
  Ca  Ca0  1  0.751057  0.497545  0.748602  1
  Ca  Ca1  1  0.248943  0.502455  0.251398  1
  Zn  Zn2  1  0.085487  0.840071  0.751282  1
  Zn  Zn3  1  0.411212  0.165796  0.751282  1
  Zn  Zn4  1  0.588788  0.834204  0.248718  1
  Zn  Zn5  1  0.914513  0.159929  0.248718  1
  Zn  Zn6  1  0.500000  0.000000  0.000000  1
  Zn  Zn7  1  0.754533  0.007396  0.751093  1
  Zn  Zn8  1  0.756303  0.503439  0.248907  1
  Zn  Zn9  1  0.243697  0.496561  0.751093  1
  Zn  Zn10  1  0.245467  0.992604  0.248907  1
  Cu  Cu11  1  0.000000  0.000000  0.500000  1
