# generated using pymatgen
data_Hf6Al6GaPt5
_symmetry_space_group_name_H-M   'P 1'
_cell_length_a   6.74758100
_cell_length_b   6.74758113
_cell_length_c   8.05187400
_cell_angle_alpha   90.00000000
_cell_angle_beta   90.00000000
_cell_angle_gamma   119.99999446
_symmetry_Int_Tables_number   1
_chemical_formula_structural   Hf6Al6GaPt5
_chemical_formula_sum   'Hf6 Al6 Ga1 Pt5'
_cell_volume   317.48546539
_cell_formula_units_Z   1
loop_
 _symmetry_equiv_pos_site_id
 _symmetry_equiv_pos_as_xyz
  1  'x, y, z'
loop_
 _atom_site_type_symbol
 _atom_site_label
 _atom_site_symmetry_multiplicity
 _atom_site_fract_x
 _atom_site_fract_y
 _atom_site_fract_z
 _atom_site_occupancy
  Hf  Hf0  1  0.582419  0.998536  0.744266  1
  Hf  Hf1  1  0.001464  0.583883  0.744266  1
  Hf  Hf2  1  0.416117  0.417581  0.744266  1
  Hf  Hf3  1  0.000490  0.583279  0.255785  1
  Hf  Hf4  1  0.582789  0.999510  0.255785  1
  Hf  Hf5  1  0.416721  0.417211  0.255785  1
  Al  Al6  1  0.749125  0.757345  0.999987  1
  Al  Al7  1  0.242655  0.991779  0.999987  1
  Al  Al8  1  0.008221  0.250875  0.999987  1
  Al  Al9  1  0.752736  0.752679  0.499957  1
  Al  Al10  1  0.247321  0.000057  0.499957  1
  Al  Al11  1  0.999943  0.247264  0.499957  1
  Ga  Ga12  1  0.666667  0.333333  0.999526  1
  Pt  Pt13  1  0.000000  0.000000  0.751143  1
  Pt  Pt14  1  0.000000  0.000000  0.249221  1
  Pt  Pt15  1  0.666667  0.333333  0.500950  1
  Pt  Pt16  1  0.333333  0.666667  0.499190  1
  Pt  Pt17  1  0.333333  0.666667  0.999988  1
