# generated using pymatgen
data_Tb2Ge2Os2C
_symmetry_space_group_name_H-M   'P 1'
_cell_length_a   5.90917981
_cell_length_b   5.90917990
_cell_length_c   6.90032055
_cell_angle_alpha   125.19283685
_cell_angle_beta   125.19283771
_cell_angle_gamma   41.24564946
_symmetry_Int_Tables_number   1
_chemical_formula_structural   Tb2Ge2Os2C
_chemical_formula_sum   'Tb2 Ge2 Os2 C1'
_cell_volume   125.16299089
_cell_formula_units_Z   1
loop_
 _symmetry_equiv_pos_site_id
 _symmetry_equiv_pos_as_xyz
  1  'x, y, z'
loop_
 _atom_site_type_symbol
 _atom_site_label
 _atom_site_symmetry_multiplicity
 _atom_site_fract_x
 _atom_site_fract_y
 _atom_site_fract_z
 _atom_site_occupancy
  Tb  Tb0  1  0.561391  0.561391  0.293397  1
  Tb  Tb1  1  0.438610  0.438610  0.706602  1
  Ge  Ge2  1  0.845051  0.845051  0.307845  1
  Ge  Ge3  1  0.154949  0.154949  0.692154  1
  Os  Os4  1  0.202266  0.202266  0.099933  1
  Os  Os5  1  0.797734  0.797734  0.900068  1
  C  C6  1  0.000000  0.000000  0.000000  1
