# generated using pymatgen
data_Rb2YPuO6
_symmetry_space_group_name_H-M   'P 1'
_cell_length_a   6.13099839
_cell_length_b   6.13099939
_cell_length_c   6.13099900
_cell_angle_alpha   59.99987646
_cell_angle_beta   59.99987192
_cell_angle_gamma   89.99979692
_symmetry_Int_Tables_number   1
_chemical_formula_structural   Rb2YPuO6
_chemical_formula_sum   'Rb2 Y1 Pu1 O6'
_cell_volume   162.95880832
_cell_formula_units_Z   1
loop_
 _symmetry_equiv_pos_site_id
 _symmetry_equiv_pos_as_xyz
  1  'x, y, z'
loop_
 _atom_site_type_symbol
 _atom_site_label
 _atom_site_symmetry_multiplicity
 _atom_site_fract_x
 _atom_site_fract_y
 _atom_site_fract_z
 _atom_site_occupancy
  Rb  Rb0  1  0.250001  0.750001  0.499999  1
  Rb  Rb1  1  0.750000  0.249999  0.500001  1
  Y  Y2  1  0.000000  0.000000  0.000000  1
  Pu  Pu3  1  0.500001  0.500001  0.000000  1
  O  O4  1  0.734486  0.265514  0.000000  1
  O  O5  1  0.265516  0.265516  0.000000  1
  O  O6  1  0.265515  0.734486  0.000000  1
  O  O7  1  0.734485  0.734485  0.000000  1
  O  O8  1  0.734485  0.734485  0.531031  1
  O  O9  1  0.265516  0.265516  0.468967  1
