# generated using pymatgen
data_Tl5Bi(SbO7)2
_symmetry_space_group_name_H-M   'P 1'
_cell_length_a   6.53361968
_cell_length_b   6.53361930
_cell_length_c   7.59093100
_cell_angle_alpha   90.14761511
_cell_angle_beta   89.85238490
_cell_angle_gamma   109.02987569
_symmetry_Int_Tables_number   1
_chemical_formula_structural   Tl5Bi(SbO7)2
_chemical_formula_sum   'Tl5 Bi1 Sb2 O14'
_cell_volume   306.33214442
_cell_formula_units_Z   1
loop_
 _symmetry_equiv_pos_site_id
 _symmetry_equiv_pos_as_xyz
  1  'x, y, z'
loop_
 _atom_site_type_symbol
 _atom_site_label
 _atom_site_symmetry_multiplicity
 _atom_site_fract_x
 _atom_site_fract_y
 _atom_site_fract_z
 _atom_site_occupancy
  Tl  Tl0  1  0.500000  0.500000  0.000000  1
  Tl  Tl1  1  0.524889  0.997061  0.754103  1
  Tl  Tl2  1  0.997061  0.524889  0.245897  1
  Tl  Tl3  1  0.475111  0.002939  0.245897  1
  Tl  Tl4  1  0.002939  0.475111  0.754103  1
  Bi  Bi5  1  0.500000  0.500000  0.500000  1
  Sb  Sb6  1  0.000000  0.000000  0.500000  1
  Sb  Sb7  1  0.000000  0.000000  0.000000  1
  O  O8  1  0.675802  0.924800  0.475649  1
  O  O9  1  0.924800  0.675802  0.524351  1
  O  O10  1  0.679270  0.930414  0.023448  1
  O  O11  1  0.930414  0.679270  0.976552  1
  O  O12  1  0.324198  0.075200  0.524351  1
  O  O13  1  0.075200  0.324198  0.475649  1
  O  O14  1  0.320730  0.069586  0.976552  1
  O  O15  1  0.069586  0.320730  0.023448  1
  O  O16  1  0.944860  0.055140  0.749563  1
  O  O17  1  0.055140  0.944860  0.250437  1
  O  O18  1  0.370823  0.629177  0.758872  1
  O  O19  1  0.629177  0.370823  0.241128  1
  O  O20  1  0.642377  0.357623  0.752642  1
  O  O21  1  0.357623  0.642377  0.247358  1
