# generated using pymatgen
data_Cu2Bi2SeSO2
_symmetry_space_group_name_H-M   'P 1'
_cell_length_a   3.92888600
_cell_length_b   3.92888600
_cell_length_c   8.88172800
_cell_angle_alpha   90.00000000
_cell_angle_beta   90.00000000
_cell_angle_gamma   90.00000000
_symmetry_Int_Tables_number   1
_chemical_formula_structural   Cu2Bi2SeSO2
_chemical_formula_sum   'Cu2 Bi2 Se1 S1 O2'
_cell_volume   137.09964304
_cell_formula_units_Z   1
loop_
 _symmetry_equiv_pos_site_id
 _symmetry_equiv_pos_as_xyz
  1  'x, y, z'
loop_
 _atom_site_type_symbol
 _atom_site_label
 _atom_site_symmetry_multiplicity
 _atom_site_fract_x
 _atom_site_fract_y
 _atom_site_fract_z
 _atom_site_occupancy
  Cu  Cu0  1  0.000000  0.500000  0.485019  1
  Cu  Cu1  1  0.500000  0.000000  0.485019  1
  Bi  Bi2  1  0.500000  0.500000  0.859018  1
  Bi  Bi3  1  0.000000  0.000000  0.146671  1
  Se  Se4  1  0.000000  0.000000  0.673987  1
  S  S5  1  0.500000  0.500000  0.336819  1
  O  O6  1  0.000000  0.500000  0.006733  1
  O  O7  1  0.500000  0.000000  0.006733  1
