# generated using pymatgen
data_Y2Tm2Ga12Rh
_symmetry_space_group_name_H-M   'P 1'
_cell_length_a   7.46548585
_cell_length_b   7.46548625
_cell_length_c   7.44324420
_cell_angle_alpha   109.44891068
_cell_angle_beta   109.44890573
_cell_angle_gamma   109.63651931
_symmetry_Int_Tables_number   1
_chemical_formula_structural   Y2Tm2Ga12Rh
_chemical_formula_sum   'Y2 Tm2 Ga12 Rh1'
_cell_volume   318.86504642
_cell_formula_units_Z   1
loop_
 _symmetry_equiv_pos_site_id
 _symmetry_equiv_pos_as_xyz
  1  'x, y, z'
loop_
 _atom_site_type_symbol
 _atom_site_label
 _atom_site_symmetry_multiplicity
 _atom_site_fract_x
 _atom_site_fract_y
 _atom_site_fract_z
 _atom_site_occupancy
  Y  Y0  1  0.500000  0.500000  0.500000  1
  Y  Y1  1  0.000000  0.000000  0.500000  1
  Tm  Tm2  1  0.000000  0.500000  0.000000  1
  Tm  Tm3  1  0.500000  0.000000  0.000000  1
  Ga  Ga4  1  0.750000  0.250000  0.500000  1
  Ga  Ga5  1  0.001526  0.708448  0.709975  1
  Ga  Ga6  1  0.291552  0.998474  0.290025  1
  Ga  Ga7  1  0.501533  0.250300  0.751832  1
  Ga  Ga8  1  0.749700  0.498467  0.248168  1
  Ga  Ga9  1  0.250000  0.750000  0.500000  1
  Ga  Ga10  1  0.250300  0.501533  0.751832  1
  Ga  Ga11  1  0.708448  0.001526  0.709975  1
  Ga  Ga12  1  0.498467  0.749700  0.248168  1
  Ga  Ga13  1  0.708104  0.708104  0.000000  1
  Ga  Ga14  1  0.291896  0.291896  0.000000  1
  Ga  Ga15  1  0.998474  0.291552  0.290025  1
  Rh  Rh16  1  0.000000  0.000000  0.000000  1
