# generated using pymatgen
data_YbHo3Al18OsPd5
_symmetry_space_group_name_H-M   'P 1'
_cell_length_a   7.63190699
_cell_length_b   7.62810908
_cell_length_c   9.47113918
_cell_angle_alpha   90.07343600
_cell_angle_beta   90.09363849
_cell_angle_gamma   119.67452179
_symmetry_Int_Tables_number   1
_chemical_formula_structural   YbHo3Al18OsPd5
_chemical_formula_sum   'Yb1 Ho3 Al18 Os1 Pd5'
_cell_volume   479.06674452
_cell_formula_units_Z   1
loop_
 _symmetry_equiv_pos_site_id
 _symmetry_equiv_pos_as_xyz
  1  'x, y, z'
loop_
 _atom_site_type_symbol
 _atom_site_label
 _atom_site_symmetry_multiplicity
 _atom_site_fract_x
 _atom_site_fract_y
 _atom_site_fract_z
 _atom_site_occupancy
  Yb  Yb0  1  0.994637  0.669913  0.248724  1
  Ho  Ho1  1  0.004896  0.331024  0.750946  1
  Ho  Ho2  1  0.670011  0.996109  0.248860  1
  Ho  Ho3  1  0.330030  0.004000  0.751229  1
  Al  Al4  1  0.128630  0.132003  0.249099  1
  Al  Al5  1  0.870349  0.871999  0.750810  1
  Al  Al6  1  0.995873  0.334901  0.075461  1
  Al  Al7  1  0.995227  0.659708  0.925551  1
  Al  Al8  1  0.998923  0.666067  0.577694  1
  Al  Al9  1  0.333734  0.000367  0.421759  1
  Al  Al10  1  0.000616  0.334666  0.423355  1
  Al  Al11  1  0.665451  0.999708  0.577353  1
  Al  Al12  1  0.666026  0.003303  0.924185  1
  Al  Al13  1  0.339688  0.003874  0.075464  1
  Al  Al14  1  0.333589  0.333876  0.560150  1
  Al  Al15  1  0.665327  0.666204  0.441120  1
  Al  Al16  1  0.668419  0.662205  0.053236  1
  Al  Al17  1  0.336939  0.331552  0.946022  1
  Al  Al18  1  0.340386  0.547398  0.249080  1
  Al  Al19  1  0.660726  0.452287  0.753254  1
  Al  Al20  1  0.547059  0.338017  0.246264  1
  Al  Al21  1  0.454408  0.662554  0.750981  1
  Os  Os22  1  0.671254  0.326201  0.999061  1
  Pd  Pd23  1  0.328164  0.671822  0.999440  1
  Pd  Pd24  1  0.327744  0.672148  0.500539  1
  Pd  Pd25  1  0.671479  0.328009  0.500437  1
  Pd  Pd26  1  0.000528  0.999848  0.999627  1
  Pd  Pd27  1  0.999890  0.000236  0.500298  1
