# generated using pymatgen
data_PmBr7
_symmetry_space_group_name_H-M   'P 1'
_cell_length_a   5.84821945
_cell_length_b   4.45261474
_cell_length_c   16.14106100
_cell_angle_alpha   116.79329677
_cell_angle_beta   92.03502770
_cell_angle_gamma   91.39935111
_symmetry_Int_Tables_number   1
_chemical_formula_structural   PmBr7
_chemical_formula_sum   'Pm1 Br7'
_cell_volume   374.56403138
_cell_formula_units_Z   1
loop_
 _symmetry_equiv_pos_site_id
 _symmetry_equiv_pos_as_xyz
  1  'x, y, z'
loop_
 _atom_site_type_symbol
 _atom_site_label
 _atom_site_symmetry_multiplicity
 _atom_site_fract_x
 _atom_site_fract_y
 _atom_site_fract_z
 _atom_site_occupancy
  Pm  Pm0  1  0.145126  0.810954  0.897643  1
  Br  Br1  1  0.164177  0.524561  0.028240  1
  Br  Br2  1  0.169629  0.288096  0.375684  1
  Br  Br3  1  0.448771  0.008156  0.486982  1
  Br  Br4  1  0.702592  0.439011  0.592444  1
  Br  Br5  1  0.902559  0.361749  0.274037  1
  Br  Br6  1  0.126402  0.092447  0.765467  1
  Br  Br7  1  0.645509  0.818072  0.900467  1
