# generated using pymatgen
data_Hf4Nb2Co16Si6As
_symmetry_space_group_name_H-M   'P 1'
_cell_length_a   8.00346149
_cell_length_b   7.99410213
_cell_length_c   7.99410318
_cell_angle_alpha   60.12805561
_cell_angle_beta   59.96126661
_cell_angle_gamma   59.96125880
_symmetry_Int_Tables_number   1
_chemical_formula_structural   Hf4Nb2Co16Si6As
_chemical_formula_sum   'Hf4 Nb2 Co16 Si6 As1'
_cell_volume   361.79771094
_cell_formula_units_Z   1
loop_
 _symmetry_equiv_pos_site_id
 _symmetry_equiv_pos_as_xyz
  1  'x, y, z'
loop_
 _atom_site_type_symbol
 _atom_site_label
 _atom_site_symmetry_multiplicity
 _atom_site_fract_x
 _atom_site_fract_y
 _atom_site_fract_z
 _atom_site_occupancy
  Hf  Hf0  1  0.204887  0.796176  0.203824  1
  Hf  Hf1  1  0.201900  0.799057  0.797142  1
  Hf  Hf2  1  0.798100  0.202858  0.200943  1
  Hf  Hf3  1  0.795113  0.796176  0.203824  1
  Nb  Nb4  1  0.201130  0.202262  0.797738  1
  Nb  Nb5  1  0.798870  0.202262  0.797738  1
  Co  Co6  1  0.168776  0.168917  0.168129  1
  Co  Co7  1  0.505823  0.831871  0.831083  1
  Co  Co8  1  0.832433  0.503315  0.831820  1
  Co  Co9  1  0.830840  0.830854  0.507468  1
  Co  Co10  1  0.169160  0.492532  0.169146  1
  Co  Co11  1  0.167567  0.168180  0.496685  1
  Co  Co12  1  0.494177  0.168917  0.168129  1
  Co  Co13  1  0.831224  0.831871  0.831083  1
  Co  Co14  1  0.378505  0.378204  0.382951  1
  Co  Co15  1  0.139660  0.617049  0.621796  1
  Co  Co16  1  0.617802  0.142630  0.621766  1
  Co  Co17  1  0.621395  0.620806  0.136404  1
  Co  Co18  1  0.378605  0.863596  0.379194  1
  Co  Co19  1  0.382198  0.378234  0.857370  1
  Co  Co20  1  0.860340  0.378204  0.382951  1
  Co  Co21  1  0.621495  0.617049  0.621796  1
  Si  Si22  1  0.001882  0.499459  0.998234  1
  Si  Si23  1  0.500000  0.003448  0.996552  1
  Si  Si24  1  0.000000  0.499177  0.500823  1
  Si  Si25  1  0.499576  0.001766  0.500541  1
  Si  Si26  1  0.998118  0.001766  0.500541  1
  Si  Si27  1  0.500424  0.499459  0.998234  1
  As  As28  1  0.500000  0.503904  0.496096  1
