# generated using pymatgen
data_Rb8Hf3Zr3BBr20
_symmetry_space_group_name_H-M   'P 1'
_cell_length_a   12.05372608
_cell_length_b   12.05013806
_cell_length_c   12.04855653
_cell_angle_alpha   60.02404750
_cell_angle_beta   59.99448094
_cell_angle_gamma   59.98146941
_symmetry_Int_Tables_number   1
_chemical_formula_structural   Rb8Hf3Zr3BBr20
_chemical_formula_sum   'Rb8 Hf3 Zr3 B1 Br20'
_cell_volume   1237.46586906
_cell_formula_units_Z   1
loop_
 _symmetry_equiv_pos_site_id
 _symmetry_equiv_pos_as_xyz
  1  'x, y, z'
loop_
 _atom_site_type_symbol
 _atom_site_label
 _atom_site_symmetry_multiplicity
 _atom_site_fract_x
 _atom_site_fract_y
 _atom_site_fract_z
 _atom_site_occupancy
  Rb  Rb0  1  0.360984  0.361027  0.360428  1
  Rb  Rb1  1  0.638881  0.639478  0.639442  1
  Rb  Rb2  1  0.360522  0.361119  0.917804  1
  Rb  Rb3  1  0.360428  0.917563  0.360984  1
  Rb  Rb4  1  0.638973  0.639016  0.082437  1
  Rb  Rb5  1  0.639442  0.082196  0.638881  1
  Rb  Rb6  1  0.917804  0.360558  0.360522  1
  Rb  Rb7  1  0.082437  0.639572  0.638973  1
  Hf  Hf8  1  0.864365  0.135635  0.864365  1
  Hf  Hf9  1  0.135398  0.134561  0.865439  1
  Hf  Hf10  1  0.865439  0.864602  0.135398  1
  Zr  Zr11  1  0.864262  0.135738  0.136581  1
  Zr  Zr12  1  0.136581  0.863419  0.864262  1
  Zr  Zr13  1  0.135518  0.864482  0.135518  1
  B  B14  1  0.998391  0.001609  0.998391  1
  Br  Br15  1  0.317431  0.002738  0.997262  1
  Br  Br16  1  0.684853  0.999959  0.000041  1
  Br  Br17  1  0.000041  0.315147  0.684853  1
  Br  Br18  1  0.997262  0.682569  0.317431  1
  Br  Br19  1  0.002757  0.317494  0.997201  1
  Br  Br20  1  0.682506  0.997243  0.317451  1
  Br  Br21  1  0.997201  0.682549  0.002757  1
  Br  Br22  1  0.317451  0.002799  0.682506  1
  Br  Br23  1  0.000041  0.999959  0.320005  1
  Br  Br24  1  0.997271  0.002729  0.682487  1
  Br  Br25  1  0.682487  0.317513  0.997271  1
  Br  Br26  1  0.320005  0.679995  0.000041  1
  Br  Br27  1  0.690871  0.309129  0.308747  1
  Br  Br28  1  0.308747  0.691253  0.690871  1
  Br  Br29  1  0.308912  0.691088  0.308912  1
  Br  Br30  1  0.693068  0.306932  0.693068  1
  Br  Br31  1  0.306720  0.307151  0.692849  1
  Br  Br32  1  0.692849  0.693280  0.306720  1
  Br  Br33  1  0.250052  0.249948  0.250052  1
  Br  Br34  1  0.750052  0.749948  0.750052  1
