# generated using pymatgen
data_Ho5ErU4O20
_symmetry_space_group_name_H-M   'P 1'
_cell_length_a   6.63036432
_cell_length_b   7.47307071
_cell_length_c   8.37796975
_cell_angle_alpha   100.76835415
_cell_angle_beta   97.68824616
_cell_angle_gamma   107.29446387
_symmetry_Int_Tables_number   1
_chemical_formula_structural   Ho5ErU4O20
_chemical_formula_sum   'Ho5 Er1 U4 O20'
_cell_volume   381.35976368
_cell_formula_units_Z   1
loop_
 _symmetry_equiv_pos_site_id
 _symmetry_equiv_pos_as_xyz
  1  'x, y, z'
loop_
 _atom_site_type_symbol
 _atom_site_label
 _atom_site_symmetry_multiplicity
 _atom_site_fract_x
 _atom_site_fract_y
 _atom_site_fract_z
 _atom_site_occupancy
  Ho  Ho0  1  0.615273  0.703903  0.699174  1
  Ho  Ho1  1  0.384727  0.296097  0.300826  1
  Ho  Ho2  1  0.197007  0.896475  0.891166  1
  Ho  Ho3  1  0.802993  0.103525  0.108834  1
  Ho  Ho4  1  0.000000  0.000000  0.500000  1
  Er  Er5  1  0.000000  0.500000  0.500000  1
  U  U6  1  0.401326  0.804097  0.302022  1
  U  U7  1  0.199024  0.399586  0.898472  1
  U  U8  1  0.800976  0.600414  0.101528  1
  U  U9  1  0.598674  0.195903  0.697978  1
  O  O10  1  0.440402  0.531453  0.138393  1
  O  O11  1  0.555113  0.986126  0.841853  1
  O  O12  1  0.266652  0.142464  0.744788  1
  O  O13  1  0.359453  0.593110  0.443481  1
  O  O14  1  0.053394  0.728300  0.335046  1
  O  O15  1  0.444887  0.013874  0.158147  1
  O  O16  1  0.150181  0.182547  0.032800  1
  O  O17  1  0.559598  0.468547  0.861607  1
  O  O18  1  0.854010  0.335336  0.950166  1
  O  O19  1  0.257052  0.607787  0.758072  1
  O  O20  1  0.953322  0.771163  0.651972  1
  O  O21  1  0.352644  0.063281  0.452956  1
  O  O22  1  0.647356  0.936719  0.547044  1
  O  O23  1  0.046678  0.228837  0.348028  1
  O  O24  1  0.742948  0.392213  0.241928  1
  O  O25  1  0.145990  0.664664  0.049834  1
  O  O26  1  0.849819  0.817453  0.967200  1
  O  O27  1  0.946606  0.271700  0.664954  1
  O  O28  1  0.640547  0.406890  0.556519  1
  O  O29  1  0.733348  0.857536  0.255212  1
