# generated using pymatgen
data_ErTm2Zr7Pb6
_symmetry_space_group_name_H-M   'P 1'
_cell_length_a   8.77190750
_cell_length_b   8.77867124
_cell_length_c   6.00496800
_cell_angle_alpha   90.00000000
_cell_angle_beta   90.00000000
_cell_angle_gamma   120.04146036
_symmetry_Int_Tables_number   1
_chemical_formula_structural   ErTm2Zr7Pb6
_chemical_formula_sum   'Er1 Tm2 Zr7 Pb6'
_cell_volume   400.29721213
_cell_formula_units_Z   1
loop_
 _symmetry_equiv_pos_site_id
 _symmetry_equiv_pos_as_xyz
  1  'x, y, z'
loop_
 _atom_site_type_symbol
 _atom_site_label
 _atom_site_symmetry_multiplicity
 _atom_site_fract_x
 _atom_site_fract_y
 _atom_site_fract_z
 _atom_site_occupancy
  Er  Er0  1  0.761035  0.758554  0.250000  1
  Tm  Tm1  1  0.002742  0.241843  0.250000  1
  Tm  Tm2  1  0.760355  0.000080  0.750000  1
  Zr  Zr3  1  0.330754  0.666896  0.501426  1
  Zr  Zr4  1  0.244630  0.000045  0.250000  1
  Zr  Zr5  1  0.663821  0.333052  0.501458  1
  Zr  Zr6  1  0.002238  0.755773  0.750000  1
  Zr  Zr7  1  0.330754  0.666896  0.998574  1
  Zr  Zr8  1  0.246191  0.244080  0.750000  1
  Zr  Zr9  1  0.663821  0.333052  0.998542  1
  Pb  Pb10  1  0.607030  0.606013  0.750000  1
  Pb  Pb11  1  0.388904  0.999972  0.750000  1
  Pb  Pb12  1  0.602118  0.000201  0.250000  1
  Pb  Pb13  1  0.001003  0.393911  0.750000  1
  Pb  Pb14  1  0.393135  0.391972  0.250000  1
  Pb  Pb15  1  0.001472  0.607658  0.250000  1
