# generated using pymatgen
data_Dy3Er5Cr2(OsC4)2
_symmetry_space_group_name_H-M   'P 1'
_cell_length_a   5.03705000
_cell_length_b   6.46571154
_cell_length_c   9.73172965
_cell_angle_alpha   90.14315545
_cell_angle_beta   90.00000000
_cell_angle_gamma   90.00000000
_symmetry_Int_Tables_number   1
_chemical_formula_structural   Dy3Er5Cr2(OsC4)2
_chemical_formula_sum   'Dy3 Er5 Cr2 Os2 C8'
_cell_volume   316.94307514
_cell_formula_units_Z   1
loop_
 _symmetry_equiv_pos_site_id
 _symmetry_equiv_pos_as_xyz
  1  'x, y, z'
loop_
 _atom_site_type_symbol
 _atom_site_label
 _atom_site_symmetry_multiplicity
 _atom_site_fract_x
 _atom_site_fract_y
 _atom_site_fract_z
 _atom_site_occupancy
  Dy  Dy0  1  0.750000  0.468964  0.784939  1
  Dy  Dy1  1  0.750000  0.972433  0.715468  1
  Dy  Dy2  1  0.250000  0.028167  0.284173  1
  Er  Er3  1  0.250000  0.681216  0.558904  1
  Er  Er4  1  0.750000  0.319153  0.440788  1
  Er  Er5  1  0.750000  0.822858  0.054963  1
  Er  Er6  1  0.250000  0.176665  0.945332  1
  Er  Er7  1  0.250000  0.531407  0.215750  1
  Cr  Cr8  1  0.250000  0.725061  0.862565  1
  Cr  Cr9  1  0.750000  0.274953  0.137651  1
  Os  Os10  1  0.750000  0.775426  0.362629  1
  Os  Os11  1  0.250000  0.224616  0.636929  1
  C  C12  1  0.250000  0.463569  0.763918  1
  C  C13  1  0.750000  0.536558  0.235678  1
  C  C14  1  0.750000  0.046978  0.255937  1
  C  C15  1  0.250000  0.953165  0.744106  1
  C  C16  1  0.250000  0.813954  0.040914  1
  C  C17  1  0.750000  0.184142  0.959959  1
  C  C18  1  0.750000  0.676413  0.548441  1
  C  C19  1  0.250000  0.324302  0.450956  1
