# generated using pymatgen
data_HoNp3(SiPd2)4
_symmetry_space_group_name_H-M   'P 1'
_cell_length_a   5.49765560
_cell_length_b   6.93581900
_cell_length_c   7.58376373
_cell_angle_alpha   90.00000000
_cell_angle_beta   89.94810854
_cell_angle_gamma   90.00000000
_symmetry_Int_Tables_number   1
_chemical_formula_structural   HoNp3(SiPd2)4
_chemical_formula_sum   'Ho1 Np3 Si4 Pd8'
_cell_volume   289.17443597
_cell_formula_units_Z   1
loop_
 _symmetry_equiv_pos_site_id
 _symmetry_equiv_pos_as_xyz
  1  'x, y, z'
loop_
 _atom_site_type_symbol
 _atom_site_label
 _atom_site_symmetry_multiplicity
 _atom_site_fract_x
 _atom_site_fract_y
 _atom_site_fract_z
 _atom_site_occupancy
  Ho  Ho0  1  0.858541  0.250000  0.462645  1
  Np  Np1  1  0.360676  0.750000  0.035859  1
  Np  Np2  1  0.140781  0.750000  0.537400  1
  Np  Np3  1  0.640361  0.250000  0.963278  1
  Si  Si4  1  0.651580  0.750000  0.380549  1
  Si  Si5  1  0.849311  0.750000  0.879736  1
  Si  Si6  1  0.353233  0.250000  0.619450  1
  Si  Si7  1  0.152600  0.250000  0.120283  1
  Pd  Pd8  1  0.907162  0.550071  0.175669  1
  Pd  Pd9  1  0.592366  0.949276  0.676587  1
  Pd  Pd10  1  0.093432  0.050867  0.820846  1
  Pd  Pd11  1  0.403498  0.449574  0.327298  1
  Pd  Pd12  1  0.093432  0.449133  0.820846  1
  Pd  Pd13  1  0.403498  0.050426  0.327298  1
  Pd  Pd14  1  0.907162  0.949929  0.175669  1
  Pd  Pd15  1  0.592366  0.550724  0.676587  1
