# generated using pymatgen
data_Ca11Ce(SiRh)8
_symmetry_space_group_name_H-M   'P 1'
_cell_length_a   5.76818403
_cell_length_b   7.66785595
_cell_length_c   13.33510400
_cell_angle_alpha   90.00000000
_cell_angle_beta   90.00000000
_cell_angle_gamma   90.13009266
_symmetry_Int_Tables_number   1
_chemical_formula_structural   Ca11Ce(SiRh)8
_chemical_formula_sum   'Ca11 Ce1 Si8 Rh8'
_cell_volume   589.80485209
_cell_formula_units_Z   1
loop_
 _symmetry_equiv_pos_site_id
 _symmetry_equiv_pos_as_xyz
  1  'x, y, z'
loop_
 _atom_site_type_symbol
 _atom_site_label
 _atom_site_symmetry_multiplicity
 _atom_site_fract_x
 _atom_site_fract_y
 _atom_site_fract_z
 _atom_site_occupancy
  Ca  Ca0  1  0.134381  0.607871  0.100672  1
  Ca  Ca1  1  0.133424  0.896314  0.900889  1
  Ca  Ca2  1  0.866216  0.108100  0.397759  1
  Ca  Ca3  1  0.871090  0.386398  0.600657  1
  Ca  Ca4  1  0.871090  0.386398  0.899343  1
  Ca  Ca5  1  0.866216  0.108100  0.102241  1
  Ca  Ca6  1  0.133424  0.896314  0.599111  1
  Ca  Ca7  1  0.134381  0.607871  0.399328  1
  Ca  Ca8  1  0.362080  0.266340  0.250000  1
  Ca  Ca9  1  0.362412  0.239457  0.750000  1
  Ca  Ca10  1  0.636756  0.766357  0.250000  1
  Ce  Ce11  1  0.624685  0.735561  0.750000  1
  Si  Si12  1  0.838314  0.416421  0.250000  1
  Si  Si13  1  0.842511  0.088359  0.750000  1
  Si  Si14  1  0.160642  0.913584  0.250000  1
  Si  Si15  1  0.141059  0.595226  0.750000  1
  Si  Si16  1  0.406937  0.248748  0.997355  1
  Si  Si17  1  0.592507  0.748567  0.498229  1
  Si  Si18  1  0.592507  0.748567  0.001771  1
  Si  Si19  1  0.406937  0.248748  0.502645  1
  Rh  Rh20  1  0.634576  0.470630  0.088583  1
  Rh  Rh21  1  0.635920  0.018661  0.907757  1
  Rh  Rh22  1  0.368934  0.973854  0.409812  1
  Rh  Rh23  1  0.371784  0.530207  0.593543  1
  Rh  Rh24  1  0.371784  0.530207  0.906457  1
  Rh  Rh25  1  0.368934  0.973854  0.090188  1
  Rh  Rh26  1  0.635920  0.018661  0.592243  1
  Rh  Rh27  1  0.634576  0.470630  0.411417  1
