# generated using pymatgen
data_YVF7
_symmetry_space_group_name_H-M   'P 1'
_cell_length_a   5.52876100
_cell_length_b   8.84058839
_cell_length_c   11.83301870
_cell_angle_alpha   63.32539429
_cell_angle_beta   90.00000000
_cell_angle_gamma   90.00000000
_symmetry_Int_Tables_number   1
_chemical_formula_structural   YVF7
_chemical_formula_sum   'Y4 V4 F28'
_cell_volume   516.81288647
_cell_formula_units_Z   4
loop_
 _symmetry_equiv_pos_site_id
 _symmetry_equiv_pos_as_xyz
  1  'x, y, z'
loop_
 _atom_site_type_symbol
 _atom_site_label
 _atom_site_symmetry_multiplicity
 _atom_site_fract_x
 _atom_site_fract_y
 _atom_site_fract_z
 _atom_site_occupancy
  Y  Y0  1  0.258471  0.807693  0.270172  1
  Y  Y1  1  0.741529  0.192307  0.729828  1
  Y  Y2  1  0.758471  0.192307  0.229828  1
  Y  Y3  1  0.241529  0.807693  0.770172  1
  V  V4  1  0.754415  0.726366  0.045126  1
  V  V5  1  0.245585  0.273634  0.954874  1
  V  V6  1  0.254415  0.273634  0.454874  1
  V  V7  1  0.745585  0.726366  0.545126  1
  F  F8  1  0.950619  0.705386  0.424817  1
  F  F9  1  0.049381  0.294614  0.575183  1
  F  F10  1  0.450619  0.294614  0.075183  1
  F  F11  1  0.549381  0.705386  0.924817  1
  F  F12  1  0.481586  0.731464  0.141023  1
  F  F13  1  0.518414  0.268536  0.858977  1
  F  F14  1  0.981586  0.268536  0.358977  1
  F  F15  1  0.018414  0.731464  0.641023  1
  F  F16  1  0.958185  0.747437  0.168654  1
  F  F17  1  0.041815  0.252563  0.831346  1
  F  F18  1  0.458185  0.252563  0.331346  1
  F  F19  1  0.541815  0.747437  0.668654  1
  F  F20  1  0.766929  0.494360  0.138179  1
  F  F21  1  0.233071  0.505640  0.861821  1
  F  F22  1  0.266929  0.505640  0.361821  1
  F  F23  1  0.733071  0.494360  0.638179  1
  F  F24  1  0.964068  0.285218  0.044814  1
  F  F25  1  0.035932  0.714782  0.955186  1
  F  F26  1  0.464068  0.714782  0.455186  1
  F  F27  1  0.535932  0.285218  0.544814  1
  F  F28  1  0.742932  0.956071  0.454852  1
  F  F29  1  0.257068  0.043929  0.545148  1
  F  F30  1  0.242932  0.043929  0.045148  1
  F  F31  1  0.757068  0.956071  0.954852  1
  F  F32  1  0.577856  0.973187  0.231192  1
  F  F33  1  0.422144  0.026813  0.768808  1
  F  F34  1  0.077856  0.026813  0.268808  1
  F  F35  1  0.922144  0.973187  0.731192  1
