# generated using pymatgen
data_NbNi2(AgO2)3
_symmetry_space_group_name_H-M   'P 1'
_cell_length_a   5.35713100
_cell_length_b   5.35713065
_cell_length_c   19.05235800
_cell_angle_alpha   90.00000000
_cell_angle_beta   90.00000000
_cell_angle_gamma   119.99998363
_symmetry_Int_Tables_number   1
_chemical_formula_structural   NbNi2(AgO2)3
_chemical_formula_sum   'Nb3 Ni6 Ag9 O18'
_cell_volume   473.52612157
_cell_formula_units_Z   3
loop_
 _symmetry_equiv_pos_site_id
 _symmetry_equiv_pos_as_xyz
  1  'x, y, z'
loop_
 _atom_site_type_symbol
 _atom_site_label
 _atom_site_symmetry_multiplicity
 _atom_site_fract_x
 _atom_site_fract_y
 _atom_site_fract_z
 _atom_site_occupancy
  Nb  Nb0  1  0.440507  0.559493  0.333333  1
  Nb  Nb1  1  0.440507  0.881013  0.666667  1
  Nb  Nb2  1  0.118987  0.559493  0.000000  1
  Ni  Ni3  1  0.107327  0.892673  0.333333  1
  Ni  Ni4  1  0.107327  0.214654  0.666667  1
  Ni  Ni5  1  0.785346  0.892673  0.000000  1
  Ni  Ni6  1  0.774186  0.225814  0.333333  1
  Ni  Ni7  1  0.774186  0.548371  0.666667  1
  Ni  Ni8  1  0.451629  0.225814  0.000000  1
  Ag  Ag9  1  0.441070  0.220534  0.500000  1
  Ag  Ag10  1  0.779466  0.220534  0.833333  1
  Ag  Ag11  1  0.779466  0.558930  0.166667  1
  Ag  Ag12  1  0.104968  0.552484  0.500000  1
  Ag  Ag13  1  0.447516  0.552484  0.833333  1
  Ag  Ag14  1  0.447516  0.895032  0.166667  1
  Ag  Ag15  1  0.776569  0.888284  0.500000  1
  Ag  Ag16  1  0.111716  0.888284  0.833333  1
  Ag  Ag17  1  0.111716  0.223431  0.166667  1
  O  O18  1  0.762403  0.559456  0.277311  1
  O  O19  1  0.440544  0.202947  0.610644  1
  O  O20  1  0.797053  0.237597  0.943978  1
  O  O21  1  0.762403  0.202947  0.722689  1
  O  O22  1  0.440544  0.237597  0.389356  1
  O  O23  1  0.797053  0.559456  0.056022  1
  O  O24  1  0.440758  0.882681  0.277517  1
  O  O25  1  0.117319  0.558077  0.610850  1
  O  O26  1  0.441923  0.559242  0.944184  1
  O  O27  1  0.440758  0.558077  0.722483  1
  O  O28  1  0.117319  0.559242  0.389150  1
  O  O29  1  0.441923  0.882681  0.055816  1
  O  O30  1  0.117880  0.236587  0.277426  1
  O  O31  1  0.763413  0.881293  0.610759  1
  O  O32  1  0.118707  0.882120  0.944092  1
  O  O33  1  0.117880  0.881293  0.722574  1
  O  O34  1  0.763413  0.882120  0.389241  1
  O  O35  1  0.118707  0.236587  0.055908  1
