# generated using pymatgen
data_LiNd2(GdSi2)2
_symmetry_space_group_name_H-M   'P 1'
_cell_length_a   7.23544500
_cell_length_b   7.75013700
_cell_length_c   14.80530600
_cell_angle_alpha   90.00000000
_cell_angle_beta   90.00000000
_cell_angle_gamma   90.00000000
_symmetry_Int_Tables_number   1
_chemical_formula_structural   LiNd2(GdSi2)2
_chemical_formula_sum   'Li4 Nd8 Gd8 Si16'
_cell_volume   830.21774970
_cell_formula_units_Z   4
loop_
 _symmetry_equiv_pos_site_id
 _symmetry_equiv_pos_as_xyz
  1  'x, y, z'
loop_
 _atom_site_type_symbol
 _atom_site_label
 _atom_site_symmetry_multiplicity
 _atom_site_fract_x
 _atom_site_fract_y
 _atom_site_fract_z
 _atom_site_occupancy
  Li  Li0  1  0.653229  0.982148  0.250000  1
  Li  Li1  1  0.153229  0.517852  0.250000  1
  Li  Li2  1  0.846771  0.482148  0.750000  1
  Li  Li3  1  0.346771  0.017852  0.750000  1
  Nd  Nd4  1  0.975011  0.813623  0.101899  1
  Nd  Nd5  1  0.475011  0.686377  0.398101  1
  Nd  Nd6  1  0.524989  0.313623  0.898101  1
  Nd  Nd7  1  0.024989  0.186377  0.601899  1
  Nd  Nd8  1  0.024989  0.186377  0.898101  1
  Nd  Nd9  1  0.524989  0.313623  0.601899  1
  Nd  Nd10  1  0.475011  0.686377  0.101899  1
  Nd  Nd11  1  0.975011  0.813623  0.398101  1
  Gd  Gd12  1  0.674973  0.818423  0.872563  1
  Gd  Gd13  1  0.174973  0.681577  0.627437  1
  Gd  Gd14  1  0.825027  0.318423  0.127437  1
  Gd  Gd15  1  0.325027  0.181577  0.372563  1
  Gd  Gd16  1  0.325027  0.181577  0.127437  1
  Gd  Gd17  1  0.825027  0.318423  0.372563  1
  Gd  Gd18  1  0.174973  0.681577  0.872563  1
  Gd  Gd19  1  0.674973  0.818423  0.627437  1
  Si  Si20  1  0.767867  0.621219  0.250000  1
  Si  Si21  1  0.267867  0.878781  0.250000  1
  Si  Si22  1  0.732133  0.121219  0.750000  1
  Si  Si23  1  0.232133  0.378781  0.750000  1
  Si  Si24  1  0.021789  0.086255  0.250000  1
  Si  Si25  1  0.521789  0.413745  0.250000  1
  Si  Si26  1  0.478211  0.586255  0.750000  1
  Si  Si27  1  0.978211  0.913745  0.750000  1
  Si  Si28  1  0.849734  0.533647  0.965466  1
  Si  Si29  1  0.349734  0.966353  0.534534  1
  Si  Si30  1  0.650266  0.033647  0.034534  1
  Si  Si31  1  0.150266  0.466353  0.465466  1
  Si  Si32  1  0.150266  0.466353  0.034534  1
  Si  Si33  1  0.650266  0.033647  0.465466  1
  Si  Si34  1  0.349734  0.966353  0.965466  1
  Si  Si35  1  0.849734  0.533647  0.534534  1
