# generated using pymatgen
data_Y7NpGaPd24
_symmetry_space_group_name_H-M   'P 1'
_cell_length_a   8.37829263
_cell_length_b   8.37829263
_cell_length_c   8.37829263
_cell_angle_alpha   90.14076994
_cell_angle_beta   90.14076994
_cell_angle_gamma   89.85923006
_symmetry_Int_Tables_number   1
_chemical_formula_structural   Y7NpGaPd24
_chemical_formula_sum   'Y7 Np1 Ga1 Pd24'
_cell_volume   588.11553133
_cell_formula_units_Z   1
loop_
 _symmetry_equiv_pos_site_id
 _symmetry_equiv_pos_as_xyz
  1  'x, y, z'
loop_
 _atom_site_type_symbol
 _atom_site_label
 _atom_site_symmetry_multiplicity
 _atom_site_fract_x
 _atom_site_fract_y
 _atom_site_fract_z
 _atom_site_occupancy
  Y  Y0  1  0.251845  0.747806  0.252194  1
  Y  Y1  1  0.747806  0.251845  0.252194  1
  Y  Y2  1  0.747806  0.747806  0.748155  1
  Y  Y3  1  0.748047  0.748047  0.251953  1
  Y  Y4  1  0.749110  0.251942  0.748058  1
  Y  Y5  1  0.251942  0.749110  0.748058  1
  Y  Y6  1  0.251942  0.251942  0.250890  1
  Np  Np7  1  0.252051  0.252051  0.747949  1
  Ga  Ga8  1  0.998975  0.998975  0.001025  1
  Pd  Pd9  1  0.499097  0.499097  0.746534  1
  Pd  Pd10  1  0.499097  0.253466  0.500903  1
  Pd  Pd11  1  0.253466  0.499097  0.500903  1
  Pd  Pd12  1  0.499581  0.499581  0.252867  1
  Pd  Pd13  1  0.499581  0.747133  0.500419  1
  Pd  Pd14  1  0.747133  0.499581  0.500419  1
  Pd  Pd15  1  0.000507  0.000507  0.709112  1
  Pd  Pd16  1  0.000507  0.290888  0.999493  1
  Pd  Pd17  1  0.290888  0.000507  0.999493  1
  Pd  Pd18  1  0.000144  0.000144  0.292399  1
  Pd  Pd19  1  0.000144  0.707601  0.999856  1
  Pd  Pd20  1  0.707601  0.000144  0.999856  1
  Pd  Pd21  1  0.003748  0.498219  0.739717  1
  Pd  Pd22  1  0.498219  0.260283  0.996252  1
  Pd  Pd23  1  0.260283  0.003748  0.501781  1
  Pd  Pd24  1  0.003748  0.260283  0.501781  1
  Pd  Pd25  1  0.498219  0.003748  0.739717  1
  Pd  Pd26  1  0.260283  0.498219  0.996252  1
  Pd  Pd27  1  0.999918  0.499391  0.260191  1
  Pd  Pd28  1  0.499391  0.739809  0.000082  1
  Pd  Pd29  1  0.999918  0.739809  0.500609  1
  Pd  Pd30  1  0.499391  0.999918  0.260191  1
  Pd  Pd31  1  0.739809  0.999918  0.500609  1
  Pd  Pd32  1  0.739809  0.499391  0.000082  1
