# generated using pymatgen
data_LaEu3(AsPd)4
_symmetry_space_group_name_H-M   'P 1'
_cell_length_a   4.33783500
_cell_length_b   7.53137153
_cell_length_c   8.26497710
_cell_angle_alpha   90.13902733
_cell_angle_beta   90.00000000
_cell_angle_gamma   90.00000000
_symmetry_Int_Tables_number   1
_chemical_formula_structural   LaEu3(AsPd)4
_chemical_formula_sum   'La1 Eu3 As4 Pd4'
_cell_volume   270.01474249
_cell_formula_units_Z   1
loop_
 _symmetry_equiv_pos_site_id
 _symmetry_equiv_pos_as_xyz
  1  'x, y, z'
loop_
 _atom_site_type_symbol
 _atom_site_label
 _atom_site_symmetry_multiplicity
 _atom_site_fract_x
 _atom_site_fract_y
 _atom_site_fract_z
 _atom_site_occupancy
  La  La0  1  0.750000  0.748984  0.000072  1
  Eu  Eu1  1  0.250002  0.250709  0.000007  1
  Eu  Eu2  1  0.750000  0.750939  0.500043  1
  Eu  Eu3  1  0.250002  0.249205  0.500041  1
  As  As4  1  0.750000  0.084203  0.245997  1
  As  As5  1  0.250002  0.582512  0.249253  1
  As  As6  1  0.750000  0.415921  0.752132  1
  As  As7  1  0.250002  0.917473  0.752394  1
  Pd  Pd8  1  0.250002  0.916214  0.250569  1
  Pd  Pd9  1  0.750000  0.417322  0.252228  1
  Pd  Pd10  1  0.250002  0.583770  0.747749  1
  Pd  Pd11  1  0.750000  0.082744  0.749507  1
