# generated using pymatgen
data_Sr2OsRhF12
_symmetry_space_group_name_H-M   'P 1'
_cell_length_a   5.58395980
_cell_length_b   5.59696106
_cell_length_c   10.43599506
_cell_angle_alpha   74.43499520
_cell_angle_beta   74.67037133
_cell_angle_gamma   60.26287231
_symmetry_Int_Tables_number   1
_chemical_formula_structural   Sr2OsRhF12
_chemical_formula_sum   'Sr2 Os1 Rh1 F12'
_cell_volume   269.43978323
_cell_formula_units_Z   1
loop_
 _symmetry_equiv_pos_site_id
 _symmetry_equiv_pos_as_xyz
  1  'x, y, z'
loop_
 _atom_site_type_symbol
 _atom_site_label
 _atom_site_symmetry_multiplicity
 _atom_site_fract_x
 _atom_site_fract_y
 _atom_site_fract_z
 _atom_site_occupancy
  Sr  Sr0  1  0.515177  0.515955  0.452004  1
  Sr  Sr1  1  0.987105  0.982364  0.048039  1
  Os  Os2  1  0.747847  0.751397  0.750050  1
  Rh  Rh3  1  0.252165  0.248522  0.249919  1
  F  F4  1  0.533689  0.733520  0.638483  1
  F  F5  1  0.526246  0.153034  0.367904  1
  F  F6  1  0.729367  0.094273  0.638818  1
  F  F7  1  0.157612  0.949819  0.364699  1
  F  F8  1  0.766103  0.408972  0.861511  1
  F  F9  1  0.345912  0.547806  0.135082  1
  F  F10  1  0.961583  0.769682  0.861635  1
  F  F11  1  0.978182  0.344341  0.131786  1
  F  F12  1  0.548946  0.976760  0.133108  1
  F  F13  1  0.406240  0.963054  0.861143  1
  F  F14  1  0.954671  0.519909  0.367114  1
  F  F15  1  0.089154  0.540593  0.638704  1
