# generated using pymatgen
data_MgGa2NiAg4F14
_symmetry_space_group_name_H-M   'P 1'
_cell_length_a   7.49081257
_cell_length_b   7.49081219
_cell_length_c   7.48194698
_cell_angle_alpha   120.91993187
_cell_angle_beta   116.84018594
_cell_angle_gamma   92.05158831
_symmetry_Int_Tables_number   1
_chemical_formula_structural   MgGa2NiAg4F14
_chemical_formula_sum   'Mg1 Ga2 Ni1 Ag4 F14'
_cell_volume   301.05601401
_cell_formula_units_Z   1
loop_
 _symmetry_equiv_pos_site_id
 _symmetry_equiv_pos_as_xyz
  1  'x, y, z'
loop_
 _atom_site_type_symbol
 _atom_site_label
 _atom_site_symmetry_multiplicity
 _atom_site_fract_x
 _atom_site_fract_y
 _atom_site_fract_z
 _atom_site_occupancy
  Mg  Mg0  1  0.500000  0.000000  0.000000  1
  Ga  Ga1  1  0.000000  0.500000  0.500000  1
  Ga  Ga2  1  0.500000  0.000000  0.500000  1
  Ni  Ni3  1  0.500000  0.500000  0.500000  1
  Ag  Ag4  1  0.500000  0.500000  0.000000  1
  Ag  Ag5  1  0.000000  0.000000  0.000000  1
  Ag  Ag6  1  0.000000  0.500000  0.000000  1
  Ag  Ag7  1  0.000000  0.000000  0.500000  1
  F  F8  1  0.873476  0.590847  0.283147  1
  F  F9  1  0.192300  0.909671  0.283147  1
  F  F10  1  0.188605  0.801870  0.761422  1
  F  F11  1  0.457572  0.696416  0.381351  1
  F  F12  1  0.459551  0.072817  0.761422  1
  F  F13  1  0.184935  0.423778  0.381351  1
  F  F14  1  0.815065  0.576222  0.618649  1
  F  F15  1  0.540449  0.927183  0.238578  1
  F  F16  1  0.542428  0.303584  0.618649  1
  F  F17  1  0.811395  0.198130  0.238578  1
  F  F18  1  0.405243  0.248904  0.154146  1
  F  F19  1  0.126524  0.409153  0.716853  1
  F  F20  1  0.807700  0.090329  0.716853  1
  F  F21  1  0.594757  0.751096  0.845854  1
