# generated using pymatgen
data_BaGa4Cu9
_symmetry_space_group_name_H-M   'P 1'
_cell_length_a   8.45183661
_cell_length_b   8.45183680
_cell_length_c   8.45183600
_cell_angle_alpha   120.61182262
_cell_angle_beta   120.61182341
_cell_angle_gamma   88.94352012
_symmetry_Int_Tables_number   1
_chemical_formula_structural   BaGa4Cu9
_chemical_formula_sum   'Ba2 Ga8 Cu18'
_cell_volume   422.88597079
_cell_formula_units_Z   2
loop_
 _symmetry_equiv_pos_site_id
 _symmetry_equiv_pos_as_xyz
  1  'x, y, z'
loop_
 _atom_site_type_symbol
 _atom_site_label
 _atom_site_symmetry_multiplicity
 _atom_site_fract_x
 _atom_site_fract_y
 _atom_site_fract_z
 _atom_site_occupancy
  Ba  Ba0  1  0.250000  0.250000  0.000000  1
  Ba  Ba1  1  0.750000  0.750000  0.000000  1
  Ga  Ga2  1  0.799404  0.299404  0.861669  1
  Ga  Ga3  1  0.562266  0.062266  0.861669  1
  Ga  Ga4  1  0.200596  0.700596  0.138331  1
  Ga  Ga5  1  0.700596  0.562266  0.500000  1
  Ga  Ga6  1  0.062266  0.200596  0.500000  1
  Ga  Ga7  1  0.299404  0.437734  0.500000  1
  Ga  Ga8  1  0.937734  0.799404  0.500000  1
  Ga  Ga9  1  0.437734  0.937734  0.138331  1
  Cu  Cu10  1  0.064989  0.564989  0.271116  1
  Cu  Cu11  1  0.706127  0.206127  0.271116  1
  Cu  Cu12  1  0.935011  0.435011  0.728884  1
  Cu  Cu13  1  0.435011  0.706127  0.500000  1
  Cu  Cu14  1  0.206127  0.935011  0.500000  1
  Cu  Cu15  1  0.564989  0.293873  0.500000  1
  Cu  Cu16  1  0.793873  0.064989  0.500000  1
  Cu  Cu17  1  0.293873  0.793873  0.728884  1
  Cu  Cu18  1  0.436588  0.294904  0.731492  1
  Cu  Cu19  1  0.794904  0.936588  0.731492  1
  Cu  Cu20  1  0.000000  0.500000  0.500000  1
  Cu  Cu21  1  0.500000  0.000000  0.500000  1
  Cu  Cu22  1  0.563412  0.705096  0.268508  1
  Cu  Cu23  1  0.705096  0.436588  0.141684  1
  Cu  Cu24  1  0.294904  0.563412  0.858316  1
  Cu  Cu25  1  0.936588  0.205096  0.141684  1
  Cu  Cu26  1  0.063412  0.794904  0.858316  1
  Cu  Cu27  1  0.205096  0.063412  0.268508  1
