# generated using pymatgen
data_Dy6Ni19P13Pt
_symmetry_space_group_name_H-M   'P 1'
_cell_length_a   12.70712700
_cell_length_b   12.70712780
_cell_length_c   3.76252500
_cell_angle_alpha   90.00000000
_cell_angle_beta   90.00000000
_cell_angle_gamma   119.99999532
_symmetry_Int_Tables_number   1
_chemical_formula_structural   Dy6Ni19P13Pt
_chemical_formula_sum   'Dy6 Ni19 P13 Pt1'
_cell_volume   526.14423308
_cell_formula_units_Z   1
loop_
 _symmetry_equiv_pos_site_id
 _symmetry_equiv_pos_as_xyz
  1  'x, y, z'
loop_
 _atom_site_type_symbol
 _atom_site_label
 _atom_site_symmetry_multiplicity
 _atom_site_fract_x
 _atom_site_fract_y
 _atom_site_fract_z
 _atom_site_occupancy
  Dy  Dy0  1  0.797823  0.948099  0.000000  1
  Dy  Dy1  1  0.051901  0.849725  0.000000  1
  Dy  Dy2  1  0.150275  0.202177  0.000000  1
  Dy  Dy3  1  0.520229  0.135942  0.500000  1
  Dy  Dy4  1  0.864058  0.384287  0.500000  1
  Dy  Dy5  1  0.615713  0.479771  0.500000  1
  Ni  Ni6  1  0.528024  0.771388  0.000000  1
  Ni  Ni7  1  0.228612  0.756636  0.000000  1
  Ni  Ni8  1  0.243364  0.471976  0.000000  1
  Ni  Ni9  1  0.404018  0.813948  0.500000  1
  Ni  Ni10  1  0.186052  0.590070  0.500000  1
  Ni  Ni11  1  0.409930  0.595982  0.500000  1
  Ni  Ni12  1  0.666667  0.333333  0.000000  1
  Ni  Ni13  1  0.770115  0.685784  0.000000  1
  Ni  Ni14  1  0.314216  0.084332  0.000000  1
  Ni  Ni15  1  0.915668  0.229885  0.000000  1
  Ni  Ni16  1  0.646579  0.735874  0.500000  1
  Ni  Ni17  1  0.264126  0.910705  0.500000  1
  Ni  Ni18  1  0.089295  0.353421  0.500000  1
  Ni  Ni19  1  0.358957  0.257669  0.500000  1
  Ni  Ni20  1  0.742331  0.101288  0.500000  1
  Ni  Ni21  1  0.898712  0.641043  0.500000  1
  Ni  Ni22  1  0.573678  0.986762  0.000000  1
  Ni  Ni23  1  0.013238  0.586916  0.000000  1
  Ni  Ni24  1  0.413084  0.426322  0.000000  1
  P  P25  1  0.849089  0.792900  0.500000  1
  P  P26  1  0.207100  0.056189  0.500000  1
  P  P27  1  0.943811  0.150911  0.500000  1
  P  P28  1  0.609703  0.898843  0.500000  1
  P  P29  1  0.101157  0.710859  0.500000  1
  P  P30  1  0.289141  0.390297  0.500000  1
  P  P31  1  0.472633  0.282685  0.000000  1
  P  P32  1  0.717315  0.189948  0.000000  1
  P  P33  1  0.810052  0.527367  0.000000  1
  P  P34  1  0.381077  0.948826  0.000000  1
  P  P35  1  0.051174  0.432251  0.000000  1
  P  P36  1  0.567749  0.618923  0.000000  1
  P  P37  1  0.333333  0.666667  0.000000  1
  Pt  Pt38  1  0.000000  0.000000  0.500000  1
