# generated using pymatgen
data_Zr4TiNb3P4
_symmetry_space_group_name_H-M   'P 1'
_cell_length_a   3.56446900
_cell_length_b   6.90233286
_cell_length_c   8.32592458
_cell_angle_alpha   90.17338965
_cell_angle_beta   90.00000000
_cell_angle_gamma   90.00000000
_symmetry_Int_Tables_number   1
_chemical_formula_structural   Zr4TiNb3P4
_chemical_formula_sum   'Zr4 Ti1 Nb3 P4'
_cell_volume   204.84304593
_cell_formula_units_Z   1
loop_
 _symmetry_equiv_pos_site_id
 _symmetry_equiv_pos_as_xyz
  1  'x, y, z'
loop_
 _atom_site_type_symbol
 _atom_site_label
 _atom_site_symmetry_multiplicity
 _atom_site_fract_x
 _atom_site_fract_y
 _atom_site_fract_z
 _atom_site_occupancy
  Zr  Zr0  1  0.250000  0.534723  0.832537  1
  Zr  Zr1  1  0.750000  0.966043  0.329910  1
  Zr  Zr2  1  0.250000  0.035261  0.669477  1
  Zr  Zr3  1  0.750000  0.465589  0.168173  1
  Ti  Ti4  1  0.250000  0.136150  0.059897  1
  Nb  Nb5  1  0.750000  0.862686  0.940631  1
  Nb  Nb6  1  0.250000  0.638346  0.439943  1
  Nb  Nb7  1  0.750000  0.360832  0.559112  1
  P  P8  1  0.750000  0.738892  0.642200  1
  P  P9  1  0.250000  0.763146  0.140436  1
  P  P10  1  0.750000  0.238092  0.863664  1
  P  P11  1  0.250000  0.260240  0.354019  1
