# generated using pymatgen
data_K5Y2InBr12
_symmetry_space_group_name_H-M   'P 1'
_cell_length_a   8.55886322
_cell_length_b   8.03847443
_cell_length_c   14.01993700
_cell_angle_alpha   55.58624483
_cell_angle_beta   89.92559929
_cell_angle_gamma   90.17710661
_symmetry_Int_Tables_number   1
_chemical_formula_structural   K5Y2InBr12
_chemical_formula_sum   'K5 Y2 In1 Br12'
_cell_volume   795.74337525
_cell_formula_units_Z   1
loop_
 _symmetry_equiv_pos_site_id
 _symmetry_equiv_pos_as_xyz
  1  'x, y, z'
loop_
 _atom_site_type_symbol
 _atom_site_label
 _atom_site_symmetry_multiplicity
 _atom_site_fract_x
 _atom_site_fract_y
 _atom_site_fract_z
 _atom_site_occupancy
  K  K0  1  0.500000  0.500000  0.000000  1
  K  K1  1  0.069581  0.723650  0.753719  1
  K  K2  1  0.930419  0.276350  0.246281  1
  K  K3  1  0.570610  0.277844  0.744226  1
  K  K4  1  0.429390  0.722156  0.255774  1
  Y  Y5  1  0.500000  0.000000  0.500000  1
  Y  Y6  1  0.000000  0.000000  0.000000  1
  In  In7  1  0.000000  0.500000  0.500000  1
  Br  Br8  1  0.777015  0.765513  0.569417  1
  Br  Br9  1  0.222985  0.234487  0.430583  1
  Br  Br10  1  0.278806  0.233354  0.929552  1
  Br  Br11  1  0.721194  0.766646  0.070448  1
  Br  Br12  1  0.447445  0.890041  0.727979  1
  Br  Br13  1  0.552555  0.109959  0.272021  1
  Br  Br14  1  0.948513  0.112074  0.771212  1
  Br  Br15  1  0.051487  0.887926  0.228788  1
  Br  Br16  1  0.323606  0.660644  0.550956  1
  Br  Br17  1  0.676394  0.339356  0.449044  1
  Br  Br18  1  0.826721  0.339716  0.948775  1
  Br  Br19  1  0.173279  0.660284  0.051225  1
