# generated using pymatgen
data_Ce4SiPt5Rh7
_symmetry_space_group_name_H-M   'P 1'
_cell_length_a   7.27891401
_cell_length_b   7.27891399
_cell_length_c   7.27891506
_cell_angle_alpha   108.80218540
_cell_angle_beta   109.80677607
_cell_angle_gamma   109.80676746
_symmetry_Int_Tables_number   1
_chemical_formula_structural   Ce4SiPt5Rh7
_chemical_formula_sum   'Ce4 Si1 Pt5 Rh7'
_cell_volume   296.84762003
_cell_formula_units_Z   1
loop_
 _symmetry_equiv_pos_site_id
 _symmetry_equiv_pos_as_xyz
  1  'x, y, z'
loop_
 _atom_site_type_symbol
 _atom_site_label
 _atom_site_symmetry_multiplicity
 _atom_site_fract_x
 _atom_site_fract_y
 _atom_site_fract_z
 _atom_site_occupancy
  Ce  Ce0  1  0.994199  0.997099  0.497099  1
  Ce  Ce1  1  0.005801  0.502901  0.002901  1
  Ce  Ce2  1  0.500000  0.997099  0.002901  1
  Ce  Ce3  1  0.500000  0.502901  0.497099  1
  Si  Si4  1  0.000000  0.000000  0.000000  1
  Pt  Pt5  1  0.749992  0.250034  0.500043  1
  Pt  Pt6  1  0.749992  0.499957  0.249949  1
  Pt  Pt7  1  0.500000  0.250000  0.750000  1
  Pt  Pt8  1  0.250008  0.499957  0.749966  1
  Pt  Pt9  1  0.250008  0.750051  0.500043  1
  Rh  Rh10  1  0.500000  0.750000  0.250000  1
  Rh  Rh11  1  0.723445  0.723102  0.999657  1
  Rh  Rh12  1  0.276555  0.000343  0.276898  1
  Rh  Rh13  1  0.000000  0.275301  0.275301  1
  Rh  Rh14  1  0.276555  0.276211  0.999657  1
  Rh  Rh15  1  0.723445  0.000343  0.723789  1
  Rh  Rh16  1  0.000000  0.724699  0.724699  1
