# generated using pymatgen
data_KCr2CdF9
_symmetry_space_group_name_H-M   'P 1'
_cell_length_a   7.52821600
_cell_length_b   7.52821642
_cell_length_c   23.81974900
_cell_angle_alpha   90.00000000
_cell_angle_beta   90.00000000
_cell_angle_gamma   119.84949116
_symmetry_Int_Tables_number   1
_chemical_formula_structural   KCr2CdF9
_chemical_formula_sum   'K6 Cr12 Cd6 F54'
_cell_volume   1170.86991279
_cell_formula_units_Z   6
loop_
 _symmetry_equiv_pos_site_id
 _symmetry_equiv_pos_as_xyz
  1  'x, y, z'
loop_
 _atom_site_type_symbol
 _atom_site_label
 _atom_site_symmetry_multiplicity
 _atom_site_fract_x
 _atom_site_fract_y
 _atom_site_fract_z
 _atom_site_occupancy
  K  K0  1  0.490101  0.509897  0.750000  1
  K  K1  1  0.509899  0.490103  0.250000  1
  K  K2  1  0.534450  0.495672  0.583561  1
  K  K3  1  0.465550  0.504328  0.083561  1
  K  K4  1  0.504326  0.465549  0.916440  1
  K  K5  1  0.495674  0.534451  0.416440  1
  Cr  Cr6  1  0.019032  0.518560  0.502370  1
  Cr  Cr7  1  0.980968  0.481440  0.002370  1
  Cr  Cr8  1  0.481446  0.980973  0.997630  1
  Cr  Cr9  1  0.518554  0.019027  0.497630  1
  Cr  Cr10  1  0.012788  0.497341  0.664469  1
  Cr  Cr11  1  0.987212  0.502659  0.164469  1
  Cr  Cr12  1  0.502658  0.987213  0.835531  1
  Cr  Cr13  1  0.497342  0.012787  0.335531  1
  Cr  Cr14  1  0.989692  0.004598  0.168821  1
  Cr  Cr15  1  0.010308  0.995402  0.668821  1
  Cr  Cr16  1  0.995403  0.010310  0.331179  1
  Cr  Cr17  1  0.004597  0.989690  0.831179  1
  Cd  Cd18  1  0.015871  0.015871  0.500000  1
  Cd  Cd19  1  0.984129  0.984129  0.000000  1
  Cd  Cd20  1  0.999631  0.486321  0.833308  1
  Cd  Cd21  1  0.000369  0.513679  0.333308  1
  Cd  Cd22  1  0.513680  0.000370  0.666692  1
  Cd  Cd23  1  0.486320  0.999630  0.166692  1
  F  F24  1  0.163929  0.369156  0.517182  1
  F  F25  1  0.836071  0.630844  0.017182  1
  F  F26  1  0.630843  0.836071  0.982818  1
  F  F27  1  0.369157  0.163929  0.482818  1
  F  F28  1  0.720749  0.350736  0.679298  1
  F  F29  1  0.279251  0.649264  0.179298  1
  F  F30  1  0.649264  0.279252  0.820702  1
  F  F31  1  0.350736  0.720748  0.320702  1
  F  F32  1  0.997466  0.238405  0.647560  1
  F  F33  1  0.002534  0.761595  0.147560  1
  F  F34  1  0.761596  0.002536  0.852440  1
  F  F35  1  0.238404  0.997464  0.352440  1
  F  F36  1  0.078311  0.477513  0.742138  1
  F  F37  1  0.921689  0.522487  0.242138  1
  F  F38  1  0.522488  0.921689  0.757862  1
  F  F39  1  0.477512  0.078311  0.257862  1
  F  F40  1  0.041495  0.959874  0.590183  1
  F  F41  1  0.958505  0.040126  0.090183  1
  F  F42  1  0.040126  0.958505  0.909817  1
  F  F43  1  0.959874  0.041495  0.409817  1
  F  F44  1  0.260974  0.778889  0.517407  1
  F  F45  1  0.739026  0.221111  0.017407  1
  F  F46  1  0.221110  0.739025  0.982593  1
  F  F47  1  0.778890  0.260975  0.482593  1
  F  F48  1  0.973052  0.026948  0.750000  1
  F  F49  1  0.026948  0.973052  0.250000  1
  F  F50  1  0.902195  0.458962  0.924094  1
  F  F51  1  0.097805  0.541038  0.424094  1
  F  F52  1  0.541039  0.097806  0.575906  1
  F  F53  1  0.458961  0.902194  0.075906  1
  F  F54  1  0.161924  0.286307  0.837839  1
  F  F55  1  0.838076  0.713693  0.337839  1
  F  F56  1  0.713694  0.838077  0.662161  1
  F  F57  1  0.286306  0.161923  0.162161  1
  F  F58  1  0.133074  0.339791  0.988952  1
  F  F59  1  0.866926  0.660209  0.488952  1
  F  F60  1  0.660210  0.866926  0.511048  1
  F  F61  1  0.339790  0.133074  0.011048  1
  F  F62  1  0.847786  0.693596  0.822820  1
  F  F63  1  0.152214  0.306404  0.322820  1
  F  F64  1  0.306405  0.152215  0.677180  1
  F  F65  1  0.693595  0.847785  0.177180  1
  F  F66  1  0.024335  0.751575  0.686286  1
  F  F67  1  0.975665  0.248425  0.186286  1
  F  F68  1  0.248426  0.975665  0.813715  1
  F  F69  1  0.751574  0.024335  0.313715  1
  F  F70  1  0.303871  0.651938  0.648174  1
  F  F71  1  0.696129  0.348062  0.148174  1
  F  F72  1  0.348061  0.696130  0.851826  1
  F  F73  1  0.651939  0.303870  0.351826  1
  F  F74  1  0.943367  0.508341  0.583672  1
  F  F75  1  0.056633  0.491659  0.083672  1
  F  F76  1  0.491658  0.056632  0.916328  1
  F  F77  1  0.508342  0.943368  0.416328  1
