# generated using pymatgen
data_La3Pr6DyC4I15
_symmetry_space_group_name_H-M   'P 1'
_cell_length_a   9.84950572
_cell_length_b   10.74118898
_cell_length_c   11.85814027
_cell_angle_alpha   93.66787382
_cell_angle_beta   114.24979964
_cell_angle_gamma   109.43834326
_symmetry_Int_Tables_number   1
_chemical_formula_structural   La3Pr6DyC4I15
_chemical_formula_sum   'La3 Pr6 Dy1 C4 I15'
_cell_volume   1048.85681322
_cell_formula_units_Z   1
loop_
 _symmetry_equiv_pos_site_id
 _symmetry_equiv_pos_as_xyz
  1  'x, y, z'
loop_
 _atom_site_type_symbol
 _atom_site_label
 _atom_site_symmetry_multiplicity
 _atom_site_fract_x
 _atom_site_fract_y
 _atom_site_fract_z
 _atom_site_occupancy
  La  La0  1  0.706858  0.568891  0.045339  1
  La  La1  1  0.293012  0.432090  0.955351  1
  La  La2  1  0.658533  0.252947  0.832578  1
  Pr  Pr3  1  0.345510  0.747468  0.165595  1
  Pr  Pr4  1  0.777064  0.884209  0.258812  1
  Pr  Pr5  1  0.527322  0.184279  0.101992  1
  Pr  Pr6  1  0.223876  0.115178  0.742945  1
  Pr  Pr7  1  0.402340  0.458626  0.657261  1
  Pr  Pr8  1  0.471986  0.814248  0.899494  1
  Dy  Dy9  1  0.594069  0.545460  0.335760  1
  C  C10  1  0.483629  0.300344  0.937475  1
  C  C11  1  0.518629  0.698298  0.063763  1
  C  C12  1  0.454221  0.362188  0.834440  1
  C  C13  1  0.547066  0.636342  0.166829  1
  I  I14  1  0.205872  0.906103  0.937539  1
  I  I15  1  0.104120  0.187538  0.468855  1
  I  I16  1  0.152432  0.557318  0.701998  1
  I  I17  1  0.402206  0.965834  0.645982  1
  I  I18  1  0.711736  0.735498  0.819332  1
  I  I19  1  0.297942  0.273348  0.187522  1
  I  I20  1  0.838277  0.445589  0.302006  1
  I  I21  1  0.884578  0.800537  0.526745  1
  I  I22  1  0.367283  0.627454  0.411012  1
  I  I23  1  0.055655  0.835443  0.221974  1
  I  I24  1  0.793914  0.094013  0.064421  1
  I  I25  1  0.640056  0.374282  0.582006  1
  I  I26  1  0.944388  0.163500  0.778215  1
  I  I27  1  0.594859  0.030842  0.353294  1
  I  I28  1  0.002568  0.502131  0.001464  1
