# generated using pymatgen
data_Lu8B24Ir3Ru
_symmetry_space_group_name_H-M   'P 1'
_cell_length_a   3.58589800
_cell_length_b   9.05607450
_cell_length_c   11.40267183
_cell_angle_alpha   90.05050438
_cell_angle_beta   90.00000000
_cell_angle_gamma   90.00000000
_symmetry_Int_Tables_number   1
_chemical_formula_structural   Lu8B24Ir3Ru
_chemical_formula_sum   'Lu8 B24 Ir3 Ru1'
_cell_volume   370.29203898
_cell_formula_units_Z   1
loop_
 _symmetry_equiv_pos_site_id
 _symmetry_equiv_pos_as_xyz
  1  'x, y, z'
loop_
 _atom_site_type_symbol
 _atom_site_label
 _atom_site_symmetry_multiplicity
 _atom_site_fract_x
 _atom_site_fract_y
 _atom_site_fract_z
 _atom_site_occupancy
  Lu  Lu0  1  0.000000  0.320063  0.413464  1
  Lu  Lu1  1  0.000000  0.681993  0.587768  1
  Lu  Lu2  1  0.000000  0.819972  0.084954  1
  Lu  Lu3  1  0.000000  0.177964  0.913029  1
  Lu  Lu4  1  0.000000  0.943909  0.374597  1
  Lu  Lu5  1  0.000000  0.054480  0.626270  1
  Lu  Lu6  1  0.000000  0.443743  0.125378  1
  Lu  Lu7  1  0.000000  0.558020  0.874796  1
  B  B8  1  0.500000  0.553290  0.435298  1
  B  B9  1  0.500000  0.447349  0.565267  1
  B  B10  1  0.500000  0.052669  0.064968  1
  B  B11  1  0.500000  0.946264  0.934073  1
  B  B12  1  0.500000  0.750751  0.421237  1
  B  B13  1  0.500000  0.249411  0.578982  1
  B  B14  1  0.500000  0.250393  0.078760  1
  B  B15  1  0.500000  0.750190  0.920185  1
  B  B16  1  0.500000  0.793587  0.263931  1
  B  B17  1  0.500000  0.206452  0.735219  1
  B  B18  1  0.500000  0.293816  0.235839  1
  B  B19  1  0.500000  0.707359  0.765402  1
  B  B20  1  0.500000  0.631299  0.183018  1
  B  B21  1  0.500000  0.368419  0.816817  1
  B  B22  1  0.500000  0.131463  0.316890  1
  B  B23  1  0.500000  0.869108  0.684353  1
  B  B24  1  0.500000  0.980272  0.212850  1
  B  B25  1  0.500000  0.018240  0.786772  1
  B  B26  1  0.500000  0.480408  0.287313  1
  B  B27  1  0.500000  0.519409  0.713001  1
  B  B28  1  0.500000  0.607074  0.029779  1
  B  B29  1  0.500000  0.392099  0.970561  1
  B  B30  1  0.500000  0.107584  0.470332  1
  B  B31  1  0.500000  0.892682  0.529174  1
  Ir  Ir32  1  0.000000  0.638434  0.321678  1
  Ir  Ir33  1  0.000000  0.362042  0.678929  1
  Ir  Ir34  1  0.000000  0.138125  0.178391  1
  Ru  Ru35  1  0.000000  0.861668  0.820725  1
