# generated using pymatgen
data_Tb5OsWC7
_symmetry_space_group_name_H-M   'P 1'
_cell_length_a   8.34322735
_cell_length_b   8.34322819
_cell_length_c   3.50876700
_cell_angle_alpha   90.00000000
_cell_angle_beta   90.00000000
_cell_angle_gamma   122.82771688
_symmetry_Int_Tables_number   1
_chemical_formula_structural   Tb5OsWC7
_chemical_formula_sum   'Tb5 Os1 W1 C7'
_cell_volume   205.23876616
_cell_formula_units_Z   1
loop_
 _symmetry_equiv_pos_site_id
 _symmetry_equiv_pos_as_xyz
  1  'x, y, z'
loop_
 _atom_site_type_symbol
 _atom_site_label
 _atom_site_symmetry_multiplicity
 _atom_site_fract_x
 _atom_site_fract_y
 _atom_site_fract_z
 _atom_site_occupancy
  Tb  Tb0  1  0.501587  0.498413  0.000000  1
  Tb  Tb1  1  0.071407  0.332539  0.500000  1
  Tb  Tb2  1  0.924062  0.665408  0.500000  1
  Tb  Tb3  1  0.667461  0.928593  0.500000  1
  Tb  Tb4  1  0.334592  0.075938  0.500000  1
  Os  Os5  1  0.710748  0.289252  0.000000  1
  W  W6  1  0.287055  0.712945  0.000000  1
  C  C7  1  0.635073  0.364927  0.500000  1
  C  C8  1  0.374055  0.625945  0.500000  1
  C  C9  1  0.998997  0.001003  0.000000  1
  C  C10  1  0.169116  0.170930  0.000000  1
  C  C11  1  0.829070  0.830884  0.000000  1
  C  C12  1  0.998589  0.501812  0.000000  1
  C  C13  1  0.498188  0.001411  0.000000  1
