# generated using pymatgen
data_NdAg3IrRh3O14
_symmetry_space_group_name_H-M   'P 1'
_cell_length_a   7.27468183
_cell_length_b   7.27468162
_cell_length_c   7.27468243
_cell_angle_alpha   59.31857820
_cell_angle_beta   59.31857889
_cell_angle_gamma   59.31857943
_symmetry_Int_Tables_number   1
_chemical_formula_structural   NdAg3IrRh3O14
_chemical_formula_sum   'Nd1 Ag3 Ir1 Rh3 O14'
_cell_volume   268.00102201
_cell_formula_units_Z   1
loop_
 _symmetry_equiv_pos_site_id
 _symmetry_equiv_pos_as_xyz
  1  'x, y, z'
loop_
 _atom_site_type_symbol
 _atom_site_label
 _atom_site_symmetry_multiplicity
 _atom_site_fract_x
 _atom_site_fract_y
 _atom_site_fract_z
 _atom_site_occupancy
  Nd  Nd0  1  0.125000  0.125000  0.125000  1
  Ag  Ag1  1  0.625000  0.125000  0.125000  1
  Ag  Ag2  1  0.125000  0.625000  0.125000  1
  Ag  Ag3  1  0.125000  0.125000  0.625000  1
  Ir  Ir4  1  0.625000  0.625000  0.625000  1
  Rh  Rh5  1  0.125000  0.625000  0.625000  1
  Rh  Rh6  1  0.625000  0.125000  0.625000  1
  Rh  Rh7  1  0.625000  0.625000  0.125000  1
  O  O8  1  0.694712  0.694712  0.307972  1
  O  O9  1  0.292630  0.292630  0.704160  1
  O  O10  1  0.694712  0.307972  0.694712  1
  O  O11  1  0.292630  0.704160  0.292630  1
  O  O12  1  0.307972  0.694712  0.694712  1
  O  O13  1  0.704160  0.292630  0.292630  1
  O  O14  1  0.555288  0.555288  0.942028  1
  O  O15  1  0.957370  0.957370  0.545840  1
  O  O16  1  0.555288  0.942028  0.555288  1
  O  O17  1  0.957370  0.545840  0.957370  1
  O  O18  1  0.942028  0.555288  0.555288  1
  O  O19  1  0.545840  0.957370  0.957370  1
  O  O20  1  0.260550  0.260550  0.260550  1
  O  O21  1  0.989450  0.989450  0.989450  1
