# generated using pymatgen
data_Sr4FeCo3(PdN3)2
_symmetry_space_group_name_H-M   'P 1'
_cell_length_a   6.51351681
_cell_length_b   6.49582780
_cell_length_c   6.51395905
_cell_angle_alpha   89.67766448
_cell_angle_beta   90.19686821
_cell_angle_gamma   116.90487791
_symmetry_Int_Tables_number   1
_chemical_formula_structural   Sr4FeCo3(PdN3)2
_chemical_formula_sum   'Sr4 Fe1 Co3 Pd2 N6'
_cell_volume   245.77374161
_cell_formula_units_Z   1
loop_
 _symmetry_equiv_pos_site_id
 _symmetry_equiv_pos_as_xyz
  1  'x, y, z'
loop_
 _atom_site_type_symbol
 _atom_site_label
 _atom_site_symmetry_multiplicity
 _atom_site_fract_x
 _atom_site_fract_y
 _atom_site_fract_z
 _atom_site_occupancy
  Sr  Sr0  1  0.828270  0.676828  0.899002  1
  Sr  Sr1  1  0.327206  0.170527  0.603181  1
  Sr  Sr2  1  0.173429  0.326463  0.102978  1
  Sr  Sr3  1  0.679359  0.828606  0.395244  1
  Fe  Fe4  1  0.163954  0.562040  0.598296  1
  Co  Co5  1  0.566615  0.166960  0.101283  1
  Co  Co6  1  0.432732  0.835833  0.901148  1
  Co  Co7  1  0.829008  0.428035  0.396862  1
  Pd  Pd8  1  0.810463  0.188840  0.749121  1
  Pd  Pd9  1  0.189981  0.812256  0.252935  1
  N  N10  1  0.406437  0.593552  0.746771  1
  N  N11  1  0.589832  0.412214  0.247806  1
  N  N12  1  0.996916  0.715128  0.523457  1
  N  N13  1  0.719942  0.999135  0.020185  1
  N  N14  1  0.007168  0.281404  0.480330  1
  N  N15  1  0.278686  0.002179  0.981403  1
