# generated using pymatgen
data_Rb2YbU3Se8
_symmetry_space_group_name_H-M   'P 1'
_cell_length_a   7.17810700
_cell_length_b   8.33539100
_cell_length_c   17.71798100
_cell_angle_alpha   90.00000000
_cell_angle_beta   90.00000000
_cell_angle_gamma   90.00000000
_symmetry_Int_Tables_number   1
_chemical_formula_structural   Rb2YbU3Se8
_chemical_formula_sum   'Rb4 Yb2 U6 Se16'
_cell_volume   1060.10805928
_cell_formula_units_Z   2
loop_
 _symmetry_equiv_pos_site_id
 _symmetry_equiv_pos_as_xyz
  1  'x, y, z'
loop_
 _atom_site_type_symbol
 _atom_site_label
 _atom_site_symmetry_multiplicity
 _atom_site_fract_x
 _atom_site_fract_y
 _atom_site_fract_z
 _atom_site_occupancy
  Rb  Rb0  1  0.332373  0.000000  0.000000  1
  Rb  Rb1  1  0.643594  0.500000  0.500000  1
  Rb  Rb2  1  0.020737  0.000000  0.500000  1
  Rb  Rb3  1  0.979025  0.500000  0.000000  1
  Yb  Yb4  1  0.000595  0.000000  0.247470  1
  Yb  Yb5  1  0.000595  0.000000  0.752530  1
  U  U6  1  0.001777  0.500000  0.253108  1
  U  U7  1  0.001777  0.500000  0.746892  1
  U  U8  1  0.501154  0.245700  0.250850  1
  U  U9  1  0.501154  0.754300  0.749150  1
  U  U10  1  0.501154  0.754300  0.250850  1
  U  U11  1  0.501154  0.245700  0.749150  1
  Se  Se12  1  0.829077  0.256778  0.340904  1
  Se  Se13  1  0.829077  0.743222  0.659096  1
  Se  Se14  1  0.173469  0.737555  0.160600  1
  Se  Se15  1  0.173469  0.262445  0.839400  1
  Se  Se16  1  0.173469  0.262445  0.160600  1
  Se  Se17  1  0.173469  0.737555  0.839400  1
  Se  Se18  1  0.829077  0.743222  0.340904  1
  Se  Se19  1  0.829077  0.256778  0.659096  1
  Se  Se20  1  0.650145  0.000000  0.160297  1
  Se  Se21  1  0.650145  0.000000  0.839703  1
  Se  Se22  1  0.337182  0.500000  0.338859  1
  Se  Se23  1  0.337182  0.500000  0.661141  1
  Se  Se24  1  0.344704  0.000000  0.339687  1
  Se  Se25  1  0.344704  0.000000  0.660313  1
  Se  Se26  1  0.670333  0.500000  0.164605  1
  Se  Se27  1  0.670333  0.500000  0.835395  1
