# generated using pymatgen
data_Fe5NiW6C
_symmetry_space_group_name_H-M   'P 1'
_cell_length_a   7.73883774
_cell_length_b   7.74483622
_cell_length_c   7.74483752
_cell_angle_alpha   59.88543954
_cell_angle_beta   60.02562026
_cell_angle_gamma   60.02561447
_symmetry_Int_Tables_number   1
_chemical_formula_structural   Fe5NiW6C
_chemical_formula_sum   'Fe10 Ni2 W12 C2'
_cell_volume   328.07688740
_cell_formula_units_Z   2
loop_
 _symmetry_equiv_pos_site_id
 _symmetry_equiv_pos_as_xyz
  1  'x, y, z'
loop_
 _atom_site_type_symbol
 _atom_site_label
 _atom_site_symmetry_multiplicity
 _atom_site_fract_x
 _atom_site_fract_y
 _atom_site_fract_z
 _atom_site_occupancy
  Fe  Fe0  1  0.421520  0.422968  0.733993  1
  Fe  Fe1  1  0.421520  0.733993  0.422968  1
  Fe  Fe2  1  0.733207  0.422175  0.422175  1
  Fe  Fe3  1  0.422443  0.422175  0.422175  1
  Fe  Fe4  1  0.828600  0.830680  0.512121  1
  Fe  Fe5  1  0.828600  0.512121  0.830680  1
  Fe  Fe6  1  0.626444  0.620783  0.126329  1
  Fe  Fe7  1  0.626444  0.126329  0.620783  1
  Fe  Fe8  1  0.124138  0.623237  0.623237  1
  Fe  Fe9  1  0.629388  0.623237  0.623237  1
  Ni  Ni10  1  0.498756  0.833716  0.833716  1
  Ni  Ni11  1  0.833813  0.833716  0.833716  1
  W  W12  1  0.051178  0.051856  0.449112  1
  W  W13  1  0.447854  0.051856  0.449112  1
  W  W14  1  0.053241  0.446759  0.446759  1
  W  W15  1  0.447854  0.449112  0.051856  1
  W  W16  1  0.051178  0.449112  0.051856  1
  W  W17  1  0.449172  0.050828  0.050828  1
  W  W18  1  0.197489  0.198398  0.802427  1
  W  W19  1  0.801686  0.198398  0.802427  1
  W  W20  1  0.199080  0.800920  0.800920  1
  W  W21  1  0.801686  0.802427  0.198398  1
  W  W22  1  0.197489  0.802427  0.198398  1
  W  W23  1  0.804025  0.195975  0.195975  1
  C  C24  1  0.251248  0.248752  0.248752  1
  C  C25  1  0.001947  0.998053  0.998053  1
