# generated using pymatgen
data_Lu12Tc3Pb2
_symmetry_space_group_name_H-M   'P 1'
_cell_length_a   8.34570816
_cell_length_b   8.34570896
_cell_length_c   8.34570890
_cell_angle_alpha   108.91196757
_cell_angle_beta   108.91197232
_cell_angle_gamma   110.59560578
_symmetry_Int_Tables_number   1
_chemical_formula_structural   Lu12Tc3Pb2
_chemical_formula_sum   'Lu12 Tc3 Pb2'
_cell_volume   447.34443415
_cell_formula_units_Z   1
loop_
 _symmetry_equiv_pos_site_id
 _symmetry_equiv_pos_as_xyz
  1  'x, y, z'
loop_
 _atom_site_type_symbol
 _atom_site_label
 _atom_site_symmetry_multiplicity
 _atom_site_fract_x
 _atom_site_fract_y
 _atom_site_fract_z
 _atom_site_occupancy
  Lu  Lu0  1  0.307043  0.307043  0.614087  1
  Lu  Lu1  1  0.692957  0.692957  0.385913  1
  Lu  Lu2  1  0.692957  0.307043  0.000000  1
  Lu  Lu3  1  0.307043  0.692957  0.000000  1
  Lu  Lu4  1  0.190341  0.427325  0.236984  1
  Lu  Lu5  1  0.809659  0.572675  0.763016  1
  Lu  Lu6  1  0.190341  0.953357  0.763016  1
  Lu  Lu7  1  0.953357  0.190341  0.763016  1
  Lu  Lu8  1  0.809659  0.046643  0.236984  1
  Lu  Lu9  1  0.046643  0.809659  0.236984  1
  Lu  Lu10  1  0.427325  0.190341  0.236984  1
  Lu  Lu11  1  0.572675  0.809659  0.763016  1
  Tc  Tc12  1  0.370064  0.370064  0.000000  1
  Tc  Tc13  1  0.629936  0.629936  0.000000  1
  Tc  Tc14  1  0.000000  0.000000  0.000000  1
  Pb  Pb15  1  0.000000  0.500000  0.500000  1
  Pb  Pb16  1  0.500000  0.000000  0.500000  1
