# generated using pymatgen
data_Ho3Lu3Tc2
_symmetry_space_group_name_H-M   'P 1'
_cell_length_a   7.42209641
_cell_length_b   8.95409500
_cell_length_c   6.15548936
_cell_angle_alpha   90.00000000
_cell_angle_beta   89.93876653
_cell_angle_gamma   90.00000000
_symmetry_Int_Tables_number   1
_chemical_formula_structural   Ho3Lu3Tc2
_chemical_formula_sum   'Ho6 Lu6 Tc4'
_cell_volume   409.08224085
_cell_formula_units_Z   2
loop_
 _symmetry_equiv_pos_site_id
 _symmetry_equiv_pos_as_xyz
  1  'x, y, z'
loop_
 _atom_site_type_symbol
 _atom_site_label
 _atom_site_symmetry_multiplicity
 _atom_site_fract_x
 _atom_site_fract_y
 _atom_site_fract_z
 _atom_site_occupancy
  Ho  Ho0  1  0.961578  0.750000  0.122705  1
  Ho  Ho1  1  0.676270  0.061797  0.154092  1
  Ho  Ho2  1  0.676270  0.438204  0.154092  1
  Ho  Ho3  1  0.460280  0.750000  0.377431  1
  Ho  Ho4  1  0.537336  0.250000  0.624293  1
  Ho  Ho5  1  0.041936  0.250000  0.873776  1
  Lu  Lu6  1  0.174171  0.062535  0.346406  1
  Lu  Lu7  1  0.174171  0.437466  0.346406  1
  Lu  Lu8  1  0.825685  0.562982  0.654715  1
  Lu  Lu9  1  0.825685  0.937018  0.654715  1
  Lu  Lu10  1  0.324168  0.563058  0.846039  1
  Lu  Lu11  1  0.324168  0.936942  0.846039  1
  Tc  Tc12  1  0.381123  0.250000  0.044931  1
  Tc  Tc13  1  0.883381  0.250000  0.458574  1
  Tc  Tc14  1  0.117249  0.750000  0.545860  1
  Tc  Tc15  1  0.616533  0.750000  0.949924  1
