# generated using pymatgen
data_Si4Ir3Pt
_symmetry_space_group_name_H-M   'P 1'
_cell_length_a   3.47830100
_cell_length_b   5.51079745
_cell_length_c   6.16133200
_cell_angle_alpha   89.47068789
_cell_angle_beta   90.00000000
_cell_angle_gamma   90.00000000
_symmetry_Int_Tables_number   1
_chemical_formula_structural   Si4Ir3Pt
_chemical_formula_sum   'Si4 Ir3 Pt1'
_cell_volume   118.09667997
_cell_formula_units_Z   1
loop_
 _symmetry_equiv_pos_site_id
 _symmetry_equiv_pos_as_xyz
  1  'x, y, z'
loop_
 _atom_site_type_symbol
 _atom_site_label
 _atom_site_symmetry_multiplicity
 _atom_site_fract_x
 _atom_site_fract_y
 _atom_site_fract_z
 _atom_site_occupancy
  Si  Si0  1  0.250000  0.669864  0.069022  1
  Si  Si1  1  0.750000  0.325475  0.923743  1
  Si  Si2  1  0.250000  0.186435  0.428998  1
  Si  Si3  1  0.750000  0.813656  0.581118  1
  Ir  Ir4  1  0.250000  0.499536  0.702037  1
  Ir  Ir5  1  0.750000  0.503304  0.296435  1
  Ir  Ir6  1  0.250000  0.998480  0.795019  1
  Pt  Pt7  1  0.750000  0.003251  0.203628  1
