# generated using pymatgen
data_Sc12Co4HgPt
_symmetry_space_group_name_H-M   'P 1'
_cell_length_a   7.71150213
_cell_length_b   7.71150162
_cell_length_c   7.71150208
_cell_angle_alpha   110.51803104
_cell_angle_beta   111.42710692
_cell_angle_gamma   106.50987583
_symmetry_Int_Tables_number   1
_chemical_formula_structural   Sc12Co4HgPt
_chemical_formula_sum   'Sc12 Co4 Hg1 Pt1'
_cell_volume   352.29044380
_cell_formula_units_Z   1
loop_
 _symmetry_equiv_pos_site_id
 _symmetry_equiv_pos_as_xyz
  1  'x, y, z'
loop_
 _atom_site_type_symbol
 _atom_site_label
 _atom_site_symmetry_multiplicity
 _atom_site_fract_x
 _atom_site_fract_y
 _atom_site_fract_z
 _atom_site_occupancy
  Sc  Sc0  1  0.428414  0.228677  0.199737  1
  Sc  Sc1  1  0.571586  0.771323  0.800263  1
  Sc  Sc2  1  0.028939  0.228677  0.800263  1
  Sc  Sc3  1  0.971061  0.771323  0.199737  1
  Sc  Sc4  1  0.317220  0.618144  0.300924  1
  Sc  Sc5  1  0.682780  0.381856  0.699076  1
  Sc  Sc6  1  0.317220  0.016295  0.699076  1
  Sc  Sc7  1  0.682780  0.983705  0.300924  1
  Sc  Sc8  1  0.186556  0.280657  0.467214  1
  Sc  Sc9  1  0.813444  0.719342  0.532786  1
  Sc  Sc10  1  0.186556  0.719342  0.905898  1
  Sc  Sc11  1  0.813444  0.280657  0.094102  1
  Co  Co12  1  0.364253  0.000000  0.364253  1
  Co  Co13  1  0.635747  0.000000  0.635747  1
  Co  Co14  1  0.118974  0.618974  0.500000  1
  Co  Co15  1  0.881026  0.381026  0.500000  1
  Hg  Hg16  1  0.500000  0.500000  0.000000  1
  Pt  Pt17  1  0.000000  0.000000  0.000000  1
