# generated using pymatgen
data_Ti5Al6CrFe12
_symmetry_space_group_name_H-M   'P 1'
_cell_length_a   4.10252500
_cell_length_b   5.80829800
_cell_length_c   12.29690700
_cell_angle_alpha   90.00000000
_cell_angle_beta   90.00008848
_cell_angle_gamma   90.00000000
_symmetry_Int_Tables_number   1
_chemical_formula_structural   Ti5Al6CrFe12
_chemical_formula_sum   'Ti5 Al6 Cr1 Fe12'
_cell_volume   293.01915722
_cell_formula_units_Z   1
loop_
 _symmetry_equiv_pos_site_id
 _symmetry_equiv_pos_as_xyz
  1  'x, y, z'
loop_
 _atom_site_type_symbol
 _atom_site_label
 _atom_site_symmetry_multiplicity
 _atom_site_fract_x
 _atom_site_fract_y
 _atom_site_fract_z
 _atom_site_occupancy
  Ti  Ti0  1  0.500005  0.000000  0.165769  1
  Ti  Ti1  1  0.000007  0.500000  0.332412  1
  Ti  Ti2  1  0.499999  0.000000  0.500000  1
  Ti  Ti3  1  0.999993  0.500000  0.667588  1
  Ti  Ti4  1  0.499995  0.000000  0.834231  1
  Al  Al5  1  0.000000  0.000000  0.000000  1
  Al  Al6  1  0.500004  0.500000  0.166793  1
  Al  Al7  1  0.000006  0.000000  0.330557  1
  Al  Al8  1  0.499999  0.500000  0.500000  1
  Al  Al9  1  0.999994  0.000000  0.669443  1
  Al  Al10  1  0.499994  0.500000  0.833207  1
  Cr  Cr11  1  0.000000  0.500000  0.000000  1
  Fe  Fe12  1  0.500001  0.261731  0.000000  1
  Fe  Fe13  1  0.500001  0.738270  0.000000  1
  Fe  Fe14  1  0.000005  0.256600  0.160756  1
  Fe  Fe15  1  0.000005  0.743399  0.160756  1
  Fe  Fe16  1  0.500007  0.249876  0.332497  1
  Fe  Fe17  1  0.500007  0.750123  0.332497  1
  Fe  Fe18  1  0.000000  0.248742  0.500000  1
  Fe  Fe19  1  0.000000  0.751257  0.500000  1
  Fe  Fe20  1  0.499993  0.249876  0.667503  1
  Fe  Fe21  1  0.499993  0.750123  0.667503  1
  Fe  Fe22  1  0.999995  0.256600  0.839245  1
  Fe  Fe23  1  0.999995  0.743399  0.839245  1
