# generated using pymatgen
data_Tb3YbSc4(ReB6)4
_symmetry_space_group_name_H-M   'P 1'
_cell_length_a   3.58211600
_cell_length_b   9.02572424
_cell_length_c   11.40732330
_cell_angle_alpha   90.02621670
_cell_angle_beta   90.00000000
_cell_angle_gamma   90.00000000
_symmetry_Int_Tables_number   1
_chemical_formula_structural   Tb3YbSc4(ReB6)4
_chemical_formula_sum   'Tb3 Yb1 Sc4 Re4 B24'
_cell_volume   368.81231202
_cell_formula_units_Z   1
loop_
 _symmetry_equiv_pos_site_id
 _symmetry_equiv_pos_as_xyz
  1  'x, y, z'
loop_
 _atom_site_type_symbol
 _atom_site_label
 _atom_site_symmetry_multiplicity
 _atom_site_fract_x
 _atom_site_fract_y
 _atom_site_fract_z
 _atom_site_occupancy
  Tb  Tb0  1  0.000000  0.676964  0.585332  1
  Tb  Tb1  1  0.000000  0.822008  0.086158  1
  Tb  Tb2  1  0.000000  0.178243  0.914478  1
  Yb  Yb3  1  0.000000  0.321923  0.414086  1
  Sc  Sc4  1  0.000000  0.944298  0.369388  1
  Sc  Sc5  1  0.000000  0.056617  0.629985  1
  Sc  Sc6  1  0.000000  0.443777  0.130858  1
  Sc  Sc7  1  0.000000  0.555706  0.870204  1
  Re  Re8  1  0.000000  0.642223  0.318085  1
  Re  Re9  1  0.000000  0.358535  0.681892  1
  Re  Re10  1  0.000000  0.140886  0.182288  1
  Re  Re11  1  0.000000  0.858575  0.817355  1
  B  B12  1  0.500000  0.553721  0.431782  1
  B  B13  1  0.500000  0.445339  0.567506  1
  B  B14  1  0.500000  0.054276  0.067640  1
  B  B15  1  0.500000  0.945435  0.932096  1
  B  B16  1  0.500000  0.754375  0.418064  1
  B  B17  1  0.500000  0.246060  0.581107  1
  B  B18  1  0.500000  0.254505  0.082109  1
  B  B19  1  0.500000  0.745550  0.918118  1
  B  B20  1  0.500000  0.795729  0.264715  1
  B  B21  1  0.500000  0.204678  0.735177  1
  B  B22  1  0.500000  0.295293  0.235701  1
  B  B23  1  0.500000  0.704732  0.764854  1
  B  B24  1  0.500000  0.629055  0.183244  1
  B  B25  1  0.500000  0.370995  0.817157  1
  B  B26  1  0.500000  0.129933  0.317165  1
  B  B27  1  0.500000  0.870694  0.682966  1
  B  B28  1  0.500000  0.981702  0.213788  1
  B  B29  1  0.500000  0.018509  0.786074  1
  B  B30  1  0.500000  0.481292  0.286550  1
  B  B31  1  0.500000  0.518128  0.713949  1
  B  B32  1  0.500000  0.594958  0.025780  1
  B  B33  1  0.500000  0.404985  0.974409  1
  B  B34  1  0.500000  0.094108  0.474321  1
  B  B35  1  0.500000  0.906194  0.525623  1
