# generated using pymatgen
data_Dy2Ho10Co6Sn
_symmetry_space_group_name_H-M   'P 1'
_cell_length_a   8.32856134
_cell_length_b   8.32450607
_cell_length_c   8.32450489
_cell_angle_alpha   109.48526203
_cell_angle_beta   109.49357809
_cell_angle_gamma   109.41511483
_symmetry_Int_Tables_number   1
_chemical_formula_structural   Dy2Ho10Co6Sn
_chemical_formula_sum   'Dy2 Ho10 Co6 Sn1'
_cell_volume   444.39624525
_cell_formula_units_Z   1
loop_
 _symmetry_equiv_pos_site_id
 _symmetry_equiv_pos_as_xyz
  1  'x, y, z'
loop_
 _atom_site_type_symbol
 _atom_site_label
 _atom_site_symmetry_multiplicity
 _atom_site_fract_x
 _atom_site_fract_y
 _atom_site_fract_z
 _atom_site_occupancy
  Dy  Dy0  1  0.108844  0.805920  0.302923  1
  Dy  Dy1  1  0.891156  0.194080  0.697077  1
  Ho  Ho2  1  0.805644  0.696301  0.502727  1
  Ho  Ho3  1  0.194356  0.303699  0.497273  1
  Ho  Ho4  1  0.194356  0.697084  0.890658  1
  Ho  Ho5  1  0.805644  0.302916  0.109342  1
  Ho  Ho6  1  0.696222  0.502660  0.805873  1
  Ho  Ho7  1  0.303778  0.497340  0.194127  1
  Ho  Ho8  1  0.696222  0.890349  0.193562  1
  Ho  Ho9  1  0.303778  0.109651  0.806438  1
  Ho  Ho10  1  0.502688  0.805833  0.696855  1
  Ho  Ho11  1  0.497312  0.194167  0.303145  1
  Co  Co12  1  0.886454  0.386621  0.499832  1
  Co  Co13  1  0.113546  0.613379  0.500168  1
  Co  Co14  1  0.386929  0.500413  0.886516  1
  Co  Co15  1  0.613071  0.499587  0.113484  1
  Co  Co16  1  0.500000  0.886411  0.386411  1
  Co  Co17  1  0.500000  0.113589  0.613589  1
  Sn  Sn18  1  0.000000  0.000000  0.000000  1
