# generated using pymatgen
data_Yb2CdInAu2
_symmetry_space_group_name_H-M   'P 1'
_cell_length_a   4.34603900
_cell_length_b   7.46002600
_cell_length_c   8.86230700
_cell_angle_alpha   90.00000000
_cell_angle_beta   90.00000000
_cell_angle_gamma   90.00000000
_symmetry_Int_Tables_number   1
_chemical_formula_structural   Yb2CdInAu2
_chemical_formula_sum   'Yb4 Cd2 In2 Au4'
_cell_volume   287.32985303
_cell_formula_units_Z   2
loop_
 _symmetry_equiv_pos_site_id
 _symmetry_equiv_pos_as_xyz
  1  'x, y, z'
loop_
 _atom_site_type_symbol
 _atom_site_label
 _atom_site_symmetry_multiplicity
 _atom_site_fract_x
 _atom_site_fract_y
 _atom_site_fract_z
 _atom_site_occupancy
  Yb  Yb0  1  0.750000  0.955409  0.682228  1
  Yb  Yb1  1  0.250000  0.546201  0.181679  1
  Yb  Yb2  1  0.750000  0.455409  0.817772  1
  Yb  Yb3  1  0.250000  0.046201  0.318321  1
  Cd  Cd4  1  0.750000  0.857217  0.057826  1
  Cd  Cd5  1  0.750000  0.357217  0.442174  1
  In  In6  1  0.250000  0.139473  0.943767  1
  In  In7  1  0.250000  0.639473  0.556233  1
  Au  Au8  1  0.250000  0.243024  0.633402  1
  Au  Au9  1  0.250000  0.743024  0.866598  1
  Au  Au10  1  0.750000  0.258675  0.130578  1
  Au  Au11  1  0.750000  0.758675  0.369422  1
