# generated using pymatgen
data_TbDy4Sn3S
_symmetry_space_group_name_H-M   'P 1'
_cell_length_a   9.06141603
_cell_length_b   9.06006659
_cell_length_c   6.66023600
_cell_angle_alpha   90.00000000
_cell_angle_beta   90.00000000
_cell_angle_gamma   119.99507218
_symmetry_Int_Tables_number   1
_chemical_formula_structural   TbDy4Sn3S
_chemical_formula_sum   'Tb2 Dy8 Sn6 S2'
_cell_volume   473.55374277
_cell_formula_units_Z   2
loop_
 _symmetry_equiv_pos_site_id
 _symmetry_equiv_pos_as_xyz
  1  'x, y, z'
loop_
 _atom_site_type_symbol
 _atom_site_label
 _atom_site_symmetry_multiplicity
 _atom_site_fract_x
 _atom_site_fract_y
 _atom_site_fract_z
 _atom_site_occupancy
  Tb  Tb0  1  0.754680  0.754714  0.750000  1
  Tb  Tb1  1  0.245320  0.000033  0.750000  1
  Dy  Dy2  1  0.666709  0.333318  0.000059  1
  Dy  Dy3  1  0.333291  0.666610  0.000059  1
  Dy  Dy4  1  0.333291  0.666610  0.499941  1
  Dy  Dy5  1  0.666709  0.333318  0.499941  1
  Dy  Dy6  1  0.000000  0.245031  0.750000  1
  Dy  Dy7  1  0.245046  0.245070  0.250000  1
  Dy  Dy8  1  0.754954  0.000024  0.250000  1
  Dy  Dy9  1  0.000000  0.754937  0.250000  1
  Sn  Sn10  1  0.397609  0.397753  0.750000  1
  Sn  Sn11  1  0.602391  0.000144  0.750000  1
  Sn  Sn12  1  0.000000  0.601939  0.750000  1
  Sn  Sn13  1  0.602272  0.602264  0.250000  1
  Sn  Sn14  1  0.397728  0.999993  0.250000  1
  Sn  Sn15  1  0.000000  0.397715  0.250000  1
  S  S16  1  0.000000  0.000263  0.000506  1
  S  S17  1  0.000000  0.000263  0.499494  1
