# generated using pymatgen
data_RbU6O18
_symmetry_space_group_name_H-M   'P 1'
_cell_length_a   9.09966691
_cell_length_b   9.09966773
_cell_length_c   9.09966699
_cell_angle_alpha   127.32698900
_cell_angle_beta   125.44235817
_cell_angle_gamma   79.26617599
_symmetry_Int_Tables_number   1
_chemical_formula_structural   RbU6O18
_chemical_formula_sum   'Rb1 U6 O18'
_cell_volume   471.96714399
_cell_formula_units_Z   1
loop_
 _symmetry_equiv_pos_site_id
 _symmetry_equiv_pos_as_xyz
  1  'x, y, z'
loop_
 _atom_site_type_symbol
 _atom_site_label
 _atom_site_symmetry_multiplicity
 _atom_site_fract_x
 _atom_site_fract_y
 _atom_site_fract_z
 _atom_site_occupancy
  Rb  Rb0  1  0.000000  0.000000  0.000000  1
  U  U1  1  0.000000  0.000000  0.500000  1
  U  U2  1  0.000000  0.500000  0.000000  1
  U  U3  1  0.500000  0.000000  0.000000  1
  U  U4  1  0.500000  0.500000  0.500000  1
  U  U5  1  0.250130  0.500000  0.750130  1
  U  U6  1  0.749870  0.500000  0.249870  1
  O  O7  1  0.750670  0.000277  0.249606  1
  O  O8  1  0.649845  0.209779  0.068928  1
  O  O9  1  0.140852  0.209779  0.559935  1
  O  O10  1  0.965037  0.209756  0.755280  1
  O  O11  1  0.454476  0.209756  0.244720  1
  O  O12  1  0.649845  0.580917  0.440065  1
  O  O13  1  0.140852  0.580917  0.931072  1
  O  O14  1  0.249330  0.999723  0.750394  1
  O  O15  1  0.249330  0.498936  0.249606  1
  O  O16  1  0.750670  0.501064  0.750394  1
  O  O17  1  0.350155  0.419083  0.559935  1
  O  O18  1  0.859148  0.419083  0.068928  1
  O  O19  1  0.034963  0.790244  0.244720  1
  O  O20  1  0.500000  0.500000  0.000000  1
  O  O21  1  0.000000  0.500000  0.500000  1
  O  O22  1  0.545524  0.790244  0.755280  1
  O  O23  1  0.350155  0.790221  0.931072  1
  O  O24  1  0.859148  0.790221  0.440065  1
