# generated using pymatgen
data_FeH5F8
_symmetry_space_group_name_H-M   'P 1'
_cell_length_a   3.90473033
_cell_length_b   6.65013876
_cell_length_c   7.88993104
_cell_angle_alpha   114.92737165
_cell_angle_beta   81.90085170
_cell_angle_gamma   109.05463234
_symmetry_Int_Tables_number   1
_chemical_formula_structural   FeH5F8
_chemical_formula_sum   'Fe1 H5 F8'
_cell_volume   175.61071599
_cell_formula_units_Z   1
loop_
 _symmetry_equiv_pos_site_id
 _symmetry_equiv_pos_as_xyz
  1  'x, y, z'
loop_
 _atom_site_type_symbol
 _atom_site_label
 _atom_site_symmetry_multiplicity
 _atom_site_fract_x
 _atom_site_fract_y
 _atom_site_fract_z
 _atom_site_occupancy
  Fe  Fe0  1  0.453138  0.020995  0.598588  1
  H  H1  1  0.675624  0.372513  0.185387  1
  H  H2  1  0.419642  0.589142  0.343415  1
  H  H3  1  0.115425  0.863852  0.872345  1
  H  H4  1  0.743966  0.561271  0.828690  1
  H  H5  1  0.679582  0.124028  0.258474  1
  F  F6  1  0.942696  0.005595  0.605803  1
  F  F7  1  0.822055  0.223176  0.182027  1
  F  F8  1  0.611975  0.350378  0.715451  1
  F  F9  1  0.505829  0.005006  0.349469  1
  F  F10  1  0.353007  0.978542  0.840008  1
  F  F11  1  0.569294  0.500534  0.189728  1
  F  F12  1  0.299072  0.667214  0.475621  1
  F  F13  1  0.841293  0.736129  0.919883  1
