# generated using pymatgen
data_Zr2Ni3BIr3
_symmetry_space_group_name_H-M   'P 1'
_cell_length_a   5.66294232
_cell_length_b   5.66294231
_cell_length_c   5.55234334
_cell_angle_alpha   59.33886019
_cell_angle_beta   59.33886441
_cell_angle_gamma   59.99999782
_symmetry_Int_Tables_number   1
_chemical_formula_structural   Zr2Ni3BIr3
_chemical_formula_sum   'Zr2 Ni3 B1 Ir3'
_cell_volume   124.63286343
_cell_formula_units_Z   1
loop_
 _symmetry_equiv_pos_site_id
 _symmetry_equiv_pos_as_xyz
  1  'x, y, z'
loop_
 _atom_site_type_symbol
 _atom_site_label
 _atom_site_symmetry_multiplicity
 _atom_site_fract_x
 _atom_site_fract_y
 _atom_site_fract_z
 _atom_site_occupancy
  Zr  Zr0  1  0.755633  0.755633  0.733101  1
  Zr  Zr1  1  0.248582  0.248582  0.254253  1
  Ni  Ni2  1  0.738491  0.738491  0.248994  1
  Ni  Ni3  1  0.274024  0.738491  0.248994  1
  Ni  Ni4  1  0.738491  0.274024  0.248994  1
  B  B5  1  0.988043  0.988043  0.035870  1
  Ir  Ir6  1  0.256546  0.256546  0.743265  1
  Ir  Ir7  1  0.743643  0.256546  0.743265  1
  Ir  Ir8  1  0.256546  0.743643  0.743265  1
