# generated using pymatgen
data_ReIr4OsW2
_symmetry_space_group_name_H-M   'P 1'
_cell_length_a   5.57948305
_cell_length_b   5.52644835
_cell_length_c   4.43383900
_cell_angle_alpha   90.00000000
_cell_angle_beta   90.00000000
_cell_angle_gamma   119.68606186
_symmetry_Int_Tables_number   1
_chemical_formula_structural   ReIr4OsW2
_chemical_formula_sum   'Re1 Ir4 Os1 W2'
_cell_volume   118.77247967
_cell_formula_units_Z   1
loop_
 _symmetry_equiv_pos_site_id
 _symmetry_equiv_pos_as_xyz
  1  'x, y, z'
loop_
 _atom_site_type_symbol
 _atom_site_label
 _atom_site_symmetry_multiplicity
 _atom_site_fract_x
 _atom_site_fract_y
 _atom_site_fract_z
 _atom_site_occupancy
  Re  Re0  1  0.668451  0.834226  0.750000  1
  Ir  Ir1  1  0.833820  0.165879  0.250000  1
  Ir  Ir2  1  0.168479  0.331029  0.750000  1
  Ir  Ir3  1  0.168479  0.837450  0.750000  1
  Ir  Ir4  1  0.833820  0.667942  0.250000  1
  Os  Os5  1  0.330438  0.165220  0.250000  1
  W  W6  1  0.662826  0.331413  0.750000  1
  W  W7  1  0.333685  0.666843  0.250000  1
