# generated using pymatgen
data_Hf5ZrPa4(FeSb3)2
_symmetry_space_group_name_H-M   'P 1'
_cell_length_a   8.93660131
_cell_length_b   8.93244712
_cell_length_c   5.90088425
_cell_angle_alpha   89.98828219
_cell_angle_beta   89.97937193
_cell_angle_gamma   121.61793198
_symmetry_Int_Tables_number   1
_chemical_formula_structural   Hf5ZrPa4(FeSb3)2
_chemical_formula_sum   'Hf5 Zr1 Pa4 Fe2 Sb6'
_cell_volume   401.12210041
_cell_formula_units_Z   1
loop_
 _symmetry_equiv_pos_site_id
 _symmetry_equiv_pos_as_xyz
  1  'x, y, z'
loop_
 _atom_site_type_symbol
 _atom_site_label
 _atom_site_symmetry_multiplicity
 _atom_site_fract_x
 _atom_site_fract_y
 _atom_site_fract_z
 _atom_site_occupancy
  Hf  Hf0  1  0.742491  0.009430  0.249672  1
  Hf  Hf1  1  0.010210  0.742701  0.249929  1
  Hf  Hf2  1  0.665200  0.335772  0.999803  1
  Hf  Hf3  1  0.335668  0.665343  0.999745  1
  Hf  Hf4  1  0.335928  0.665114  0.499844  1
  Zr  Zr5  1  0.665748  0.336155  0.500322  1
  Pa  Pa6  1  0.770203  0.770374  0.749691  1
  Pa  Pa7  1  0.246610  0.002148  0.750310  1
  Pa  Pa8  1  0.002080  0.246740  0.749766  1
  Pa  Pa9  1  0.225506  0.225910  0.250003  1
  Fe  Fe10  1  0.994368  0.994205  0.015062  1
  Fe  Fe11  1  0.994304  0.994220  0.484870  1
  Sb  Sb12  1  0.404862  0.405337  0.750415  1
  Sb  Sb13  1  0.600290  0.000883  0.750690  1
  Sb  Sb14  1  0.001851  0.600858  0.750861  1
  Sb  Sb15  1  0.613717  0.614499  0.249628  1
  Sb  Sb16  1  0.396007  0.993805  0.249890  1
  Sb  Sb17  1  0.994956  0.396504  0.249499  1
