# generated using pymatgen
data_Ba3GdScO6
_symmetry_space_group_name_H-M   'P 1'
_cell_length_a   7.29737887
_cell_length_b   7.29737759
_cell_length_c   7.29737903
_cell_angle_alpha   92.86997266
_cell_angle_beta   92.86997408
_cell_angle_gamma   92.86997425
_symmetry_Int_Tables_number   1
_chemical_formula_structural   Ba3GdScO6
_chemical_formula_sum   'Ba6 Gd2 Sc2 O12'
_cell_volume   387.08502786
_cell_formula_units_Z   2
loop_
 _symmetry_equiv_pos_site_id
 _symmetry_equiv_pos_as_xyz
  1  'x, y, z'
loop_
 _atom_site_type_symbol
 _atom_site_label
 _atom_site_symmetry_multiplicity
 _atom_site_fract_x
 _atom_site_fract_y
 _atom_site_fract_z
 _atom_site_occupancy
  Ba  Ba0  1  0.250000  0.888792  0.611208  1
  Ba  Ba1  1  0.888792  0.611208  0.250000  1
  Ba  Ba2  1  0.750000  0.111208  0.388792  1
  Ba  Ba3  1  0.388792  0.750000  0.111208  1
  Ba  Ba4  1  0.111208  0.388792  0.750000  1
  Ba  Ba5  1  0.611208  0.250000  0.888792  1
  Gd  Gd6  1  0.750000  0.750000  0.750000  1
  Gd  Gd7  1  0.250000  0.250000  0.250000  1
  Sc  Sc8  1  0.500000  0.500000  0.500000  1
  Sc  Sc9  1  0.000000  0.000000  0.000000  1
  O  O10  1  0.594388  0.781671  0.465270  1
  O  O11  1  0.465270  0.594388  0.781671  1
  O  O12  1  0.781671  0.465270  0.594388  1
  O  O13  1  0.905612  0.034730  0.718329  1
  O  O14  1  0.718329  0.905612  0.034730  1
  O  O15  1  0.034730  0.718329  0.905612  1
  O  O16  1  0.405612  0.218329  0.534730  1
  O  O17  1  0.534730  0.405612  0.218329  1
  O  O18  1  0.218329  0.534730  0.405612  1
  O  O19  1  0.094388  0.965270  0.281671  1
  O  O20  1  0.965270  0.281671  0.094388  1
  O  O21  1  0.281671  0.094388  0.965270  1
