# generated using pymatgen
data_Tm2Lu8InPb5
_symmetry_space_group_name_H-M   'P 1'
_cell_length_a   6.52457502
_cell_length_b   8.85838146
_cell_length_c   8.89105098
_cell_angle_alpha   120.07100028
_cell_angle_beta   89.98595066
_cell_angle_gamma   89.98969487
_symmetry_Int_Tables_number   1
_chemical_formula_structural   Tm2Lu8InPb5
_chemical_formula_sum   'Tm2 Lu8 In1 Pb5'
_cell_volume   444.71229906
_cell_formula_units_Z   1
loop_
 _symmetry_equiv_pos_site_id
 _symmetry_equiv_pos_as_xyz
  1  'x, y, z'
loop_
 _atom_site_type_symbol
 _atom_site_label
 _atom_site_symmetry_multiplicity
 _atom_site_fract_x
 _atom_site_fract_y
 _atom_site_fract_z
 _atom_site_occupancy
  Tm  Tm0  1  0.249930  0.765676  0.998037  1
  Tm  Tm1  1  0.249823  0.234756  0.233659  1
  Lu  Lu2  1  0.749915  0.235113  0.001516  1
  Lu  Lu3  1  0.749808  0.764644  0.770448  1
  Lu  Lu4  1  0.749903  0.995245  0.232220  1
  Lu  Lu5  1  0.249855  0.999084  0.764763  1
  Lu  Lu6  1  0.502170  0.336833  0.670162  1
  Lu  Lu7  1  0.502267  0.666572  0.329662  1
  Lu  Lu8  1  0.997645  0.666607  0.329116  1
  Lu  Lu9  1  0.997762  0.336678  0.670541  1
  In  In10  1  0.749634  0.600184  0.998667  1
  Pb  Pb11  1  0.750749  0.395275  0.395921  1
  Pb  Pb12  1  0.749727  0.999456  0.606409  1
  Pb  Pb13  1  0.250806  0.396910  0.999078  1
  Pb  Pb14  1  0.249515  0.604006  0.601397  1
  Pb  Pb15  1  0.250489  0.002963  0.398403  1
