# generated using pymatgen
data_LiNd8SmSi6
_symmetry_space_group_name_H-M   'P 1'
_cell_length_a   8.93658466
_cell_length_b   8.93658549
_cell_length_c   8.93658400
_cell_angle_alpha   129.13990427
_cell_angle_beta   129.13990857
_cell_angle_gamma   74.78556300
_symmetry_Int_Tables_number   1
_chemical_formula_structural   LiNd8SmSi6
_chemical_formula_sum   'Li1 Nd8 Sm1 Si6'
_cell_volume   418.22082351
_cell_formula_units_Z   1
loop_
 _symmetry_equiv_pos_site_id
 _symmetry_equiv_pos_as_xyz
  1  'x, y, z'
loop_
 _atom_site_type_symbol
 _atom_site_label
 _atom_site_symmetry_multiplicity
 _atom_site_fract_x
 _atom_site_fract_y
 _atom_site_fract_z
 _atom_site_occupancy
  Li  Li0  1  0.000000  0.000000  0.000000  1
  Nd  Nd1  1  0.684476  0.171473  0.142744  1
  Nd  Nd2  1  0.541732  0.684476  0.513003  1
  Nd  Nd3  1  0.028729  0.541732  0.857256  1
  Nd  Nd4  1  0.828527  0.971271  0.513003  1
  Nd  Nd5  1  0.315524  0.828527  0.857256  1
  Nd  Nd6  1  0.171473  0.028729  0.486997  1
  Nd  Nd7  1  0.458268  0.315524  0.486997  1
  Nd  Nd8  1  0.971271  0.458268  0.142744  1
  Sm  Sm9  1  0.500000  0.500000  0.000000  1
  Si  Si10  1  0.883735  0.611598  0.495334  1
  Si  Si11  1  0.611598  0.116265  0.727862  1
  Si  Si12  1  0.388402  0.883735  0.272138  1
  Si  Si13  1  0.116265  0.388402  0.504666  1
  Si  Si14  1  0.735157  0.735157  0.000000  1
  Si  Si15  1  0.264843  0.264843  0.000000  1
