# generated using pymatgen
data_SrLaIn2Pt3
_symmetry_space_group_name_H-M   'P 1'
_cell_length_a   4.40775000
_cell_length_b   8.30608400
_cell_length_c   9.20267600
_cell_angle_alpha   90.00000000
_cell_angle_beta   90.00000000
_cell_angle_gamma   90.00000000
_symmetry_Int_Tables_number   1
_chemical_formula_structural   SrLaIn2Pt3
_chemical_formula_sum   'Sr2 La2 In4 Pt6'
_cell_volume   336.92047552
_cell_formula_units_Z   2
loop_
 _symmetry_equiv_pos_site_id
 _symmetry_equiv_pos_as_xyz
  1  'x, y, z'
loop_
 _atom_site_type_symbol
 _atom_site_label
 _atom_site_symmetry_multiplicity
 _atom_site_fract_x
 _atom_site_fract_y
 _atom_site_fract_z
 _atom_site_occupancy
  Sr  Sr0  1  0.500000  0.000000  0.725151  1
  Sr  Sr1  1  0.000000  0.500000  0.274849  1
  La  La2  1  0.000000  0.000000  0.351020  1
  La  La3  1  0.500000  0.500000  0.648980  1
  In  In4  1  0.000000  0.303657  0.892706  1
  In  In5  1  0.500000  0.196343  0.107294  1
  In  In6  1  0.000000  0.696343  0.892706  1
  In  In7  1  0.500000  0.803657  0.107294  1
  Pt  Pt8  1  0.000000  0.741652  0.594371  1
  Pt  Pt9  1  0.500000  0.758348  0.405629  1
  Pt  Pt10  1  0.500000  0.500000  0.979987  1
  Pt  Pt11  1  0.000000  0.000000  0.020013  1
  Pt  Pt12  1  0.500000  0.241652  0.405629  1
  Pt  Pt13  1  0.000000  0.258348  0.594371  1
