# generated using pymatgen
data_CaPb23
_symmetry_space_group_name_H-M   'P 1'
_cell_length_a   6.98491700
_cell_length_b   6.98491713
_cell_length_c   18.33131100
_cell_angle_alpha   90.00000000
_cell_angle_beta   90.00000000
_cell_angle_gamma   119.99999467
_symmetry_Int_Tables_number   1
_chemical_formula_structural   CaPb23
_chemical_formula_sum   'Ca1 Pb23'
_cell_volume   774.54505957
_cell_formula_units_Z   1
loop_
 _symmetry_equiv_pos_site_id
 _symmetry_equiv_pos_as_xyz
  1  'x, y, z'
loop_
 _atom_site_type_symbol
 _atom_site_label
 _atom_site_symmetry_multiplicity
 _atom_site_fract_x
 _atom_site_fract_y
 _atom_site_fract_z
 _atom_site_occupancy
  Ca  Ca0  1  0.000000  0.000000  0.413605  1
  Pb  Pb1  1  0.666667  0.333333  0.578966  1
  Pb  Pb2  1  0.666667  0.333333  0.914987  1
  Pb  Pb3  1  0.000000  0.000000  0.082055  1
  Pb  Pb4  1  0.333333  0.666667  0.253088  1
  Pb  Pb5  1  0.333333  0.666667  0.752425  1
  Pb  Pb6  1  0.999656  0.499827  0.418615  1
  Pb  Pb7  1  0.500173  0.499827  0.418615  1
  Pb  Pb8  1  0.500173  0.000344  0.418615  1
  Pb  Pb9  1  0.666813  0.833406  0.582039  1
  Pb  Pb10  1  0.166594  0.833406  0.582039  1
  Pb  Pb11  1  0.166594  0.333187  0.582039  1
  Pb  Pb12  1  0.665972  0.832985  0.919878  1
  Pb  Pb13  1  0.167015  0.832985  0.919878  1
  Pb  Pb14  1  0.167015  0.334028  0.919878  1
  Pb  Pb15  1  0.996862  0.498431  0.083402  1
  Pb  Pb16  1  0.501569  0.498431  0.083402  1
  Pb  Pb17  1  0.501569  0.003138  0.083402  1
  Pb  Pb18  1  0.337315  0.168658  0.249359  1
  Pb  Pb19  1  0.831342  0.168658  0.249359  1
  Pb  Pb20  1  0.831342  0.662685  0.249359  1
  Pb  Pb21  1  0.334118  0.167058  0.748151  1
  Pb  Pb22  1  0.832942  0.167058  0.748151  1
  Pb  Pb23  1  0.832942  0.665882  0.748151  1
