# generated using pymatgen
data_LaNd3AsI5
_symmetry_space_group_name_H-M   'P 1'
_cell_length_a   10.06065696
_cell_length_b   10.06065644
_cell_length_c   9.20099152
_cell_angle_alpha   77.64290567
_cell_angle_beta   77.64290569
_cell_angle_gamma   24.41720255
_symmetry_Int_Tables_number   1
_chemical_formula_structural   LaNd3AsI5
_chemical_formula_sum   'La1 Nd3 As1 I5'
_cell_volume   375.63518612
_cell_formula_units_Z   1
loop_
 _symmetry_equiv_pos_site_id
 _symmetry_equiv_pos_as_xyz
  1  'x, y, z'
loop_
 _atom_site_type_symbol
 _atom_site_label
 _atom_site_symmetry_multiplicity
 _atom_site_fract_x
 _atom_site_fract_y
 _atom_site_fract_z
 _atom_site_occupancy
  La  La0  1  0.498947  0.498947  0.780545  1
  Nd  Nd1  1  0.850992  0.850992  0.076379  1
  Nd  Nd2  1  0.148946  0.148946  0.927014  1
  Nd  Nd3  1  0.500862  0.500862  0.214712  1
  As  As4  1  0.999945  0.999945  0.001498  1
  I  I5  1  0.671109  0.671109  0.176601  1
  I  I6  1  0.327082  0.327082  0.826763  1
  I  I7  1  0.666695  0.666695  0.661548  1
  I  I8  1  0.335267  0.335267  0.339856  1
  I  I9  1  0.000154  0.000154  0.495084  1
