# generated using pymatgen
data_Sc22TcIr6Os
_symmetry_space_group_name_H-M   'P 1'
_cell_length_a   9.47714447
_cell_length_b   9.47714432
_cell_length_c   9.47714500
_cell_angle_alpha   60.00000111
_cell_angle_beta   60.00000163
_cell_angle_gamma   60.00000057
_symmetry_Int_Tables_number   1
_chemical_formula_structural   Sc22TcIr6Os
_chemical_formula_sum   'Sc22 Tc1 Ir6 Os1'
_cell_volume   601.89056227
_cell_formula_units_Z   1
loop_
 _symmetry_equiv_pos_site_id
 _symmetry_equiv_pos_as_xyz
  1  'x, y, z'
loop_
 _atom_site_type_symbol
 _atom_site_label
 _atom_site_symmetry_multiplicity
 _atom_site_fract_x
 _atom_site_fract_y
 _atom_site_fract_z
 _atom_site_occupancy
  Sc  Sc0  1  0.803091  0.803091  0.196909  1
  Sc  Sc1  1  0.196909  0.803091  0.196909  1
  Sc  Sc2  1  0.803091  0.196909  0.196909  1
  Sc  Sc3  1  0.196909  0.196909  0.803091  1
  Sc  Sc4  1  0.803091  0.196909  0.803091  1
  Sc  Sc5  1  0.196909  0.803091  0.803091  1
  Sc  Sc6  1  0.616868  0.616868  0.149395  1
  Sc  Sc7  1  0.616868  0.149395  0.616868  1
  Sc  Sc8  1  0.149395  0.616868  0.616868  1
  Sc  Sc9  1  0.616868  0.616868  0.616868  1
  Sc  Sc10  1  0.383132  0.383132  0.850605  1
  Sc  Sc11  1  0.383132  0.850605  0.383132  1
  Sc  Sc12  1  0.850605  0.383132  0.383132  1
  Sc  Sc13  1  0.383132  0.383132  0.383132  1
  Sc  Sc14  1  0.843346  0.843346  0.469959  1
  Sc  Sc15  1  0.843346  0.469959  0.843346  1
  Sc  Sc16  1  0.469959  0.843346  0.843346  1
  Sc  Sc17  1  0.843346  0.843346  0.843346  1
  Sc  Sc18  1  0.156654  0.156654  0.530041  1
  Sc  Sc19  1  0.156654  0.530041  0.156654  1
  Sc  Sc20  1  0.530041  0.156654  0.156654  1
  Sc  Sc21  1  0.156654  0.156654  0.156654  1
  Tc  Tc22  1  0.500000  0.500000  0.500000  1
  Ir  Ir23  1  0.000000  0.000000  0.500000  1
  Ir  Ir24  1  0.500000  0.000000  0.500000  1
  Ir  Ir25  1  0.000000  0.500000  0.500000  1
  Ir  Ir26  1  0.500000  0.500000  0.000000  1
  Ir  Ir27  1  0.000000  0.500000  0.000000  1
  Ir  Ir28  1  0.500000  0.000000  0.000000  1
  Os  Os29  1  0.000000  0.000000  0.000000  1
