# generated using pymatgen
data_Pr7Nd2(BiO)5
_symmetry_space_group_name_H-M   'P 1'
_cell_length_a   10.42937500
_cell_length_b   10.42937500
_cell_length_c   9.39978200
_cell_angle_alpha   90.00000000
_cell_angle_beta   90.00000000
_cell_angle_gamma   90.00000000
_symmetry_Int_Tables_number   1
_chemical_formula_structural   Pr7Nd2(BiO)5
_chemical_formula_sum   'Pr14 Nd4 Bi10 O10'
_cell_volume   1022.43179891
_cell_formula_units_Z   2
loop_
 _symmetry_equiv_pos_site_id
 _symmetry_equiv_pos_as_xyz
  1  'x, y, z'
loop_
 _atom_site_type_symbol
 _atom_site_label
 _atom_site_symmetry_multiplicity
 _atom_site_fract_x
 _atom_site_fract_y
 _atom_site_fract_z
 _atom_site_occupancy
  Pr  Pr0  1  0.500000  0.000000  0.671683  1
  Pr  Pr1  1  0.000000  0.500000  0.327648  1
  Pr  Pr2  1  0.103957  0.205413  0.659557  1
  Pr  Pr3  1  0.896043  0.794587  0.659557  1
  Pr  Pr4  1  0.294587  0.603957  0.659557  1
  Pr  Pr5  1  0.705413  0.396043  0.659557  1
  Pr  Pr6  1  0.395595  0.295137  0.340535  1
  Pr  Pr7  1  0.604405  0.704863  0.340535  1
  Pr  Pr8  1  0.204863  0.895595  0.340535  1
  Pr  Pr9  1  0.795137  0.104405  0.340535  1
  Pr  Pr10  1  0.726693  0.917628  0.001321  1
  Pr  Pr11  1  0.273307  0.082372  0.001321  1
  Pr  Pr12  1  0.582372  0.226693  0.001321  1
  Pr  Pr13  1  0.417628  0.773307  0.001321  1
  Nd  Nd14  1  0.774824  0.582399  0.998508  1
  Nd  Nd15  1  0.225176  0.417601  0.998508  1
  Nd  Nd16  1  0.917601  0.274824  0.998508  1
  Nd  Nd17  1  0.082399  0.725176  0.998508  1
  Bi  Bi18  1  0.500000  0.000000  0.312264  1
  Bi  Bi19  1  0.000000  0.500000  0.687705  1
  Bi  Bi20  1  0.403364  0.304405  0.699820  1
  Bi  Bi21  1  0.596636  0.695595  0.699820  1
  Bi  Bi22  1  0.195595  0.903364  0.699820  1
  Bi  Bi23  1  0.804405  0.096636  0.699820  1
  Bi  Bi24  1  0.096227  0.195880  0.300130  1
  Bi  Bi25  1  0.903773  0.804120  0.300130  1
  Bi  Bi26  1  0.304120  0.596227  0.300130  1
  Bi  Bi27  1  0.695880  0.403773  0.300130  1
  O  O28  1  0.500000  0.000000  0.932913  1
  O  O29  1  0.000000  0.500000  0.065385  1
  O  O30  1  0.776384  0.122240  0.086627  1
  O  O31  1  0.223616  0.877760  0.086627  1
  O  O32  1  0.377760  0.276384  0.086627  1
  O  O33  1  0.622240  0.723616  0.086627  1
  O  O34  1  0.727112  0.380313  0.914102  1
  O  O35  1  0.272888  0.619687  0.914102  1
  O  O36  1  0.119687  0.227112  0.914102  1
  O  O37  1  0.880313  0.772888  0.914102  1
