# generated using pymatgen
data_YbBRu2C
_symmetry_space_group_name_H-M   'P 1'
_cell_length_a   6.66232958
_cell_length_b   5.86243459
_cell_length_c   5.46868555
_cell_angle_alpha   71.93048657
_cell_angle_beta   56.77653487
_cell_angle_gamma   51.29298079
_symmetry_Int_Tables_number   1
_chemical_formula_structural   YbBRu2C
_chemical_formula_sum   'Yb2 B2 Ru4 C2'
_cell_volume   139.26048567
_cell_formula_units_Z   2
loop_
 _symmetry_equiv_pos_site_id
 _symmetry_equiv_pos_as_xyz
  1  'x, y, z'
loop_
 _atom_site_type_symbol
 _atom_site_label
 _atom_site_symmetry_multiplicity
 _atom_site_fract_x
 _atom_site_fract_y
 _atom_site_fract_z
 _atom_site_occupancy
  Yb  Yb0  1  0.000000  0.000000  0.000000  1
  Yb  Yb1  1  0.250000  0.250000  0.250000  1
  B  B2  1  0.566464  0.933536  0.566464  1
  B  B3  1  0.933536  0.566464  0.933536  1
  Ru  Ru4  1  0.631575  0.631575  0.368425  1
  Ru  Ru5  1  0.368425  0.368425  0.631575  1
  Ru  Ru6  1  0.609170  0.609170  0.890830  1
  Ru  Ru7  1  0.890830  0.890830  0.609170  1
  C  C8  1  0.317087  0.682913  0.317087  1
  C  C9  1  0.682913  0.317087  0.682913  1
