# generated using pymatgen
data_LaTb3Sm2OsI10
_symmetry_space_group_name_H-M   'P 1'
_cell_length_a   7.88192389
_cell_length_b   9.91463677
_cell_length_c   9.82538464
_cell_angle_alpha   106.91348285
_cell_angle_beta   96.21315419
_cell_angle_gamma   105.53569243
_symmetry_Int_Tables_number   1
_chemical_formula_structural   LaTb3Sm2OsI10
_chemical_formula_sum   'La1 Tb3 Sm2 Os1 I10'
_cell_volume   693.18496903
_cell_formula_units_Z   1
loop_
 _symmetry_equiv_pos_site_id
 _symmetry_equiv_pos_as_xyz
  1  'x, y, z'
loop_
 _atom_site_type_symbol
 _atom_site_label
 _atom_site_symmetry_multiplicity
 _atom_site_fract_x
 _atom_site_fract_y
 _atom_site_fract_z
 _atom_site_occupancy
  La  La0  1  0.615504  0.043343  0.269677  1
  Tb  Tb1  1  0.472276  0.291202  0.589949  1
  Tb  Tb2  1  0.530003  0.710463  0.414322  1
  Tb  Tb3  1  0.853057  0.129338  0.669924  1
  Sm  Sm4  1  0.141371  0.866907  0.326274  1
  Sm  Sm5  1  0.387593  0.958348  0.728840  1
  Os  Os6  1  0.503594  0.002067  0.493984  1
  I  I7  1  0.415644  0.630415  0.679548  1
  I  I8  1  0.583559  0.379711  0.327657  1
  I  I9  1  0.284680  0.257926  0.845143  1
  I  I10  1  0.708535  0.729584  0.151589  1
  I  I11  1  0.853747  0.452210  0.771923  1
  I  I12  1  0.150553  0.543134  0.229798  1
  I  I13  1  0.053099  0.185526  0.416270  1
  I  I14  1  0.232422  0.911472  0.037752  1
  I  I15  1  0.758895  0.086662  0.953849  1
  I  I16  1  0.955470  0.821693  0.593503  1
