# generated using pymatgen
data_Nd3Sb2Se
_symmetry_space_group_name_H-M   'P 1'
_cell_length_a   7.67489228
_cell_length_b   7.67489244
_cell_length_c   7.67489313
_cell_angle_alpha   146.37322131
_cell_angle_beta   131.67938361
_cell_angle_gamma   60.15705948
_symmetry_Int_Tables_number   1
_chemical_formula_structural   Nd3Sb2Se
_chemical_formula_sum   'Nd3 Sb2 Se1'
_cell_volume   185.25810980
_cell_formula_units_Z   1
loop_
 _symmetry_equiv_pos_site_id
 _symmetry_equiv_pos_as_xyz
  1  'x, y, z'
loop_
 _atom_site_type_symbol
 _atom_site_label
 _atom_site_symmetry_multiplicity
 _atom_site_fract_x
 _atom_site_fract_y
 _atom_site_fract_z
 _atom_site_occupancy
  Nd  Nd0  1  0.000000  0.000000  0.000000  1
  Nd  Nd1  1  0.661719  0.661719  0.000000  1
  Nd  Nd2  1  0.338281  0.338281  0.000000  1
  Sb  Sb3  1  0.168762  0.668762  0.500000  1
  Sb  Sb4  1  0.831238  0.331238  0.500000  1
  Se  Se5  1  0.500000  0.000000  0.500000  1
