# generated using pymatgen
data_YTm2Si2GeRh6
_symmetry_space_group_name_H-M   'P 1'
_cell_length_a   5.57114900
_cell_length_b   5.57114826
_cell_length_c   15.10432700
_cell_angle_alpha   90.00000000
_cell_angle_beta   90.00000000
_cell_angle_gamma   119.99999844
_symmetry_Int_Tables_number   1
_chemical_formula_structural   YTm2Si2GeRh6
_chemical_formula_sum   'Y2 Tm4 Si4 Ge2 Rh12'
_cell_volume   405.99576924
_cell_formula_units_Z   2
loop_
 _symmetry_equiv_pos_site_id
 _symmetry_equiv_pos_as_xyz
  1  'x, y, z'
loop_
 _atom_site_type_symbol
 _atom_site_label
 _atom_site_symmetry_multiplicity
 _atom_site_fract_x
 _atom_site_fract_y
 _atom_site_fract_z
 _atom_site_occupancy
  Y  Y0  1  0.666667  0.333333  0.750000  1
  Y  Y1  1  0.333333  0.666667  0.250000  1
  Tm  Tm2  1  0.666667  0.333333  0.963080  1
  Tm  Tm3  1  0.666667  0.333333  0.536920  1
  Tm  Tm4  1  0.333333  0.666667  0.036920  1
  Tm  Tm5  1  0.333333  0.666667  0.463080  1
  Si  Si6  1  0.666667  0.333333  0.250000  1
  Si  Si7  1  0.000000  0.000000  0.250000  1
  Si  Si8  1  0.000000  0.000000  0.750000  1
  Si  Si9  1  0.333333  0.666667  0.750000  1
  Ge  Ge10  1  0.000000  0.000000  0.500000  1
  Ge  Ge11  1  0.000000  0.000000  0.000000  1
  Rh  Rh12  1  0.168012  0.336025  0.868209  1
  Rh  Rh13  1  0.168012  0.336025  0.631791  1
  Rh  Rh14  1  0.663975  0.831988  0.868209  1
  Rh  Rh15  1  0.336025  0.168012  0.368209  1
  Rh  Rh16  1  0.831988  0.663975  0.368209  1
  Rh  Rh17  1  0.831988  0.168012  0.368209  1
  Rh  Rh18  1  0.831988  0.168012  0.131791  1
  Rh  Rh19  1  0.336025  0.168012  0.131791  1
  Rh  Rh20  1  0.663975  0.831988  0.631791  1
  Rh  Rh21  1  0.168012  0.831988  0.631791  1
  Rh  Rh22  1  0.831988  0.663975  0.131791  1
  Rh  Rh23  1  0.168012  0.831988  0.868209  1
