# generated using pymatgen
data_Tm5Lu3(BBr6)2
_symmetry_space_group_name_H-M   'P 1'
_cell_length_a   3.88968600
_cell_length_b   12.97699962
_cell_length_c   13.44101965
_cell_angle_alpha   89.96449219
_cell_angle_beta   90.00000000
_cell_angle_gamma   90.00000000
_symmetry_Int_Tables_number   1
_chemical_formula_structural   Tm5Lu3(BBr6)2
_chemical_formula_sum   'Tm5 Lu3 B2 Br12'
_cell_volume   678.45487627
_cell_formula_units_Z   1
loop_
 _symmetry_equiv_pos_site_id
 _symmetry_equiv_pos_as_xyz
  1  'x, y, z'
loop_
 _atom_site_type_symbol
 _atom_site_label
 _atom_site_symmetry_multiplicity
 _atom_site_fract_x
 _atom_site_fract_y
 _atom_site_fract_z
 _atom_site_occupancy
  Tm  Tm0  1  0.000000  0.100235  0.079604  1
  Tm  Tm1  1  0.500000  0.121618  0.856786  1
  Tm  Tm2  1  0.500000  0.878105  0.142988  1
  Tm  Tm3  1  0.500000  0.621677  0.643003  1
  Tm  Tm4  1  0.500000  0.378294  0.356961  1
  Lu  Lu5  1  0.000000  0.900142  0.920678  1
  Lu  Lu6  1  0.000000  0.599540  0.420919  1
  Lu  Lu7  1  0.000000  0.400450  0.579076  1
  B  B8  1  0.500000  0.999439  0.999553  1
  B  B9  1  0.500000  0.500014  0.500019  1
  Br  Br10  1  0.500000  0.268834  0.681468  1
  Br  Br11  1  0.500000  0.731154  0.318530  1
  Br  Br12  1  0.500000  0.768752  0.818448  1
  Br  Br13  1  0.500000  0.232012  0.182158  1
  Br  Br14  1  0.000000  0.260943  0.930827  1
  Br  Br15  1  0.000000  0.739233  0.068700  1
  Br  Br16  1  0.000000  0.480710  0.239647  1
  Br  Br17  1  0.000000  0.519335  0.760367  1
  Br  Br18  1  0.000000  0.980195  0.260702  1
  Br  Br19  1  0.000000  0.019313  0.739542  1
  Br  Br20  1  0.000000  0.239309  0.431330  1
  Br  Br21  1  0.000000  0.760695  0.568695  1
