# generated using pymatgen
data_Ca10Cu3Hg2Pd
_symmetry_space_group_name_H-M   'P 1'
_cell_length_a   9.21019802
_cell_length_b   9.21019858
_cell_length_c   9.19804769
_cell_angle_alpha   129.47472054
_cell_angle_beta   129.47471116
_cell_angle_gamma   74.34775829
_symmetry_Int_Tables_number   1
_chemical_formula_structural   Ca10Cu3Hg2Pd
_chemical_formula_sum   'Ca10 Cu3 Hg2 Pd1'
_cell_volume   452.92719368
_cell_formula_units_Z   1
loop_
 _symmetry_equiv_pos_site_id
 _symmetry_equiv_pos_as_xyz
  1  'x, y, z'
loop_
 _atom_site_type_symbol
 _atom_site_label
 _atom_site_symmetry_multiplicity
 _atom_site_fract_x
 _atom_site_fract_y
 _atom_site_fract_z
 _atom_site_occupancy
  Ca  Ca0  1  0.529827  0.027479  0.835675  1
  Ca  Ca1  1  0.194152  0.691804  0.164325  1
  Ca  Ca2  1  0.029115  0.191232  0.500000  1
  Ca  Ca3  1  0.689623  0.531980  0.500000  1
  Ca  Ca4  1  0.472521  0.970173  0.164325  1
  Ca  Ca5  1  0.808196  0.305848  0.835675  1
  Ca  Ca6  1  0.968020  0.810377  0.500000  1
  Ca  Ca7  1  0.308768  0.470885  0.500000  1
  Ca  Ca8  1  0.500493  0.502184  0.002677  1
  Ca  Ca9  1  0.997816  0.999507  0.997323  1
  Cu  Cu10  1  0.380614  0.119386  0.500000  1
  Cu  Cu11  1  0.113706  0.613635  0.727341  1
  Cu  Cu12  1  0.886365  0.386294  0.272659  1
  Hg  Hg13  1  0.250882  0.249118  0.000000  1
  Hg  Hg14  1  0.750882  0.749118  0.000000  1
  Pd  Pd15  1  0.619020  0.880980  0.500000  1
