# generated using pymatgen
data_Sm4(Pd3Au)3
_symmetry_space_group_name_H-M   'P 1'
_cell_length_a   7.30430146
_cell_length_b   7.30430214
_cell_length_c   7.30430204
_cell_angle_alpha   108.37504600
_cell_angle_beta   108.37504790
_cell_angle_gamma   111.68654525
_symmetry_Int_Tables_number   1
_chemical_formula_structural   Sm4(Pd3Au)3
_chemical_formula_sum   'Sm4 Pd9 Au3'
_cell_volume   299.65734104
_cell_formula_units_Z   1
loop_
 _symmetry_equiv_pos_site_id
 _symmetry_equiv_pos_as_xyz
  1  'x, y, z'
loop_
 _atom_site_type_symbol
 _atom_site_label
 _atom_site_symmetry_multiplicity
 _atom_site_fract_x
 _atom_site_fract_y
 _atom_site_fract_z
 _atom_site_occupancy
  Sm  Sm0  1  0.245681  0.245681  0.491362  1
  Sm  Sm1  1  0.754319  0.754319  0.508638  1
  Sm  Sm2  1  0.245681  0.754319  0.000000  1
  Sm  Sm3  1  0.754319  0.245681  0.000000  1
  Pd  Pd4  1  0.500725  0.251862  0.248862  1
  Pd  Pd5  1  0.499275  0.748138  0.751138  1
  Pd  Pd6  1  0.003000  0.251862  0.751138  1
  Pd  Pd7  1  0.251862  0.003000  0.751138  1
  Pd  Pd8  1  0.997000  0.748138  0.248862  1
  Pd  Pd9  1  0.748138  0.997000  0.248862  1
  Pd  Pd10  1  0.251862  0.500725  0.248862  1
  Pd  Pd11  1  0.748138  0.499275  0.751138  1
  Pd  Pd12  1  0.000000  0.000000  0.000000  1
  Au  Au13  1  0.500000  0.000000  0.500000  1
  Au  Au14  1  0.000000  0.500000  0.500000  1
  Au  Au15  1  0.500000  0.500000  0.000000  1
