# generated using pymatgen
data_Sr2ThAs2Se
_symmetry_space_group_name_H-M   'P 1'
_cell_length_a   4.39413500
_cell_length_b   4.39413428
_cell_length_c   10.85886700
_cell_angle_alpha   90.00000000
_cell_angle_beta   90.00000000
_cell_angle_gamma   119.99999786
_symmetry_Int_Tables_number   1
_chemical_formula_structural   Sr2ThAs2Se
_chemical_formula_sum   'Sr2 Th1 As2 Se1'
_cell_volume   181.57743433
_cell_formula_units_Z   1
loop_
 _symmetry_equiv_pos_site_id
 _symmetry_equiv_pos_as_xyz
  1  'x, y, z'
loop_
 _atom_site_type_symbol
 _atom_site_label
 _atom_site_symmetry_multiplicity
 _atom_site_fract_x
 _atom_site_fract_y
 _atom_site_fract_z
 _atom_site_occupancy
  Sr  Sr0  1  0.666667  0.333333  0.831567  1
  Sr  Sr1  1  0.333333  0.666667  0.168433  1
  Th  Th2  1  0.000000  0.000000  0.500000  1
  As  As3  1  0.666667  0.333333  0.351278  1
  As  As4  1  0.333333  0.666667  0.648722  1
  Se  Se5  1  0.000000  0.000000  0.000000  1
