# generated using pymatgen
data_Nd16Cd3AgIrPt3
_symmetry_space_group_name_H-M   'P 1'
_cell_length_a   10.01267512
_cell_length_b   9.97849269
_cell_length_c   9.97849300
_cell_angle_alpha   60.02087850
_cell_angle_beta   60.10231299
_cell_angle_gamma   60.10231870
_symmetry_Int_Tables_number   1
_chemical_formula_structural   Nd16Cd3AgIrPt3
_chemical_formula_sum   'Nd16 Cd3 Ag1 Ir1 Pt3'
_cell_volume   706.16083736
_cell_formula_units_Z   1
loop_
 _symmetry_equiv_pos_site_id
 _symmetry_equiv_pos_as_xyz
  1  'x, y, z'
loop_
 _atom_site_type_symbol
 _atom_site_label
 _atom_site_symmetry_multiplicity
 _atom_site_fract_x
 _atom_site_fract_y
 _atom_site_fract_z
 _atom_site_occupancy
  Nd  Nd0  1  0.351728  0.347733  0.347733  1
  Nd  Nd1  1  0.354483  0.349849  0.947227  1
  Nd  Nd2  1  0.354483  0.947227  0.349849  1
  Nd  Nd3  1  0.942255  0.353482  0.353482  1
  Nd  Nd4  1  0.807617  0.190094  0.190094  1
  Nd  Nd5  1  0.189929  0.808383  0.808383  1
  Nd  Nd6  1  0.191137  0.810303  0.190899  1
  Nd  Nd7  1  0.806454  0.188191  0.813002  1
  Nd  Nd8  1  0.191137  0.190899  0.810303  1
  Nd  Nd9  1  0.806454  0.813002  0.188191  1
  Nd  Nd10  1  0.936659  0.562973  0.562973  1
  Nd  Nd11  1  0.562373  0.936686  0.936686  1
  Nd  Nd12  1  0.564755  0.935944  0.561708  1
  Nd  Nd13  1  0.937457  0.560548  0.936658  1
  Nd  Nd14  1  0.564755  0.561708  0.935944  1
  Nd  Nd15  1  0.937457  0.936658  0.560548  1
  Cd  Cd16  1  0.580845  0.581513  0.258843  1
  Cd  Cd17  1  0.580845  0.258843  0.581513  1
  Cd  Cd18  1  0.259255  0.581024  0.581024  1
  Ag  Ag19  1  0.583252  0.582625  0.582625  1
  Ir  Ir20  1  0.572140  0.142848  0.142848  1
  Pt  Pt21  1  0.142041  0.144797  0.144797  1
  Pt  Pt22  1  0.141244  0.143577  0.571092  1
  Pt  Pt23  1  0.141244  0.571092  0.143577  1
