# generated using pymatgen
data_NdEr(Sc4Bi3)2
_symmetry_space_group_name_H-M   'P 1'
_cell_length_a   7.93172200
_cell_length_b   9.08561100
_cell_length_c   11.61780500
_cell_angle_alpha   90.00000000
_cell_angle_beta   90.00000000
_cell_angle_gamma   90.00000000
_symmetry_Int_Tables_number   1
_chemical_formula_structural   NdEr(Sc4Bi3)2
_chemical_formula_sum   'Nd2 Er2 Sc16 Bi12'
_cell_volume   837.23178071
_cell_formula_units_Z   2
loop_
 _symmetry_equiv_pos_site_id
 _symmetry_equiv_pos_as_xyz
  1  'x, y, z'
loop_
 _atom_site_type_symbol
 _atom_site_label
 _atom_site_symmetry_multiplicity
 _atom_site_fract_x
 _atom_site_fract_y
 _atom_site_fract_z
 _atom_site_occupancy
  Nd  Nd0  1  0.317402  0.250000  0.219181  1
  Nd  Nd1  1  0.817402  0.250000  0.280819  1
  Er  Er2  1  0.684291  0.750000  0.782220  1
  Er  Er3  1  0.184291  0.750000  0.717780  1
  Sc  Sc4  1  0.347712  0.750000  0.219893  1
  Sc  Sc5  1  0.847712  0.750000  0.280107  1
  Sc  Sc6  1  0.651602  0.250000  0.778128  1
  Sc  Sc7  1  0.151602  0.250000  0.721872  1
  Sc  Sc8  1  0.691708  0.567917  0.061977  1
  Sc  Sc9  1  0.191708  0.932083  0.438023  1
  Sc  Sc10  1  0.307583  0.067552  0.936801  1
  Sc  Sc11  1  0.807583  0.432448  0.563199  1
  Sc  Sc12  1  0.307583  0.432448  0.936801  1
  Sc  Sc13  1  0.807583  0.067552  0.563199  1
  Sc  Sc14  1  0.691708  0.932083  0.061977  1
  Sc  Sc15  1  0.191708  0.567917  0.438023  1
  Sc  Sc16  1  0.482379  0.250000  0.490403  1
  Sc  Sc17  1  0.982379  0.250000  0.009597  1
  Sc  Sc18  1  0.517590  0.750000  0.512275  1
  Sc  Sc19  1  0.017590  0.750000  0.987725  1
  Bi  Bi20  1  0.401563  0.750000  0.965690  1
  Bi  Bi21  1  0.901563  0.750000  0.534310  1
  Bi  Bi22  1  0.600279  0.250000  0.028944  1
  Bi  Bi23  1  0.100279  0.250000  0.471056  1
  Bi  Bi24  1  0.562833  0.985495  0.330224  1
  Bi  Bi25  1  0.062833  0.514505  0.169776  1
  Bi  Bi26  1  0.436467  0.491258  0.672281  1
  Bi  Bi27  1  0.936467  0.008742  0.827719  1
  Bi  Bi28  1  0.436467  0.008742  0.672281  1
  Bi  Bi29  1  0.936467  0.491258  0.827719  1
  Bi  Bi30  1  0.562833  0.514505  0.330224  1
  Bi  Bi31  1  0.062833  0.985495  0.169776  1
