# generated using pymatgen
data_ErU3In2CoIr3
_symmetry_space_group_name_H-M   'P 1'
_cell_length_a   7.61226653
_cell_length_b   7.61226626
_cell_length_c   3.52030100
_cell_angle_alpha   90.00000000
_cell_angle_beta   90.00000000
_cell_angle_gamma   89.55790285
_symmetry_Int_Tables_number   1
_chemical_formula_structural   ErU3In2CoIr3
_chemical_formula_sum   'Er1 U3 In2 Co1 Ir3'
_cell_volume   203.98340015
_cell_formula_units_Z   1
loop_
 _symmetry_equiv_pos_site_id
 _symmetry_equiv_pos_as_xyz
  1  'x, y, z'
loop_
 _atom_site_type_symbol
 _atom_site_label
 _atom_site_symmetry_multiplicity
 _atom_site_fract_x
 _atom_site_fract_y
 _atom_site_fract_z
 _atom_site_occupancy
  Er  Er0  1  0.669332  0.169332  0.500000  1
  U  U1  1  0.320181  0.820181  0.500000  1
  U  U2  1  0.169869  0.328817  0.500000  1
  U  U3  1  0.828817  0.669869  0.500000  1
  In  In4  1  0.497936  0.490337  0.000000  1
  In  In5  1  0.990337  0.997936  0.000000  1
  Co  Co6  1  0.151192  0.651192  0.000000  1
  Ir  Ir7  1  0.899068  0.399068  0.000000  1
  Ir  Ir8  1  0.624603  0.848665  0.000000  1
  Ir  Ir9  1  0.348665  0.124603  0.000000  1
