# generated using pymatgen
data_Tb10Sn6GeAu
_symmetry_space_group_name_H-M   'P 1'
_cell_length_a   9.19068400
_cell_length_b   9.19068329
_cell_length_c   6.79781800
_cell_angle_alpha   90.00000000
_cell_angle_beta   90.00000000
_cell_angle_gamma   120.00000256
_symmetry_Int_Tables_number   1
_chemical_formula_structural   Tb10Sn6GeAu
_chemical_formula_sum   'Tb10 Sn6 Ge1 Au1'
_cell_volume   497.27404050
_cell_formula_units_Z   1
loop_
 _symmetry_equiv_pos_site_id
 _symmetry_equiv_pos_as_xyz
  1  'x, y, z'
loop_
 _atom_site_type_symbol
 _atom_site_label
 _atom_site_symmetry_multiplicity
 _atom_site_fract_x
 _atom_site_fract_y
 _atom_site_fract_z
 _atom_site_occupancy
  Tb  Tb0  1  0.255467  0.000000  0.734841  1
  Tb  Tb1  1  0.744533  0.000000  0.265159  1
  Tb  Tb2  1  0.000000  0.255467  0.734841  1
  Tb  Tb3  1  0.000000  0.744533  0.265159  1
  Tb  Tb4  1  0.744533  0.744533  0.734841  1
  Tb  Tb5  1  0.255467  0.255467  0.265159  1
  Tb  Tb6  1  0.333333  0.666667  0.500000  1
  Tb  Tb7  1  0.666667  0.333333  0.500000  1
  Tb  Tb8  1  0.666667  0.333333  0.000000  1
  Tb  Tb9  1  0.333333  0.666667  0.000000  1
  Sn  Sn10  1  0.606000  0.000000  0.749666  1
  Sn  Sn11  1  0.394000  0.000000  0.250334  1
  Sn  Sn12  1  0.000000  0.606000  0.749666  1
  Sn  Sn13  1  0.000000  0.394000  0.250334  1
  Sn  Sn14  1  0.394000  0.394000  0.749666  1
  Sn  Sn15  1  0.606000  0.606000  0.250334  1
  Ge  Ge16  1  0.000000  0.000000  0.500000  1
  Au  Au17  1  0.000000  0.000000  0.000000  1
