# generated using pymatgen
data_Tb10Pt17Au
_symmetry_space_group_name_H-M   'P 1'
_cell_length_a   9.83935461
_cell_length_b   9.83935461
_cell_length_c   5.80400000
_cell_angle_alpha   90.00000000
_cell_angle_beta   90.00000000
_cell_angle_gamma   90.12234385
_symmetry_Int_Tables_number   1
_chemical_formula_structural   Tb10Pt17Au
_chemical_formula_sum   'Tb10 Pt17 Au1'
_cell_volume   561.90078537
_cell_formula_units_Z   1
loop_
 _symmetry_equiv_pos_site_id
 _symmetry_equiv_pos_as_xyz
  1  'x, y, z'
loop_
 _atom_site_type_symbol
 _atom_site_label
 _atom_site_symmetry_multiplicity
 _atom_site_fract_x
 _atom_site_fract_y
 _atom_site_fract_z
 _atom_site_occupancy
  Tb  Tb0  1  0.453476  0.808015  0.000000  1
  Tb  Tb1  1  0.546524  0.191985  0.000000  1
  Tb  Tb2  1  0.191985  0.546524  0.000000  1
  Tb  Tb3  1  0.808015  0.453476  0.000000  1
  Tb  Tb4  1  0.500000  0.500000  0.500000  1
  Tb  Tb5  1  0.314200  0.047122  0.500000  1
  Tb  Tb6  1  0.685800  0.952878  0.500000  1
  Tb  Tb7  1  0.952878  0.685800  0.500000  1
  Tb  Tb8  1  0.047122  0.314200  0.500000  1
  Tb  Tb9  1  0.000000  0.000000  0.000000  1
  Pt  Pt10  1  0.192916  0.807084  0.250204  1
  Pt  Pt11  1  0.807084  0.192916  0.749796  1
  Pt  Pt12  1  0.807084  0.192916  0.250204  1
  Pt  Pt13  1  0.192916  0.807084  0.749796  1
  Pt  Pt14  1  0.440820  0.781087  0.500000  1
  Pt  Pt15  1  0.559180  0.218913  0.500000  1
  Pt  Pt16  1  0.218913  0.559180  0.500000  1
  Pt  Pt17  1  0.781087  0.440820  0.500000  1
  Pt  Pt18  1  0.307145  0.307145  0.249834  1
  Pt  Pt19  1  0.692855  0.692855  0.750166  1
  Pt  Pt20  1  0.692855  0.692855  0.249834  1
  Pt  Pt21  1  0.307145  0.307145  0.750166  1
  Pt  Pt22  1  0.280635  0.059235  0.000000  1
  Pt  Pt23  1  0.719365  0.940765  0.000000  1
  Pt  Pt24  1  0.940765  0.719365  0.000000  1
  Pt  Pt25  1  0.059235  0.280635  0.000000  1
  Pt  Pt26  1  0.500000  0.500000  0.000000  1
  Au  Au27  1  0.000000  0.000000  0.500000  1
