# generated using pymatgen
data_LiMgV3SnO8
_symmetry_space_group_name_H-M   'P 1'
_cell_length_a   6.04233500
_cell_length_b   6.04233386
_cell_length_c   9.88110900
_cell_angle_alpha   90.00000000
_cell_angle_beta   90.00000000
_cell_angle_gamma   120.00001173
_symmetry_Int_Tables_number   1
_chemical_formula_structural   LiMgV3SnO8
_chemical_formula_sum   'Li2 Mg2 V6 Sn2 O16'
_cell_volume   312.42500681
_cell_formula_units_Z   2
loop_
 _symmetry_equiv_pos_site_id
 _symmetry_equiv_pos_as_xyz
  1  'x, y, z'
loop_
 _atom_site_type_symbol
 _atom_site_label
 _atom_site_symmetry_multiplicity
 _atom_site_fract_x
 _atom_site_fract_y
 _atom_site_fract_z
 _atom_site_occupancy
  Li  Li0  1  0.000000  0.000000  0.820530  1
  Li  Li1  1  0.000000  0.000000  0.320530  1
  Mg  Mg2  1  0.666667  0.333333  0.913315  1
  Mg  Mg3  1  0.333333  0.666667  0.413315  1
  V  V4  1  0.832373  0.664745  0.601137  1
  V  V5  1  0.832373  0.167627  0.601137  1
  V  V6  1  0.167627  0.335255  0.101137  1
  V  V7  1  0.335255  0.167627  0.601137  1
  V  V8  1  0.167627  0.832373  0.101137  1
  V  V9  1  0.664745  0.832373  0.101137  1
  Sn  Sn10  1  0.666667  0.333333  0.323166  1
  Sn  Sn11  1  0.333333  0.666667  0.823166  1
  O  O12  1  0.484571  0.969143  0.973315  1
  O  O13  1  0.484571  0.515429  0.973315  1
  O  O14  1  0.515429  0.030857  0.473315  1
  O  O15  1  0.030857  0.515429  0.973315  1
  O  O16  1  0.515429  0.484571  0.473315  1
  O  O17  1  0.969143  0.484571  0.473315  1
  O  O18  1  0.666667  0.333333  0.708461  1
  O  O19  1  0.333333  0.666667  0.208461  1
  O  O20  1  0.160994  0.321988  0.719157  1
  O  O21  1  0.160994  0.839006  0.719157  1
  O  O22  1  0.839006  0.678012  0.219157  1
  O  O23  1  0.678012  0.839006  0.719157  1
  O  O24  1  0.839006  0.160994  0.219157  1
  O  O25  1  0.321988  0.160994  0.219157  1
  O  O26  1  0.000000  0.000000  0.003702  1
  O  O27  1  0.000000  0.000000  0.503702  1
