# generated using pymatgen
data_KBa2RuO6
_symmetry_space_group_name_H-M   'P 1'
_cell_length_a   6.11886689
_cell_length_b   6.33901756
_cell_length_c   8.72582218
_cell_angle_alpha   90.01267472
_cell_angle_beta   90.71101997
_cell_angle_gamma   90.04666590
_symmetry_Int_Tables_number   1
_chemical_formula_structural   KBa2RuO6
_chemical_formula_sum   'K2 Ba4 Ru2 O12'
_cell_volume   338.42755963
_cell_formula_units_Z   2
loop_
 _symmetry_equiv_pos_site_id
 _symmetry_equiv_pos_as_xyz
  1  'x, y, z'
loop_
 _atom_site_type_symbol
 _atom_site_label
 _atom_site_symmetry_multiplicity
 _atom_site_fract_x
 _atom_site_fract_y
 _atom_site_fract_z
 _atom_site_occupancy
  K  K0  1  0.500000  0.499999  0.999999  1
  K  K1  1  0.000000  0.000000  0.500000  1
  Ba  Ba2  1  0.014343  0.556731  0.249776  1
  Ba  Ba3  1  0.485455  0.056846  0.249963  1
  Ba  Ba4  1  0.514546  0.943154  0.750037  1
  Ba  Ba5  1  0.985657  0.443270  0.750225  1
  Ru  Ru6  1  0.000000  0.000000  0.000000  1
  Ru  Ru7  1  0.500000  0.499999  0.500000  1
  O  O8  1  0.253634  0.831426  0.044505  1
  O  O9  1  0.159792  0.251875  0.054815  1
  O  O10  1  0.908952  0.967589  0.207560  1
  O  O11  1  0.591191  0.467563  0.292015  1
  O  O12  1  0.340181  0.752019  0.445209  1
  O  O13  1  0.246168  0.331406  0.455407  1
  O  O14  1  0.753833  0.668594  0.544592  1
  O  O15  1  0.659819  0.247981  0.554791  1
  O  O16  1  0.408809  0.532436  0.707985  1
  O  O17  1  0.091048  0.032411  0.792440  1
  O  O18  1  0.840209  0.748125  0.945184  1
  O  O19  1  0.746366  0.168572  0.955495  1
