# generated using pymatgen
data_La2Cu5Ni3Pd2
_symmetry_space_group_name_H-M   'P 1'
_cell_length_a   4.03239700
_cell_length_b   5.31734201
_cell_length_c   8.79832375
_cell_angle_alpha   94.05482140
_cell_angle_beta   90.00000000
_cell_angle_gamma   90.00000000
_symmetry_Int_Tables_number   1
_chemical_formula_structural   La2Cu5Ni3Pd2
_chemical_formula_sum   'La2 Cu5 Ni3 Pd2'
_cell_volume   188.17821684
_cell_formula_units_Z   1
loop_
 _symmetry_equiv_pos_site_id
 _symmetry_equiv_pos_as_xyz
  1  'x, y, z'
loop_
 _atom_site_type_symbol
 _atom_site_label
 _atom_site_symmetry_multiplicity
 _atom_site_fract_x
 _atom_site_fract_y
 _atom_site_fract_z
 _atom_site_occupancy
  La  La0  1  0.000000  0.500000  0.000000  1
  La  La1  1  0.000000  0.000000  0.500000  1
  Cu  Cu2  1  0.000000  0.473380  0.338227  1
  Cu  Cu3  1  0.000000  0.974533  0.841124  1
  Cu  Cu4  1  0.000000  0.025467  0.158876  1
  Cu  Cu5  1  0.000000  0.526620  0.661773  1
  Cu  Cu6  1  0.500000  0.500000  0.500000  1
  Ni  Ni7  1  0.500000  0.000000  0.000000  1
  Ni  Ni8  1  0.500000  0.249146  0.248441  1
  Ni  Ni9  1  0.500000  0.750854  0.751559  1
  Pd  Pd10  1  0.500000  0.751718  0.249502  1
  Pd  Pd11  1  0.500000  0.248282  0.750498  1
