# generated using pymatgen
data_BaHoSiGe3N7
_symmetry_space_group_name_H-M   'P 1'
_cell_length_a   6.29796000
_cell_length_b   6.29795870
_cell_length_c   10.15557400
_cell_angle_alpha   90.00000000
_cell_angle_beta   90.00000000
_cell_angle_gamma   119.99998584
_symmetry_Int_Tables_number   1
_chemical_formula_structural   BaHoSiGe3N7
_chemical_formula_sum   'Ba2 Ho2 Si2 Ge6 N14'
_cell_volume   348.84690538
_cell_formula_units_Z   2
loop_
 _symmetry_equiv_pos_site_id
 _symmetry_equiv_pos_as_xyz
  1  'x, y, z'
loop_
 _atom_site_type_symbol
 _atom_site_label
 _atom_site_symmetry_multiplicity
 _atom_site_fract_x
 _atom_site_fract_y
 _atom_site_fract_z
 _atom_site_occupancy
  Ba  Ba0  1  0.333333  0.666667  0.362519  1
  Ba  Ba1  1  0.666667  0.333333  0.862519  1
  Ho  Ho2  1  0.333333  0.666667  0.738401  1
  Ho  Ho3  1  0.666667  0.333333  0.238401  1
  Si  Si4  1  0.000000  0.000000  0.814129  1
  Si  Si5  1  0.000000  0.000000  0.314129  1
  Ge  Ge6  1  0.828057  0.656112  0.546946  1
  Ge  Ge7  1  0.171943  0.828057  0.046946  1
  Ge  Ge8  1  0.656112  0.828057  0.046946  1
  Ge  Ge9  1  0.343888  0.171943  0.546946  1
  Ge  Ge10  1  0.828057  0.171943  0.546946  1
  Ge  Ge11  1  0.171943  0.343888  0.046946  1
  N  N12  1  0.000000  0.000000  0.629285  1
  N  N13  1  0.000000  0.000000  0.129285  1
  N  N14  1  0.151109  0.302220  0.865980  1
  N  N15  1  0.848891  0.151109  0.365980  1
  N  N16  1  0.302220  0.151109  0.365980  1
  N  N17  1  0.697780  0.848891  0.865980  1
  N  N18  1  0.151109  0.848891  0.865980  1
  N  N19  1  0.848891  0.697780  0.365980  1
  N  N20  1  0.989610  0.494806  0.603597  1
  N  N21  1  0.494806  0.989610  0.103597  1
  N  N22  1  0.494806  0.505194  0.103597  1
  N  N23  1  0.505194  0.494806  0.603597  1
  N  N24  1  0.010390  0.505194  0.103597  1
  N  N25  1  0.505194  0.010390  0.603597  1
