# generated using pymatgen
data_Pr4Be2GaSi5
_symmetry_space_group_name_H-M   'P 1'
_cell_length_a   8.03508468
_cell_length_b   8.03508420
_cell_length_c   8.71549001
_cell_angle_alpha   90.00570294
_cell_angle_beta   89.99429622
_cell_angle_gamma   119.92616292
_symmetry_Int_Tables_number   1
_chemical_formula_structural   Pr4Be2GaSi5
_chemical_formula_sum   'Pr8 Be4 Ga2 Si10'
_cell_volume   487.66992909
_cell_formula_units_Z   2
loop_
 _symmetry_equiv_pos_site_id
 _symmetry_equiv_pos_as_xyz
  1  'x, y, z'
loop_
 _atom_site_type_symbol
 _atom_site_label
 _atom_site_symmetry_multiplicity
 _atom_site_fract_x
 _atom_site_fract_y
 _atom_site_fract_z
 _atom_site_occupancy
  Pr  Pr0  1  0.499894  0.500106  0.749933  1
  Pr  Pr1  1  0.500106  0.499894  0.250067  1
  Pr  Pr2  1  0.000100  0.500043  0.747004  1
  Pr  Pr3  1  0.999900  0.499957  0.252996  1
  Pr  Pr4  1  0.499957  0.999900  0.747004  1
  Pr  Pr5  1  0.500043  0.000100  0.252996  1
  Pr  Pr6  1  0.000021  0.999979  0.747817  1
  Pr  Pr7  1  0.999979  0.000021  0.252183  1
  Be  Be8  1  0.663909  0.336091  0.997695  1
  Be  Be9  1  0.336091  0.663909  0.002305  1
  Be  Be10  1  0.333397  0.666603  0.497727  1
  Be  Be11  1  0.666603  0.333397  0.502273  1
  Ga  Ga12  1  0.826914  0.173086  0.000240  1
  Ga  Ga13  1  0.173086  0.826914  0.999760  1
  Si  Si14  1  0.345181  0.175089  0.000178  1
  Si  Si15  1  0.172007  0.827993  0.500206  1
  Si  Si16  1  0.654819  0.824911  0.999822  1
  Si  Si17  1  0.827993  0.172007  0.499794  1
  Si  Si18  1  0.824911  0.654819  0.000178  1
  Si  Si19  1  0.655705  0.827751  0.500193  1
  Si  Si20  1  0.175089  0.345181  0.999822  1
  Si  Si21  1  0.344295  0.172249  0.499807  1
  Si  Si22  1  0.172249  0.344295  0.500193  1
  Si  Si23  1  0.827751  0.655705  0.499807  1
