# generated using pymatgen
data_Dy18Sn3Bi7O10
_symmetry_space_group_name_H-M   'P 1'
_cell_length_a   10.04454390
_cell_length_b   10.04254521
_cell_length_c   9.04029900
_cell_angle_alpha   90.02809292
_cell_angle_beta   89.89806074
_cell_angle_gamma   89.99995299
_symmetry_Int_Tables_number   1
_chemical_formula_structural   Dy18Sn3Bi7O10
_chemical_formula_sum   'Dy18 Sn3 Bi7 O10'
_cell_volume   911.91859508
_cell_formula_units_Z   1
loop_
 _symmetry_equiv_pos_site_id
 _symmetry_equiv_pos_as_xyz
  1  'x, y, z'
loop_
 _atom_site_type_symbol
 _atom_site_label
 _atom_site_symmetry_multiplicity
 _atom_site_fract_x
 _atom_site_fract_y
 _atom_site_fract_z
 _atom_site_occupancy
  Dy  Dy0  1  0.199218  0.893642  0.331512  1
  Dy  Dy1  1  0.502850  0.992663  0.683939  1
  Dy  Dy2  1  0.300915  0.606431  0.668152  1
  Dy  Dy3  1  0.703745  0.401123  0.662131  1
  Dy  Dy4  1  0.728659  0.913707  0.004515  1
  Dy  Dy5  1  0.402032  0.296817  0.331897  1
  Dy  Dy6  1  0.104980  0.206047  0.667998  1
  Dy  Dy7  1  0.611555  0.701594  0.337055  1
  Dy  Dy8  1  0.991052  0.505049  0.316470  1
  Dy  Dy9  1  0.888328  0.792070  0.662083  1
  Dy  Dy10  1  0.276301  0.083342  0.003191  1
  Dy  Dy11  1  0.769724  0.583289  0.998732  1
  Dy  Dy12  1  0.224202  0.417484  0.998772  1
  Dy  Dy13  1  0.794437  0.105272  0.331169  1
  Dy  Dy14  1  0.585383  0.227633  0.004878  1
  Dy  Dy15  1  0.915719  0.276503  0.999791  1
  Dy  Dy16  1  0.080596  0.726296  0.001010  1
  Dy  Dy17  1  0.418000  0.773065  0.000952  1
  Sn  Sn18  1  0.595302  0.696049  0.699576  1
  Sn  Sn19  1  0.903644  0.805987  0.301372  1
  Sn  Sn20  1  0.696345  0.401805  0.301051  1
  Bi  Bi21  1  0.003043  0.500021  0.678394  1
  Bi  Bi22  1  0.193246  0.904218  0.695621  1
  Bi  Bi23  1  0.805131  0.096769  0.695942  1
  Bi  Bi24  1  0.304850  0.595384  0.304339  1
  Bi  Bi25  1  0.404878  0.303536  0.696147  1
  Bi  Bi26  1  0.096864  0.196770  0.305319  1
  Bi  Bi27  1  0.498448  0.998379  0.322569  1
  O  O28  1  0.227223  0.880022  0.084498  1
  O  O29  1  0.727459  0.379002  0.912190  1
  O  O30  1  0.496491  0.002522  0.937610  1
  O  O31  1  0.618325  0.727034  0.086964  1
  O  O32  1  0.004356  0.498356  0.061972  1
  O  O33  1  0.880704  0.772625  0.913220  1
  O  O34  1  0.120163  0.225775  0.915922  1
  O  O35  1  0.379070  0.274173  0.084874  1
  O  O36  1  0.774096  0.119451  0.082831  1
  O  O37  1  0.272666  0.620094  0.915342  1
