# generated using pymatgen
data_U8AuS17
_symmetry_space_group_name_H-M   'P 1'
_cell_length_a   7.88930453
_cell_length_b   7.88930473
_cell_length_c   10.43883277
_cell_angle_alpha   79.60990068
_cell_angle_beta   79.60989927
_cell_angle_gamma   64.01148128
_symmetry_Int_Tables_number   1
_chemical_formula_structural   U8AuS17
_chemical_formula_sum   'U8 Au1 S17'
_cell_volume   570.66473429
_cell_formula_units_Z   1
loop_
 _symmetry_equiv_pos_site_id
 _symmetry_equiv_pos_as_xyz
  1  'x, y, z'
loop_
 _atom_site_type_symbol
 _atom_site_label
 _atom_site_symmetry_multiplicity
 _atom_site_fract_x
 _atom_site_fract_y
 _atom_site_fract_z
 _atom_site_occupancy
  U  U0  1  0.818239  0.305084  0.301087  1
  U  U1  1  0.305084  0.818239  0.301087  1
  U  U2  1  0.181761  0.694916  0.698913  1
  U  U3  1  0.694916  0.181761  0.698913  1
  U  U4  1  0.796593  0.796593  0.457862  1
  U  U5  1  0.203407  0.203407  0.542138  1
  U  U6  1  0.321583  0.321583  0.013440  1
  U  U7  1  0.678417  0.678417  0.986560  1
  Au  Au8  1  0.000000  0.000000  0.000000  1
  S  S9  1  0.178834  0.567396  0.465455  1
  S  S10  1  0.567396  0.178834  0.465455  1
  S  S11  1  0.821166  0.432604  0.534545  1
  S  S12  1  0.432604  0.821166  0.534545  1
  S  S13  1  0.947885  0.336631  0.039440  1
  S  S14  1  0.336631  0.947885  0.039440  1
  S  S15  1  0.052115  0.663369  0.960560  1
  S  S16  1  0.663369  0.052115  0.960560  1
  S  S17  1  0.945604  0.945604  0.236475  1
  S  S18  1  0.054396  0.054396  0.763525  1
  S  S19  1  0.787283  0.787283  0.719888  1
  S  S20  1  0.212717  0.212717  0.280112  1
  S  S21  1  0.700364  0.700364  0.245783  1
  S  S22  1  0.299636  0.299636  0.754217  1
  S  S23  1  0.481126  0.481126  0.170635  1
  S  S24  1  0.518874  0.518874  0.829365  1
  S  S25  1  0.000000  0.000000  0.500000  1
