# generated using pymatgen
data_La2Nd3Y3(CdPt)2
_symmetry_space_group_name_H-M   'P 1'
_cell_length_a   9.96262086
_cell_length_b   9.96262078
_cell_length_c   9.96262100
_cell_angle_alpha   60.00000257
_cell_angle_beta   60.00000285
_cell_angle_gamma   60.00000162
_symmetry_Int_Tables_number   1
_chemical_formula_structural   La2Nd3Y3(CdPt)2
_chemical_formula_sum   'La4 Nd6 Y6 Cd4 Pt4'
_cell_volume   699.20711141
_cell_formula_units_Z   2
loop_
 _symmetry_equiv_pos_site_id
 _symmetry_equiv_pos_as_xyz
  1  'x, y, z'
loop_
 _atom_site_type_symbol
 _atom_site_label
 _atom_site_symmetry_multiplicity
 _atom_site_fract_x
 _atom_site_fract_y
 _atom_site_fract_z
 _atom_site_occupancy
  La  La0  1  0.352077  0.352077  0.352077  1
  La  La1  1  0.352077  0.352077  0.943767  1
  La  La2  1  0.352077  0.943767  0.352077  1
  La  La3  1  0.943767  0.352077  0.352077  1
  Nd  Nd4  1  0.935470  0.564530  0.564530  1
  Nd  Nd5  1  0.564530  0.935470  0.935470  1
  Nd  Nd6  1  0.564530  0.935470  0.564530  1
  Nd  Nd7  1  0.935470  0.564530  0.935470  1
  Nd  Nd8  1  0.564530  0.564530  0.935470  1
  Nd  Nd9  1  0.935470  0.935470  0.564530  1
  Y  Y10  1  0.813765  0.186235  0.186235  1
  Y  Y11  1  0.186235  0.813765  0.813765  1
  Y  Y12  1  0.186235  0.813765  0.186235  1
  Y  Y13  1  0.813765  0.186235  0.813765  1
  Y  Y14  1  0.186235  0.186235  0.813765  1
  Y  Y15  1  0.813765  0.813765  0.186235  1
  Cd  Cd16  1  0.581174  0.581174  0.581174  1
  Cd  Cd17  1  0.581174  0.581174  0.256479  1
  Cd  Cd18  1  0.581174  0.256479  0.581174  1
  Cd  Cd19  1  0.256479  0.581174  0.581174  1
  Pt  Pt20  1  0.140824  0.140824  0.140824  1
  Pt  Pt21  1  0.140824  0.140824  0.577528  1
  Pt  Pt22  1  0.140824  0.577528  0.140824  1
  Pt  Pt23  1  0.577528  0.140824  0.140824  1
