# generated using pymatgen
data_Ba(Zr3Te4)4
_symmetry_space_group_name_H-M   'P 1'
_cell_length_a   7.93317758
_cell_length_b   11.14388295
_cell_length_c   11.78900856
_cell_angle_alpha   118.05400525
_cell_angle_beta   109.65106422
_cell_angle_gamma   90.06471980
_symmetry_Int_Tables_number   1
_chemical_formula_structural   Ba(Zr3Te4)4
_chemical_formula_sum   'Ba1 Zr12 Te16'
_cell_volume   850.14057637
_cell_formula_units_Z   1
loop_
 _symmetry_equiv_pos_site_id
 _symmetry_equiv_pos_as_xyz
  1  'x, y, z'
loop_
 _atom_site_type_symbol
 _atom_site_label
 _atom_site_symmetry_multiplicity
 _atom_site_fract_x
 _atom_site_fract_y
 _atom_site_fract_z
 _atom_site_occupancy
  Ba  Ba0  1  0.500000  0.000000  0.000000  1
  Zr  Zr1  1  0.123947  0.123834  0.493271  1
  Zr  Zr2  1  0.619342  0.123307  0.492900  1
  Zr  Zr3  1  0.312146  0.371221  0.876650  1
  Zr  Zr4  1  0.812922  0.368531  0.874633  1
  Zr  Zr5  1  0.188248  0.507207  0.630356  1
  Zr  Zr6  1  0.692640  0.506334  0.630751  1
  Zr  Zr7  1  0.380658  0.876693  0.507100  1
  Zr  Zr8  1  0.876053  0.876166  0.506729  1
  Zr  Zr9  1  0.187078  0.631469  0.125367  1
  Zr  Zr10  1  0.687854  0.628779  0.123350  1
  Zr  Zr11  1  0.307360  0.493666  0.369249  1
  Zr  Zr12  1  0.811752  0.492793  0.369644  1
  Te  Te13  1  0.732952  0.055195  0.713188  1
  Te  Te14  1  0.231174  0.054655  0.713784  1
  Te  Te15  1  0.848008  0.657174  0.945075  1
  Te  Te16  1  0.346738  0.659923  0.946343  1
  Te  Te17  1  0.543931  0.286557  0.340678  1
  Te  Te18  1  0.046739  0.286669  0.341749  1
  Te  Te19  1  0.768826  0.945345  0.286216  1
  Te  Te20  1  0.267048  0.944805  0.286812  1
  Te  Te21  1  0.653262  0.340077  0.053657  1
  Te  Te22  1  0.151992  0.342826  0.054925  1
  Te  Te23  1  0.953261  0.713331  0.658251  1
  Te  Te24  1  0.456069  0.713443  0.659322  1
  Te  Te25  1  0.958060  0.332181  0.665318  1
  Te  Te26  1  0.458096  0.334448  0.666549  1
  Te  Te27  1  0.541904  0.665552  0.333451  1
  Te  Te28  1  0.041940  0.667819  0.334682  1
