# generated using pymatgen
data_CsTl2BiCl6
_symmetry_space_group_name_H-M   'P 1'
_cell_length_a   7.89866452
_cell_length_b   13.26114682
_cell_length_c   13.60887200
_cell_angle_alpha   98.62632340
_cell_angle_beta   106.87009350
_cell_angle_gamma   90.00000054
_symmetry_Int_Tables_number   1
_chemical_formula_structural   CsTl2BiCl6
_chemical_formula_sum   'Cs4 Tl8 Bi4 Cl24'
_cell_volume   1347.26188286
_cell_formula_units_Z   4
loop_
 _symmetry_equiv_pos_site_id
 _symmetry_equiv_pos_as_xyz
  1  'x, y, z'
loop_
 _atom_site_type_symbol
 _atom_site_label
 _atom_site_symmetry_multiplicity
 _atom_site_fract_x
 _atom_site_fract_y
 _atom_site_fract_z
 _atom_site_occupancy
  Cs  Cs0  1  0.211510  0.569646  0.896726  1
  Cs  Cs1  1  0.788490  0.430354  0.103274  1
  Cs  Cs2  1  0.685215  0.069646  0.896726  1
  Cs  Cs3  1  0.314785  0.930354  0.103274  1
  Tl  Tl4  1  0.531042  0.368300  0.686709  1
  Tl  Tl5  1  0.023465  0.200049  0.675982  1
  Tl  Tl6  1  0.347483  0.299951  0.324018  1
  Tl  Tl7  1  0.468958  0.631700  0.313291  1
  Tl  Tl8  1  0.844335  0.131700  0.313291  1
  Tl  Tl9  1  0.976535  0.799951  0.324018  1
  Tl  Tl10  1  0.155665  0.868300  0.686709  1
  Tl  Tl11  1  0.652517  0.700049  0.675982  1
  Bi  Bi12  1  0.000000  0.500000  0.500000  1
  Bi  Bi13  1  0.778008  0.750000  0.000000  1
  Bi  Bi14  1  0.221992  0.250000  0.000000  1
  Bi  Bi15  1  0.500000  0.000000  0.500000  1
  Cl  Cl16  1  0.863071  0.691587  0.500400  1
  Cl  Cl17  1  0.607767  0.684957  0.129708  1
  Cl  Cl18  1  0.859082  0.474065  0.655186  1
  Cl  Cl19  1  0.302702  0.572702  0.651676  1
  Cl  Cl20  1  0.348974  0.072702  0.651676  1
  Cl  Cl21  1  0.521941  0.184957  0.129708  1
  Cl  Cl22  1  0.203897  0.025935  0.344814  1
  Cl  Cl23  1  0.093928  0.700041  0.127526  1
  Cl  Cl24  1  0.136929  0.308413  0.499600  1
  Cl  Cl25  1  0.292206  0.438667  0.115834  1
  Cl  Cl26  1  0.796103  0.974065  0.655186  1
  Cl  Cl27  1  0.637330  0.191587  0.500400  1
  Cl  Cl28  1  0.707794  0.561333  0.884166  1
  Cl  Cl29  1  0.140918  0.525935  0.344814  1
  Cl  Cl30  1  0.906072  0.299959  0.872474  1
  Cl  Cl31  1  0.697298  0.427298  0.348324  1
  Cl  Cl32  1  0.362670  0.808413  0.499600  1
  Cl  Cl33  1  0.478059  0.815043  0.870292  1
  Cl  Cl34  1  0.966400  0.799959  0.872474  1
  Cl  Cl35  1  0.033600  0.200041  0.127526  1
  Cl  Cl36  1  0.392233  0.315043  0.870292  1
  Cl  Cl37  1  0.651026  0.927298  0.348324  1
  Cl  Cl38  1  0.176371  0.061333  0.884166  1
  Cl  Cl39  1  0.823629  0.938667  0.115834  1
