# generated using pymatgen
data_Y2Lu(In2Rh)2
_symmetry_space_group_name_H-M   'P 1'
_cell_length_a   7.94891419
_cell_length_b   7.93679845
_cell_length_c   3.72869400
_cell_angle_alpha   90.00000000
_cell_angle_beta   90.00000000
_cell_angle_gamma   120.11343534
_symmetry_Int_Tables_number   1
_chemical_formula_structural   Y2Lu(In2Rh)2
_chemical_formula_sum   'Y2 Lu1 In4 Rh2'
_cell_volume   203.48995712
_cell_formula_units_Z   1
loop_
 _symmetry_equiv_pos_site_id
 _symmetry_equiv_pos_as_xyz
  1  'x, y, z'
loop_
 _atom_site_type_symbol
 _atom_site_label
 _atom_site_symmetry_multiplicity
 _atom_site_fract_x
 _atom_site_fract_y
 _atom_site_fract_z
 _atom_site_occupancy
  Y  Y0  1  0.376966  0.410274  0.000000  1
  Y  Y1  1  0.032823  0.623743  0.000000  1
  Lu  Lu2  1  0.589149  0.961910  0.000000  1
  In  In3  1  0.996075  0.257686  0.500000  1
  In  In4  1  0.666017  0.331082  0.500000  1
  In  In5  1  0.739740  0.739560  0.500000  1
  In  In6  1  0.262241  0.002812  0.500000  1
  Rh  Rh7  1  0.997741  0.999095  0.000000  1
  Rh  Rh8  1  0.339248  0.673840  0.500000  1
