# generated using pymatgen
data_Dy5Y5(SnSb)3
_symmetry_space_group_name_H-M   'P 1'
_cell_length_a   6.42523400
_cell_length_b   8.98971680
_cell_length_c   8.99018600
_cell_angle_alpha   119.99828072
_cell_angle_beta   90.00003438
_cell_angle_gamma   89.99993906
_symmetry_Int_Tables_number   1
_chemical_formula_structural   Dy5Y5(SnSb)3
_chemical_formula_sum   'Dy5 Y5 Sn3 Sb3'
_cell_volume   449.71957513
_cell_formula_units_Z   1
loop_
 _symmetry_equiv_pos_site_id
 _symmetry_equiv_pos_as_xyz
  1  'x, y, z'
loop_
 _atom_site_type_symbol
 _atom_site_label
 _atom_site_symmetry_multiplicity
 _atom_site_fract_x
 _atom_site_fract_y
 _atom_site_fract_z
 _atom_site_occupancy
  Dy  Dy0  1  0.500538  0.333330  0.666676  1
  Dy  Dy1  1  0.500538  0.666654  0.333324  1
  Dy  Dy2  1  0.999462  0.666654  0.333324  1
  Dy  Dy3  1  0.999462  0.333330  0.666676  1
  Dy  Dy4  1  0.750001  0.241792  0.000000  1
  Y  Y5  1  0.750003  0.758261  0.758241  1
  Y  Y6  1  0.750003  0.000020  0.241759  1
  Y  Y7  1  0.249996  0.757312  0.000000  1
  Y  Y8  1  0.250003  0.242657  0.242614  1
  Y  Y9  1  0.250003  0.000044  0.757386  1
  Sn  Sn10  1  0.749999  0.607518  0.000000  1
  Sn  Sn11  1  0.750000  0.392467  0.392422  1
  Sn  Sn12  1  0.750000  0.000044  0.607578  1
  Sb  Sb13  1  0.249992  0.390949  0.000000  1
  Sb  Sb14  1  0.250001  0.608995  0.609022  1
  Sb  Sb15  1  0.250001  0.999972  0.390978  1
