# generated using pymatgen
data_Sc3Si2Tc3P
_symmetry_space_group_name_H-M   'P 1'
_cell_length_a   6.90318900
_cell_length_b   6.90318921
_cell_length_c   3.43099100
_cell_angle_alpha   90.00000000
_cell_angle_beta   90.00000000
_cell_angle_gamma   120.00000376
_symmetry_Int_Tables_number   1
_chemical_formula_structural   Sc3Si2Tc3P
_chemical_formula_sum   'Sc3 Si2 Tc3 P1'
_cell_volume   141.59559261
_cell_formula_units_Z   1
loop_
 _symmetry_equiv_pos_site_id
 _symmetry_equiv_pos_as_xyz
  1  'x, y, z'
loop_
 _atom_site_type_symbol
 _atom_site_label
 _atom_site_symmetry_multiplicity
 _atom_site_fract_x
 _atom_site_fract_y
 _atom_site_fract_z
 _atom_site_occupancy
  Sc  Sc0  1  0.393441  0.407400  0.500000  1
  Sc  Sc1  1  0.592600  0.986040  0.500000  1
  Sc  Sc2  1  0.013960  0.606559  0.500000  1
  Si  Si3  1  0.666667  0.333333  0.000000  1
  Si  Si4  1  0.000000  0.000000  0.500000  1
  Tc  Tc5  1  0.997083  0.256801  0.000000  1
  Tc  Tc6  1  0.259717  0.002917  0.000000  1
  Tc  Tc7  1  0.743199  0.740283  0.000000  1
  P  P8  1  0.333333  0.666667  0.000000  1
