# generated using pymatgen
data_Ce4Al6ZnRu
_symmetry_space_group_name_H-M   'P 1'
_cell_length_a   5.69924400
_cell_length_b   5.69924739
_cell_length_c   8.58488800
_cell_angle_alpha   89.99953843
_cell_angle_beta   89.99980933
_cell_angle_gamma   119.99998033
_symmetry_Int_Tables_number   1
_chemical_formula_structural   Ce4Al6ZnRu
_chemical_formula_sum   'Ce4 Al6 Zn1 Ru1'
_cell_volume   241.49053357
_cell_formula_units_Z   1
loop_
 _symmetry_equiv_pos_site_id
 _symmetry_equiv_pos_as_xyz
  1  'x, y, z'
loop_
 _atom_site_type_symbol
 _atom_site_label
 _atom_site_symmetry_multiplicity
 _atom_site_fract_x
 _atom_site_fract_y
 _atom_site_fract_z
 _atom_site_occupancy
  Ce  Ce0  1  0.333338  0.666669  0.917077  1
  Ce  Ce1  1  0.666662  0.333331  0.082923  1
  Ce  Ce2  1  0.666660  0.333329  0.411852  1
  Ce  Ce3  1  0.333340  0.666671  0.588148  1
  Al  Al4  1  0.834487  0.165529  0.741226  1
  Al  Al5  1  0.834486  0.668957  0.741226  1
  Al  Al6  1  0.331050  0.165525  0.741225  1
  Al  Al7  1  0.165513  0.834471  0.258774  1
  Al  Al8  1  0.165514  0.331043  0.258774  1
  Al  Al9  1  0.668950  0.834475  0.258775  1
  Zn  Zn10  1  0.000000  0.000000  0.000000  1
  Ru  Ru11  1  0.000000  0.000000  0.500000  1
