# generated using pymatgen
data_NaNd6PtI12
_symmetry_space_group_name_H-M   'P 1'
_cell_length_a   10.09276013
_cell_length_b   10.09276065
_cell_length_c   10.09276105
_cell_angle_alpha   107.02078034
_cell_angle_beta   107.02077185
_cell_angle_gamma   107.02076924
_symmetry_Int_Tables_number   1
_chemical_formula_structural   NaNd6PtI12
_chemical_formula_sum   'Na1 Nd6 Pt1 I12'
_cell_volume   855.71513011
_cell_formula_units_Z   1
loop_
 _symmetry_equiv_pos_site_id
 _symmetry_equiv_pos_as_xyz
  1  'x, y, z'
loop_
 _atom_site_type_symbol
 _atom_site_label
 _atom_site_symmetry_multiplicity
 _atom_site_fract_x
 _atom_site_fract_y
 _atom_site_fract_z
 _atom_site_occupancy
  Na  Na0  1  0.500000  0.500000  0.500000  1
  Nd  Nd1  1  0.101398  0.027431  0.309886  1
  Nd  Nd2  1  0.309886  0.101398  0.027431  1
  Nd  Nd3  1  0.027431  0.309886  0.101398  1
  Nd  Nd4  1  0.898602  0.972569  0.690114  1
  Nd  Nd5  1  0.690114  0.898602  0.972569  1
  Nd  Nd6  1  0.972569  0.690114  0.898602  1
  Pt  Pt7  1  0.000000  0.000000  0.000000  1
  I  I8  1  0.075905  0.680707  0.224495  1
  I  I9  1  0.224495  0.075905  0.680707  1
  I  I10  1  0.680707  0.224495  0.075905  1
  I  I11  1  0.924095  0.319293  0.775505  1
  I  I12  1  0.775505  0.924095  0.319293  1
  I  I13  1  0.319293  0.775505  0.924095  1
  I  I14  1  0.451257  0.144469  0.372565  1
  I  I15  1  0.372565  0.451257  0.144469  1
  I  I16  1  0.144469  0.372565  0.451257  1
  I  I17  1  0.548743  0.855531  0.627435  1
  I  I18  1  0.627435  0.548743  0.855531  1
  I  I19  1  0.855531  0.627435  0.548743  1
