# generated using pymatgen
data_Zr6V8Os3W
_symmetry_space_group_name_H-M   'P 1'
_cell_length_a   5.20815534
_cell_length_b   5.21966886
_cell_length_c   12.84488551
_cell_angle_alpha   90.37263198
_cell_angle_beta   89.62747009
_cell_angle_gamma   119.39445874
_symmetry_Int_Tables_number   1
_chemical_formula_structural   Zr6V8Os3W
_chemical_formula_sum   'Zr6 V8 Os3 W1'
_cell_volume   304.22382046
_cell_formula_units_Z   1
loop_
 _symmetry_equiv_pos_site_id
 _symmetry_equiv_pos_as_xyz
  1  'x, y, z'
loop_
 _atom_site_type_symbol
 _atom_site_label
 _atom_site_symmetry_multiplicity
 _atom_site_fract_x
 _atom_site_fract_y
 _atom_site_fract_z
 _atom_site_occupancy
  Zr  Zr0  1  0.334098  0.664510  0.915673  1
  Zr  Zr1  1  0.000261  0.000167  0.250540  1
  Zr  Zr2  1  0.667065  0.333057  0.583421  1
  Zr  Zr3  1  0.332935  0.666943  0.666579  1
  Zr  Zr4  1  0.999739  0.999833  0.999459  1
  Zr  Zr5  1  0.665902  0.335490  0.334327  1
  V  V6  1  0.166946  0.334402  0.458935  1
  V  V7  1  0.833054  0.665598  0.791065  1
  V  V8  1  0.331624  0.666635  0.294456  1
  V  V9  1  0.000000  0.000000  0.625000  1
  V  V10  1  0.668376  0.333365  0.955544  1
  V  V11  1  0.000000  0.500000  0.125000  1
  V  V12  1  0.666529  0.834083  0.459116  1
  V  V13  1  0.333471  0.165917  0.790884  1
  Os  Os14  1  0.500000  0.500000  0.125000  1
  Os  Os15  1  0.165843  0.834506  0.459134  1
  Os  Os16  1  0.834157  0.165494  0.790866  1
  W  W17  1  0.500000  0.000000  0.125000  1
