# generated using pymatgen
data_Tb2Pa(GeIr)3
_symmetry_space_group_name_H-M   'P 1'
_cell_length_a   7.23504300
_cell_length_b   7.20746912
_cell_length_c   3.87280200
_cell_angle_alpha   90.00000000
_cell_angle_beta   90.00000000
_cell_angle_gamma   120.12662149
_symmetry_Int_Tables_number   1
_chemical_formula_structural   Tb2Pa(GeIr)3
_chemical_formula_sum   'Tb2 Pa1 Ge3 Ir3'
_cell_volume   174.67240148
_cell_formula_units_Z   1
loop_
 _symmetry_equiv_pos_site_id
 _symmetry_equiv_pos_as_xyz
  1  'x, y, z'
loop_
 _atom_site_type_symbol
 _atom_site_label
 _atom_site_symmetry_multiplicity
 _atom_site_fract_x
 _atom_site_fract_y
 _atom_site_fract_z
 _atom_site_occupancy
  Tb  Tb0  1  0.000284  0.594454  0.000000  1
  Tb  Tb1  1  0.405831  0.405546  0.000000  1
  Pa  Pa2  1  0.585258  0.000000  0.000000  1
  Ge  Ge3  1  0.240060  0.000000  0.500000  1
  Ge  Ge4  1  0.011637  0.263330  0.500000  1
  Ge  Ge5  1  0.748308  0.736670  0.500000  1
  Ir  Ir6  1  0.357477  0.692400  0.500000  1
  Ir  Ir7  1  0.665078  0.307600  0.500000  1
  Ir  Ir8  1  0.986065  0.000000  0.000000  1
