# generated using pymatgen
data_TbBi(AuO3)2
_symmetry_space_group_name_H-M   'P 1'
_cell_length_a   3.94190900
_cell_length_b   13.23659400
_cell_length_c   5.62335600
_cell_angle_alpha   90.00000000
_cell_angle_beta   90.00000000
_cell_angle_gamma   90.00000000
_symmetry_Int_Tables_number   1
_chemical_formula_structural   TbBi(AuO3)2
_chemical_formula_sum   'Tb2 Bi2 Au4 O12'
_cell_volume   293.41237100
_cell_formula_units_Z   2
loop_
 _symmetry_equiv_pos_site_id
 _symmetry_equiv_pos_as_xyz
  1  'x, y, z'
loop_
 _atom_site_type_symbol
 _atom_site_label
 _atom_site_symmetry_multiplicity
 _atom_site_fract_x
 _atom_site_fract_y
 _atom_site_fract_z
 _atom_site_occupancy
  Tb  Tb0  1  0.727062  0.420145  0.750000  1
  Tb  Tb1  1  0.272937  0.920145  0.750000  1
  Bi  Bi2  1  0.804339  0.069769  0.249999  1
  Bi  Bi3  1  0.195660  0.569769  0.249999  1
  Au  Au4  1  0.405664  0.331355  0.249999  1
  Au  Au5  1  0.594338  0.831355  0.249999  1
  Au  Au6  1  0.435827  0.170702  0.750000  1
  Au  Au7  1  0.564175  0.670701  0.750000  1
  O  O8  1  0.669332  0.261236  0.989689  1
  O  O9  1  0.330667  0.761236  0.989689  1
  O  O10  1  0.274129  0.068529  0.990902  1
  O  O11  1  0.725870  0.568529  0.990902  1
  O  O12  1  0.274129  0.068529  0.509099  1
  O  O13  1  0.725870  0.568529  0.509099  1
  O  O14  1  0.669332  0.261236  0.510311  1
  O  O15  1  0.330667  0.761236  0.510311  1
  O  O16  1  0.207814  0.424250  0.499010  1
  O  O17  1  0.792185  0.924250  0.499010  1
  O  O18  1  0.207814  0.424250  0.000989  1
  O  O19  1  0.792185  0.924250  0.000989  1
