# generated using pymatgen
data_Tb9Ho4Er7Sn16
_symmetry_space_group_name_H-M   'P 1'
_cell_length_a   8.02346713
_cell_length_b   8.16647103
_cell_length_c   15.43374515
_cell_angle_alpha   90.00496733
_cell_angle_beta   90.02968001
_cell_angle_gamma   90.02685731
_symmetry_Int_Tables_number   1
_chemical_formula_structural   Tb9Ho4Er7Sn16
_chemical_formula_sum   'Tb9 Ho4 Er7 Sn16'
_cell_volume   1011.27138965
_cell_formula_units_Z   1
loop_
 _symmetry_equiv_pos_site_id
 _symmetry_equiv_pos_as_xyz
  1  'x, y, z'
loop_
 _atom_site_type_symbol
 _atom_site_label
 _atom_site_symmetry_multiplicity
 _atom_site_fract_x
 _atom_site_fract_y
 _atom_site_fract_z
 _atom_site_occupancy
  Tb  Tb0  1  0.866690  0.662820  0.877789  1
  Tb  Tb1  1  0.519430  0.320495  0.902919  1
  Tb  Tb2  1  0.019623  0.179392  0.597017  1
  Tb  Tb3  1  0.480668  0.679562  0.403349  1
  Tb  Tb4  1  0.980082  0.820730  0.097226  1
  Tb  Tb5  1  0.480957  0.679555  0.096788  1
  Tb  Tb6  1  0.981430  0.820596  0.403528  1
  Tb  Tb7  1  0.518699  0.320948  0.596773  1
  Tb  Tb8  1  0.019150  0.178523  0.902490  1
  Ho  Ho9  1  0.134231  0.337171  0.122087  1
  Ho  Ho10  1  0.633641  0.163079  0.122767  1
  Ho  Ho11  1  0.133707  0.337011  0.377802  1
  Ho  Ho12  1  0.366547  0.837146  0.622461  1
  Er  Er13  1  0.365654  0.837558  0.876331  1
  Er  Er14  1  0.865094  0.662530  0.622952  1
  Er  Er15  1  0.634661  0.162557  0.377393  1
  Er  Er16  1  0.197494  0.503569  0.750145  1
  Er  Er17  1  0.697358  0.996705  0.749440  1
  Er  Er18  1  0.802584  0.496465  0.250714  1
  Er  Er19  1  0.302876  0.003603  0.249766  1
  Sn  Sn20  1  0.294486  0.036673  0.041076  1
  Sn  Sn21  1  0.793800  0.461743  0.458914  1
  Sn  Sn22  1  0.706418  0.961835  0.541473  1
  Sn  Sn23  1  0.207561  0.538342  0.958012  1
  Sn  Sn24  1  0.702928  0.962793  0.957912  1
  Sn  Sn25  1  0.203191  0.538183  0.542304  1
  Sn  Sn26  1  0.296475  0.038002  0.457999  1
  Sn  Sn27  1  0.794396  0.462341  0.042614  1
  Sn  Sn28  1  0.563123  0.618899  0.749701  1
  Sn  Sn29  1  0.063504  0.881141  0.749645  1
  Sn  Sn30  1  0.436714  0.381021  0.250358  1
  Sn  Sn31  1  0.936678  0.118605  0.250294  1
  Sn  Sn32  1  0.328854  0.148378  0.749838  1
  Sn  Sn33  1  0.828752  0.351809  0.749652  1
  Sn  Sn34  1  0.671218  0.852068  0.250314  1
  Sn  Sn35  1  0.171328  0.648154  0.250158  1
