# generated using pymatgen
data_Ac8HoErIn6
_symmetry_space_group_name_H-M   'P 1'
_cell_length_a   6.63675882
_cell_length_b   9.81905135
_cell_length_c   9.81905154
_cell_angle_alpha   83.39564855
_cell_angle_beta   70.24331402
_cell_angle_gamma   70.24332159
_symmetry_Int_Tables_number   1
_chemical_formula_structural   Ac8HoErIn6
_chemical_formula_sum   'Ac8 Ho1 Er1 In6'
_cell_volume   566.76141478
_cell_formula_units_Z   1
loop_
 _symmetry_equiv_pos_site_id
 _symmetry_equiv_pos_as_xyz
  1  'x, y, z'
loop_
 _atom_site_type_symbol
 _atom_site_label
 _atom_site_symmetry_multiplicity
 _atom_site_fract_x
 _atom_site_fract_y
 _atom_site_fract_z
 _atom_site_occupancy
  Ac  Ac0  1  0.719675  0.865935  0.693022  1
  Ac  Ac1  1  0.280005  0.134047  0.306982  1
  Ac  Ac2  1  0.780325  0.306978  0.134065  1
  Ac  Ac3  1  0.219995  0.693018  0.865953  1
  Ac  Ac4  1  0.585825  0.693778  0.134288  1
  Ac  Ac5  1  0.414549  0.306211  0.865757  1
  Ac  Ac6  1  0.085451  0.134243  0.693789  1
  Ac  Ac7  1  0.914175  0.865712  0.306222  1
  Ho  Ho8  1  0.250000  0.499592  0.500408  1
  Er  Er9  1  0.750000  0.500454  0.499546  1
  In  In10  1  0.152734  0.499924  0.194604  1
  In  In11  1  0.847208  0.500039  0.805314  1
  In  In12  1  0.347266  0.805396  0.500076  1
  In  In13  1  0.652792  0.194686  0.499961  1
  In  In14  1  0.250000  0.999732  0.000268  1
  In  In15  1  0.750000  0.000255  0.999745  1
