# generated using pymatgen
data_Zr8ZnPd3
_symmetry_space_group_name_H-M   'P 1'
_cell_length_a   3.33526400
_cell_length_b   3.33526400
_cell_length_c   21.96305700
_cell_angle_alpha   90.00000000
_cell_angle_beta   90.00000000
_cell_angle_gamma   90.00000000
_symmetry_Int_Tables_number   1
_chemical_formula_structural   Zr8ZnPd3
_chemical_formula_sum   'Zr8 Zn1 Pd3'
_cell_volume   244.31673748
_cell_formula_units_Z   1
loop_
 _symmetry_equiv_pos_site_id
 _symmetry_equiv_pos_as_xyz
  1  'x, y, z'
loop_
 _atom_site_type_symbol
 _atom_site_label
 _atom_site_symmetry_multiplicity
 _atom_site_fract_x
 _atom_site_fract_y
 _atom_site_fract_z
 _atom_site_occupancy
  Zr  Zr0  1  0.500000  0.500000  0.079618  1
  Zr  Zr1  1  0.000000  0.000000  0.330208  1
  Zr  Zr2  1  0.500000  0.500000  0.577880  1
  Zr  Zr3  1  0.000000  0.000000  0.826437  1
  Zr  Zr4  1  0.000000  0.000000  0.173563  1
  Zr  Zr5  1  0.500000  0.500000  0.422120  1
  Zr  Zr6  1  0.000000  0.000000  0.669792  1
  Zr  Zr7  1  0.500000  0.500000  0.920382  1
  Zn  Zn8  1  0.000000  0.000000  0.000000  1
  Pd  Pd9  1  0.500000  0.500000  0.251951  1
  Pd  Pd10  1  0.000000  0.000000  0.500000  1
  Pd  Pd11  1  0.500000  0.500000  0.748049  1
