# generated using pymatgen
data_Ga5Cu7(Mo3N)4
_symmetry_space_group_name_H-M   'P 1'
_cell_length_a   7.95819644
_cell_length_b   7.96412331
_cell_length_c   7.96412200
_cell_angle_alpha   59.99999714
_cell_angle_beta   59.97535794
_cell_angle_gamma   59.97535884
_symmetry_Int_Tables_number   1
_chemical_formula_structural   Ga5Cu7(Mo3N)4
_chemical_formula_sum   'Ga5 Cu7 Mo12 N4'
_cell_volume   356.79081958
_cell_formula_units_Z   1
loop_
 _symmetry_equiv_pos_site_id
 _symmetry_equiv_pos_as_xyz
  1  'x, y, z'
loop_
 _atom_site_type_symbol
 _atom_site_label
 _atom_site_symmetry_multiplicity
 _atom_site_fract_x
 _atom_site_fract_y
 _atom_site_fract_z
 _atom_site_occupancy
  Ga  Ga0  1  0.998921  0.333693  0.333693  1
  Ga  Ga1  1  0.131517  0.117328  0.633827  1
  Ga  Ga2  1  0.131517  0.117328  0.117328  1
  Ga  Ga3  1  0.624137  0.125288  0.125288  1
  Ga  Ga4  1  0.131517  0.633827  0.117328  1
  Cu  Cu5  1  0.915606  0.917584  0.917584  1
  Cu  Cu6  1  0.330194  0.333517  0.002771  1
  Cu  Cu7  1  0.915606  0.917584  0.249226  1
  Cu  Cu8  1  0.254564  0.915145  0.915145  1
  Cu  Cu9  1  0.330194  0.002771  0.333517  1
  Cu  Cu10  1  0.915606  0.249226  0.917584  1
  Cu  Cu11  1  0.330194  0.333517  0.333517  1
  Mo  Mo12  1  0.309364  0.689300  0.689300  1
  Mo  Mo13  1  0.561722  0.559739  0.939269  1
  Mo  Mo14  1  0.309364  0.689300  0.312037  1
  Mo  Mo15  1  0.309364  0.312037  0.689300  1
  Mo  Mo16  1  0.687819  0.309940  0.309940  1
  Mo  Mo17  1  0.940043  0.941981  0.558989  1
  Mo  Mo18  1  0.940043  0.558989  0.941981  1
  Mo  Mo19  1  0.940043  0.558989  0.558989  1
  Mo  Mo20  1  0.561722  0.939269  0.939269  1
  Mo  Mo21  1  0.687819  0.692302  0.309940  1
  Mo  Mo22  1  0.687819  0.309940  0.692302  1
  Mo  Mo23  1  0.561722  0.939269  0.559739  1
  N  N24  1  0.623852  0.125081  0.625533  1
  N  N25  1  0.623852  0.625533  0.125081  1
  N  N26  1  0.122023  0.625993  0.625993  1
  N  N27  1  0.623852  0.625533  0.625533  1
