# generated using pymatgen
data_Zr4Co2(ReTc)3
_symmetry_space_group_name_H-M   'P 1'
_cell_length_a   5.16536300
_cell_length_b   5.16536312
_cell_length_c   8.66627200
_cell_angle_alpha   90.00000000
_cell_angle_beta   90.00000000
_cell_angle_gamma   119.99999286
_symmetry_Int_Tables_number   1
_chemical_formula_structural   Zr4Co2(ReTc)3
_chemical_formula_sum   'Zr4 Co2 Re3 Tc3'
_cell_volume   200.24638427
_cell_formula_units_Z   1
loop_
 _symmetry_equiv_pos_site_id
 _symmetry_equiv_pos_as_xyz
  1  'x, y, z'
loop_
 _atom_site_type_symbol
 _atom_site_label
 _atom_site_symmetry_multiplicity
 _atom_site_fract_x
 _atom_site_fract_y
 _atom_site_fract_z
 _atom_site_occupancy
  Zr  Zr0  1  0.333333  0.666667  0.433980  1
  Zr  Zr1  1  0.666667  0.333333  0.565776  1
  Zr  Zr2  1  0.666667  0.333333  0.934224  1
  Zr  Zr3  1  0.333333  0.666667  0.066020  1
  Co  Co4  1  0.000000  0.000000  0.500920  1
  Co  Co5  1  0.000000  0.000000  0.999080  1
  Re  Re6  1  0.832564  0.167436  0.250000  1
  Re  Re7  1  0.832564  0.665128  0.250000  1
  Re  Re8  1  0.334872  0.167436  0.250000  1
  Tc  Tc9  1  0.168177  0.831823  0.750000  1
  Tc  Tc10  1  0.168177  0.336353  0.750000  1
  Tc  Tc11  1  0.663647  0.831823  0.750000  1
