# generated using pymatgen
data_SrDy6RhI12
_symmetry_space_group_name_H-M   'P 1'
_cell_length_a   9.79217624
_cell_length_b   9.79217670
_cell_length_c   9.79217800
_cell_angle_alpha   106.27493392
_cell_angle_beta   106.27493470
_cell_angle_gamma   106.27493956
_symmetry_Int_Tables_number   1
_chemical_formula_structural   SrDy6RhI12
_chemical_formula_sum   'Sr1 Dy6 Rh1 I12'
_cell_volume   796.91876372
_cell_formula_units_Z   1
loop_
 _symmetry_equiv_pos_site_id
 _symmetry_equiv_pos_as_xyz
  1  'x, y, z'
loop_
 _atom_site_type_symbol
 _atom_site_label
 _atom_site_symmetry_multiplicity
 _atom_site_fract_x
 _atom_site_fract_y
 _atom_site_fract_z
 _atom_site_occupancy
  Sr  Sr0  1  0.500000  0.500000  0.500000  1
  Dy  Dy1  1  0.909038  0.982843  0.705379  1
  Dy  Dy2  1  0.705379  0.909038  0.982843  1
  Dy  Dy3  1  0.982843  0.705379  0.909038  1
  Dy  Dy4  1  0.090962  0.017157  0.294621  1
  Dy  Dy5  1  0.294621  0.090962  0.017157  1
  Dy  Dy6  1  0.017157  0.294621  0.090962  1
  Rh  Rh7  1  0.000000  0.000000  0.000000  1
  I  I8  1  0.924972  0.325696  0.774804  1
  I  I9  1  0.774804  0.924972  0.325696  1
  I  I10  1  0.325696  0.774804  0.924972  1
  I  I11  1  0.075028  0.674304  0.225196  1
  I  I12  1  0.225196  0.075028  0.674304  1
  I  I13  1  0.674304  0.225196  0.075028  1
  I  I14  1  0.553073  0.865441  0.633361  1
  I  I15  1  0.633361  0.553073  0.865441  1
  I  I16  1  0.865441  0.633361  0.553073  1
  I  I17  1  0.446927  0.134559  0.366639  1
  I  I18  1  0.366639  0.446927  0.134559  1
  I  I19  1  0.134559  0.366639  0.446927  1
