# generated using pymatgen
data_TbDy15In2(HgRh2)2
_symmetry_space_group_name_H-M   'P 1'
_cell_length_a   9.62906735
_cell_length_b   9.62924680
_cell_length_c   9.62948101
_cell_angle_alpha   59.99376788
_cell_angle_beta   59.99719434
_cell_angle_gamma   60.00368555
_symmetry_Int_Tables_number   1
_chemical_formula_structural   TbDy15In2(HgRh2)2
_chemical_formula_sum   'Tb1 Dy15 In2 Hg2 Rh4'
_cell_volume   631.31608054
_cell_formula_units_Z   1
loop_
 _symmetry_equiv_pos_site_id
 _symmetry_equiv_pos_as_xyz
  1  'x, y, z'
loop_
 _atom_site_type_symbol
 _atom_site_label
 _atom_site_symmetry_multiplicity
 _atom_site_fract_x
 _atom_site_fract_y
 _atom_site_fract_z
 _atom_site_occupancy
  Tb  Tb0  1  0.065247  0.437491  0.436371  1
  Dy  Dy1  1  0.809257  0.809388  0.190662  1
  Dy  Dy2  1  0.811506  0.189984  0.808775  1
  Dy  Dy3  1  0.189207  0.189153  0.810885  1
  Dy  Dy4  1  0.648574  0.051707  0.649878  1
  Dy  Dy5  1  0.063096  0.062992  0.436911  1
  Dy  Dy6  1  0.437340  0.437244  0.062651  1
  Dy  Dy7  1  0.649840  0.649976  0.650629  1
  Dy  Dy8  1  0.811540  0.190034  0.189723  1
  Dy  Dy9  1  0.190009  0.811560  0.808713  1
  Dy  Dy10  1  0.051707  0.648638  0.649900  1
  Dy  Dy11  1  0.437537  0.065204  0.060843  1
  Dy  Dy12  1  0.437628  0.065111  0.436394  1
  Dy  Dy13  1  0.065211  0.437532  0.060763  1
  Dy  Dy14  1  0.649942  0.649952  0.049520  1
  Dy  Dy15  1  0.190045  0.811621  0.189684  1
  In  In16  1  0.417849  0.745156  0.418508  1
  In  In17  1  0.745044  0.417865  0.418504  1
  Hg  Hg18  1  0.415205  0.415094  0.414512  1
  Hg  Hg19  1  0.415075  0.415085  0.755319  1
  Rh  Rh20  1  0.857587  0.426762  0.857878  1
  Rh  Rh21  1  0.857368  0.857374  0.857318  1
  Rh  Rh22  1  0.857380  0.857466  0.427860  1
  Rh  Rh23  1  0.426805  0.857612  0.857798  1
