# generated using pymatgen
data_Y5Ho3Sc11Si16Au
_symmetry_space_group_name_H-M   'P 1'
_cell_length_a   7.01307904
_cell_length_b   7.39014254
_cell_length_c   14.02235406
_cell_angle_alpha   89.99880517
_cell_angle_beta   90.01066715
_cell_angle_gamma   89.83491311
_symmetry_Int_Tables_number   1
_chemical_formula_structural   Y5Ho3Sc11Si16Au
_chemical_formula_sum   'Y5 Ho3 Sc11 Si16 Au1'
_cell_volume   726.74268192
_cell_formula_units_Z   1
loop_
 _symmetry_equiv_pos_site_id
 _symmetry_equiv_pos_as_xyz
  1  'x, y, z'
loop_
 _atom_site_type_symbol
 _atom_site_label
 _atom_site_symmetry_multiplicity
 _atom_site_fract_x
 _atom_site_fract_y
 _atom_site_fract_z
 _atom_site_occupancy
  Y  Y0  1  0.010539  0.174891  0.096267  1
  Y  Y1  1  0.991364  0.814937  0.901016  1
  Y  Y2  1  0.485275  0.672818  0.901393  1
  Y  Y3  1  0.991230  0.814852  0.598576  1
  Y  Y4  1  0.510135  0.323778  0.096362  1
  Ho  Ho5  1  0.011005  0.175517  0.403705  1
  Ho  Ho6  1  0.510368  0.323372  0.403697  1
  Ho  Ho7  1  0.484990  0.673126  0.598652  1
  Sc  Sc8  1  0.838479  0.497538  0.250321  1
  Sc  Sc9  1  0.340105  0.003239  0.250355  1
  Sc  Sc10  1  0.656785  0.997978  0.749743  1
  Sc  Sc11  1  0.324847  0.183262  0.626909  1
  Sc  Sc12  1  0.671200  0.823690  0.375219  1
  Sc  Sc13  1  0.170824  0.678434  0.374064  1
  Sc  Sc14  1  0.671174  0.823844  0.125177  1
  Sc  Sc15  1  0.836555  0.327914  0.626739  1
  Sc  Sc16  1  0.324793  0.183129  0.872768  1
  Sc  Sc17  1  0.836561  0.327941  0.872853  1
  Sc  Sc18  1  0.170681  0.678446  0.126277  1
  Si  Si19  1  0.026995  0.096754  0.749885  1
  Si  Si20  1  0.968907  0.887874  0.250344  1
  Si  Si21  1  0.467425  0.617447  0.250306  1
  Si  Si22  1  0.536084  0.384834  0.749720  1
  Si  Si23  1  0.288937  0.882869  0.749607  1
  Si  Si24  1  0.713608  0.128064  0.250674  1
  Si  Si25  1  0.212792  0.372191  0.250647  1
  Si  Si26  1  0.777837  0.628744  0.749626  1
  Si  Si27  1  0.162558  0.459084  0.530561  1
  Si  Si28  1  0.842403  0.534644  0.461879  1
  Si  Si29  1  0.344393  0.965584  0.462962  1
  Si  Si30  1  0.842990  0.535851  0.037896  1
  Si  Si31  1  0.657069  0.034130  0.540331  1
  Si  Si32  1  0.161538  0.459244  0.969305  1
  Si  Si33  1  0.657320  0.034197  0.959473  1
  Si  Si34  1  0.344754  0.964897  0.036962  1
  Au  Au35  1  0.157486  0.514884  0.749729  1
