# generated using pymatgen
data_Er8Tc3RuC8
_symmetry_space_group_name_H-M   'P 1'
_cell_length_a   5.04473300
_cell_length_b   6.50942177
_cell_length_c   9.76813334
_cell_angle_alpha   90.14789346
_cell_angle_beta   90.00000000
_cell_angle_gamma   90.00000000
_symmetry_Int_Tables_number   1
_chemical_formula_structural   Er8Tc3RuC8
_chemical_formula_sum   'Er8 Tc3 Ru1 C8'
_cell_volume   320.76777367
_cell_formula_units_Z   1
loop_
 _symmetry_equiv_pos_site_id
 _symmetry_equiv_pos_as_xyz
  1  'x, y, z'
loop_
 _atom_site_type_symbol
 _atom_site_label
 _atom_site_symmetry_multiplicity
 _atom_site_fract_x
 _atom_site_fract_y
 _atom_site_fract_z
 _atom_site_occupancy
  Er  Er0  1  0.250000  0.823893  0.942222  1
  Er  Er1  1  0.250000  0.323137  0.557679  1
  Er  Er2  1  0.750000  0.176293  0.057924  1
  Er  Er3  1  0.750000  0.672952  0.443203  1
  Er  Er4  1  0.250000  0.466100  0.216802  1
  Er  Er5  1  0.250000  0.967869  0.285099  1
  Er  Er6  1  0.750000  0.532248  0.781687  1
  Er  Er7  1  0.750000  0.032921  0.716335  1
  Tc  Tc8  1  0.250000  0.282980  0.868180  1
  Tc  Tc9  1  0.250000  0.782478  0.632317  1
  Tc  Tc10  1  0.750000  0.716693  0.133114  1
  Ru  Ru11  1  0.750000  0.217147  0.366585  1
  C  C12  1  0.250000  0.049851  0.741295  1
  C  C13  1  0.250000  0.549809  0.759016  1
  C  C14  1  0.750000  0.949968  0.257350  1
  C  C15  1  0.750000  0.451080  0.241027  1
  C  C16  1  0.250000  0.675907  0.446993  1
  C  C17  1  0.250000  0.176327  0.053001  1
  C  C18  1  0.750000  0.327320  0.551751  1
  C  C19  1  0.750000  0.825025  0.948426  1
