# generated using pymatgen
data_NbBSeBr12
_symmetry_space_group_name_H-M   'P 1'
_cell_length_a   9.76144113
_cell_length_b   9.76144053
_cell_length_c   7.08548891
_cell_angle_alpha   72.71042558
_cell_angle_beta   72.71042896
_cell_angle_gamma   76.70073905
_symmetry_Int_Tables_number   1
_chemical_formula_structural   NbBSeBr12
_chemical_formula_sum   'Nb1 B1 Se1 Br12'
_cell_volume   608.03016036
_cell_formula_units_Z   1
loop_
 _symmetry_equiv_pos_site_id
 _symmetry_equiv_pos_as_xyz
  1  'x, y, z'
loop_
 _atom_site_type_symbol
 _atom_site_label
 _atom_site_symmetry_multiplicity
 _atom_site_fract_x
 _atom_site_fract_y
 _atom_site_fract_z
 _atom_site_occupancy
  Nb  Nb0  1  0.999343  0.999343  0.002104  1
  B  B1  1  0.356758  0.356758  0.652218  1
  Se  Se2  1  0.732406  0.732406  0.259943  1
  Br  Br3  1  0.929981  0.233202  0.772432  1
  Br  Br4  1  0.233202  0.929981  0.772432  1
  Br  Br5  1  0.028377  0.738966  0.257437  1
  Br  Br6  1  0.738966  0.028377  0.257437  1
  Br  Br7  1  0.225639  0.498431  0.782365  1
  Br  Br8  1  0.498431  0.225639  0.782365  1
  Br  Br9  1  0.792800  0.493757  0.196258  1
  Br  Br10  1  0.493757  0.792800  0.196258  1
  Br  Br11  1  0.098530  0.098530  0.206408  1
  Br  Br12  1  0.867777  0.867777  0.843376  1
  Br  Br13  1  0.658028  0.658028  0.626303  1
  Br  Br14  1  0.346004  0.346004  0.392665  1
