# generated using pymatgen
data_Ho4ErIr2Ru
_symmetry_space_group_name_H-M   'P 1'
_cell_length_a   10.77381700
_cell_length_b   10.77381700
_cell_length_c   6.39952200
_cell_angle_alpha   90.00000000
_cell_angle_beta   90.00000000
_cell_angle_gamma   90.00000000
_symmetry_Int_Tables_number   1
_chemical_formula_structural   Ho4ErIr2Ru
_chemical_formula_sum   'Ho16 Er4 Ir8 Ru4'
_cell_volume   742.82536568
_cell_formula_units_Z   4
loop_
 _symmetry_equiv_pos_site_id
 _symmetry_equiv_pos_as_xyz
  1  'x, y, z'
loop_
 _atom_site_type_symbol
 _atom_site_label
 _atom_site_symmetry_multiplicity
 _atom_site_fract_x
 _atom_site_fract_y
 _atom_site_fract_z
 _atom_site_occupancy
  Ho  Ho0  1  0.293357  0.086388  0.377155  1
  Ho  Ho1  1  0.293357  0.913612  0.877155  1
  Ho  Ho2  1  0.706643  0.086388  0.877155  1
  Ho  Ho3  1  0.706643  0.913612  0.377155  1
  Ho  Ho4  1  0.586388  0.793357  0.877155  1
  Ho  Ho5  1  0.586388  0.206643  0.377155  1
  Ho  Ho6  1  0.413612  0.793357  0.377155  1
  Ho  Ho7  1  0.413612  0.206643  0.877155  1
  Ho  Ho8  1  0.206643  0.413612  0.622845  1
  Ho  Ho9  1  0.206643  0.586388  0.122845  1
  Ho  Ho10  1  0.793357  0.413612  0.122845  1
  Ho  Ho11  1  0.793357  0.586388  0.622845  1
  Ho  Ho12  1  0.913612  0.706643  0.122845  1
  Ho  Ho13  1  0.913612  0.293357  0.622845  1
  Ho  Ho14  1  0.086388  0.706643  0.622845  1
  Ho  Ho15  1  0.086388  0.293357  0.122845  1
  Er  Er16  1  0.000000  0.000000  0.500000  1
  Er  Er17  1  0.000000  0.000000  0.000000  1
  Er  Er18  1  0.500000  0.500000  0.000000  1
  Er  Er19  1  0.500000  0.500000  0.500000  1
  Ir  Ir20  1  0.847629  0.152371  0.250000  1
  Ir  Ir21  1  0.847629  0.847629  0.750000  1
  Ir  Ir22  1  0.152371  0.152371  0.750000  1
  Ir  Ir23  1  0.152371  0.847629  0.250000  1
  Ir  Ir24  1  0.652371  0.347629  0.750000  1
  Ir  Ir25  1  0.652371  0.652371  0.250000  1
  Ir  Ir26  1  0.347629  0.347629  0.250000  1
  Ir  Ir27  1  0.347629  0.652371  0.750000  1
  Ru  Ru28  1  0.500000  0.000000  0.121999  1
  Ru  Ru29  1  0.500000  0.000000  0.621999  1
  Ru  Ru30  1  0.000000  0.500000  0.878001  1
  Ru  Ru31  1  0.000000  0.500000  0.378001  1
