# generated using pymatgen
data_Li12Si4Ni3Pd
_symmetry_space_group_name_H-M   'P 1'
_cell_length_a   6.42253657
_cell_length_b   6.42253657
_cell_length_c   6.42253657
_cell_angle_alpha   90.24561784
_cell_angle_beta   90.24561784
_cell_angle_gamma   90.24561784
_symmetry_Int_Tables_number   1
_chemical_formula_structural   Li12Si4Ni3Pd
_chemical_formula_sum   'Li12 Si4 Ni3 Pd1'
_cell_volume   264.91573317
_cell_formula_units_Z   1
loop_
 _symmetry_equiv_pos_site_id
 _symmetry_equiv_pos_as_xyz
  1  'x, y, z'
loop_
 _atom_site_type_symbol
 _atom_site_label
 _atom_site_symmetry_multiplicity
 _atom_site_fract_x
 _atom_site_fract_y
 _atom_site_fract_z
 _atom_site_occupancy
  Li  Li0  1  0.125127  0.200773  0.452563  1
  Li  Li1  1  0.372510  0.799807  0.954841  1
  Li  Li2  1  0.876051  0.700686  0.048625  1
  Li  Li3  1  0.452563  0.125127  0.200773  1
  Li  Li4  1  0.625364  0.297818  0.545999  1
  Li  Li5  1  0.954841  0.372510  0.799807  1
  Li  Li6  1  0.048625  0.876051  0.700686  1
  Li  Li7  1  0.545999  0.625364  0.297818  1
  Li  Li8  1  0.200773  0.452563  0.125127  1
  Li  Li9  1  0.700686  0.048625  0.876051  1
  Li  Li10  1  0.297818  0.545999  0.625364  1
  Li  Li11  1  0.799807  0.954841  0.372510  1
  Si  Si12  1  0.067751  0.067751  0.067751  1
  Si  Si13  1  0.423318  0.941824  0.563850  1
  Si  Si14  1  0.941824  0.563850  0.423318  1
  Si  Si15  1  0.563850  0.423318  0.941824  1
  Ni  Ni16  1  0.822116  0.319931  0.178435  1
  Ni  Ni17  1  0.319931  0.178435  0.822116  1
  Ni  Ni18  1  0.178435  0.822116  0.319931  1
  Pd  Pd19  1  0.682609  0.682609  0.682609  1
