# generated using pymatgen
data_Lu8Ti10VSi16Mo
_symmetry_space_group_name_H-M   'P 1'
_cell_length_a   6.75669000
_cell_length_b   6.93018846
_cell_length_c   13.18279500
_cell_angle_alpha   90.00000000
_cell_angle_beta   90.00000000
_cell_angle_gamma   90.06668667
_symmetry_Int_Tables_number   1
_chemical_formula_structural   Lu8Ti10VSi16Mo
_chemical_formula_sum   'Lu8 Ti10 V1 Si16 Mo1'
_cell_volume   617.28573874
_cell_formula_units_Z   1
loop_
 _symmetry_equiv_pos_site_id
 _symmetry_equiv_pos_as_xyz
  1  'x, y, z'
loop_
 _atom_site_type_symbol
 _atom_site_label
 _atom_site_symmetry_multiplicity
 _atom_site_fract_x
 _atom_site_fract_y
 _atom_site_fract_z
 _atom_site_occupancy
  Lu  Lu0  1  0.502169  0.328205  0.097134  1
  Lu  Lu1  1  0.001048  0.173108  0.402757  1
  Lu  Lu2  1  0.498144  0.672252  0.594840  1
  Lu  Lu3  1  0.998164  0.827951  0.905175  1
  Lu  Lu4  1  0.498144  0.672252  0.905160  1
  Lu  Lu5  1  0.998164  0.827951  0.594825  1
  Lu  Lu6  1  0.502169  0.328205  0.402866  1
  Lu  Lu7  1  0.001048  0.173108  0.097243  1
  Ti  Ti8  1  0.835164  0.326498  0.626661  1
  Ti  Ti9  1  0.335312  0.173927  0.873660  1
  Ti  Ti10  1  0.165597  0.672995  0.127181  1
  Ti  Ti11  1  0.665686  0.826122  0.373076  1
  Ti  Ti12  1  0.165597  0.672995  0.372819  1
  Ti  Ti13  1  0.665686  0.826122  0.126924  1
  Ti  Ti14  1  0.835164  0.326498  0.873339  1
  Ti  Ti15  1  0.335312  0.173927  0.626340  1
  Ti  Ti16  1  0.663761  0.008478  0.750000  1
  Ti  Ti17  1  0.163992  0.492015  0.750000  1
  V  V18  1  0.337280  0.987706  0.250000  1
  Si  Si19  1  0.661236  0.038129  0.540517  1
  Si  Si20  1  0.161387  0.461804  0.959235  1
  Si  Si21  1  0.338334  0.962046  0.043044  1
  Si  Si22  1  0.838464  0.538507  0.457683  1
  Si  Si23  1  0.338334  0.962046  0.456956  1
  Si  Si24  1  0.838464  0.538507  0.042317  1
  Si  Si25  1  0.661236  0.038129  0.959483  1
  Si  Si26  1  0.161387  0.461804  0.540765  1
  Si  Si27  1  0.537036  0.376397  0.750000  1
  Si  Si28  1  0.037832  0.123964  0.750000  1
  Si  Si29  1  0.462249  0.625072  0.250000  1
  Si  Si30  1  0.964539  0.877880  0.250000  1
  Si  Si31  1  0.797220  0.629193  0.750000  1
  Si  Si32  1  0.296753  0.870924  0.750000  1
  Si  Si33  1  0.202481  0.369260  0.250000  1
  Si  Si34  1  0.698481  0.126822  0.250000  1
  Mo  Mo35  1  0.836972  0.509200  0.250000  1
