# generated using pymatgen
data_Pr3Nd(CuSn4)2
_symmetry_space_group_name_H-M   'P 1'
_cell_length_a   4.51367400
_cell_length_b   9.06984140
_cell_length_c   17.78603277
_cell_angle_alpha   89.96616101
_cell_angle_beta   90.00000000
_cell_angle_gamma   90.00000000
_symmetry_Int_Tables_number   1
_chemical_formula_structural   Pr3Nd(CuSn4)2
_chemical_formula_sum   'Pr6 Nd2 Cu4 Sn16'
_cell_volume   728.12994826
_cell_formula_units_Z   2
loop_
 _symmetry_equiv_pos_site_id
 _symmetry_equiv_pos_as_xyz
  1  'x, y, z'
loop_
 _atom_site_type_symbol
 _atom_site_label
 _atom_site_symmetry_multiplicity
 _atom_site_fract_x
 _atom_site_fract_y
 _atom_site_fract_z
 _atom_site_occupancy
  Pr  Pr0  1  0.250000  0.610263  0.646950  1
  Pr  Pr1  1  0.250000  0.366550  0.147199  1
  Pr  Pr2  1  0.250000  0.889773  0.147444  1
  Pr  Pr3  1  0.750000  0.110232  0.852783  1
  Pr  Pr4  1  0.750000  0.633455  0.853061  1
  Pr  Pr5  1  0.250000  0.133515  0.646646  1
  Nd  Nd6  1  0.750000  0.866361  0.353227  1
  Nd  Nd7  1  0.750000  0.389935  0.352826  1
  Cu  Cu8  1  0.750000  0.357449  0.569279  1
  Cu  Cu9  1  0.250000  0.642901  0.430568  1
  Cu  Cu10  1  0.750000  0.142496  0.069426  1
  Cu  Cu11  1  0.250000  0.857446  0.930625  1
  Sn  Sn12  1  0.250000  0.608833  0.007220  1
  Sn  Sn13  1  0.750000  0.868373  0.009225  1
  Sn  Sn14  1  0.750000  0.627251  0.178411  1
  Sn  Sn15  1  0.250000  0.127091  0.322173  1
  Sn  Sn16  1  0.750000  0.391146  0.992878  1
  Sn  Sn17  1  0.750000  0.372247  0.713825  1
  Sn  Sn18  1  0.750000  0.631578  0.508936  1
  Sn  Sn19  1  0.250000  0.872226  0.786131  1
  Sn  Sn20  1  0.750000  0.108686  0.492456  1
  Sn  Sn21  1  0.250000  0.372735  0.821698  1
  Sn  Sn22  1  0.750000  0.127800  0.214165  1
  Sn  Sn23  1  0.250000  0.368429  0.490344  1
  Sn  Sn24  1  0.250000  0.627700  0.286441  1
  Sn  Sn25  1  0.750000  0.872756  0.678279  1
  Sn  Sn26  1  0.250000  0.891156  0.506923  1
  Sn  Sn27  1  0.250000  0.131617  0.990860  1
