# generated using pymatgen
data_KIrOF4
_symmetry_space_group_name_H-M   'P 1'
_cell_length_a   5.08435451
_cell_length_b   5.08435449
_cell_length_c   6.69716940
_cell_angle_alpha   113.46850913
_cell_angle_beta   113.46850877
_cell_angle_gamma   42.74227811
_symmetry_Int_Tables_number   1
_chemical_formula_structural   KIrOF4
_chemical_formula_sum   'K1 Ir1 O1 F4'
_cell_volume   106.21443286
_cell_formula_units_Z   1
loop_
 _symmetry_equiv_pos_site_id
 _symmetry_equiv_pos_as_xyz
  1  'x, y, z'
loop_
 _atom_site_type_symbol
 _atom_site_label
 _atom_site_symmetry_multiplicity
 _atom_site_fract_x
 _atom_site_fract_y
 _atom_site_fract_z
 _atom_site_occupancy
  K  K0  1  0.997795  0.002205  0.000000  1
  Ir  Ir1  1  0.500387  0.499612  0.500000  1
  O  O2  1  0.000328  0.999672  0.500000  1
  F  F3  1  0.331838  0.331122  0.198485  1
  F  F4  1  0.630398  0.630315  0.337137  1
  F  F5  1  0.369685  0.369601  0.662864  1
  F  F6  1  0.668878  0.668162  0.801515  1
