# generated using pymatgen
data_Pr5Nd7Fe2Br17
_symmetry_space_group_name_H-M   'P 1'
_cell_length_a   9.53249085
_cell_length_b   11.55975142
_cell_length_c   11.58810266
_cell_angle_alpha   73.91811279
_cell_angle_beta   75.11366261
_cell_angle_gamma   65.10607651
_symmetry_Int_Tables_number   1
_chemical_formula_structural   Pr5Nd7Fe2Br17
_chemical_formula_sum   'Pr5 Nd7 Fe2 Br17'
_cell_volume   1098.44823808
_cell_formula_units_Z   1
loop_
 _symmetry_equiv_pos_site_id
 _symmetry_equiv_pos_as_xyz
  1  'x, y, z'
loop_
 _atom_site_type_symbol
 _atom_site_label
 _atom_site_symmetry_multiplicity
 _atom_site_fract_x
 _atom_site_fract_y
 _atom_site_fract_z
 _atom_site_occupancy
  Pr  Pr0  1  0.456779  0.482352  0.322486  1
  Pr  Pr1  1  0.560720  0.672342  0.003364  1
  Pr  Pr2  1  0.264536  0.994211  0.107044  1
  Pr  Pr3  1  0.864346  0.286853  0.852599  1
  Pr  Pr4  1  0.404344  0.240298  0.715276  1
  Nd  Nd5  1  0.735302  0.005350  0.893516  1
  Nd  Nd6  1  0.542822  0.518849  0.677606  1
  Nd  Nd7  1  0.438805  0.327539  0.997284  1
  Nd  Nd8  1  0.597209  0.760115  0.285636  1
  Nd  Nd9  1  0.830120  0.190901  0.576004  1
  Nd  Nd10  1  0.171217  0.808527  0.421966  1
  Nd  Nd11  1  0.133167  0.712571  0.147712  1
  Fe  Fe12  1  0.365216  0.738736  0.213045  1
  Fe  Fe13  1  0.634364  0.261472  0.787214  1
  Br  Br14  1  0.055164  0.096563  0.328026  1
  Br  Br15  1  0.467649  0.952062  0.849661  1
  Br  Br16  1  0.424032  0.812517  0.531643  1
  Br  Br17  1  0.578042  0.185790  0.468399  1
  Br  Br18  1  0.838394  0.707436  0.051207  1
  Br  Br19  1  0.222097  0.425428  0.240397  1
  Br  Br20  1  0.677772  0.373114  0.097529  1
  Br  Br21  1  0.535188  0.048493  0.149321  1
  Br  Br22  1  0.733301  0.474688  0.423025  1
  Br  Br23  1  0.892832  0.785937  0.362562  1
  Br  Br24  1  0.943281  0.904195  0.673663  1
  Br  Br25  1  0.162147  0.294404  0.949513  1
  Br  Br26  1  0.321034  0.625154  0.902402  1
  Br  Br27  1  0.998883  0.999437  0.999573  1
  Br  Br28  1  0.107149  0.213498  0.636285  1
  Br  Br29  1  0.776630  0.574841  0.757095  1
  Br  Br30  1  0.267457  0.526326  0.578945  1
