# generated using pymatgen
data_Hf6Zn16Au7C
_symmetry_space_group_name_H-M   'P 1'
_cell_length_a   8.82108793
_cell_length_b   8.83163091
_cell_length_c   8.83163100
_cell_angle_alpha   59.99999591
_cell_angle_beta   59.96045108
_cell_angle_gamma   59.96044213
_symmetry_Int_Tables_number   1
_chemical_formula_structural   Hf6Zn16Au7C
_chemical_formula_sum   'Hf6 Zn16 Au7 C1'
_cell_volume   486.21579655
_cell_formula_units_Z   1
loop_
 _symmetry_equiv_pos_site_id
 _symmetry_equiv_pos_as_xyz
  1  'x, y, z'
loop_
 _atom_site_type_symbol
 _atom_site_label
 _atom_site_symmetry_multiplicity
 _atom_site_fract_x
 _atom_site_fract_y
 _atom_site_fract_z
 _atom_site_occupancy
  Hf  Hf0  1  0.687768  0.312927  0.312927  1
  Hf  Hf1  1  0.312022  0.685245  0.685245  1
  Hf  Hf2  1  0.312023  0.685244  0.317488  1
  Hf  Hf3  1  0.687772  0.312924  0.686379  1
  Hf  Hf4  1  0.312023  0.317488  0.685244  1
  Hf  Hf5  1  0.687772  0.686379  0.312924  1
  Zn  Zn6  1  0.358969  0.880343  0.880343  1
  Zn  Zn7  1  0.499151  0.998347  0.998347  1
  Zn  Zn8  1  0.999398  0.499413  0.499413  1
  Zn  Zn9  1  0.999398  0.499413  0.001776  1
  Zn  Zn10  1  0.499151  0.998348  0.504154  1
  Zn  Zn11  1  0.999398  0.001776  0.499413  1
  Zn  Zn12  1  0.499151  0.504154  0.998348  1
  Zn  Zn13  1  0.335767  0.334822  0.334822  1
  Zn  Zn14  1  0.663190  0.666315  0.666315  1
  Zn  Zn15  1  0.335766  0.334822  0.994591  1
  Zn  Zn16  1  0.335766  0.994591  0.334822  1
  Zn  Zn17  1  0.663190  0.666315  0.004179  1
  Zn  Zn18  1  0.663190  0.004179  0.666315  1
  Zn  Zn19  1  0.996690  0.334437  0.334437  1
  Zn  Zn20  1  0.002581  0.665806  0.665806  1
  Zn  Zn21  1  0.999349  0.000217  0.000217  1
  Au  Au22  1  0.126055  0.117231  0.117231  1
  Au  Au23  1  0.878496  0.878905  0.878905  1
  Au  Au24  1  0.126056  0.117231  0.639485  1
  Au  Au25  1  0.126056  0.639485  0.117231  1
  Au  Au26  1  0.878496  0.878905  0.363693  1
  Au  Au27  1  0.878496  0.363693  0.878905  1
  Au  Au28  1  0.633399  0.122200  0.122200  1
  C  C29  1  0.503465  0.498845  0.498845  1
