# generated using pymatgen
data_Ho10IrOsRh2
_symmetry_space_group_name_H-M   'P 1'
_cell_length_a   6.41887734
_cell_length_b   7.21658697
_cell_length_c   8.45997258
_cell_angle_alpha   96.61902803
_cell_angle_beta   111.88270044
_cell_angle_gamma   90.02322835
_symmetry_Int_Tables_number   1
_chemical_formula_structural   Ho10IrOsRh2
_chemical_formula_sum   'Ho10 Ir1 Os1 Rh2'
_cell_volume   360.82637380
_cell_formula_units_Z   1
loop_
 _symmetry_equiv_pos_site_id
 _symmetry_equiv_pos_as_xyz
  1  'x, y, z'
loop_
 _atom_site_type_symbol
 _atom_site_label
 _atom_site_symmetry_multiplicity
 _atom_site_fract_x
 _atom_site_fract_y
 _atom_site_fract_z
 _atom_site_occupancy
  Ho  Ho0  1  0.977073  0.917204  0.184975  1
  Ho  Ho1  1  0.790284  0.581841  0.812945  1
  Ho  Ho2  1  0.024979  0.083757  0.813964  1
  Ho  Ho3  1  0.208225  0.416351  0.179970  1
  Ho  Ho4  1  0.650163  0.817495  0.438083  1
  Ho  Ho5  1  0.211713  0.681309  0.562586  1
  Ho  Ho6  1  0.347566  0.184437  0.561736  1
  Ho  Ho7  1  0.791794  0.316474  0.441429  1
  Ho  Ho8  1  0.422252  0.749551  0.999451  1
  Ho  Ho9  1  0.573611  0.250251  0.999660  1
  Ir  Ir10  1  0.397565  0.074549  0.222160  1
  Os  Os11  1  0.176906  0.425711  0.783030  1
  Rh  Rh12  1  0.823180  0.575664  0.219699  1
  Rh  Rh13  1  0.604687  0.925404  0.780312  1
