# generated using pymatgen
data_La3YCd2CuNi3
_symmetry_space_group_name_H-M   'P 1'
_cell_length_a   7.64484498
_cell_length_b   7.64484511
_cell_length_c   3.82065100
_cell_angle_alpha   90.00000000
_cell_angle_beta   90.00000000
_cell_angle_gamma   88.85837098
_symmetry_Int_Tables_number   1
_chemical_formula_structural   La3YCd2CuNi3
_chemical_formula_sum   'La3 Y1 Cd2 Cu1 Ni3'
_cell_volume   223.24848831
_cell_formula_units_Z   1
loop_
 _symmetry_equiv_pos_site_id
 _symmetry_equiv_pos_as_xyz
  1  'x, y, z'
loop_
 _atom_site_type_symbol
 _atom_site_label
 _atom_site_symmetry_multiplicity
 _atom_site_fract_x
 _atom_site_fract_y
 _atom_site_fract_z
 _atom_site_occupancy
  La  La0  1  0.676280  0.176280  0.500000  1
  La  La1  1  0.174350  0.311983  0.500000  1
  La  La2  1  0.811983  0.674350  0.500000  1
  Y  Y3  1  0.334156  0.834156  0.500000  1
  Cd  Cd4  1  0.006971  0.989624  0.000000  1
  Cd  Cd5  1  0.489624  0.506971  0.000000  1
  Cu  Cu6  1  0.123567  0.623567  0.000000  1
  Ni  Ni7  1  0.885226  0.385226  0.000000  1
  Ni  Ni8  1  0.616205  0.881638  0.000000  1
  Ni  Ni9  1  0.381638  0.116205  0.000000  1
