# generated using pymatgen
data_Ho20Bi8Ir3Rh
_symmetry_space_group_name_H-M   'P 1'
_cell_length_a   7.98553467
_cell_length_b   8.99297000
_cell_length_c   12.47699905
_cell_angle_alpha   90.00000000
_cell_angle_beta   89.95301569
_cell_angle_gamma   90.00000000
_symmetry_Int_Tables_number   1
_chemical_formula_structural   Ho20Bi8Ir3Rh
_chemical_formula_sum   'Ho20 Bi8 Ir3 Rh1'
_cell_volume   896.01883758
_cell_formula_units_Z   1
loop_
 _symmetry_equiv_pos_site_id
 _symmetry_equiv_pos_as_xyz
  1  'x, y, z'
loop_
 _atom_site_type_symbol
 _atom_site_label
 _atom_site_symmetry_multiplicity
 _atom_site_fract_x
 _atom_site_fract_y
 _atom_site_fract_z
 _atom_site_occupancy
  Ho  Ho0  1  0.839246  0.750000  0.794032  1
  Ho  Ho1  1  0.160860  0.250000  0.206103  1
  Ho  Ho2  1  0.338975  0.250000  0.706054  1
  Ho  Ho3  1  0.660986  0.750000  0.293725  1
  Ho  Ho4  1  0.375419  0.750000  0.691107  1
  Ho  Ho5  1  0.624258  0.250000  0.308881  1
  Ho  Ho6  1  0.875823  0.250000  0.808591  1
  Ho  Ho7  1  0.124181  0.750000  0.191395  1
  Ho  Ho8  1  0.949862  0.750000  0.501671  1
  Ho  Ho9  1  0.052120  0.250000  0.498458  1
  Ho  Ho10  1  0.447318  0.250000  0.998316  1
  Ho  Ho11  1  0.552698  0.750000  0.001562  1
  Ho  Ho12  1  0.676021  0.043139  0.566164  1
  Ho  Ho13  1  0.323350  0.958753  0.433694  1
  Ho  Ho14  1  0.175894  0.957820  0.933753  1
  Ho  Ho15  1  0.323350  0.541247  0.433694  1
  Ho  Ho16  1  0.824045  0.041928  0.066163  1
  Ho  Ho17  1  0.676021  0.456861  0.566164  1
  Ho  Ho18  1  0.824045  0.458072  0.066163  1
  Ho  Ho19  1  0.175894  0.542180  0.933753  1
  Bi  Bi20  1  0.566597  0.491482  0.826537  1
  Bi  Bi21  1  0.433386  0.508612  0.173392  1
  Bi  Bi22  1  0.066577  0.508622  0.673384  1
  Bi  Bi23  1  0.433386  0.991388  0.173392  1
  Bi  Bi24  1  0.933186  0.491653  0.326715  1
  Bi  Bi25  1  0.566597  0.008518  0.826537  1
  Bi  Bi26  1  0.933186  0.008347  0.326715  1
  Bi  Bi27  1  0.066577  0.991378  0.673384  1
  Ir  Ir28  1  0.428693  0.250000  0.491149  1
  Ir  Ir29  1  0.071548  0.250000  0.991304  1
  Ir  Ir30  1  0.928304  0.750000  0.008849  1
  Rh  Rh31  1  0.571595  0.750000  0.509201  1
