# generated using pymatgen
data_Tm7LuIn4HgAu7
_symmetry_space_group_name_H-M   'P 1'
_cell_length_a   7.96603384
_cell_length_b   7.96603313
_cell_length_c   7.29642901
_cell_angle_alpha   90.03926790
_cell_angle_beta   89.96073093
_cell_angle_gamma   89.98184719
_symmetry_Int_Tables_number   1
_chemical_formula_structural   Tm7LuIn4HgAu7
_chemical_formula_sum   'Tm7 Lu1 In4 Hg1 Au7'
_cell_volume   463.01428588
_cell_formula_units_Z   1
loop_
 _symmetry_equiv_pos_site_id
 _symmetry_equiv_pos_as_xyz
  1  'x, y, z'
loop_
 _atom_site_type_symbol
 _atom_site_label
 _atom_site_symmetry_multiplicity
 _atom_site_fract_x
 _atom_site_fract_y
 _atom_site_fract_z
 _atom_site_occupancy
  Tm  Tm0  1  0.158998  0.841002  0.499057  1
  Tm  Tm1  1  0.337517  0.342960  0.995366  1
  Tm  Tm2  1  0.657040  0.662483  0.995366  1
  Tm  Tm3  1  0.680458  0.686973  0.504011  1
  Tm  Tm4  1  0.313027  0.319542  0.504011  1
  Tm  Tm5  1  0.181090  0.818910  0.000694  1
  Tm  Tm6  1  0.822537  0.177463  0.995544  1
  Lu  Lu7  1  0.846343  0.153657  0.504456  1
  In  In8  1  0.498285  0.996215  0.248696  1
  In  In9  1  0.998364  0.501187  0.751782  1
  In  In10  1  0.498813  0.001636  0.751782  1
  In  In11  1  0.003785  0.501715  0.248696  1
  Hg  Hg12  1  0.630268  0.369732  0.276544  1
  Au  Au13  1  0.371732  0.628268  0.271958  1
  Au  Au14  1  0.129579  0.127200  0.772222  1
  Au  Au15  1  0.872800  0.870421  0.772222  1
  Au  Au16  1  0.370601  0.629399  0.726817  1
  Au  Au17  1  0.629271  0.370729  0.725361  1
  Au  Au18  1  0.870361  0.870870  0.227706  1
  Au  Au19  1  0.129130  0.129639  0.227706  1
