# generated using pymatgen
data_Ti8FeBi4P
_symmetry_space_group_name_H-M   'P 1'
_cell_length_a   7.84672730
_cell_length_b   7.84672615
_cell_length_c   7.84672642
_cell_angle_alpha   95.56858434
_cell_angle_beta   95.56858454
_cell_angle_gamma   143.69975589
_symmetry_Int_Tables_number   1
_chemical_formula_structural   Ti8FeBi4P
_chemical_formula_sum   'Ti8 Fe1 Bi4 P1'
_cell_volume   271.79056210
_cell_formula_units_Z   1
loop_
 _symmetry_equiv_pos_site_id
 _symmetry_equiv_pos_as_xyz
  1  'x, y, z'
loop_
 _atom_site_type_symbol
 _atom_site_label
 _atom_site_symmetry_multiplicity
 _atom_site_fract_x
 _atom_site_fract_y
 _atom_site_fract_z
 _atom_site_occupancy
  Ti  Ti0  1  0.582254  0.695331  0.273110  1
  Ti  Ti1  1  0.917746  0.190856  0.113078  1
  Ti  Ti2  1  0.309144  0.582254  0.886922  1
  Ti  Ti3  1  0.804669  0.917746  0.726890  1
  Ti  Ti4  1  0.695331  0.422222  0.113078  1
  Ti  Ti5  1  0.077778  0.804669  0.886922  1
  Ti  Ti6  1  0.422222  0.309144  0.726890  1
  Ti  Ti7  1  0.190856  0.077778  0.273110  1
  Fe  Fe8  1  0.250000  0.250000  0.000000  1
  Bi  Bi9  1  0.359782  0.859782  0.219565  1
  Bi  Bi10  1  0.140218  0.359782  0.500000  1
  Bi  Bi11  1  0.640218  0.140218  0.780435  1
  Bi  Bi12  1  0.859782  0.640218  0.500000  1
  P  P13  1  0.750000  0.750000  0.000000  1
