# generated using pymatgen
data_Zr2CoN3
_symmetry_space_group_name_H-M   'P 1'
_cell_length_a   6.32715323
_cell_length_b   3.13260878
_cell_length_c   11.72017000
_cell_angle_alpha   90.00000000
_cell_angle_beta   22.15297981
_cell_angle_gamma   75.66726465
_symmetry_Int_Tables_number   1
_chemical_formula_structural   Zr2CoN3
_chemical_formula_sum   'Zr2 Co1 N3'
_cell_volume   66.07592543
_cell_formula_units_Z   1
loop_
 _symmetry_equiv_pos_site_id
 _symmetry_equiv_pos_as_xyz
  1  'x, y, z'
loop_
 _atom_site_type_symbol
 _atom_site_label
 _atom_site_symmetry_multiplicity
 _atom_site_fract_x
 _atom_site_fract_y
 _atom_site_fract_z
 _atom_site_occupancy
  Zr  Zr0  1  0.000000  0.000000  0.644262  1
  Zr  Zr1  1  0.000000  0.000000  0.355738  1
  Co  Co2  1  0.000000  0.000000  0.000000  1
  N  N3  1  0.000000  0.500000  0.500000  1
  N  N4  1  0.000000  0.000000  0.832172  1
  N  N5  1  0.000000  0.000000  0.167828  1
