# generated using pymatgen
data_Tb3AlHg2Au3
_symmetry_space_group_name_H-M   'P 1'
_cell_length_a   7.83177884
_cell_length_b   7.64206783
_cell_length_c   3.89855300
_cell_angle_alpha   90.00000000
_cell_angle_beta   90.00000000
_cell_angle_gamma   119.20189036
_symmetry_Int_Tables_number   1
_chemical_formula_structural   Tb3AlHg2Au3
_chemical_formula_sum   'Tb3 Al1 Hg2 Au3'
_cell_volume   203.67710583
_cell_formula_units_Z   1
loop_
 _symmetry_equiv_pos_site_id
 _symmetry_equiv_pos_as_xyz
  1  'x, y, z'
loop_
 _atom_site_type_symbol
 _atom_site_label
 _atom_site_symmetry_multiplicity
 _atom_site_fract_x
 _atom_site_fract_y
 _atom_site_fract_z
 _atom_site_occupancy
  Tb  Tb0  1  0.410230  0.400826  0.500000  1
  Tb  Tb1  1  0.589770  0.990596  0.500000  1
  Tb  Tb2  1  0.000000  0.606585  0.500000  1
  Al  Al3  1  0.000000  0.261854  0.000000  1
  Hg  Hg4  1  0.730781  0.734339  0.000000  1
  Hg  Hg5  1  0.269219  0.003559  0.000000  1
  Au  Au6  1  0.688722  0.327037  0.000000  1
  Au  Au7  1  0.311278  0.638317  0.000000  1
  Au  Au8  1  0.000000  0.036885  0.500000  1
