# generated using pymatgen
data_Tb3ErSn5SbRh7
_symmetry_space_group_name_H-M   'P 1'
_cell_length_a   7.62965404
_cell_length_b   7.61623024
_cell_length_c   7.61735558
_cell_angle_alpha   109.36865201
_cell_angle_beta   109.44017430
_cell_angle_gamma   109.63454826
_symmetry_Int_Tables_number   1
_chemical_formula_structural   Tb3ErSn5SbRh7
_chemical_formula_sum   'Tb3 Er1 Sn5 Sb1 Rh7'
_cell_volume   340.61676005
_cell_formula_units_Z   1
loop_
 _symmetry_equiv_pos_site_id
 _symmetry_equiv_pos_as_xyz
  1  'x, y, z'
loop_
 _atom_site_type_symbol
 _atom_site_label
 _atom_site_symmetry_multiplicity
 _atom_site_fract_x
 _atom_site_fract_y
 _atom_site_fract_z
 _atom_site_occupancy
  Tb  Tb0  1  0.998620  0.495969  0.000000  1
  Tb  Tb1  1  0.998686  0.998696  0.502676  1
  Tb  Tb2  1  0.496011  0.496020  0.497324  1
  Er  Er3  1  0.495905  0.998499  0.000000  1
  Sn  Sn4  1  0.996298  0.313254  0.316231  1
  Sn  Sn5  1  0.680067  0.997023  0.683769  1
  Sn  Sn6  1  0.690539  0.691483  0.000000  1
  Sn  Sn7  1  0.998031  0.681015  0.683791  1
  Sn  Sn8  1  0.314240  0.997224  0.316209  1
  Sb  Sb9  1  0.321683  0.320795  0.000000  1
  Rh  Rh10  1  0.008168  0.008079  0.000000  1
  Rh  Rh11  1  0.501578  0.750879  0.248511  1
  Rh  Rh12  1  0.749898  0.500638  0.248516  1
  Rh  Rh13  1  0.248382  0.748437  0.500939  1
  Rh  Rh14  1  0.253068  0.502368  0.751489  1
  Rh  Rh15  1  0.501382  0.252123  0.751484  1
  Rh  Rh16  1  0.747444  0.247499  0.499061  1
