# generated using pymatgen
data_CaLaY5OsBr12
_symmetry_space_group_name_H-M   'P 1'
_cell_length_a   9.24564243
_cell_length_b   9.39331138
_cell_length_c   9.44135317
_cell_angle_alpha   106.75324136
_cell_angle_beta   106.67445659
_cell_angle_gamma   107.32515329
_symmetry_Int_Tables_number   1
_chemical_formula_structural   CaLaY5OsBr12
_chemical_formula_sum   'Ca1 La1 Y5 Os1 Br12'
_cell_volume   684.37484605
_cell_formula_units_Z   1
loop_
 _symmetry_equiv_pos_site_id
 _symmetry_equiv_pos_as_xyz
  1  'x, y, z'
loop_
 _atom_site_type_symbol
 _atom_site_label
 _atom_site_symmetry_multiplicity
 _atom_site_fract_x
 _atom_site_fract_y
 _atom_site_fract_z
 _atom_site_occupancy
  Ca  Ca0  1  0.501272  0.499482  0.498136  1
  La  La1  1  0.693407  0.899748  0.974020  1
  Y  Y2  1  0.297711  0.099382  0.026624  1
  Y  Y3  1  0.027008  0.320754  0.106020  1
  Y  Y4  1  0.108520  0.028255  0.319394  1
  Y  Y5  1  0.896917  0.972941  0.683525  1
  Y  Y6  1  0.970516  0.679532  0.893889  1
  Os  Os7  1  0.988950  0.996791  0.001047  1
  Br  Br8  1  0.685899  0.236265  0.075367  1
  Br  Br9  1  0.378156  0.451050  0.157678  1
  Br  Br10  1  0.070704  0.679714  0.217411  1
  Br  Br11  1  0.789820  0.933685  0.332429  1
  Br  Br12  1  0.454826  0.157100  0.374135  1
  Br  Br13  1  0.157175  0.377369  0.453768  1
  Br  Br14  1  0.846923  0.623477  0.547346  1
  Br  Br15  1  0.544160  0.838714  0.606769  1
  Br  Br16  1  0.222935  0.071194  0.686899  1
  Br  Br17  1  0.932960  0.321480  0.783648  1
  Br  Br18  1  0.620396  0.530666  0.830943  1
  Br  Br19  1  0.311750  0.782403  0.930956  1
