# generated using pymatgen
data_Li4Hf7Zr(AsO4)12
_symmetry_space_group_name_H-M   'P 1'
_cell_length_a   9.26503857
_cell_length_b   9.23770925
_cell_length_c   15.79152782
_cell_angle_alpha   54.90234933
_cell_angle_beta   90.02462733
_cell_angle_gamma   89.98832421
_symmetry_Int_Tables_number   1
_chemical_formula_structural   Li4Hf7Zr(AsO4)12
_chemical_formula_sum   'Li4 Hf7 Zr1 As12 O48'
_cell_volume   1105.81089380
_cell_formula_units_Z   1
loop_
 _symmetry_equiv_pos_site_id
 _symmetry_equiv_pos_as_xyz
  1  'x, y, z'
loop_
 _atom_site_type_symbol
 _atom_site_label
 _atom_site_symmetry_multiplicity
 _atom_site_fract_x
 _atom_site_fract_y
 _atom_site_fract_z
 _atom_site_occupancy
  Li  Li0  1  0.722715  0.977254  0.815505  1
  Li  Li1  1  0.777004  0.977651  0.315189  1
  Li  Li2  1  0.276824  0.022647  0.184603  1
  Li  Li3  1  0.224065  0.021679  0.685116  1
  Hf  Hf4  1  0.961254  0.141152  0.112308  1
  Hf  Hf5  1  0.538849  0.142267  0.611388  1
  Hf  Hf6  1  0.038647  0.857890  0.888427  1
  Hf  Hf7  1  0.461389  0.858573  0.388028  1
  Hf  Hf8  1  0.523321  0.369382  0.879986  1
  Hf  Hf9  1  0.976381  0.370539  0.379182  1
  Hf  Hf10  1  0.476476  0.630206  0.120341  1
  Zr  Zr11  1  0.023043  0.628677  0.621644  1
  As  As12  1  0.602786  0.966717  0.144230  1
  As  As13  1  0.897429  0.969413  0.643872  1
  As  As14  1  0.397135  0.033455  0.855983  1
  As  As15  1  0.102940  0.034929  0.355319  1
  As  As16  1  0.875925  0.243682  0.855330  1
  As  As17  1  0.623128  0.246936  0.353202  1
  As  As18  1  0.122654  0.753096  0.146757  1
  As  As19  1  0.379499  0.752715  0.646976  1
  As  As20  1  0.751801  0.540775  0.989764  1
  As  As21  1  0.746878  0.540931  0.488711  1
  As  As22  1  0.248106  0.458933  0.010127  1
  As  As23  1  0.252792  0.458938  0.509225  1
  O  O24  1  0.917880  0.165492  0.980495  1
  O  O25  1  0.580125  0.170695  0.478004  1
  O  O26  1  0.079226  0.828598  0.022095  1
  O  O27  1  0.421183  0.827752  0.522191  1
  O  O28  1  0.766822  0.003456  0.180795  1
  O  O29  1  0.734097  0.008534  0.679881  1
  O  O30  1  0.232816  0.996121  0.820018  1
  O  O31  1  0.267255  0.997158  0.319654  1
  O  O32  1  0.877157  0.379625  0.061819  1
  O  O33  1  0.619915  0.382167  0.560192  1
  O  O34  1  0.122902  0.620101  0.937717  1
  O  O35  1  0.377026  0.621122  0.436581  1
  O  O36  1  0.094963  0.920080  0.163069  1
  O  O37  1  0.408525  0.919210  0.663459  1
  O  O38  1  0.904727  0.078276  0.837944  1
  O  O39  1  0.594418  0.079730  0.337289  1
  O  O40  1  0.975953  0.069968  0.265423  1
  O  O41  1  0.523252  0.069126  0.765565  1
  O  O42  1  0.024620  0.932672  0.733978  1
  O  O43  1  0.475908  0.932273  0.233953  1
  O  O44  1  0.168441  0.252283  0.081863  1
  O  O45  1  0.331240  0.251420  0.580796  1
  O  O46  1  0.831466  0.747322  0.917478  1
  O  O47  1  0.668923  0.748595  0.417165  1
  O  O48  1  0.547158  0.152813  0.031370  1
  O  O49  1  0.953378  0.154598  0.530864  1
  O  O50  1  0.452982  0.847323  0.968810  1
  O  O51  1  0.046596  0.849160  0.467843  1
  O  O52  1  0.696045  0.286949  0.833800  1
  O  O53  1  0.803472  0.288123  0.333017  1
  O  O54  1  0.302966  0.711073  0.166883  1
  O  O55  1  0.199096  0.712509  0.667785  1
  O  O56  1  0.670800  0.510687  0.904572  1
  O  O57  1  0.827623  0.511337  0.403299  1
  O  O58  1  0.329070  0.488828  0.095430  1
  O  O59  1  0.174035  0.487837  0.595545  1
  O  O60  1  0.384195  0.211600  0.860897  1
  O  O61  1  0.115672  0.213248  0.360009  1
  O  O62  1  0.615212  0.788507  0.139356  1
  O  O63  1  0.881923  0.791105  0.639364  1
  O  O64  1  0.486788  0.576898  0.728026  1
  O  O65  1  0.014656  0.578211  0.227653  1
  O  O66  1  0.515538  0.422419  0.271942  1
  O  O67  1  0.984437  0.419007  0.775721  1
  O  O68  1  0.362983  0.462376  0.925412  1
  O  O69  1  0.136510  0.463721  0.424721  1
  O  O70  1  0.636967  0.537904  0.074322  1
  O  O71  1  0.862019  0.533551  0.574721  1
