# generated using pymatgen
data_Ac4AsSe3
_symmetry_space_group_name_H-M   'P 1'
_cell_length_a   7.77166606
_cell_length_b   7.77166577
_cell_length_c   7.77166531
_cell_angle_alpha   131.72157704
_cell_angle_beta   131.72157396
_cell_angle_gamma   70.66912302
_symmetry_Int_Tables_number   1
_chemical_formula_structural   Ac4AsSe3
_chemical_formula_sum   'Ac4 As1 Se3'
_cell_volume   256.17181464
_cell_formula_units_Z   1
loop_
 _symmetry_equiv_pos_site_id
 _symmetry_equiv_pos_as_xyz
  1  'x, y, z'
loop_
 _atom_site_type_symbol
 _atom_site_label
 _atom_site_symmetry_multiplicity
 _atom_site_fract_x
 _atom_site_fract_y
 _atom_site_fract_z
 _atom_site_occupancy
  Ac  Ac0  1  0.245888  0.245888  0.000000  1
  Ac  Ac1  1  0.754111  0.754111  0.000000  1
  Ac  Ac2  1  0.500000  0.000000  0.500000  1
  Ac  Ac3  1  0.000000  0.500000  0.500000  1
  As  As4  1  0.000000  0.000000  0.000000  1
  Se  Se5  1  0.500000  0.500000  0.000000  1
  Se  Se6  1  0.750000  0.250000  0.500000  1
  Se  Se7  1  0.250000  0.750000  0.500000  1
