# generated using pymatgen
data_Y2AgPt5
_symmetry_space_group_name_H-M   'P 1'
_cell_length_a   5.84971765
_cell_length_b   5.84971758
_cell_length_c   5.92252500
_cell_angle_alpha   59.58741235
_cell_angle_beta   59.58741277
_cell_angle_gamma   60.82515895
_symmetry_Int_Tables_number   1
_chemical_formula_structural   Y2AgPt5
_chemical_formula_sum   'Y2 Ag1 Pt5'
_cell_volume   143.26014264
_cell_formula_units_Z   1
loop_
 _symmetry_equiv_pos_site_id
 _symmetry_equiv_pos_as_xyz
  1  'x, y, z'
loop_
 _atom_site_type_symbol
 _atom_site_label
 _atom_site_symmetry_multiplicity
 _atom_site_fract_x
 _atom_site_fract_y
 _atom_site_fract_z
 _atom_site_occupancy
  Y  Y0  1  0.000000  0.000000  0.500000  1
  Y  Y1  1  0.500000  0.500000  0.000000  1
  Ag  Ag2  1  0.500000  0.500000  0.500000  1
  Pt  Pt3  1  0.000000  0.000000  0.000000  1
  Pt  Pt4  1  0.000000  0.500000  0.000000  1
  Pt  Pt5  1  0.500000  0.000000  0.000000  1
  Pt  Pt6  1  0.000000  0.500000  0.500000  1
  Pt  Pt7  1  0.500000  0.000000  0.500000  1
