# generated using pymatgen
data_Nd19YSn9Bi7
_symmetry_space_group_name_H-M   'P 1'
_cell_length_a   8.40173722
_cell_length_b   8.46071709
_cell_length_c   16.18788782
_cell_angle_alpha   90.03818074
_cell_angle_beta   89.68522978
_cell_angle_gamma   89.87203632
_symmetry_Int_Tables_number   1
_chemical_formula_structural   Nd19YSn9Bi7
_chemical_formula_sum   'Nd19 Y1 Sn9 Bi7'
_cell_volume   1150.69099999
_cell_formula_units_Z   1
loop_
 _symmetry_equiv_pos_site_id
 _symmetry_equiv_pos_as_xyz
  1  'x, y, z'
loop_
 _atom_site_type_symbol
 _atom_site_label
 _atom_site_symmetry_multiplicity
 _atom_site_fract_x
 _atom_site_fract_y
 _atom_site_fract_z
 _atom_site_occupancy
  Nd  Nd0  1  0.396888  0.836773  0.880619  1
  Nd  Nd1  1  0.899298  0.664701  0.619144  1
  Nd  Nd2  1  0.600869  0.162482  0.380141  1
  Nd  Nd3  1  0.100983  0.337357  0.119438  1
  Nd  Nd4  1  0.605526  0.166652  0.119455  1
  Nd  Nd5  1  0.101468  0.335645  0.380177  1
  Nd  Nd6  1  0.398778  0.837133  0.619760  1
  Nd  Nd7  1  0.893763  0.661871  0.882260  1
  Nd  Nd8  1  0.560629  0.331344  0.891490  1
  Nd  Nd9  1  0.061398  0.170973  0.611929  1
  Nd  Nd10  1  0.437953  0.669308  0.387818  1
  Nd  Nd11  1  0.942021  0.823413  0.110057  1
  Nd  Nd12  1  0.447709  0.668291  0.109027  1
  Nd  Nd13  1  0.938218  0.829931  0.387572  1
  Nd  Nd14  1  0.562051  0.330345  0.611832  1
  Nd  Nd15  1  0.053295  0.175270  0.891298  1
  Nd  Nd16  1  0.226965  0.498522  0.750651  1
  Nd  Nd17  1  0.727255  0.003777  0.750754  1
  Nd  Nd18  1  0.773274  0.501910  0.246179  1
  Y  Y19  1  0.271911  0.996629  0.248787  1
  Sn  Sn20  1  0.766235  0.480729  0.045474  1
  Sn  Sn21  1  0.597997  0.626941  0.749851  1
  Sn  Sn22  1  0.097336  0.875137  0.751107  1
  Sn  Sn23  1  0.400607  0.371094  0.250277  1
  Sn  Sn24  1  0.904674  0.123831  0.250027  1
  Sn  Sn25  1  0.360887  0.138815  0.751234  1
  Sn  Sn26  1  0.861743  0.364062  0.750215  1
  Sn  Sn27  1  0.635526  0.863253  0.249702  1
  Sn  Sn28  1  0.141105  0.639437  0.249650  1
  Bi  Bi29  1  0.264719  0.015322  0.047583  1
  Bi  Bi30  1  0.761988  0.486459  0.452919  1
  Bi  Bi31  1  0.738142  0.987494  0.546459  1
  Bi  Bi32  1  0.234472  0.517772  0.954746  1
  Bi  Bi33  1  0.733949  0.982492  0.954784  1
  Bi  Bi34  1  0.238267  0.513220  0.546332  1
  Bi  Bi35  1  0.262098  0.011612  0.451250  1
