# generated using pymatgen
data_Lu8TaTi11Si16
_symmetry_space_group_name_H-M   'P 1'
_cell_length_a   6.97831974
_cell_length_b   6.97832028
_cell_length_c   12.82160924
_cell_angle_alpha   89.97591258
_cell_angle_beta   90.02408529
_cell_angle_gamma   90.03689128
_symmetry_Int_Tables_number   1
_chemical_formula_structural   Lu8TaTi11Si16
_chemical_formula_sum   'Lu8 Ta1 Ti11 Si16'
_cell_volume   624.37302645
_cell_formula_units_Z   1
loop_
 _symmetry_equiv_pos_site_id
 _symmetry_equiv_pos_as_xyz
  1  'x, y, z'
loop_
 _atom_site_type_symbol
 _atom_site_label
 _atom_site_symmetry_multiplicity
 _atom_site_fract_x
 _atom_site_fract_y
 _atom_site_fract_z
 _atom_site_occupancy
  Lu  Lu0  1  0.340408  0.001836  0.467058  1
  Lu  Lu1  1  0.498036  0.839961  0.717025  1
  Lu  Lu2  1  0.501378  0.158970  0.216709  1
  Lu  Lu3  1  0.839961  0.498036  0.282975  1
  Lu  Lu4  1  0.158970  0.501378  0.783291  1
  Lu  Lu5  1  0.658662  0.998465  0.967048  1
  Lu  Lu6  1  0.001836  0.340408  0.532942  1
  Lu  Lu7  1  0.998465  0.658662  0.032952  1
  Ta  Ta8  1  0.327252  0.327252  0.000000  1
  Ti  Ti9  1  0.173230  0.827460  0.249966  1
  Ti  Ti10  1  0.827460  0.173230  0.750034  1
  Ti  Ti11  1  0.672502  0.672502  0.500000  1
  Ti  Ti12  1  0.152423  0.007560  0.875362  1
  Ti  Ti13  1  0.492644  0.650979  0.124590  1
  Ti  Ti14  1  0.507152  0.349560  0.625188  1
  Ti  Ti15  1  0.650979  0.492644  0.875410  1
  Ti  Ti16  1  0.349560  0.507152  0.374812  1
  Ti  Ti17  1  0.848702  0.993506  0.375235  1
  Ti  Ti18  1  0.007560  0.152423  0.124638  1
  Ti  Ti19  1  0.993506  0.848702  0.624765  1
  Si  Si20  1  0.203947  0.132220  0.682320  1
  Si  Si21  1  0.367464  0.703758  0.932523  1
  Si  Si22  1  0.632297  0.296394  0.432857  1
  Si  Si23  1  0.703758  0.367464  0.067477  1
  Si  Si24  1  0.296394  0.632297  0.567143  1
  Si  Si25  1  0.796294  0.867565  0.182748  1
  Si  Si26  1  0.132220  0.203947  0.317680  1
  Si  Si27  1  0.867565  0.796294  0.817252  1
  Si  Si28  1  0.292626  0.953253  0.064773  1
  Si  Si29  1  0.546132  0.793173  0.314759  1
  Si  Si30  1  0.455130  0.205953  0.813532  1
  Si  Si31  1  0.793173  0.546132  0.685241  1
  Si  Si32  1  0.205953  0.455130  0.186468  1
  Si  Si33  1  0.707305  0.045799  0.564613  1
  Si  Si34  1  0.953253  0.292626  0.935227  1
  Si  Si35  1  0.045799  0.707305  0.435387  1
