# generated using pymatgen
data_Y7Ho11Lu2(Cd3Ru)2
_symmetry_space_group_name_H-M   'P 1'
_cell_length_a   9.56325464
_cell_length_b   9.56370259
_cell_length_c   9.82417600
_cell_angle_alpha   89.99999988
_cell_angle_beta   90.05594142
_cell_angle_gamma   120.00155857
_symmetry_Int_Tables_number   1
_chemical_formula_structural   Y7Ho11Lu2(Cd3Ru)2
_chemical_formula_sum   'Y7 Ho11 Lu2 Cd6 Ru2'
_cell_volume   778.12873091
_cell_formula_units_Z   1
loop_
 _symmetry_equiv_pos_site_id
 _symmetry_equiv_pos_as_xyz
  1  'x, y, z'
loop_
 _atom_site_type_symbol
 _atom_site_label
 _atom_site_symmetry_multiplicity
 _atom_site_fract_x
 _atom_site_fract_y
 _atom_site_fract_z
 _atom_site_occupancy
  Y  Y0  1  0.582091  0.791047  0.059164  1
  Y  Y1  1  0.540879  0.458744  0.250285  1
  Y  Y2  1  0.540879  0.082136  0.250285  1
  Y  Y3  1  0.918542  0.459271  0.250075  1
  Y  Y4  1  0.459072  0.540487  0.749563  1
  Y  Y5  1  0.459072  0.918585  0.749563  1
  Y  Y6  1  0.081933  0.540966  0.749973  1
  Ho  Ho7  1  0.209420  0.790674  0.440229  1
  Ho  Ho8  1  0.209420  0.418747  0.440229  1
  Ho  Ho9  1  0.580831  0.790416  0.440365  1
  Ho  Ho10  1  0.790622  0.209552  0.559834  1
  Ho  Ho11  1  0.790622  0.581069  0.559834  1
  Ho  Ho12  1  0.418850  0.209425  0.559795  1
  Ho  Ho13  1  0.790894  0.209962  0.940001  1
  Ho  Ho14  1  0.790894  0.580930  0.940001  1
  Ho  Ho15  1  0.419029  0.209513  0.940179  1
  Ho  Ho16  1  0.209214  0.790517  0.060041  1
  Ho  Ho17  1  0.209214  0.418698  0.060041  1
  Lu  Lu18  1  0.999988  0.999994  0.500065  1
  Lu  Lu19  1  0.000591  0.000296  0.999848  1
  Cd  Cd20  1  0.887700  0.112339  0.249960  1
  Cd  Cd21  1  0.887700  0.775363  0.249960  1
  Cd  Cd22  1  0.224691  0.112346  0.250118  1
  Cd  Cd23  1  0.112273  0.887656  0.750005  1
  Cd  Cd24  1  0.112273  0.224616  0.750005  1
  Cd  Cd25  1  0.775393  0.887696  0.749936  1
  Ru  Ru26  1  0.331445  0.665723  0.250765  1
  Ru  Ru27  1  0.666468  0.333234  0.749883  1
