# generated using pymatgen
data_Hf7Ti3(BeSn3)2
_symmetry_space_group_name_H-M   'P 1'
_cell_length_a   8.47550900
_cell_length_b   8.47550953
_cell_length_c   5.62502600
_cell_angle_alpha   90.00000000
_cell_angle_beta   90.00000000
_cell_angle_gamma   119.99999404
_symmetry_Int_Tables_number   1
_chemical_formula_structural   Hf7Ti3(BeSn3)2
_chemical_formula_sum   'Hf7 Ti3 Be2 Sn6'
_cell_volume   349.93452903
_cell_formula_units_Z   1
loop_
 _symmetry_equiv_pos_site_id
 _symmetry_equiv_pos_as_xyz
  1  'x, y, z'
loop_
 _atom_site_type_symbol
 _atom_site_label
 _atom_site_symmetry_multiplicity
 _atom_site_fract_x
 _atom_site_fract_y
 _atom_site_fract_z
 _atom_site_occupancy
  Hf  Hf0  1  0.333333  0.666667  0.500000  1
  Hf  Hf1  1  0.247602  0.998596  0.251931  1
  Hf  Hf2  1  0.247602  0.249006  0.748069  1
  Hf  Hf3  1  0.001404  0.752398  0.748069  1
  Hf  Hf4  1  0.001404  0.249006  0.251931  1
  Hf  Hf5  1  0.750994  0.752398  0.251931  1
  Hf  Hf6  1  0.750994  0.998596  0.748069  1
  Ti  Ti7  1  0.333333  0.666667  0.000000  1
  Ti  Ti8  1  0.666667  0.333333  0.500000  1
  Ti  Ti9  1  0.666667  0.333333  0.000000  1
  Be  Be10  1  0.000000  0.000000  0.000000  1
  Be  Be11  1  0.000000  0.000000  0.500000  1
  Sn  Sn12  1  0.607279  0.004418  0.246208  1
  Sn  Sn13  1  0.607279  0.602861  0.753792  1
  Sn  Sn14  1  0.995582  0.392721  0.753792  1
  Sn  Sn15  1  0.995582  0.602861  0.246208  1
  Sn  Sn16  1  0.397139  0.392721  0.246208  1
  Sn  Sn17  1  0.397139  0.004418  0.753792  1
