# generated using pymatgen
data_Hf2Ga3Mo
_symmetry_space_group_name_H-M   'P 1'
_cell_length_a   5.44477900
_cell_length_b   8.42472800
_cell_length_c   9.05387800
_cell_angle_alpha   90.00000000
_cell_angle_beta   90.00000000
_cell_angle_gamma   90.00000000
_symmetry_Int_Tables_number   1
_chemical_formula_structural   Hf2Ga3Mo
_chemical_formula_sum   'Hf8 Ga12 Mo4'
_cell_volume   415.30846485
_cell_formula_units_Z   4
loop_
 _symmetry_equiv_pos_site_id
 _symmetry_equiv_pos_as_xyz
  1  'x, y, z'
loop_
 _atom_site_type_symbol
 _atom_site_label
 _atom_site_symmetry_multiplicity
 _atom_site_fract_x
 _atom_site_fract_y
 _atom_site_fract_z
 _atom_site_occupancy
  Hf  Hf0  1  0.750000  0.469146  0.623921  1
  Hf  Hf1  1  0.250000  0.530854  0.376079  1
  Hf  Hf2  1  0.750000  0.969146  0.376079  1
  Hf  Hf3  1  0.250000  0.030854  0.623921  1
  Hf  Hf4  1  0.750000  0.366626  0.182463  1
  Hf  Hf5  1  0.250000  0.633374  0.817537  1
  Hf  Hf6  1  0.750000  0.866626  0.817537  1
  Hf  Hf7  1  0.250000  0.133374  0.182463  1
  Ga  Ga8  1  0.000000  0.750000  0.570260  1
  Ga  Ga9  1  0.500000  0.250000  0.429740  1
  Ga  Ga10  1  0.000000  0.250000  0.429740  1
  Ga  Ga11  1  0.500000  0.750000  0.570260  1
  Ga  Ga12  1  0.750000  0.046024  0.076283  1
  Ga  Ga13  1  0.250000  0.953976  0.923717  1
  Ga  Ga14  1  0.750000  0.546024  0.923717  1
  Ga  Ga15  1  0.250000  0.453976  0.076283  1
  Ga  Ga16  1  0.750000  0.134612  0.656275  1
  Ga  Ga17  1  0.250000  0.865388  0.343725  1
  Ga  Ga18  1  0.750000  0.634612  0.343725  1
  Ga  Ga19  1  0.250000  0.365388  0.656275  1
  Mo  Mo20  1  0.000000  0.750000  0.109780  1
  Mo  Mo21  1  0.500000  0.250000  0.890220  1
  Mo  Mo22  1  0.000000  0.250000  0.890220  1
  Mo  Mo23  1  0.500000  0.750000  0.109780  1
