# generated using pymatgen
data_EuYHo2(ZnSn)4
_symmetry_space_group_name_H-M   'P 1'
_cell_length_a   4.55049300
_cell_length_b   4.55049402
_cell_length_c   15.94453200
_cell_angle_alpha   90.00000000
_cell_angle_beta   90.00000000
_cell_angle_gamma   119.99998534
_symmetry_Int_Tables_number   1
_chemical_formula_structural   EuYHo2(ZnSn)4
_chemical_formula_sum   'Eu1 Y1 Ho2 Zn4 Sn4'
_cell_volume   285.92983297
_cell_formula_units_Z   1
loop_
 _symmetry_equiv_pos_site_id
 _symmetry_equiv_pos_as_xyz
  1  'x, y, z'
loop_
 _atom_site_type_symbol
 _atom_site_label
 _atom_site_symmetry_multiplicity
 _atom_site_fract_x
 _atom_site_fract_y
 _atom_site_fract_z
 _atom_site_occupancy
  Eu  Eu0  1  0.000000  0.000000  0.000000  1
  Y  Y1  1  0.000000  0.000000  0.500000  1
  Ho  Ho2  1  0.000000  0.000000  0.254882  1
  Ho  Ho3  1  0.000000  0.000000  0.745118  1
  Zn  Zn4  1  0.333333  0.666667  0.167236  1
  Zn  Zn5  1  0.666667  0.333333  0.832764  1
  Zn  Zn6  1  0.666667  0.333333  0.659468  1
  Zn  Zn7  1  0.333333  0.666667  0.340532  1
  Sn  Sn8  1  0.333333  0.666667  0.610132  1
  Sn  Sn9  1  0.666667  0.333333  0.389868  1
  Sn  Sn10  1  0.666667  0.333333  0.122796  1
  Sn  Sn11  1  0.333333  0.666667  0.877204  1
