# generated using pymatgen
data_Y5IrRh
_symmetry_space_group_name_H-M   'P 1'
_cell_length_a   6.51186692
_cell_length_b   7.23235104
_cell_length_c   8.65571429
_cell_angle_alpha   96.60900247
_cell_angle_beta   112.09603396
_cell_angle_gamma   89.99999525
_symmetry_Int_Tables_number   1
_chemical_formula_structural   Y5IrRh
_chemical_formula_sum   'Y10 Ir2 Rh2'
_cell_volume   374.78512333
_cell_formula_units_Z   2
loop_
 _symmetry_equiv_pos_site_id
 _symmetry_equiv_pos_as_xyz
  1  'x, y, z'
loop_
 _atom_site_type_symbol
 _atom_site_label
 _atom_site_symmetry_multiplicity
 _atom_site_fract_x
 _atom_site_fract_y
 _atom_site_fract_z
 _atom_site_occupancy
  Y  Y0  1  0.978786  0.915875  0.186425  1
  Y  Y1  1  0.792360  0.584125  0.813575  1
  Y  Y2  1  0.024205  0.084111  0.815541  1
  Y  Y3  1  0.208665  0.415889  0.184459  1
  Y  Y4  1  0.651352  0.817413  0.438574  1
  Y  Y5  1  0.212777  0.682587  0.561426  1
  Y  Y6  1  0.347956  0.184022  0.559901  1
  Y  Y7  1  0.788056  0.315978  0.440099  1
  Y  Y8  1  0.426232  0.750000  0.000000  1
  Y  Y9  1  0.571238  0.250000  0.000000  1
  Ir  Ir10  1  0.175380  0.425895  0.777317  1
  Ir  Ir11  1  0.398064  0.074105  0.222683  1
  Rh  Rh12  1  0.822607  0.573070  0.220284  1
  Rh  Rh13  1  0.602322  0.926930  0.779716  1
