# generated using pymatgen
data_Dy4Tm4Tc(B8Os)3
_symmetry_space_group_name_H-M   'P 1'
_cell_length_a   3.64268600
_cell_length_b   9.11005937
_cell_length_c   11.50273900
_cell_angle_alpha   89.95193881
_cell_angle_beta   90.00000000
_cell_angle_gamma   90.00000000
_symmetry_Int_Tables_number   1
_chemical_formula_structural   Dy4Tm4Tc(B8Os)3
_chemical_formula_sum   'Dy4 Tm4 Tc1 B24 Os3'
_cell_volume   381.71924556
_cell_formula_units_Z   1
loop_
 _symmetry_equiv_pos_site_id
 _symmetry_equiv_pos_as_xyz
  1  'x, y, z'
loop_
 _atom_site_type_symbol
 _atom_site_label
 _atom_site_symmetry_multiplicity
 _atom_site_fract_x
 _atom_site_fract_y
 _atom_site_fract_z
 _atom_site_occupancy
  Dy  Dy0  1  0.000000  0.323490  0.412972  1
  Dy  Dy1  1  0.000000  0.677623  0.583728  1
  Dy  Dy2  1  0.000000  0.820015  0.088043  1
  Dy  Dy3  1  0.000000  0.177990  0.914729  1
  Tm  Tm4  1  0.000000  0.942762  0.372644  1
  Tm  Tm5  1  0.000000  0.056717  0.627368  1
  Tm  Tm6  1  0.000000  0.444758  0.128159  1
  Tm  Tm7  1  0.000000  0.556472  0.872312  1
  Tc  Tc8  1  0.000000  0.637958  0.320789  1
  B  B9  1  0.500000  0.553171  0.432843  1
  B  B10  1  0.500000  0.446294  0.567401  1
  B  B11  1  0.500000  0.053836  0.067262  1
  B  B12  1  0.500000  0.946126  0.933006  1
  B  B13  1  0.500000  0.748889  0.419189  1
  B  B14  1  0.500000  0.251228  0.580673  1
  B  B15  1  0.500000  0.249110  0.080585  1
  B  B16  1  0.500000  0.750961  0.919374  1
  B  B17  1  0.500000  0.791717  0.266249  1
  B  B18  1  0.500000  0.208580  0.733740  1
  B  B19  1  0.500000  0.291362  0.233228  1
  B  B20  1  0.500000  0.708979  0.766218  1
  B  B21  1  0.500000  0.630917  0.185437  1
  B  B22  1  0.500000  0.368916  0.815029  1
  B  B23  1  0.500000  0.130898  0.314422  1
  B  B24  1  0.500000  0.869368  0.685134  1
  B  B25  1  0.500000  0.982556  0.213204  1
  B  B26  1  0.500000  0.017367  0.787141  1
  B  B27  1  0.500000  0.482158  0.286816  1
  B  B28  1  0.500000  0.517125  0.713240  1
  B  B29  1  0.500000  0.605081  0.028671  1
  B  B30  1  0.500000  0.394740  0.970700  1
  B  B31  1  0.500000  0.105574  0.470916  1
  B  B32  1  0.500000  0.895482  0.529446  1
  Os  Os33  1  0.000000  0.361714  0.679827  1
  Os  Os34  1  0.000000  0.137786  0.178686  1
  Os  Os35  1  0.000000  0.862281  0.820816  1
