# generated using pymatgen
data_Tb4TmOs2
_symmetry_space_group_name_H-M   'P 1'
_cell_length_a   6.39193430
_cell_length_b   7.35653840
_cell_length_c   8.45920965
_cell_angle_alpha   96.75214012
_cell_angle_beta   112.19804011
_cell_angle_gamma   90.00000728
_symmetry_Int_Tables_number   1
_chemical_formula_structural   Tb4TmOs2
_chemical_formula_sum   'Tb8 Tm2 Os4'
_cell_volume   365.31019539
_cell_formula_units_Z   2
loop_
 _symmetry_equiv_pos_site_id
 _symmetry_equiv_pos_as_xyz
  1  'x, y, z'
loop_
 _atom_site_type_symbol
 _atom_site_label
 _atom_site_symmetry_multiplicity
 _atom_site_fract_x
 _atom_site_fract_y
 _atom_site_fract_z
 _atom_site_occupancy
  Tb  Tb0  1  0.792137  0.083137  0.817227  1
  Tb  Tb1  1  0.974910  0.416863  0.182773  1
  Tb  Tb2  1  0.207863  0.916863  0.182773  1
  Tb  Tb3  1  0.025090  0.583137  0.817227  1
  Tb  Tb4  1  0.204904  0.183535  0.566148  1
  Tb  Tb5  1  0.638758  0.316465  0.433852  1
  Tb  Tb6  1  0.795096  0.816465  0.433852  1
  Tb  Tb7  1  0.361242  0.683535  0.566148  1
  Tm  Tm8  1  0.422697  0.250000  0.000000  1
  Tm  Tm9  1  0.577303  0.750000  0.000000  1
  Os  Os10  1  0.602756  0.423589  0.784064  1
  Os  Os11  1  0.818691  0.076411  0.215936  1
  Os  Os12  1  0.397244  0.576411  0.215936  1
  Os  Os13  1  0.181309  0.923589  0.784064  1
