# generated using pymatgen
data_LaY3HgPd
_symmetry_space_group_name_H-M   'P 1'
_cell_length_a   9.85870390
_cell_length_b   9.85870400
_cell_length_c   9.85870400
_cell_angle_alpha   59.99999999
_cell_angle_beta   59.99999967
_cell_angle_gamma   59.99999816
_symmetry_Int_Tables_number   1
_chemical_formula_structural   LaY3HgPd
_chemical_formula_sum   'La4 Y12 Hg4 Pd4'
_cell_volume   677.55487280
_cell_formula_units_Z   4
loop_
 _symmetry_equiv_pos_site_id
 _symmetry_equiv_pos_as_xyz
  1  'x, y, z'
loop_
 _atom_site_type_symbol
 _atom_site_label
 _atom_site_symmetry_multiplicity
 _atom_site_fract_x
 _atom_site_fract_y
 _atom_site_fract_z
 _atom_site_occupancy
  La  La0  1  0.358375  0.358375  0.358375  1
  La  La1  1  0.358375  0.358375  0.924876  1
  La  La2  1  0.358375  0.924876  0.358375  1
  La  La3  1  0.924876  0.358375  0.358375  1
  Y  Y4  1  0.814354  0.185646  0.185646  1
  Y  Y5  1  0.185646  0.814354  0.814354  1
  Y  Y6  1  0.185646  0.814354  0.185646  1
  Y  Y7  1  0.814354  0.185646  0.814354  1
  Y  Y8  1  0.185646  0.185646  0.814354  1
  Y  Y9  1  0.814354  0.814354  0.185646  1
  Y  Y10  1  0.933286  0.566714  0.566714  1
  Y  Y11  1  0.566714  0.933286  0.933286  1
  Y  Y12  1  0.566714  0.933286  0.566714  1
  Y  Y13  1  0.933286  0.566714  0.933286  1
  Y  Y14  1  0.566714  0.566714  0.933286  1
  Y  Y15  1  0.933286  0.933286  0.566714  1
  Hg  Hg16  1  0.591004  0.591004  0.591004  1
  Hg  Hg17  1  0.591004  0.591004  0.226989  1
  Hg  Hg18  1  0.591004  0.226989  0.591004  1
  Hg  Hg19  1  0.226989  0.591004  0.591004  1
  Pd  Pd20  1  0.143236  0.143236  0.143236  1
  Pd  Pd21  1  0.143236  0.143236  0.570291  1
  Pd  Pd22  1  0.143236  0.570291  0.143236  1
  Pd  Pd23  1  0.570291  0.143236  0.143236  1
