# generated using pymatgen
data_Ba6MnCd(NiO5)3
_symmetry_space_group_name_H-M   'P 1'
_cell_length_a   7.28293849
_cell_length_b   7.28295347
_cell_length_c   7.28293747
_cell_angle_alpha   87.48456182
_cell_angle_beta   87.48450854
_cell_angle_gamma   87.48459354
_symmetry_Int_Tables_number   1
_chemical_formula_structural   Ba6MnCd(NiO5)3
_chemical_formula_sum   'Ba6 Mn1 Cd1 Ni3 O15'
_cell_volume   385.21148386
_cell_formula_units_Z   1
loop_
 _symmetry_equiv_pos_site_id
 _symmetry_equiv_pos_as_xyz
  1  'x, y, z'
loop_
 _atom_site_type_symbol
 _atom_site_label
 _atom_site_symmetry_multiplicity
 _atom_site_fract_x
 _atom_site_fract_y
 _atom_site_fract_z
 _atom_site_occupancy
  Ba  Ba0  1  0.337183  0.666316  0.997803  1
  Ba  Ba1  1  0.997804  0.337185  0.666317  1
  Ba  Ba2  1  0.666317  0.997804  0.337184  1
  Ba  Ba3  1  0.146773  0.854015  0.500388  1
  Ba  Ba4  1  0.500387  0.146772  0.854014  1
  Ba  Ba5  1  0.854013  0.500388  0.146773  1
  Mn  Mn6  1  0.286182  0.286184  0.286185  1
  Cd  Cd7  1  0.501649  0.501649  0.501650  1
  Ni  Ni8  1  0.716471  0.716471  0.716469  1
  Ni  Ni9  1  0.092031  0.092030  0.092029  1
  Ni  Ni10  1  0.906546  0.906544  0.906544  1
  O  O11  1  0.141978  0.999034  0.856573  1
  O  O12  1  0.856575  0.141978  0.999035  1
  O  O13  1  0.999035  0.856574  0.141979  1
  O  O14  1  0.029722  0.187090  0.326375  1
  O  O15  1  0.326376  0.029722  0.187090  1
  O  O16  1  0.187089  0.326376  0.029723  1
  O  O17  1  0.810838  0.965768  0.673654  1
  O  O18  1  0.673653  0.810839  0.965769  1
  O  O19  1  0.965767  0.673656  0.810838  1
  O  O20  1  0.359884  0.212657  0.524353  1
  O  O21  1  0.524352  0.359881  0.212660  1
  O  O22  1  0.212661  0.524351  0.359886  1
  O  O23  1  0.785641  0.641424  0.479646  1
  O  O24  1  0.479649  0.785642  0.641424  1
  O  O25  1  0.641425  0.479650  0.785640  1
