# generated using pymatgen
data_KZr(NiAs)2
_symmetry_space_group_name_H-M   'P 1'
_cell_length_a   4.01531500
_cell_length_b   8.44574685
_cell_length_c   7.14309112
_cell_angle_alpha   91.59717740
_cell_angle_beta   90.00000000
_cell_angle_gamma   90.00000000
_symmetry_Int_Tables_number   1
_chemical_formula_structural   KZr(NiAs)2
_chemical_formula_sum   'K2 Zr2 Ni4 As4'
_cell_volume   242.14477961
_cell_formula_units_Z   2
loop_
 _symmetry_equiv_pos_site_id
 _symmetry_equiv_pos_as_xyz
  1  'x, y, z'
loop_
 _atom_site_type_symbol
 _atom_site_label
 _atom_site_symmetry_multiplicity
 _atom_site_fract_x
 _atom_site_fract_y
 _atom_site_fract_z
 _atom_site_occupancy
  K  K0  1  0.250000  0.500186  0.234153  1
  K  K1  1  0.750000  0.499814  0.765847  1
  Zr  Zr2  1  0.750000  0.006334  0.705657  1
  Zr  Zr3  1  0.250000  0.993666  0.294343  1
  Ni  Ni4  1  0.250000  0.892970  0.929466  1
  Ni  Ni5  1  0.750000  0.107030  0.070534  1
  Ni  Ni6  1  0.750000  0.794388  0.420666  1
  Ni  Ni7  1  0.250000  0.205612  0.579334  1
  As  As8  1  0.250000  0.779973  0.598052  1
  As  As9  1  0.750000  0.220027  0.401948  1
  As  As10  1  0.750000  0.810804  0.089609  1
  As  As11  1  0.250000  0.189196  0.910391  1
