# generated using pymatgen
data_Ba4SmTcO8
_symmetry_space_group_name_H-M   'P 1'
_cell_length_a   7.46793491
_cell_length_b   7.46793364
_cell_length_c   6.04091400
_cell_angle_alpha   90.00000000
_cell_angle_beta   90.00000000
_cell_angle_gamma   132.62257816
_symmetry_Int_Tables_number   1
_chemical_formula_structural   Ba4SmTcO8
_chemical_formula_sum   'Ba4 Sm1 Tc1 O8'
_cell_volume   247.90272104
_cell_formula_units_Z   1
loop_
 _symmetry_equiv_pos_site_id
 _symmetry_equiv_pos_as_xyz
  1  'x, y, z'
loop_
 _atom_site_type_symbol
 _atom_site_label
 _atom_site_symmetry_multiplicity
 _atom_site_fract_x
 _atom_site_fract_y
 _atom_site_fract_z
 _atom_site_occupancy
  Ba  Ba0  1  0.354307  0.645693  0.000000  1
  Ba  Ba1  1  0.851803  0.148197  0.500000  1
  Ba  Ba2  1  0.148197  0.851803  0.500000  1
  Ba  Ba3  1  0.645693  0.354307  0.000000  1
  Sm  Sm4  1  0.000000  0.000000  0.000000  1
  Tc  Tc5  1  0.500000  0.500000  0.500000  1
  O  O6  1  0.265669  0.265669  0.728056  1
  O  O7  1  0.734331  0.734331  0.271944  1
  O  O8  1  0.734331  0.734331  0.728056  1
  O  O9  1  0.265669  0.265669  0.271944  1
  O  O10  1  0.168971  0.831029  0.000000  1
  O  O11  1  0.650632  0.349368  0.500000  1
  O  O12  1  0.349368  0.650632  0.500000  1
  O  O13  1  0.831029  0.168971  0.000000  1
