# generated using pymatgen
data_Ho2TmMn(Co4P3)2
_symmetry_space_group_name_H-M   'P 1'
_cell_length_a   3.66965700
_cell_length_b   10.49348700
_cell_length_c   12.13957700
_cell_angle_alpha   90.00000000
_cell_angle_beta   90.00000000
_cell_angle_gamma   90.00000000
_symmetry_Int_Tables_number   1
_chemical_formula_structural   Ho2TmMn(Co4P3)2
_chemical_formula_sum   'Ho4 Tm2 Mn2 Co16 P12'
_cell_volume   467.46473734
_cell_formula_units_Z   2
loop_
 _symmetry_equiv_pos_site_id
 _symmetry_equiv_pos_as_xyz
  1  'x, y, z'
loop_
 _atom_site_type_symbol
 _atom_site_label
 _atom_site_symmetry_multiplicity
 _atom_site_fract_x
 _atom_site_fract_y
 _atom_site_fract_z
 _atom_site_occupancy
  Ho  Ho0  1  0.000000  0.500000  0.523312  1
  Ho  Ho1  1  0.500000  0.000000  0.477568  1
  Ho  Ho2  1  0.500000  0.818249  0.204975  1
  Ho  Ho3  1  0.500000  0.181751  0.204975  1
  Tm  Tm4  1  0.000000  0.681518  0.794784  1
  Tm  Tm5  1  0.000000  0.318482  0.794784  1
  Mn  Mn6  1  0.500000  0.500000  0.158435  1
  Mn  Mn7  1  0.000000  0.000000  0.841536  1
  Co  Co8  1  0.500000  0.500000  0.703288  1
  Co  Co9  1  0.000000  0.000000  0.297061  1
  Co  Co10  1  0.000000  0.500000  0.985445  1
  Co  Co11  1  0.500000  0.000000  0.013019  1
  Co  Co12  1  0.500000  0.333251  0.992874  1
  Co  Co13  1  0.500000  0.666749  0.992874  1
  Co  Co14  1  0.000000  0.167385  0.005661  1
  Co  Co15  1  0.000000  0.832615  0.005661  1
  Co  Co16  1  0.500000  0.296724  0.430995  1
  Co  Co17  1  0.500000  0.703276  0.430995  1
  Co  Co18  1  0.000000  0.203371  0.570247  1
  Co  Co19  1  0.000000  0.796629  0.570247  1
  Co  Co20  1  0.500000  0.878894  0.709627  1
  Co  Co21  1  0.500000  0.121106  0.709627  1
  Co  Co22  1  0.000000  0.620734  0.290954  1
  Co  Co23  1  0.000000  0.379266  0.290954  1
  P  P24  1  0.500000  0.500000  0.881597  1
  P  P25  1  0.000000  0.000000  0.116980  1
  P  P26  1  0.500000  0.500000  0.345350  1
  P  P27  1  0.000000  0.000000  0.655206  1
  P  P28  1  0.500000  0.311767  0.617230  1
  P  P29  1  0.500000  0.688233  0.617230  1
  P  P30  1  0.000000  0.188382  0.384028  1
  P  P31  1  0.000000  0.811618  0.384028  1
  P  P32  1  0.500000  0.846646  0.891880  1
  P  P33  1  0.500000  0.153354  0.891880  1
  P  P34  1  0.000000  0.652316  0.107344  1
  P  P35  1  0.000000  0.347684  0.107344  1
