# generated using pymatgen
data_Sm5Y2CoI12
_symmetry_space_group_name_H-M   'P 1'
_cell_length_a   9.87693549
_cell_length_b   9.88657088
_cell_length_c   9.88890388
_cell_angle_alpha   107.00528466
_cell_angle_beta   106.80316394
_cell_angle_gamma   106.85918074
_symmetry_Int_Tables_number   1
_chemical_formula_structural   Sm5Y2CoI12
_chemical_formula_sum   'Sm5 Y2 Co1 I12'
_cell_volume   806.61178344
_cell_formula_units_Z   1
loop_
 _symmetry_equiv_pos_site_id
 _symmetry_equiv_pos_as_xyz
  1  'x, y, z'
loop_
 _atom_site_type_symbol
 _atom_site_label
 _atom_site_symmetry_multiplicity
 _atom_site_fract_x
 _atom_site_fract_y
 _atom_site_fract_z
 _atom_site_occupancy
  Sm  Sm0  1  0.021474  0.094041  0.291864  1
  Sm  Sm1  1  0.092814  0.292003  0.022155  1
  Sm  Sm2  1  0.292469  0.022310  0.093885  1
  Sm  Sm3  1  0.977412  0.906008  0.707852  1
  Sm  Sm4  1  0.905181  0.707725  0.977358  1
  Y  Y5  1  0.499571  0.499889  0.499782  1
  Y  Y6  1  0.712383  0.977968  0.907808  1
  Co  Co7  1  0.000069  0.999828  0.999973  1
  I  I8  1  0.164353  0.465323  0.388186  1
  I  I9  1  0.464974  0.388093  0.164399  1
  I  I10  1  0.387953  0.164497  0.465044  1
  I  I11  1  0.835202  0.534700  0.611837  1
  I  I12  1  0.535292  0.615140  0.835885  1
  I  I13  1  0.612079  0.837116  0.538603  1
  I  I14  1  0.677004  0.070571  0.221740  1
  I  I15  1  0.071778  0.226247  0.677676  1
  I  I16  1  0.225803  0.677788  0.071760  1
  I  I17  1  0.324573  0.928736  0.774541  1
  I  I18  1  0.928160  0.773753  0.322308  1
  I  I19  1  0.771456  0.318266  0.927345  1
