# generated using pymatgen
data_ErSc7Ti12Si15Sn
_symmetry_space_group_name_H-M   'P 1'
_cell_length_a   6.94789299
_cell_length_b   6.91505945
_cell_length_c   12.70291662
_cell_angle_alpha   89.91919330
_cell_angle_beta   89.77480692
_cell_angle_gamma   89.80733494
_symmetry_Int_Tables_number   1
_chemical_formula_structural   ErSc7Ti12Si15Sn
_chemical_formula_sum   'Er1 Sc7 Ti12 Si15 Sn1'
_cell_volume   610.30405146
_cell_formula_units_Z   1
loop_
 _symmetry_equiv_pos_site_id
 _symmetry_equiv_pos_as_xyz
  1  'x, y, z'
loop_
 _atom_site_type_symbol
 _atom_site_label
 _atom_site_symmetry_multiplicity
 _atom_site_fract_x
 _atom_site_fract_y
 _atom_site_fract_z
 _atom_site_occupancy
  Er  Er0  1  0.997117  0.660397  0.033515  1
  Sc  Sc1  1  0.343925  0.997323  0.460688  1
  Sc  Sc2  1  0.507829  0.834948  0.717863  1
  Sc  Sc3  1  0.500774  0.159613  0.217848  1
  Sc  Sc4  1  0.841357  0.497531  0.282969  1
  Sc  Sc5  1  0.158913  0.509951  0.786084  1
  Sc  Sc6  1  0.660264  0.998857  0.968082  1
  Sc  Sc7  1  0.988947  0.350351  0.526690  1
  Ti  Ti8  1  0.328127  0.326415  0.001270  1
  Ti  Ti9  1  0.174391  0.827417  0.250582  1
  Ti  Ti10  1  0.817188  0.172942  0.751362  1
  Ti  Ti11  1  0.671711  0.672411  0.499534  1
  Ti  Ti12  1  0.152653  0.005480  0.881041  1
  Ti  Ti13  1  0.495248  0.647899  0.126636  1
  Ti  Ti14  1  0.514357  0.357773  0.626023  1
  Ti  Ti15  1  0.652345  0.493249  0.875450  1
  Ti  Ti16  1  0.349489  0.507327  0.374289  1
  Ti  Ti17  1  0.848366  0.995491  0.375697  1
  Ti  Ti18  1  0.008108  0.150002  0.124604  1
  Ti  Ti19  1  0.980277  0.837496  0.619395  1
  Si  Si20  1  0.370487  0.705705  0.931118  1
  Si  Si21  1  0.632935  0.295741  0.429075  1
  Si  Si22  1  0.702909  0.360081  0.070232  1
  Si  Si23  1  0.294596  0.637211  0.569556  1
  Si  Si24  1  0.792148  0.868426  0.183163  1
  Si  Si25  1  0.135406  0.203936  0.319526  1
  Si  Si26  1  0.865281  0.798872  0.818179  1
  Si  Si27  1  0.301178  0.955234  0.067013  1
  Si  Si28  1  0.547267  0.794882  0.314456  1
  Si  Si29  1  0.460042  0.203762  0.819982  1
  Si  Si30  1  0.799458  0.544008  0.686798  1
  Si  Si31  1  0.206723  0.451197  0.186871  1
  Si  Si32  1  0.699949  0.047699  0.564302  1
  Si  Si33  1  0.952876  0.291972  0.934142  1
  Si  Si34  1  0.046208  0.705269  0.432849  1
  Sn  Sn35  1  0.201151  0.133135  0.673118  1
