# generated using pymatgen
data_Dy8In4Rh3Au5
_symmetry_space_group_name_H-M   'P 1'
_cell_length_a   7.84279041
_cell_length_b   7.84279011
_cell_length_c   7.48387501
_cell_angle_alpha   90.03475994
_cell_angle_beta   90.03475811
_cell_angle_gamma   90.98700865
_symmetry_Int_Tables_number   1
_chemical_formula_structural   Dy8In4Rh3Au5
_chemical_formula_sum   'Dy8 In4 Rh3 Au5'
_cell_volume   460.25988233
_cell_formula_units_Z   1
loop_
 _symmetry_equiv_pos_site_id
 _symmetry_equiv_pos_as_xyz
  1  'x, y, z'
loop_
 _atom_site_type_symbol
 _atom_site_label
 _atom_site_symmetry_multiplicity
 _atom_site_fract_x
 _atom_site_fract_y
 _atom_site_fract_z
 _atom_site_occupancy
  Dy  Dy0  1  0.172870  0.172870  0.009718  1
  Dy  Dy1  1  0.817814  0.817814  0.000172  1
  Dy  Dy2  1  0.664308  0.348099  0.492959  1
  Dy  Dy3  1  0.348099  0.664308  0.492959  1
  Dy  Dy4  1  0.672667  0.342150  0.005949  1
  Dy  Dy5  1  0.342150  0.672667  0.005949  1
  Dy  Dy6  1  0.811245  0.811245  0.499734  1
  Dy  Dy7  1  0.182102  0.182102  0.492704  1
  In  In8  1  0.499904  0.005815  0.248588  1
  In  In9  1  0.501521  0.993337  0.749111  1
  In  In10  1  0.005815  0.499904  0.248588  1
  In  In11  1  0.993337  0.501521  0.749111  1
  Rh  Rh12  1  0.367747  0.367747  0.242970  1
  Rh  Rh13  1  0.628077  0.628077  0.756444  1
  Rh  Rh14  1  0.628217  0.628217  0.242610  1
  Au  Au15  1  0.869596  0.127680  0.741287  1
  Au  Au16  1  0.868772  0.125030  0.259889  1
  Au  Au17  1  0.373050  0.373050  0.760082  1
  Au  Au18  1  0.125030  0.868772  0.259889  1
  Au  Au19  1  0.127680  0.869596  0.741287  1
