# generated using pymatgen
data_Er4ZnSi6Ir
_symmetry_space_group_name_H-M   'P 1'
_cell_length_a   8.12483800
_cell_length_b   8.12483741
_cell_length_c   7.92346600
_cell_angle_alpha   90.00000000
_cell_angle_beta   90.00000000
_cell_angle_gamma   119.99999428
_symmetry_Int_Tables_number   1
_chemical_formula_structural   Er4ZnSi6Ir
_chemical_formula_sum   'Er8 Zn2 Si12 Ir2'
_cell_volume   452.97605423
_cell_formula_units_Z   2
loop_
 _symmetry_equiv_pos_site_id
 _symmetry_equiv_pos_as_xyz
  1  'x, y, z'
loop_
 _atom_site_type_symbol
 _atom_site_label
 _atom_site_symmetry_multiplicity
 _atom_site_fract_x
 _atom_site_fract_y
 _atom_site_fract_z
 _atom_site_occupancy
  Er  Er0  1  0.510234  0.020471  0.243542  1
  Er  Er1  1  0.489766  0.979529  0.756458  1
  Er  Er2  1  0.979529  0.489766  0.243542  1
  Er  Er3  1  0.020471  0.510234  0.756458  1
  Er  Er4  1  0.510234  0.489766  0.243542  1
  Er  Er5  1  0.489766  0.510234  0.756458  1
  Er  Er6  1  0.000000  0.000000  0.252058  1
  Er  Er7  1  0.000000  0.000000  0.747942  1
  Zn  Zn8  1  0.666667  0.333333  0.553391  1
  Zn  Zn9  1  0.333333  0.666667  0.446609  1
  Si  Si10  1  0.166071  0.332141  0.011025  1
  Si  Si11  1  0.833929  0.667859  0.988975  1
  Si  Si12  1  0.667859  0.833929  0.011025  1
  Si  Si13  1  0.833074  0.666147  0.491588  1
  Si  Si14  1  0.332141  0.166071  0.988975  1
  Si  Si15  1  0.166926  0.333853  0.508412  1
  Si  Si16  1  0.166071  0.833929  0.011025  1
  Si  Si17  1  0.333853  0.166926  0.491588  1
  Si  Si18  1  0.833929  0.166071  0.988975  1
  Si  Si19  1  0.666147  0.833074  0.508412  1
  Si  Si20  1  0.833074  0.166926  0.491588  1
  Si  Si21  1  0.166926  0.833074  0.508412  1
  Ir  Ir22  1  0.333333  0.666667  0.021976  1
  Ir  Ir23  1  0.666667  0.333333  0.978024  1
