# generated using pymatgen
data_Er8Ti3Re8Si16W
_symmetry_space_group_name_H-M   'P 1'
_cell_length_a   6.76311478
_cell_length_b   6.76314528
_cell_length_c   12.95240706
_cell_angle_alpha   90.00846357
_cell_angle_beta   89.99056849
_cell_angle_gamma   89.64581741
_symmetry_Int_Tables_number   1
_chemical_formula_structural   Er8Ti3Re8Si16W
_chemical_formula_sum   'Er8 Ti3 Re8 Si16 W1'
_cell_volume   592.43082961
_cell_formula_units_Z   1
loop_
 _symmetry_equiv_pos_site_id
 _symmetry_equiv_pos_as_xyz
  1  'x, y, z'
loop_
 _atom_site_type_symbol
 _atom_site_label
 _atom_site_symmetry_multiplicity
 _atom_site_fract_x
 _atom_site_fract_y
 _atom_site_fract_z
 _atom_site_occupancy
  Er  Er0  1  0.336211  0.992612  0.468936  1
  Er  Er1  1  0.509773  0.833535  0.717927  1
  Er  Er2  1  0.488298  0.167475  0.217020  1
  Er  Er3  1  0.833520  0.509749  0.282077  1
  Er  Er4  1  0.167466  0.488277  0.782972  1
  Er  Er5  1  0.661058  0.009269  0.969783  1
  Er  Er6  1  0.992595  0.336206  0.531100  1
  Er  Er7  1  0.009250  0.661041  0.030188  1
  Ti  Ti8  1  0.155258  0.845773  0.248365  1
  Ti  Ti9  1  0.845771  0.155259  0.751632  1
  Ti  Ti10  1  0.656895  0.656891  0.499999  1
  Re  Re11  1  0.183225  0.992573  0.862569  1
  Re  Re12  1  0.496592  0.694068  0.117721  1
  Re  Re13  1  0.502188  0.315528  0.616832  1
  Re  Re14  1  0.694047  0.496611  0.882273  1
  Re  Re15  1  0.315542  0.502178  0.383169  1
  Re  Re16  1  0.816196  0.002686  0.363697  1
  Re  Re17  1  0.992583  0.183220  0.137432  1
  Re  Re18  1  0.002696  0.816190  0.636297  1
  Si  Si19  1  0.207065  0.119699  0.678532  1
  Si  Si20  1  0.385857  0.698300  0.929440  1
  Si  Si21  1  0.619372  0.296357  0.429933  1
  Si  Si22  1  0.698284  0.385862  0.070560  1
  Si  Si23  1  0.296368  0.619354  0.570067  1
  Si  Si24  1  0.793277  0.881338  0.179601  1
  Si  Si25  1  0.119693  0.207083  0.321466  1
  Si  Si26  1  0.881327  0.793301  0.820397  1
  Si  Si27  1  0.269873  0.984838  0.054378  1
  Si  Si28  1  0.517119  0.783219  0.307476  1
  Si  Si29  1  0.481585  0.218263  0.808520  1
  Si  Si30  1  0.783228  0.517113  0.692530  1
  Si  Si31  1  0.218286  0.481589  0.191483  1
  Si  Si32  1  0.725250  0.017843  0.555499  1
  Si  Si33  1  0.984821  0.269868  0.945619  1
  Si  Si34  1  0.017848  0.725243  0.444505  1
  W  W35  1  0.341583  0.341591  0.000003  1
