# generated using pymatgen
data_Tb3ZrAl18NiRh5
_symmetry_space_group_name_H-M   'P 1'
_cell_length_a   7.54860156
_cell_length_b   7.53080147
_cell_length_c   9.42667834
_cell_angle_alpha   90.08451563
_cell_angle_beta   90.16360158
_cell_angle_gamma   119.66255425
_symmetry_Int_Tables_number   1
_chemical_formula_structural   Tb3ZrAl18NiRh5
_chemical_formula_sum   'Tb3 Zr1 Al18 Ni1 Rh5'
_cell_volume   465.64996523
_cell_formula_units_Z   1
loop_
 _symmetry_equiv_pos_site_id
 _symmetry_equiv_pos_as_xyz
  1  'x, y, z'
loop_
 _atom_site_type_symbol
 _atom_site_label
 _atom_site_symmetry_multiplicity
 _atom_site_fract_x
 _atom_site_fract_y
 _atom_site_fract_z
 _atom_site_occupancy
  Tb  Tb0  1  0.006986  0.329487  0.750466  1
  Tb  Tb1  1  0.669701  0.994544  0.249275  1
  Tb  Tb2  1  0.330101  0.006654  0.750500  1
  Zr  Zr3  1  0.993972  0.670444  0.248527  1
  Al  Al4  1  0.121388  0.118914  0.247431  1
  Al  Al5  1  0.873665  0.871365  0.752826  1
  Al  Al6  1  0.999345  0.336669  0.078495  1
  Al  Al7  1  0.000314  0.666887  0.931785  1
  Al  Al8  1  0.000025  0.666265  0.567733  1
  Al  Al9  1  0.330787  0.997320  0.421455  1
  Al  Al10  1  0.999819  0.337929  0.421384  1
  Al  Al11  1  0.665738  0.998619  0.573719  1
  Al  Al12  1  0.667234  0.998748  0.926393  1
  Al  Al13  1  0.329116  0.996476  0.078331  1
  Al  Al14  1  0.334421  0.334546  0.548003  1
  Al  Al15  1  0.669887  0.667390  0.442495  1
  Al  Al16  1  0.672572  0.669594  0.055811  1
  Al  Al17  1  0.332010  0.331800  0.954430  1
  Al  Al18  1  0.333633  0.549111  0.249547  1
  Al  Al19  1  0.662761  0.453273  0.750429  1
  Al  Al20  1  0.553888  0.343721  0.249486  1
  Al  Al21  1  0.452014  0.660135  0.750379  1
  Ni  Ni22  1  0.998790  0.998319  0.002111  1
  Rh  Rh23  1  0.672170  0.327716  0.001313  1
  Rh  Rh24  1  0.328857  0.672719  0.001620  1
  Rh  Rh25  1  0.328645  0.672849  0.498121  1
  Rh  Rh26  1  0.672529  0.328414  0.498651  1
  Rh  Rh27  1  0.999631  0.000092  0.499284  1
