# generated using pymatgen
data_Hg2(PS3)3
_symmetry_space_group_name_H-M   'P 1'
_cell_length_a   7.24666770
_cell_length_b   11.24951621
_cell_length_c   11.24951610
_cell_angle_alpha   119.15906053
_cell_angle_beta   92.11055084
_cell_angle_gamma   87.88945263
_symmetry_Int_Tables_number   1
_chemical_formula_structural   Hg2(PS3)3
_chemical_formula_sum   'Hg4 P6 S18'
_cell_volume   800.12599629
_cell_formula_units_Z   2
loop_
 _symmetry_equiv_pos_site_id
 _symmetry_equiv_pos_as_xyz
  1  'x, y, z'
loop_
 _atom_site_type_symbol
 _atom_site_label
 _atom_site_symmetry_multiplicity
 _atom_site_fract_x
 _atom_site_fract_y
 _atom_site_fract_z
 _atom_site_occupancy
  Hg  Hg0  1  0.353806  0.304221  0.048166  1
  Hg  Hg1  1  0.646194  0.048166  0.304221  1
  Hg  Hg2  1  0.353806  0.951835  0.695780  1
  Hg  Hg3  1  0.646194  0.695780  0.951834  1
  P  P4  1  0.353557  0.978100  0.021900  1
  P  P5  1  0.613889  0.716182  0.283817  1
  P  P6  1  0.301422  0.626544  0.373456  1
  P  P7  1  0.698577  0.373456  0.626544  1
  P  P8  1  0.386112  0.283818  0.716182  1
  P  P9  1  0.646443  0.021900  0.978100  1
  S  S10  1  0.823691  0.936228  0.063771  1
  S  S11  1  0.678217  0.226821  0.078342  1
  S  S12  1  0.733681  0.590430  0.105718  1
  S  S13  1  0.321784  0.078342  0.226821  1
  S  S14  1  0.320927  0.736164  0.263836  1
  S  S15  1  0.173470  0.448465  0.270206  1
  S  S16  1  0.594177  0.606975  0.393025  1
  S  S17  1  0.733681  0.894282  0.409570  1
  S  S18  1  0.826531  0.270206  0.448466  1
  S  S19  1  0.173470  0.729793  0.551534  1
  S  S20  1  0.266318  0.105718  0.590430  1
  S  S21  1  0.405823  0.393025  0.606975  1
  S  S22  1  0.826531  0.551534  0.729794  1
  S  S23  1  0.679073  0.263836  0.736164  1
  S  S24  1  0.678217  0.921658  0.773178  1
  S  S25  1  0.266318  0.409570  0.894282  1
  S  S26  1  0.321784  0.773178  0.921658  1
  S  S27  1  0.176310  0.063771  0.936228  1
