# generated using pymatgen
data_Ce2Pr3Tm3(CdIr)2
_symmetry_space_group_name_H-M   'P 1'
_cell_length_a   9.77893464
_cell_length_b   9.77893383
_cell_length_c   9.77893400
_cell_angle_alpha   59.99999943
_cell_angle_beta   60.00000215
_cell_angle_gamma   60.00000066
_symmetry_Int_Tables_number   1
_chemical_formula_structural   Ce2Pr3Tm3(CdIr)2
_chemical_formula_sum   'Ce4 Pr6 Tm6 Cd4 Ir4'
_cell_volume   661.24069735
_cell_formula_units_Z   2
loop_
 _symmetry_equiv_pos_site_id
 _symmetry_equiv_pos_as_xyz
  1  'x, y, z'
loop_
 _atom_site_type_symbol
 _atom_site_label
 _atom_site_symmetry_multiplicity
 _atom_site_fract_x
 _atom_site_fract_y
 _atom_site_fract_z
 _atom_site_occupancy
  Ce  Ce0  1  0.348917  0.348917  0.348917  1
  Ce  Ce1  1  0.348917  0.348917  0.953246  1
  Ce  Ce2  1  0.348917  0.953246  0.348917  1
  Ce  Ce3  1  0.953246  0.348917  0.348917  1
  Pr  Pr4  1  0.942197  0.557803  0.557803  1
  Pr  Pr5  1  0.557803  0.942197  0.942197  1
  Pr  Pr6  1  0.557803  0.942197  0.557803  1
  Pr  Pr7  1  0.942197  0.557803  0.942197  1
  Pr  Pr8  1  0.557803  0.557803  0.942197  1
  Pr  Pr9  1  0.942197  0.942197  0.557803  1
  Tm  Tm10  1  0.815880  0.184120  0.184120  1
  Tm  Tm11  1  0.184120  0.815880  0.815880  1
  Tm  Tm12  1  0.184120  0.815880  0.184120  1
  Tm  Tm13  1  0.815880  0.184120  0.815880  1
  Tm  Tm14  1  0.184120  0.184120  0.815880  1
  Tm  Tm15  1  0.815880  0.815880  0.184120  1
  Cd  Cd16  1  0.579297  0.579297  0.579297  1
  Cd  Cd17  1  0.579297  0.579297  0.262109  1
  Cd  Cd18  1  0.579297  0.262109  0.579297  1
  Cd  Cd19  1  0.262109  0.579297  0.579297  1
  Ir  Ir20  1  0.142362  0.142362  0.142362  1
  Ir  Ir21  1  0.142362  0.142362  0.572915  1
  Ir  Ir22  1  0.142362  0.572915  0.142362  1
  Ir  Ir23  1  0.572915  0.142362  0.142362  1
