# generated using pymatgen
data_Cr3Ni5P4
_symmetry_space_group_name_H-M   'P 1'
_cell_length_a   3.52457500
_cell_length_b   5.75215862
_cell_length_c   6.77238045
_cell_angle_alpha   90.10787740
_cell_angle_beta   90.00000000
_cell_angle_gamma   90.00000000
_symmetry_Int_Tables_number   1
_chemical_formula_structural   Cr3Ni5P4
_chemical_formula_sum   'Cr3 Ni5 P4'
_cell_volume   137.30241876
_cell_formula_units_Z   1
loop_
 _symmetry_equiv_pos_site_id
 _symmetry_equiv_pos_as_xyz
  1  'x, y, z'
loop_
 _atom_site_type_symbol
 _atom_site_label
 _atom_site_symmetry_multiplicity
 _atom_site_fract_x
 _atom_site_fract_y
 _atom_site_fract_z
 _atom_site_occupancy
  Cr  Cr0  1  0.750000  0.966264  0.328582  1
  Cr  Cr1  1  0.250000  0.531218  0.832044  1
  Cr  Cr2  1  0.250000  0.030184  0.672439  1
  Ni  Ni3  1  0.750000  0.472207  0.160550  1
  Ni  Ni4  1  0.750000  0.359301  0.560528  1
  Ni  Ni5  1  0.750000  0.859986  0.940191  1
  Ni  Ni6  1  0.250000  0.639641  0.435425  1
  Ni  Ni7  1  0.250000  0.144804  0.064939  1
  P  P8  1  0.750000  0.246627  0.875101  1
  P  P9  1  0.750000  0.744172  0.630214  1
  P  P10  1  0.250000  0.752256  0.124650  1
  P  P11  1  0.250000  0.253341  0.375337  1
