# generated using pymatgen
data_LaTb2Pr(Zn5Sn)2
_symmetry_space_group_name_H-M   'P 1'
_cell_length_a   8.52407190
_cell_length_b   8.52407383
_cell_length_c   9.07563784
_cell_angle_alpha   89.66005934
_cell_angle_beta   90.33994220
_cell_angle_gamma   149.65961369
_symmetry_Int_Tables_number   1
_chemical_formula_structural   LaTb2Pr(Zn5Sn)2
_chemical_formula_sum   'La1 Tb2 Pr1 Zn10 Sn2'
_cell_volume   333.09771295
_cell_formula_units_Z   1
loop_
 _symmetry_equiv_pos_site_id
 _symmetry_equiv_pos_as_xyz
  1  'x, y, z'
loop_
 _atom_site_type_symbol
 _atom_site_label
 _atom_site_symmetry_multiplicity
 _atom_site_fract_x
 _atom_site_fract_y
 _atom_site_fract_z
 _atom_site_occupancy
  La  La0  1  0.000000  0.000000  0.500000  1
  Tb  Tb1  1  0.205577  0.794423  0.249419  1
  Tb  Tb2  1  0.794423  0.205577  0.750581  1
  Pr  Pr3  1  0.000000  0.000000  0.000000  1
  Zn  Zn4  1  0.811919  0.188081  0.390378  1
  Zn  Zn5  1  0.188081  0.811919  0.609622  1
  Zn  Zn6  1  0.812619  0.187381  0.110095  1
  Zn  Zn7  1  0.187381  0.812619  0.889905  1
  Zn  Zn8  1  0.658737  0.341263  0.482862  1
  Zn  Zn9  1  0.341263  0.658737  0.517138  1
  Zn  Zn10  1  0.658530  0.341470  0.016780  1
  Zn  Zn11  1  0.341470  0.658530  0.983220  1
  Zn  Zn12  1  0.394254  0.605746  0.249691  1
  Zn  Zn13  1  0.605746  0.394254  0.750309  1
  Sn  Sn14  1  0.557922  0.442078  0.248043  1
  Sn  Sn15  1  0.442078  0.557922  0.751957  1
