# generated using pymatgen
data_La3Er(SnRh2)4
_symmetry_space_group_name_H-M   'P 1'
_cell_length_a   4.48262100
_cell_length_b   7.17415035
_cell_length_c   10.10788783
_cell_angle_alpha   91.14417122
_cell_angle_beta   90.00000000
_cell_angle_gamma   90.00000000
_symmetry_Int_Tables_number   1
_chemical_formula_structural   La3Er(SnRh2)4
_chemical_formula_sum   'La3 Er1 Sn4 Rh8'
_cell_volume   324.99472251
_cell_formula_units_Z   1
loop_
 _symmetry_equiv_pos_site_id
 _symmetry_equiv_pos_as_xyz
  1  'x, y, z'
loop_
 _atom_site_type_symbol
 _atom_site_label
 _atom_site_symmetry_multiplicity
 _atom_site_fract_x
 _atom_site_fract_y
 _atom_site_fract_z
 _atom_site_occupancy
  La  La0  1  0.750000  0.677352  0.905845  1
  La  La1  1  0.750000  0.818017  0.403509  1
  La  La2  1  0.250000  0.177045  0.594477  1
  Er  Er3  1  0.250000  0.322218  0.095539  1
  Sn  Sn4  1  0.250000  0.805503  0.141953  1
  Sn  Sn5  1  0.750000  0.195847  0.865422  1
  Sn  Sn6  1  0.750000  0.303330  0.349941  1
  Sn  Sn7  1  0.250000  0.688898  0.643041  1
  Rh  Rh8  1  0.250000  0.523527  0.376135  1
  Rh  Rh9  1  0.750000  0.477807  0.600675  1
  Rh  Rh10  1  0.750000  0.039020  0.120714  1
  Rh  Rh11  1  0.250000  0.991574  0.904666  1
  Rh  Rh12  1  0.250000  0.098860  0.312262  1
  Rh  Rh13  1  0.750000  0.896043  0.694117  1
  Rh  Rh14  1  0.750000  0.589868  0.180438  1
  Rh  Rh15  1  0.250000  0.395088  0.811267  1
