# generated using pymatgen
data_Tm16In6FeCu
_symmetry_space_group_name_H-M   'P 1'
_cell_length_a   10.31456100
_cell_length_b   10.31456088
_cell_length_c   6.84286500
_cell_angle_alpha   90.00000000
_cell_angle_beta   90.00000000
_cell_angle_gamma   119.99999719
_symmetry_Int_Tables_number   1
_chemical_formula_structural   Tm16In6FeCu
_chemical_formula_sum   'Tm16 In6 Fe1 Cu1'
_cell_volume   630.47824855
_cell_formula_units_Z   1
loop_
 _symmetry_equiv_pos_site_id
 _symmetry_equiv_pos_as_xyz
  1  'x, y, z'
loop_
 _atom_site_type_symbol
 _atom_site_label
 _atom_site_symmetry_multiplicity
 _atom_site_fract_x
 _atom_site_fract_y
 _atom_site_fract_z
 _atom_site_occupancy
  Tm  Tm0  1  0.526538  0.053078  0.517674  1
  Tm  Tm1  1  0.946922  0.473462  0.517674  1
  Tm  Tm2  1  0.526538  0.473462  0.517674  1
  Tm  Tm3  1  0.465022  0.930043  0.014745  1
  Tm  Tm4  1  0.069957  0.534978  0.014745  1
  Tm  Tm5  1  0.465022  0.534978  0.014745  1
  Tm  Tm6  1  0.178546  0.357092  0.726702  1
  Tm  Tm7  1  0.642908  0.821454  0.726702  1
  Tm  Tm8  1  0.178546  0.821454  0.726702  1
  Tm  Tm9  1  0.823533  0.647067  0.221649  1
  Tm  Tm10  1  0.352933  0.176467  0.221649  1
  Tm  Tm11  1  0.823533  0.176467  0.221649  1
  Tm  Tm12  1  0.666667  0.333333  0.887831  1
  Tm  Tm13  1  0.333333  0.666667  0.402954  1
  Tm  Tm14  1  0.000000  0.000000  0.499195  1
  Tm  Tm15  1  0.000000  0.000000  0.001842  1
  In  In16  1  0.836318  0.672637  0.753534  1
  In  In17  1  0.327363  0.163682  0.753534  1
  In  In18  1  0.836318  0.163682  0.753534  1
  In  In19  1  0.162618  0.325235  0.260197  1
  In  In20  1  0.674765  0.837382  0.260197  1
  In  In21  1  0.162618  0.837382  0.260197  1
  Fe  Fe22  1  0.333333  0.666667  0.790762  1
  Cu  Cu23  1  0.666667  0.333333  0.291917  1
