# generated using pymatgen
data_Sm11Hg9Pd4
_symmetry_space_group_name_H-M   'P 1'
_cell_length_a   13.34743800
_cell_length_b   13.34743781
_cell_length_c   3.74903100
_cell_angle_alpha   90.00000000
_cell_angle_beta   90.00000000
_cell_angle_gamma   112.45463463
_symmetry_Int_Tables_number   1
_chemical_formula_structural   Sm11Hg9Pd4
_chemical_formula_sum   'Sm11 Hg9 Pd4'
_cell_volume   617.26616078
_cell_formula_units_Z   1
loop_
 _symmetry_equiv_pos_site_id
 _symmetry_equiv_pos_as_xyz
  1  'x, y, z'
loop_
 _atom_site_type_symbol
 _atom_site_label
 _atom_site_symmetry_multiplicity
 _atom_site_fract_x
 _atom_site_fract_y
 _atom_site_fract_z
 _atom_site_occupancy
  Sm  Sm0  1  0.415722  0.073904  0.000000  1
  Sm  Sm1  1  0.584278  0.926096  0.000000  1
  Sm  Sm2  1  0.073909  0.415721  0.000000  1
  Sm  Sm3  1  0.926091  0.584279  0.000000  1
  Sm  Sm4  1  0.167150  0.832858  0.000000  1
  Sm  Sm5  1  0.832850  0.167142  0.000000  1
  Sm  Sm6  1  0.374574  0.625430  0.000000  1
  Sm  Sm7  1  0.625426  0.374570  0.000000  1
  Sm  Sm8  1  0.302105  0.302107  0.000000  1
  Sm  Sm9  1  0.697895  0.697893  0.000000  1
  Sm  Sm10  1  0.000000  0.000000  0.000000  1
  Hg  Hg11  1  0.500000  0.500000  0.500000  1
  Hg  Hg12  1  0.369309  0.839937  0.500000  1
  Hg  Hg13  1  0.630691  0.160063  0.500000  1
  Hg  Hg14  1  0.839937  0.369310  0.500000  1
  Hg  Hg15  1  0.160063  0.630690  0.500000  1
  Hg  Hg16  1  0.213168  0.063869  0.500000  1
  Hg  Hg17  1  0.786832  0.936131  0.500000  1
  Hg  Hg18  1  0.063871  0.213167  0.500000  1
  Hg  Hg19  1  0.936129  0.786833  0.500000  1
  Pd  Pd20  1  0.449102  0.249355  0.500000  1
  Pd  Pd21  1  0.550898  0.750645  0.500000  1
  Pd  Pd22  1  0.249365  0.449100  0.500000  1
  Pd  Pd23  1  0.750635  0.550900  0.500000  1
