# generated using pymatgen
data_HoLuSi3Au
_symmetry_space_group_name_H-M   'P 1'
_cell_length_a   8.15972782
_cell_length_b   8.13921114
_cell_length_c   5.73683844
_cell_angle_alpha   69.70297732
_cell_angle_beta   69.20009005
_cell_angle_gamma   41.21621987
_symmetry_Int_Tables_number   1
_chemical_formula_structural   HoLuSi3Au
_chemical_formula_sum   'Ho2 Lu2 Si6 Au2'
_cell_volume   232.70737099
_cell_formula_units_Z   2
loop_
 _symmetry_equiv_pos_site_id
 _symmetry_equiv_pos_as_xyz
  1  'x, y, z'
loop_
 _atom_site_type_symbol
 _atom_site_label
 _atom_site_symmetry_multiplicity
 _atom_site_fract_x
 _atom_site_fract_y
 _atom_site_fract_z
 _atom_site_occupancy
  Ho  Ho0  1  0.750098  0.749902  0.749903  1
  Ho  Ho1  1  0.242827  0.757173  0.757172  1
  Lu  Lu2  1  0.757290  0.242711  0.242710  1
  Lu  Lu3  1  0.249853  0.250147  0.250149  1
  Si  Si4  1  0.836889  0.837029  0.163509  1
  Si  Si5  1  0.327357  0.836110  0.164583  1
  Si  Si6  1  0.164180  0.672218  0.327759  1
  Si  Si7  1  0.835842  0.327760  0.672218  1
  Si  Si8  1  0.671948  0.164584  0.836109  1
  Si  Si9  1  0.162573  0.163509  0.837029  1
  Au  Au10  1  0.667321  0.666087  0.332768  1
  Au  Au11  1  0.333825  0.332768  0.666086  1
