# generated using pymatgen
data_K4Th6FeI18
_symmetry_space_group_name_H-M   'P 1'
_cell_length_a   11.78210983
_cell_length_b   11.87865794
_cell_length_c   11.97528237
_cell_angle_alpha   118.60858852
_cell_angle_beta   100.31660171
_cell_angle_gamma   103.54648333
_symmetry_Int_Tables_number   1
_chemical_formula_structural   K4Th6FeI18
_chemical_formula_sum   'K4 Th6 Fe1 I18'
_cell_volume   1344.59179717
_cell_formula_units_Z   1
loop_
 _symmetry_equiv_pos_site_id
 _symmetry_equiv_pos_as_xyz
  1  'x, y, z'
loop_
 _atom_site_type_symbol
 _atom_site_label
 _atom_site_symmetry_multiplicity
 _atom_site_fract_x
 _atom_site_fract_y
 _atom_site_fract_z
 _atom_site_occupancy
  K  K0  1  0.643729  0.535876  0.223982  1
  K  K1  1  0.356271  0.464124  0.776018  1
  K  K2  1  0.677865  0.224262  0.562734  1
  K  K3  1  0.322135  0.775738  0.437266  1
  Th  Th4  1  0.155861  0.057886  0.238964  1
  Th  Th5  1  0.844139  0.942114  0.761036  1
  Th  Th6  1  0.858388  0.133812  0.140050  1
  Th  Th7  1  0.141612  0.866188  0.859950  1
  Th  Th8  1  0.148963  0.246338  0.045558  1
  Th  Th9  1  0.851037  0.753662  0.954442  1
  Fe  Fe10  1  0.000000  0.000000  0.000000  1
  I  I11  1  0.010787  0.433545  0.210302  1
  I  I12  1  0.989213  0.566455  0.789698  1
  I  I13  1  0.343466  0.349950  0.327440  1
  I  I14  1  0.656534  0.650050  0.672560  1
  I  I15  1  0.338002  0.535838  0.103643  1
  I  I16  1  0.661998  0.464162  0.896357  1
  I  I17  1  0.006459  0.785541  0.221894  1
  I  I18  1  0.993541  0.214459  0.778106  1
  I  I19  1  0.697444  0.292599  0.304659  1
  I  I20  1  0.302556  0.707401  0.695341  1
  I  I21  1  0.329321  0.130494  0.894828  1
  I  I22  1  0.670679  0.869506  0.105172  1
  I  I23  1  0.018227  0.217159  0.431885  1
  I  I24  1  0.981773  0.782841  0.568115  1
  I  I25  1  0.335191  0.915164  0.113838  1
  I  I26  1  0.664809  0.084836  0.886162  1
  I  I27  1  0.349081  0.123961  0.518195  1
  I  I28  1  0.650919  0.876039  0.481805  1
