# generated using pymatgen
data_Pr4Hg2PdAu3
_symmetry_space_group_name_H-M   'P 1'
_cell_length_a   8.13369505
_cell_length_b   8.13369540
_cell_length_c   3.91965100
_cell_angle_alpha   90.00000000
_cell_angle_beta   90.00000000
_cell_angle_gamma   89.43307627
_symmetry_Int_Tables_number   1
_chemical_formula_structural   Pr4Hg2PdAu3
_chemical_formula_sum   'Pr4 Hg2 Pd1 Au3'
_cell_volume   259.29964952
_cell_formula_units_Z   1
loop_
 _symmetry_equiv_pos_site_id
 _symmetry_equiv_pos_as_xyz
  1  'x, y, z'
loop_
 _atom_site_type_symbol
 _atom_site_label
 _atom_site_symmetry_multiplicity
 _atom_site_fract_x
 _atom_site_fract_y
 _atom_site_fract_z
 _atom_site_occupancy
  Pr  Pr0  1  0.335257  0.823578  0.500000  1
  Pr  Pr1  1  0.820455  0.679545  0.500000  1
  Pr  Pr2  1  0.172433  0.327567  0.500000  1
  Pr  Pr3  1  0.676422  0.164743  0.500000  1
  Hg  Hg4  1  0.995460  0.998641  0.000000  1
  Hg  Hg5  1  0.501359  0.504540  0.000000  1
  Pd  Pd6  1  0.625339  0.874661  0.000000  1
  Au  Au7  1  0.376369  0.123631  0.000000  1
  Au  Au8  1  0.872618  0.375711  0.000000  1
  Au  Au9  1  0.124289  0.627382  0.000000  1
