# generated using pymatgen
data_Ho2ZnB2Rh5
_symmetry_space_group_name_H-M   'P 1'
_cell_length_a   3.18527800
_cell_length_b   9.50658600
_cell_length_c   9.50658600
_cell_angle_alpha   90.00000000
_cell_angle_beta   90.00000000
_cell_angle_gamma   90.00000000
_symmetry_Int_Tables_number   1
_chemical_formula_structural   Ho2ZnB2Rh5
_chemical_formula_sum   'Ho4 Zn2 B4 Rh10'
_cell_volume   287.87006424
_cell_formula_units_Z   2
loop_
 _symmetry_equiv_pos_site_id
 _symmetry_equiv_pos_as_xyz
  1  'x, y, z'
loop_
 _atom_site_type_symbol
 _atom_site_label
 _atom_site_symmetry_multiplicity
 _atom_site_fract_x
 _atom_site_fract_y
 _atom_site_fract_z
 _atom_site_occupancy
  Ho  Ho0  1  0.000000  0.824438  0.175562  1
  Ho  Ho1  1  0.000000  0.324437  0.324437  1
  Ho  Ho2  1  0.000000  0.675562  0.675562  1
  Ho  Ho3  1  0.000000  0.175562  0.824438  1
  Zn  Zn4  1  0.000000  0.500000  0.000000  1
  Zn  Zn5  1  0.000000  0.000000  0.500000  1
  B  B6  1  0.000000  0.123502  0.123502  1
  B  B7  1  0.000000  0.623502  0.376499  1
  B  B8  1  0.000000  0.376499  0.623502  1
  B  B9  1  0.000000  0.876499  0.876499  1
  Rh  Rh10  1  0.500001  0.000000  0.000000  1
  Rh  Rh11  1  0.500001  0.280334  0.070001  1
  Rh  Rh12  1  0.500001  0.570001  0.219668  1
  Rh  Rh13  1  0.500001  0.070001  0.280334  1
  Rh  Rh14  1  0.500001  0.780334  0.430000  1
  Rh  Rh15  1  0.500001  0.500000  0.500000  1
  Rh  Rh16  1  0.500001  0.219668  0.570001  1
  Rh  Rh17  1  0.500001  0.930000  0.719667  1
  Rh  Rh18  1  0.500001  0.430000  0.780334  1
  Rh  Rh19  1  0.500001  0.719667  0.930000  1
