# generated using pymatgen
data_TbY3Ga18Co5Pd
_symmetry_space_group_name_H-M   'P 1'
_cell_length_a   7.40869057
_cell_length_b   7.40874667
_cell_length_c   9.48741301
_cell_angle_alpha   90.00237704
_cell_angle_beta   89.99439826
_cell_angle_gamma   119.52953530
_symmetry_Int_Tables_number   1
_chemical_formula_structural   TbY3Ga18Co5Pd
_chemical_formula_sum   'Tb1 Y3 Ga18 Co5 Pd1'
_cell_volume   453.11041413
_cell_formula_units_Z   1
loop_
 _symmetry_equiv_pos_site_id
 _symmetry_equiv_pos_as_xyz
  1  'x, y, z'
loop_
 _atom_site_type_symbol
 _atom_site_label
 _atom_site_symmetry_multiplicity
 _atom_site_fract_x
 _atom_site_fract_y
 _atom_site_fract_z
 _atom_site_occupancy
  Tb  Tb0  1  0.673264  0.997384  0.748868  1
  Y  Y1  1  0.326509  0.002617  0.251126  1
  Y  Y2  1  0.997344  0.673392  0.748928  1
  Y  Y3  1  0.002723  0.326585  0.251057  1
  Ga  Ga4  1  0.998603  0.655437  0.074932  1
  Ga  Ga5  1  0.664417  0.001344  0.429631  1
  Ga  Ga6  1  0.001025  0.664198  0.429662  1
  Ga  Ga7  1  0.001200  0.344549  0.925058  1
  Ga  Ga8  1  0.655482  0.998796  0.074907  1
  Ga  Ga9  1  0.344435  0.001344  0.925086  1
  Ga  Ga10  1  0.666675  0.666452  0.556567  1
  Ga  Ga11  1  0.344108  0.344015  0.063283  1
  Ga  Ga12  1  0.656098  0.655958  0.936765  1
  Ga  Ga13  1  0.333489  0.333324  0.443371  1
  Ga  Ga14  1  0.132168  0.132298  0.741646  1
  Ga  Ga15  1  0.867777  0.867731  0.258358  1
  Ga  Ga16  1  0.663414  0.446537  0.251784  1
  Ga  Ga17  1  0.336674  0.553172  0.748294  1
  Ga  Ga18  1  0.446769  0.663374  0.251733  1
  Ga  Ga19  1  0.553271  0.336517  0.748188  1
  Ga  Ga20  1  0.335569  0.998927  0.570342  1
  Ga  Ga21  1  0.998743  0.335733  0.570317  1
  Co  Co22  1  0.670779  0.329145  0.000039  1
  Co  Co23  1  0.329488  0.670543  0.499963  1
  Co  Co24  1  0.329136  0.670824  0.000077  1
  Co  Co25  1  0.670495  0.329444  0.499957  1
  Co  Co26  1  0.000010  0.000038  0.499995  1
  Pd  Pd27  1  0.000337  0.000322  0.000068  1
