# generated using pymatgen
data_Li2Yb3AlSn3
_symmetry_space_group_name_H-M   'P 1'
_cell_length_a   7.51760485
_cell_length_b   7.51760539
_cell_length_c   4.62834300
_cell_angle_alpha   90.00000000
_cell_angle_beta   90.00000000
_cell_angle_gamma   121.15169565
_symmetry_Int_Tables_number   1
_chemical_formula_structural   Li2Yb3AlSn3
_chemical_formula_sum   'Li2 Yb3 Al1 Sn3'
_cell_volume   223.85004588
_cell_formula_units_Z   1
loop_
 _symmetry_equiv_pos_site_id
 _symmetry_equiv_pos_as_xyz
  1  'x, y, z'
loop_
 _atom_site_type_symbol
 _atom_site_label
 _atom_site_symmetry_multiplicity
 _atom_site_fract_x
 _atom_site_fract_y
 _atom_site_fract_z
 _atom_site_occupancy
  Li  Li0  1  0.233134  0.995485  0.500000  1
  Li  Li1  1  0.995485  0.233134  0.500000  1
  Yb  Yb2  1  0.005739  0.569146  0.000000  1
  Yb  Yb3  1  0.435251  0.435251  0.000000  1
  Yb  Yb4  1  0.569146  0.005739  0.000000  1
  Al  Al5  1  0.757957  0.757957  0.500000  1
  Sn  Sn6  1  0.340842  0.670392  0.500000  1
  Sn  Sn7  1  0.670392  0.340842  0.500000  1
  Sn  Sn8  1  0.992056  0.992056  0.000000  1
