# generated using pymatgen
data_Ac8Si13Sn
_symmetry_space_group_name_H-M   'P 1'
_cell_length_a   8.47432116
_cell_length_b   8.43126752
_cell_length_c   9.14157600
_cell_angle_alpha   90.00000000
_cell_angle_beta   90.00000000
_cell_angle_gamma   120.10293789
_symmetry_Int_Tables_number   1
_chemical_formula_structural   Ac8Si13Sn
_chemical_formula_sum   'Ac8 Si13 Sn1'
_cell_volume   565.06457091
_cell_formula_units_Z   1
loop_
 _symmetry_equiv_pos_site_id
 _symmetry_equiv_pos_as_xyz
  1  'x, y, z'
loop_
 _atom_site_type_symbol
 _atom_site_label
 _atom_site_symmetry_multiplicity
 _atom_site_fract_x
 _atom_site_fract_y
 _atom_site_fract_z
 _atom_site_occupancy
  Ac  Ac0  1  0.258034  0.249850  0.991829  1
  Ac  Ac1  1  0.749755  0.751760  0.999315  1
  Ac  Ac2  1  0.749755  0.751760  0.500685  1
  Ac  Ac3  1  0.258034  0.249850  0.508171  1
  Ac  Ac4  1  0.251150  0.749641  0.499079  1
  Ac  Ac5  1  0.741736  0.249581  0.507946  1
  Ac  Ac6  1  0.741736  0.249581  0.992054  1
  Ac  Ac7  1  0.251150  0.749641  0.000921  1
  Si  Si8  1  0.921206  0.592189  0.750000  1
  Si  Si9  1  0.582658  0.415953  0.250000  1
  Si  Si10  1  0.417193  0.585648  0.750000  1
  Si  Si11  1  0.428579  0.595091  0.250000  1
  Si  Si12  1  0.587918  0.416252  0.750000  1
  Si  Si13  1  0.082744  0.927675  0.250000  1
  Si  Si14  1  0.918479  0.082157  0.750000  1
  Si  Si15  1  0.595273  0.926270  0.250000  1
  Si  Si16  1  0.409987  0.076921  0.750000  1
  Si  Si17  1  0.917359  0.594643  0.250000  1
  Si  Si18  1  0.075118  0.414331  0.750000  1
  Si  Si19  1  0.414123  0.075391  0.250000  1
  Si  Si20  1  0.584779  0.921609  0.750000  1
  Sn  Sn21  1  0.063236  0.374207  0.250000  1
