# generated using pymatgen
data_SmHfB6Os
_symmetry_space_group_name_H-M   'P 1'
_cell_length_a   3.58722900
_cell_length_b   9.05808600
_cell_length_c   11.46316300
_cell_angle_alpha   90.00000000
_cell_angle_beta   90.00000000
_cell_angle_gamma   90.00000000
_symmetry_Int_Tables_number   1
_chemical_formula_structural   SmHfB6Os
_chemical_formula_sum   'Sm4 Hf4 B24 Os4'
_cell_volume   372.47747058
_cell_formula_units_Z   4
loop_
 _symmetry_equiv_pos_site_id
 _symmetry_equiv_pos_as_xyz
  1  'x, y, z'
loop_
 _atom_site_type_symbol
 _atom_site_label
 _atom_site_symmetry_multiplicity
 _atom_site_fract_x
 _atom_site_fract_y
 _atom_site_fract_z
 _atom_site_occupancy
  Sm  Sm0  1  0.000000  0.321794  0.414286  1
  Sm  Sm1  1  0.000000  0.678206  0.585714  1
  Sm  Sm2  1  0.000000  0.821794  0.085714  1
  Sm  Sm3  1  0.000000  0.178206  0.914286  1
  Hf  Hf4  1  0.000000  0.945359  0.374470  1
  Hf  Hf5  1  0.000000  0.054641  0.625530  1
  Hf  Hf6  1  0.000000  0.445359  0.125530  1
  Hf  Hf7  1  0.000000  0.554641  0.874470  1
  B  B8  1  0.500000  0.555726  0.432248  1
  B  B9  1  0.500000  0.444274  0.567752  1
  B  B10  1  0.500000  0.055726  0.067752  1
  B  B11  1  0.500000  0.944274  0.932248  1
  B  B12  1  0.500000  0.753224  0.417298  1
  B  B13  1  0.500000  0.246776  0.582702  1
  B  B14  1  0.500000  0.253224  0.082702  1
  B  B15  1  0.500000  0.746776  0.917298  1
  B  B16  1  0.500000  0.795257  0.264396  1
  B  B17  1  0.500000  0.204743  0.735604  1
  B  B18  1  0.500000  0.295257  0.235604  1
  B  B19  1  0.500000  0.704743  0.764396  1
  B  B20  1  0.500000  0.629552  0.182623  1
  B  B21  1  0.500000  0.370448  0.817377  1
  B  B22  1  0.500000  0.129552  0.317377  1
  B  B23  1  0.500000  0.870448  0.682623  1
  B  B24  1  0.500000  0.983127  0.214547  1
  B  B25  1  0.500000  0.016873  0.785453  1
  B  B26  1  0.500000  0.483127  0.285453  1
  B  B27  1  0.500000  0.516873  0.714547  1
  B  B28  1  0.500000  0.599727  0.026650  1
  B  B29  1  0.500000  0.400273  0.973350  1
  B  B30  1  0.500000  0.099727  0.473350  1
  B  B31  1  0.500000  0.900273  0.526650  1
  Os  Os32  1  0.000000  0.642400  0.317863  1
  Os  Os33  1  0.000000  0.357600  0.682137  1
  Os  Os34  1  0.000000  0.142400  0.182137  1
  Os  Os35  1  0.000000  0.857600  0.817863  1
