# generated using pymatgen
data_Lu10Cd3Pt
_symmetry_space_group_name_H-M   'P 1'
_cell_length_a   9.52340768
_cell_length_b   9.52639257
_cell_length_c   9.47199004
_cell_angle_alpha   89.99906292
_cell_angle_beta   89.99911310
_cell_angle_gamma   119.99681746
_symmetry_Int_Tables_number   1
_chemical_formula_structural   Lu10Cd3Pt
_chemical_formula_sum   'Lu20 Cd6 Pt2'
_cell_volume   744.22908927
_cell_formula_units_Z   2
loop_
 _symmetry_equiv_pos_site_id
 _symmetry_equiv_pos_as_xyz
  1  'x, y, z'
loop_
 _atom_site_type_symbol
 _atom_site_label
 _atom_site_symmetry_multiplicity
 _atom_site_fract_x
 _atom_site_fract_y
 _atom_site_fract_z
 _atom_site_occupancy
  Lu  Lu0  1  0.000183  0.000294  0.500065  1
  Lu  Lu1  1  0.999796  0.999720  0.000101  1
  Lu  Lu2  1  0.208378  0.791615  0.443603  1
  Lu  Lu3  1  0.208375  0.416753  0.442979  1
  Lu  Lu4  1  0.583365  0.791777  0.442776  1
  Lu  Lu5  1  0.791536  0.208415  0.556270  1
  Lu  Lu6  1  0.791787  0.583388  0.557059  1
  Lu  Lu7  1  0.416785  0.208335  0.557070  1
  Lu  Lu8  1  0.791613  0.208320  0.943628  1
  Lu  Lu9  1  0.791786  0.583246  0.943045  1
  Lu  Lu10  1  0.416679  0.208214  0.942919  1
  Lu  Lu11  1  0.208348  0.791563  0.056312  1
  Lu  Lu12  1  0.208231  0.416522  0.057013  1
  Lu  Lu13  1  0.583276  0.791725  0.057094  1
  Lu  Lu14  1  0.541973  0.458263  0.249964  1
  Lu  Lu15  1  0.542402  0.084561  0.249935  1
  Lu  Lu16  1  0.915563  0.457494  0.249961  1
  Lu  Lu17  1  0.458283  0.541833  0.750044  1
  Lu  Lu18  1  0.457408  0.915427  0.749959  1
  Lu  Lu19  1  0.084473  0.542413  0.749951  1
  Cd  Cd20  1  0.885131  0.115522  0.250040  1
  Cd  Cd21  1  0.885937  0.770245  0.250409  1
  Cd  Cd22  1  0.229706  0.114732  0.249924  1
  Cd  Cd23  1  0.114666  0.884419  0.749992  1
  Cd  Cd24  1  0.114273  0.229778  0.750163  1
  Cd  Cd25  1  0.770262  0.885587  0.749857  1
  Pt  Pt26  1  0.332504  0.666828  0.249850  1
  Pt  Pt27  1  0.667278  0.333010  0.750017  1
