# generated using pymatgen
data_CaNd6IrBr12
_symmetry_space_group_name_H-M   'P 1'
_cell_length_a   9.58920736
_cell_length_b   9.58920786
_cell_length_c   9.58920739
_cell_angle_alpha   107.31644722
_cell_angle_beta   107.31644594
_cell_angle_gamma   107.31642073
_symmetry_Int_Tables_number   1
_chemical_formula_structural   CaNd6IrBr12
_chemical_formula_sum   'Ca1 Nd6 Ir1 Br12'
_cell_volume   727.90253019
_cell_formula_units_Z   1
loop_
 _symmetry_equiv_pos_site_id
 _symmetry_equiv_pos_as_xyz
  1  'x, y, z'
loop_
 _atom_site_type_symbol
 _atom_site_label
 _atom_site_symmetry_multiplicity
 _atom_site_fract_x
 _atom_site_fract_y
 _atom_site_fract_z
 _atom_site_occupancy
  Ca  Ca0  1  0.500000  0.500000  0.500000  1
  Nd  Nd1  1  0.105185  0.316393  0.025180  1
  Nd  Nd2  1  0.316393  0.025181  0.105184  1
  Nd  Nd3  1  0.025181  0.105184  0.316394  1
  Nd  Nd4  1  0.974820  0.894816  0.683607  1
  Nd  Nd5  1  0.683607  0.974820  0.894816  1
  Nd  Nd6  1  0.894815  0.683607  0.974820  1
  Ir  Ir7  1  0.000000  0.000000  0.000000  1
  Br  Br8  1  0.221164  0.683935  0.073790  1
  Br  Br9  1  0.456994  0.379602  0.165823  1
  Br  Br10  1  0.683936  0.073790  0.221164  1
  Br  Br11  1  0.926211  0.778836  0.316065  1
  Br  Br12  1  0.165823  0.456994  0.379602  1
  Br  Br13  1  0.379602  0.165823  0.456994  1
  Br  Br14  1  0.620398  0.834177  0.543007  1
  Br  Br15  1  0.834178  0.543006  0.620398  1
  Br  Br16  1  0.073790  0.221164  0.683936  1
  Br  Br17  1  0.316065  0.926211  0.778836  1
  Br  Br18  1  0.543006  0.620398  0.834178  1
  Br  Br19  1  0.778836  0.316065  0.926210  1
