# generated using pymatgen
data_Hf9Mo4Ir
_symmetry_space_group_name_H-M   'P 1'
_cell_length_a   8.76064500
_cell_length_b   8.76064464
_cell_length_c   8.51634700
_cell_angle_alpha   90.00000000
_cell_angle_beta   90.00000000
_cell_angle_gamma   119.99999757
_symmetry_Int_Tables_number   1
_chemical_formula_structural   Hf9Mo4Ir
_chemical_formula_sum   'Hf18 Mo8 Ir2'
_cell_volume   566.05175009
_cell_formula_units_Z   2
loop_
 _symmetry_equiv_pos_site_id
 _symmetry_equiv_pos_as_xyz
  1  'x, y, z'
loop_
 _atom_site_type_symbol
 _atom_site_label
 _atom_site_symmetry_multiplicity
 _atom_site_fract_x
 _atom_site_fract_y
 _atom_site_fract_z
 _atom_site_occupancy
  Hf  Hf0  1  0.197692  0.802308  0.446045  1
  Hf  Hf1  1  0.197692  0.395383  0.446045  1
  Hf  Hf2  1  0.604617  0.802308  0.446045  1
  Hf  Hf3  1  0.802308  0.197692  0.553955  1
  Hf  Hf4  1  0.802308  0.604617  0.553955  1
  Hf  Hf5  1  0.395383  0.197692  0.553955  1
  Hf  Hf6  1  0.802308  0.197692  0.946045  1
  Hf  Hf7  1  0.802308  0.604617  0.946045  1
  Hf  Hf8  1  0.395383  0.197692  0.946045  1
  Hf  Hf9  1  0.197692  0.802308  0.053955  1
  Hf  Hf10  1  0.197692  0.395383  0.053955  1
  Hf  Hf11  1  0.604617  0.802308  0.053955  1
  Hf  Hf12  1  0.542972  0.457028  0.250000  1
  Hf  Hf13  1  0.542972  0.085944  0.250000  1
  Hf  Hf14  1  0.914056  0.457028  0.250000  1
  Hf  Hf15  1  0.457028  0.542972  0.750000  1
  Hf  Hf16  1  0.457028  0.914056  0.750000  1
  Hf  Hf17  1  0.085944  0.542972  0.750000  1
  Mo  Mo18  1  0.888343  0.111657  0.250000  1
  Mo  Mo19  1  0.888343  0.776685  0.250000  1
  Mo  Mo20  1  0.223315  0.111657  0.250000  1
  Mo  Mo21  1  0.111657  0.888343  0.750000  1
  Mo  Mo22  1  0.111657  0.223315  0.750000  1
  Mo  Mo23  1  0.776685  0.888343  0.750000  1
  Mo  Mo24  1  0.000000  0.000000  0.500000  1
  Mo  Mo25  1  0.000000  0.000000  0.000000  1
  Ir  Ir26  1  0.333333  0.666667  0.250000  1
  Ir  Ir27  1  0.666667  0.333333  0.750000  1
