# generated using pymatgen
data_LaUCo12Si2P5
_symmetry_space_group_name_H-M   'P 1'
_cell_length_a   9.14455534
_cell_length_b   9.12936853
_cell_length_c   3.62694900
_cell_angle_alpha   90.00011770
_cell_angle_beta   89.99990063
_cell_angle_gamma   120.29498108
_symmetry_Int_Tables_number   1
_chemical_formula_structural   LaUCo12Si2P5
_chemical_formula_sum   'La1 U1 Co12 Si2 P5'
_cell_volume   261.44287729
_cell_formula_units_Z   1
loop_
 _symmetry_equiv_pos_site_id
 _symmetry_equiv_pos_as_xyz
  1  'x, y, z'
loop_
 _atom_site_type_symbol
 _atom_site_label
 _atom_site_symmetry_multiplicity
 _atom_site_fract_x
 _atom_site_fract_y
 _atom_site_fract_z
 _atom_site_occupancy
  La  La0  1  0.335271  0.666967  0.500000  1
  U  U1  1  0.001717  0.998209  0.999997  1
  Co  Co2  1  0.101668  0.381032  0.000007  1
  Co  Co3  1  0.611673  0.715708  0.999993  1
  Co  Co4  1  0.290590  0.902954  0.000002  1
  Co  Co5  1  0.042105  0.775930  0.500003  1
  Co  Co6  1  0.227394  0.268670  0.500004  1
  Co  Co7  1  0.728997  0.957253  0.499997  1
  Co  Co8  1  0.814415  0.612694  0.999995  1
  Co  Co9  1  0.389636  0.210439  0.000000  1
  Co  Co10  1  0.792646  0.178850  0.000003  1
  Co  Co11  1  0.897009  0.434904  0.500007  1
  Co  Co12  1  0.559335  0.463456  0.499988  1
  Co  Co13  1  0.540481  0.101641  0.500000  1
  Si  Si14  1  0.668641  0.333626  0.000004  1
  Si  Si15  1  0.060400  0.619859  0.000005  1
  P  P16  1  0.771691  0.733947  0.499994  1
  P  P17  1  0.269516  0.040071  0.500001  1
  P  P18  1  0.960434  0.226586  0.500004  1
  P  P19  1  0.376339  0.440390  0.999998  1
  P  P20  1  0.560045  0.936811  0.999997  1
