# generated using pymatgen
data_Y10In5Te
_symmetry_space_group_name_H-M   'P 1'
_cell_length_a   9.03003000
_cell_length_b   9.01403372
_cell_length_c   6.64751200
_cell_angle_alpha   90.00000000
_cell_angle_beta   90.00000000
_cell_angle_gamma   120.05872058
_symmetry_Int_Tables_number   1
_chemical_formula_structural   Y10In5Te
_chemical_formula_sum   'Y10 In5 Te1'
_cell_volume   468.31800363
_cell_formula_units_Z   1
loop_
 _symmetry_equiv_pos_site_id
 _symmetry_equiv_pos_as_xyz
  1  'x, y, z'
loop_
 _atom_site_type_symbol
 _atom_site_label
 _atom_site_symmetry_multiplicity
 _atom_site_fract_x
 _atom_site_fract_y
 _atom_site_fract_z
 _atom_site_occupancy
  Y  Y0  1  0.993618  0.756802  0.750000  1
  Y  Y1  1  0.000244  0.238865  0.250000  1
  Y  Y2  1  0.761379  0.761135  0.250000  1
  Y  Y3  1  0.766004  0.000000  0.750000  1
  Y  Y4  1  0.236817  0.243198  0.750000  1
  Y  Y5  1  0.238988  0.000000  0.250000  1
  Y  Y6  1  0.334644  0.664765  0.495967  1
  Y  Y7  1  0.669880  0.335235  0.004033  1
  Y  Y8  1  0.669880  0.335235  0.495967  1
  Y  Y9  1  0.334644  0.664765  0.004033  1
  In  In10  1  0.399928  0.396535  0.250000  1
  In  In11  1  0.003393  0.603465  0.250000  1
  In  In12  1  0.998611  0.400571  0.750000  1
  In  In13  1  0.598040  0.599429  0.750000  1
  In  In14  1  0.603371  0.000000  0.250000  1
  Te  Te15  1  0.390558  0.000000  0.750000  1
