# generated using pymatgen
data_Zr2Ta4NbH16
_symmetry_space_group_name_H-M   'P 1'
_cell_length_a   6.42677662
_cell_length_b   6.50298708
_cell_length_c   6.50298842
_cell_angle_alpha   59.22615388
_cell_angle_beta   60.38692072
_cell_angle_gamma   60.38692070
_symmetry_Int_Tables_number   1
_chemical_formula_structural   Zr2Ta4NbH16
_chemical_formula_sum   'Zr2 Ta4 Nb1 H16'
_cell_volume   192.12599532
_cell_formula_units_Z   1
loop_
 _symmetry_equiv_pos_site_id
 _symmetry_equiv_pos_as_xyz
  1  'x, y, z'
loop_
 _atom_site_type_symbol
 _atom_site_label
 _atom_site_symmetry_multiplicity
 _atom_site_fract_x
 _atom_site_fract_y
 _atom_site_fract_z
 _atom_site_occupancy
  Zr  Zr0  1  0.000000  0.500000  0.500000  1
  Zr  Zr1  1  0.500000  0.000000  0.000000  1
  Ta  Ta2  1  0.000000  0.000000  0.500000  1
  Ta  Ta3  1  0.500000  0.000000  0.500000  1
  Ta  Ta4  1  0.500000  0.500000  0.000000  1
  Ta  Ta5  1  0.000000  0.500000  0.000000  1
  Nb  Nb6  1  0.000000  0.000000  0.000000  1
  H  H7  1  0.869324  0.888461  0.372889  1
  H  H8  1  0.869324  0.372889  0.888461  1
  H  H9  1  0.372889  0.869324  0.869324  1
  H  H10  1  0.888461  0.869324  0.869324  1
  H  H11  1  0.130676  0.111539  0.627111  1
  H  H12  1  0.130676  0.627111  0.111539  1
  H  H13  1  0.627111  0.130676  0.130676  1
  H  H14  1  0.111539  0.130676  0.130676  1
  H  H15  1  0.629577  0.603925  0.136920  1
  H  H16  1  0.629577  0.136920  0.603925  1
  H  H17  1  0.136920  0.629577  0.629577  1
  H  H18  1  0.603925  0.629577  0.629577  1
  H  H19  1  0.370423  0.396075  0.863080  1
  H  H20  1  0.370423  0.863080  0.396075  1
  H  H21  1  0.863080  0.370423  0.370423  1
  H  H22  1  0.396075  0.370423  0.370423  1
