# generated using pymatgen
data_Lu18Sc2Bi11Au
_symmetry_space_group_name_H-M   'P 1'
_cell_length_a   8.02531033
_cell_length_b   9.33505500
_cell_length_c   11.75087938
_cell_angle_alpha   90.00000000
_cell_angle_beta   89.55273818
_cell_angle_gamma   90.00000000
_symmetry_Int_Tables_number   1
_chemical_formula_structural   Lu18Sc2Bi11Au
_chemical_formula_sum   'Lu18 Sc2 Bi11 Au1'
_cell_volume   880.31043996
_cell_formula_units_Z   1
loop_
 _symmetry_equiv_pos_site_id
 _symmetry_equiv_pos_as_xyz
  1  'x, y, z'
loop_
 _atom_site_type_symbol
 _atom_site_label
 _atom_site_symmetry_multiplicity
 _atom_site_fract_x
 _atom_site_fract_y
 _atom_site_fract_z
 _atom_site_occupancy
  Lu  Lu0  1  0.039370  0.250000  0.506747  1
  Lu  Lu1  1  0.525131  0.250000  0.989991  1
  Lu  Lu2  1  0.356023  0.250000  0.295117  1
  Lu  Lu3  1  0.653023  0.750000  0.717610  1
  Lu  Lu4  1  0.147595  0.750000  0.781037  1
  Lu  Lu5  1  0.851408  0.250000  0.215377  1
  Lu  Lu6  1  0.202056  0.250000  0.776571  1
  Lu  Lu7  1  0.809121  0.750000  0.216401  1
  Lu  Lu8  1  0.313629  0.750000  0.282706  1
  Lu  Lu9  1  0.668854  0.250000  0.707958  1
  Lu  Lu10  1  0.192279  0.067081  0.062237  1
  Lu  Lu11  1  0.805105  0.931292  0.942536  1
  Lu  Lu12  1  0.308281  0.951136  0.558406  1
  Lu  Lu13  1  0.805105  0.568708  0.942536  1
  Lu  Lu14  1  0.684437  0.072506  0.445338  1
  Lu  Lu15  1  0.192279  0.432919  0.062237  1
  Lu  Lu16  1  0.684437  0.427494  0.445338  1
  Lu  Lu17  1  0.308281  0.548864  0.558406  1
  Sc  Sc18  1  0.983044  0.750000  0.490225  1
  Sc  Sc19  1  0.476985  0.750000  0.012597  1
  Bi  Bi20  1  0.600442  0.750000  0.457930  1
  Bi  Bi21  1  0.102250  0.750000  0.042337  1
  Bi  Bi22  1  0.905607  0.250000  0.950186  1
  Bi  Bi23  1  0.057614  0.998412  0.324478  1
  Bi  Bi24  1  0.934669  0.996776  0.673743  1
  Bi  Bi25  1  0.435835  0.991537  0.829044  1
  Bi  Bi26  1  0.934669  0.503224  0.673743  1
  Bi  Bi27  1  0.562071  0.002045  0.174013  1
  Bi  Bi28  1  0.057614  0.501588  0.324478  1
  Bi  Bi29  1  0.562071  0.497955  0.174013  1
  Bi  Bi30  1  0.435835  0.508463  0.829044  1
  Au  Au31  1  0.404881  0.250000  0.537620  1
