# generated using pymatgen
data_Y4Er4Tc(B8Os)3
_symmetry_space_group_name_H-M   'P 1'
_cell_length_a   3.65197700
_cell_length_b   9.13450850
_cell_length_c   11.52920200
_cell_angle_alpha   89.94967128
_cell_angle_beta   90.00000000
_cell_angle_gamma   90.00000000
_symmetry_Int_Tables_number   1
_chemical_formula_structural   Y4Er4Tc(B8Os)3
_chemical_formula_sum   'Y4 Er4 Tc1 B24 Os3'
_cell_volume   384.60267362
_cell_formula_units_Z   1
loop_
 _symmetry_equiv_pos_site_id
 _symmetry_equiv_pos_as_xyz
  1  'x, y, z'
loop_
 _atom_site_type_symbol
 _atom_site_label
 _atom_site_symmetry_multiplicity
 _atom_site_fract_x
 _atom_site_fract_y
 _atom_site_fract_z
 _atom_site_occupancy
  Y  Y0  1  0.000000  0.323443  0.412968  1
  Y  Y1  1  0.000000  0.677709  0.583593  1
  Y  Y2  1  0.000000  0.819904  0.087978  1
  Y  Y3  1  0.000000  0.177956  0.914727  1
  Er  Er4  1  0.000000  0.942617  0.372566  1
  Er  Er5  1  0.000000  0.056978  0.627461  1
  Er  Er6  1  0.000000  0.444467  0.128313  1
  Er  Er7  1  0.000000  0.556773  0.872183  1
  Tc  Tc8  1  0.000000  0.637947  0.320821  1
  B  B9  1  0.500000  0.553334  0.432612  1
  B  B10  1  0.500000  0.446158  0.567658  1
  B  B11  1  0.500000  0.053975  0.067562  1
  B  B12  1  0.500000  0.945951  0.932735  1
  B  B13  1  0.500000  0.748688  0.418896  1
  B  B14  1  0.500000  0.251454  0.580991  1
  B  B15  1  0.500000  0.248851  0.080933  1
  B  B16  1  0.500000  0.751226  0.919037  1
  B  B17  1  0.500000  0.791403  0.266484  1
  B  B18  1  0.500000  0.208898  0.733511  1
  B  B19  1  0.500000  0.291113  0.232935  1
  B  B20  1  0.500000  0.709265  0.766516  1
  B  B21  1  0.500000  0.631115  0.185800  1
  B  B22  1  0.500000  0.368758  0.814665  1
  B  B23  1  0.500000  0.131039  0.314078  1
  B  B24  1  0.500000  0.869204  0.685520  1
  B  B25  1  0.500000  0.983069  0.213236  1
  B  B26  1  0.500000  0.016861  0.787192  1
  B  B27  1  0.500000  0.482661  0.286813  1
  B  B28  1  0.500000  0.516612  0.713251  1
  B  B29  1  0.500000  0.605542  0.028792  1
  B  B30  1  0.500000  0.394246  0.970564  1
  B  B31  1  0.500000  0.106062  0.470809  1
  B  B32  1  0.500000  0.895055  0.529544  1
  Os  Os33  1  0.000000  0.361678  0.679753  1
  Os  Os34  1  0.000000  0.137855  0.178778  1
  Os  Os35  1  0.000000  0.862137  0.820725  1
