# generated using pymatgen
data_Ba4MnTcO8
_symmetry_space_group_name_H-M   'P 1'
_cell_length_a   7.23488212
_cell_length_b   7.23488234
_cell_length_c   5.83707100
_cell_angle_alpha   90.00000000
_cell_angle_beta   90.00000000
_cell_angle_gamma   132.30808188
_symmetry_Int_Tables_number   1
_chemical_formula_structural   Ba4MnTcO8
_chemical_formula_sum   'Ba4 Mn1 Tc1 O8'
_cell_volume   225.95258763
_cell_formula_units_Z   1
loop_
 _symmetry_equiv_pos_site_id
 _symmetry_equiv_pos_as_xyz
  1  'x, y, z'
loop_
 _atom_site_type_symbol
 _atom_site_label
 _atom_site_symmetry_multiplicity
 _atom_site_fract_x
 _atom_site_fract_y
 _atom_site_fract_z
 _atom_site_occupancy
  Ba  Ba0  1  0.356222  0.643778  0.000000  1
  Ba  Ba1  1  0.857838  0.142162  0.500000  1
  Ba  Ba2  1  0.142162  0.857838  0.500000  1
  Ba  Ba3  1  0.643778  0.356222  0.000000  1
  Mn  Mn4  1  0.000000  0.000000  0.000000  1
  Tc  Tc5  1  0.500000  0.500000  0.500000  1
  O  O6  1  0.259053  0.259053  0.740817  1
  O  O7  1  0.740947  0.740947  0.259183  1
  O  O8  1  0.740947  0.740947  0.740817  1
  O  O9  1  0.259053  0.259053  0.259183  1
  O  O10  1  0.148389  0.851611  0.000000  1
  O  O11  1  0.652410  0.347590  0.500000  1
  O  O12  1  0.347590  0.652410  0.500000  1
  O  O13  1  0.851611  0.148389  0.000000  1
