# generated using pymatgen
data_Zr4ZnGa8Au3
_symmetry_space_group_name_H-M   'P 1'
_cell_length_a   6.00121702
_cell_length_b   6.00212282
_cell_length_c   7.79039100
_cell_angle_alpha   90.00582301
_cell_angle_beta   89.99585645
_cell_angle_gamma   89.95571690
_symmetry_Int_Tables_number   1
_chemical_formula_structural   Zr4ZnGa8Au3
_chemical_formula_sum   'Zr4 Zn1 Ga8 Au3'
_cell_volume   280.61012206
_cell_formula_units_Z   1
loop_
 _symmetry_equiv_pos_site_id
 _symmetry_equiv_pos_as_xyz
  1  'x, y, z'
loop_
 _atom_site_type_symbol
 _atom_site_label
 _atom_site_symmetry_multiplicity
 _atom_site_fract_x
 _atom_site_fract_y
 _atom_site_fract_z
 _atom_site_occupancy
  Zr  Zr0  1  0.750042  0.250004  0.999990  1
  Zr  Zr1  1  0.249969  0.749997  0.999987  1
  Zr  Zr2  1  0.250043  0.750001  0.499998  1
  Zr  Zr3  1  0.749959  0.250001  0.499996  1
  Zn  Zn4  1  0.250013  0.249999  0.500009  1
  Ga  Ga5  1  0.497377  0.002634  0.250158  1
  Ga  Ga6  1  0.497347  0.497332  0.250144  1
  Ga  Ga7  1  0.002632  0.002654  0.250205  1
  Ga  Ga8  1  0.002611  0.497362  0.250214  1
  Ga  Ga9  1  0.002644  0.002655  0.749792  1
  Ga  Ga10  1  0.002627  0.497371  0.749781  1
  Ga  Ga11  1  0.497409  0.002630  0.749845  1
  Ga  Ga12  1  0.497386  0.497354  0.749859  1
  Au  Au13  1  0.249963  0.249999  0.000014  1
  Au  Au14  1  0.750017  0.750001  0.000032  1
  Au  Au15  1  0.749964  0.750004  0.499970  1
