# generated using pymatgen
data_Pr5SnBi2Se
_symmetry_space_group_name_H-M   'P 1'
_cell_length_a   9.64894500
_cell_length_b   9.59301284
_cell_length_c   6.90053000
_cell_angle_alpha   90.00000000
_cell_angle_beta   90.00000000
_cell_angle_gamma   120.19305643
_symmetry_Int_Tables_number   1
_chemical_formula_structural   Pr5SnBi2Se
_chemical_formula_sum   'Pr10 Sn2 Bi4 Se2'
_cell_volume   552.07716472
_cell_formula_units_Z   2
loop_
 _symmetry_equiv_pos_site_id
 _symmetry_equiv_pos_as_xyz
  1  'x, y, z'
loop_
 _atom_site_type_symbol
 _atom_site_label
 _atom_site_symmetry_multiplicity
 _atom_site_fract_x
 _atom_site_fract_y
 _atom_site_fract_z
 _atom_site_occupancy
  Pr  Pr0  1  0.255025  0.000000  0.750000  1
  Pr  Pr1  1  0.744975  0.000000  0.250000  1
  Pr  Pr2  1  0.996061  0.249820  0.750000  1
  Pr  Pr3  1  0.003939  0.750180  0.250000  1
  Pr  Pr4  1  0.746241  0.750180  0.750000  1
  Pr  Pr5  1  0.253759  0.249820  0.250000  1
  Pr  Pr6  1  0.336570  0.673141  0.500000  1
  Pr  Pr7  1  0.663430  0.326859  0.500000  1
  Pr  Pr8  1  0.663430  0.326859  0.000000  1
  Pr  Pr9  1  0.336570  0.673141  0.000000  1
  Sn  Sn10  1  0.606674  0.000000  0.750000  1
  Sn  Sn11  1  0.393326  0.000000  0.250000  1
  Bi  Bi12  1  0.998911  0.607096  0.750000  1
  Bi  Bi13  1  0.001089  0.392904  0.250000  1
  Bi  Bi14  1  0.391816  0.392904  0.750000  1
  Bi  Bi15  1  0.608184  0.607096  0.250000  1
  Se  Se16  1  0.000000  0.000000  0.500000  1
  Se  Se17  1  0.000000  0.000000  0.000000  1
