# generated using pymatgen
data_Cs4Na2DyAlAs4
_symmetry_space_group_name_H-M   'P 1'
_cell_length_a   9.80897393
_cell_length_b   9.80897454
_cell_length_c   9.80897450
_cell_angle_alpha   137.24485374
_cell_angle_beta   60.67704168
_cell_angle_gamma   139.06648148
_symmetry_Int_Tables_number   1
_chemical_formula_structural   Cs4Na2DyAlAs4
_chemical_formula_sum   'Cs4 Na2 Dy1 Al1 As4'
_cell_volume   415.27219139
_cell_formula_units_Z   1
loop_
 _symmetry_equiv_pos_site_id
 _symmetry_equiv_pos_as_xyz
  1  'x, y, z'
loop_
 _atom_site_type_symbol
 _atom_site_label
 _atom_site_symmetry_multiplicity
 _atom_site_fract_x
 _atom_site_fract_y
 _atom_site_fract_z
 _atom_site_occupancy
  Cs  Cs0  1  0.325576  0.773870  0.097293  1
  Cs  Cs1  1  0.174424  0.271716  0.448293  1
  Cs  Cs2  1  0.823423  0.726131  0.551708  1
  Cs  Cs3  1  0.676577  0.228285  0.902708  1
  Na  Na4  1  0.750000  0.250000  0.500000  1
  Na  Na5  1  0.250000  0.750001  0.500001  1
  Dy  Dy6  1  0.250000  0.250000  0.000000  1
  Al  Al7  1  0.750000  0.750000  0.000000  1
  As  As8  1  0.892244  0.188614  0.121288  1
  As  As9  1  0.607756  0.729044  0.296371  1
  As  As10  1  0.432673  0.311386  0.703630  1
  As  As11  1  0.067327  0.770957  0.878713  1
