# generated using pymatgen
data_LaY3ScBi3
_symmetry_space_group_name_H-M   'P 1'
_cell_length_a   8.22537200
_cell_length_b   9.48394400
_cell_length_c   12.11464900
_cell_angle_alpha   90.00000000
_cell_angle_beta   90.00000000
_cell_angle_gamma   90.00000000
_symmetry_Int_Tables_number   1
_chemical_formula_structural   LaY3ScBi3
_chemical_formula_sum   'La4 Y12 Sc4 Bi12'
_cell_volume   945.05125923
_cell_formula_units_Z   4
loop_
 _symmetry_equiv_pos_site_id
 _symmetry_equiv_pos_as_xyz
  1  'x, y, z'
loop_
 _atom_site_type_symbol
 _atom_site_label
 _atom_site_symmetry_multiplicity
 _atom_site_fract_x
 _atom_site_fract_y
 _atom_site_fract_z
 _atom_site_occupancy
  La  La0  1  0.182332  0.750000  0.722098  1
  La  La1  1  0.682332  0.750000  0.777902  1
  La  La2  1  0.817668  0.250000  0.277902  1
  La  La3  1  0.317668  0.250000  0.222098  1
  Y  Y4  1  0.303501  0.436974  0.940563  1
  Y  Y5  1  0.803501  0.063026  0.559437  1
  Y  Y6  1  0.696499  0.936974  0.059437  1
  Y  Y7  1  0.196499  0.563026  0.440563  1
  Y  Y8  1  0.696499  0.563026  0.059437  1
  Y  Y9  1  0.196499  0.936974  0.440563  1
  Y  Y10  1  0.303501  0.063026  0.940563  1
  Y  Y11  1  0.803501  0.436974  0.559437  1
  Y  Y12  1  0.353638  0.750000  0.216521  1
  Y  Y13  1  0.853638  0.750000  0.283479  1
  Y  Y14  1  0.646362  0.250000  0.783479  1
  Y  Y15  1  0.146362  0.250000  0.716521  1
  Sc  Sc16  1  0.025200  0.750000  0.988552  1
  Sc  Sc17  1  0.525200  0.750000  0.511448  1
  Sc  Sc18  1  0.974800  0.250000  0.011448  1
  Sc  Sc19  1  0.474800  0.250000  0.488552  1
  Bi  Bi20  1  0.435092  0.009449  0.665525  1
  Bi  Bi21  1  0.935092  0.490551  0.834475  1
  Bi  Bi22  1  0.564908  0.509449  0.334475  1
  Bi  Bi23  1  0.064908  0.990551  0.165525  1
  Bi  Bi24  1  0.564908  0.990551  0.334475  1
  Bi  Bi25  1  0.064908  0.509449  0.165525  1
  Bi  Bi26  1  0.435092  0.490551  0.665525  1
  Bi  Bi27  1  0.935092  0.009449  0.834475  1
  Bi  Bi28  1  0.402601  0.750000  0.963688  1
  Bi  Bi29  1  0.902601  0.750000  0.536312  1
  Bi  Bi30  1  0.597399  0.250000  0.036312  1
  Bi  Bi31  1  0.097399  0.250000  0.463688  1
