# generated using pymatgen
data_LiTm3(Si4Tc3)2
_symmetry_space_group_name_H-M   'P 1'
_cell_length_a   6.73992942
_cell_length_b   6.56184784
_cell_length_c   6.74506500
_cell_angle_alpha   70.72434978
_cell_angle_beta   89.86972288
_cell_angle_gamma   89.88574365
_symmetry_Int_Tables_number   1
_chemical_formula_structural   LiTm3(Si4Tc3)2
_chemical_formula_sum   'Li1 Tm3 Si8 Tc6'
_cell_volume   281.58605648
_cell_formula_units_Z   1
loop_
 _symmetry_equiv_pos_site_id
 _symmetry_equiv_pos_as_xyz
  1  'x, y, z'
loop_
 _atom_site_type_symbol
 _atom_site_label
 _atom_site_symmetry_multiplicity
 _atom_site_fract_x
 _atom_site_fract_y
 _atom_site_fract_z
 _atom_site_occupancy
  Li  Li0  1  0.670587  0.453261  0.183302  1
  Tm  Tm1  1  0.167201  0.061559  0.805588  1
  Tm  Tm2  1  0.335486  0.554821  0.812929  1
  Tm  Tm3  1  0.830976  0.941533  0.194564  1
  Si  Si4  1  0.459130  0.128360  0.106652  1
  Si  Si5  1  0.947831  0.379132  0.905329  1
  Si  Si6  1  0.547447  0.872584  0.906705  1
  Si  Si7  1  0.033904  0.617092  0.105894  1
  Si  Si8  1  0.850367  0.149620  0.495172  1
  Si  Si9  1  0.373027  0.366312  0.480585  1
  Si  Si10  1  0.138498  0.864697  0.492885  1
  Si  Si11  1  0.641232  0.622748  0.501695  1
  Tc  Tc12  1  0.501093  0.996615  0.502209  1
  Tc  Tc13  1  0.002124  0.497714  0.504349  1
  Tc  Tc14  1  0.158439  0.241758  0.236087  1
  Tc  Tc15  1  0.658584  0.250133  0.770007  1
  Tc  Tc16  1  0.842893  0.760214  0.762496  1
  Tc  Tc17  1  0.341182  0.741847  0.233550  1
