# generated using pymatgen
data_TbSmDy2(CrB4)4
_symmetry_space_group_name_H-M   'P 1'
_cell_length_a   5.95653129
_cell_length_b   11.50890854
_cell_length_c   3.46316300
_cell_angle_alpha   90.00000000
_cell_angle_beta   90.00000000
_cell_angle_gamma   90.08622601
_symmetry_Int_Tables_number   1
_chemical_formula_structural   TbSmDy2(CrB4)4
_chemical_formula_sum   'Tb1 Sm1 Dy2 Cr4 B16'
_cell_volume   237.41054612
_cell_formula_units_Z   1
loop_
 _symmetry_equiv_pos_site_id
 _symmetry_equiv_pos_as_xyz
  1  'x, y, z'
loop_
 _atom_site_type_symbol
 _atom_site_label
 _atom_site_symmetry_multiplicity
 _atom_site_fract_x
 _atom_site_fract_y
 _atom_site_fract_z
 _atom_site_occupancy
  Tb  Tb0  1  0.876003  0.848804  0.000000  1
  Sm  Sm1  1  0.123984  0.151060  0.000000  1
  Dy  Dy2  1  0.623967  0.349740  0.000000  1
  Dy  Dy3  1  0.376021  0.650759  0.000000  1
  Cr  Cr4  1  0.623228  0.079786  0.000000  1
  Cr  Cr5  1  0.377197  0.918749  0.000000  1
  Cr  Cr6  1  0.123168  0.420644  0.000000  1
  Cr  Cr7  1  0.876458  0.580759  0.000000  1
  B  B8  1  0.777925  0.184152  0.500000  1
  B  B9  1  0.220347  0.815289  0.500000  1
  B  B10  1  0.280600  0.317519  0.500000  1
  B  B11  1  0.719703  0.683886  0.500000  1
  B  B12  1  0.861266  0.031579  0.500000  1
  B  B13  1  0.138565  0.966213  0.500000  1
  B  B14  1  0.362601  0.468254  0.500000  1
  B  B15  1  0.637411  0.532869  0.500000  1
  B  B16  1  0.886077  0.454023  0.500000  1
  B  B17  1  0.113323  0.547073  0.500000  1
  B  B18  1  0.388531  0.045526  0.500000  1
  B  B19  1  0.613346  0.952553  0.500000  1
  B  B20  1  0.973275  0.310345  0.500000  1
  B  B21  1  0.025706  0.691160  0.500000  1
  B  B22  1  0.476007  0.191120  0.500000  1
  B  B23  1  0.525289  0.808142  0.500000  1
