# generated using pymatgen
data_Ce3Ho(B4Os)4
_symmetry_space_group_name_H-M   'P 1'
_cell_length_a   3.61502600
_cell_length_b   6.01301080
_cell_length_c   11.65816102
_cell_angle_alpha   90.08937644
_cell_angle_beta   90.00000000
_cell_angle_gamma   90.00000000
_symmetry_Int_Tables_number   1
_chemical_formula_structural   Ce3Ho(B4Os)4
_chemical_formula_sum   'Ce3 Ho1 B16 Os4'
_cell_volume   253.41535727
_cell_formula_units_Z   1
loop_
 _symmetry_equiv_pos_site_id
 _symmetry_equiv_pos_as_xyz
  1  'x, y, z'
loop_
 _atom_site_type_symbol
 _atom_site_label
 _atom_site_symmetry_multiplicity
 _atom_site_fract_x
 _atom_site_fract_y
 _atom_site_fract_z
 _atom_site_occupancy
  Ce  Ce0  1  0.000000  0.629022  0.649839  1
  Ce  Ce1  1  0.000000  0.371112  0.349345  1
  Ce  Ce2  1  0.000000  0.128761  0.851506  1
  Ho  Ho3  1  0.000000  0.871861  0.149004  1
  B  B4  1  0.500000  0.974304  0.690595  1
  B  B5  1  0.500000  0.025319  0.307961  1
  B  B6  1  0.500000  0.472342  0.810523  1
  B  B7  1  0.500000  0.527885  0.190368  1
  B  B8  1  0.500000  0.787475  0.815041  1
  B  B9  1  0.500000  0.211614  0.185755  1
  B  B10  1  0.500000  0.285627  0.686742  1
  B  B11  1  0.500000  0.714043  0.312787  1
  B  B12  1  0.500000  0.863448  0.969978  1
  B  B13  1  0.500000  0.136922  0.031859  1
  B  B14  1  0.500000  0.362053  0.530312  1
  B  B15  1  0.500000  0.637307  0.468682  1
  B  B16  1  0.500000  0.888179  0.545327  1
  B  B17  1  0.500000  0.110971  0.453039  1
  B  B18  1  0.500000  0.388677  0.955463  1
  B  B19  1  0.500000  0.613478  0.047112  1
  Os  Os20  1  0.000000  0.640210  0.906031  1
  Os  Os21  1  0.000000  0.358810  0.093632  1
  Os  Os22  1  0.000000  0.140892  0.593958  1
  Os  Os23  1  0.000000  0.859690  0.405140  1
