# generated using pymatgen
data_LiTm6Zn22Ge
_symmetry_space_group_name_H-M   'P 1'
_cell_length_a   9.02666954
_cell_length_b   9.02666898
_cell_length_c   9.02667000
_cell_angle_alpha   59.99999625
_cell_angle_beta   59.99999831
_cell_angle_gamma   59.99999681
_symmetry_Int_Tables_number   1
_chemical_formula_structural   LiTm6Zn22Ge
_chemical_formula_sum   'Li1 Tm6 Zn22 Ge1'
_cell_volume   520.07694195
_cell_formula_units_Z   1
loop_
 _symmetry_equiv_pos_site_id
 _symmetry_equiv_pos_as_xyz
  1  'x, y, z'
loop_
 _atom_site_type_symbol
 _atom_site_label
 _atom_site_symmetry_multiplicity
 _atom_site_fract_x
 _atom_site_fract_y
 _atom_site_fract_z
 _atom_site_occupancy
  Li  Li0  1  0.000000  0.000000  0.000000  1
  Tm  Tm1  1  0.716318  0.283682  0.283682  1
  Tm  Tm2  1  0.716318  0.283682  0.716318  1
  Tm  Tm3  1  0.716318  0.716318  0.283682  1
  Tm  Tm4  1  0.283682  0.716318  0.716318  1
  Tm  Tm5  1  0.283682  0.716318  0.283682  1
  Tm  Tm6  1  0.283682  0.283682  0.716318  1
  Zn  Zn7  1  0.623759  0.125414  0.125414  1
  Zn  Zn8  1  0.125414  0.623759  0.125414  1
  Zn  Zn9  1  0.125414  0.125414  0.623759  1
  Zn  Zn10  1  0.125414  0.125414  0.125414  1
  Zn  Zn11  1  0.376241  0.874586  0.874586  1
  Zn  Zn12  1  0.874586  0.376241  0.874586  1
  Zn  Zn13  1  0.874586  0.874586  0.376241  1
  Zn  Zn14  1  0.874586  0.874586  0.874586  1
  Zn  Zn15  1  0.500000  0.000000  0.000000  1
  Zn  Zn16  1  0.500000  0.000000  0.500000  1
  Zn  Zn17  1  0.500000  0.500000  0.000000  1
  Zn  Zn18  1  0.000000  0.500000  0.500000  1
  Zn  Zn19  1  0.000000  0.500000  0.000000  1
  Zn  Zn20  1  0.000000  0.000000  0.500000  1
  Zn  Zn21  1  0.005571  0.331476  0.331476  1
  Zn  Zn22  1  0.331476  0.005571  0.331476  1
  Zn  Zn23  1  0.331476  0.331476  0.005571  1
  Zn  Zn24  1  0.331476  0.331476  0.331476  1
  Zn  Zn25  1  0.994429  0.668524  0.668524  1
  Zn  Zn26  1  0.668524  0.994429  0.668524  1
  Zn  Zn27  1  0.668524  0.668524  0.994429  1
  Zn  Zn28  1  0.668524  0.668524  0.668524  1
  Ge  Ge29  1  0.500000  0.500000  0.500000  1
