# generated using pymatgen
data_Lu2TiNb3(B2Ru5)2
_symmetry_space_group_name_H-M   'P 1'
_cell_length_a   9.48048148
_cell_length_b   9.47136191
_cell_length_c   3.08504800
_cell_angle_alpha   90.00000000
_cell_angle_beta   90.00000000
_cell_angle_gamma   90.24081203
_symmetry_Int_Tables_number   1
_chemical_formula_structural   Lu2TiNb3(B2Ru5)2
_chemical_formula_sum   'Lu2 Ti1 Nb3 B4 Ru10'
_cell_volume   277.01348785
_cell_formula_units_Z   1
loop_
 _symmetry_equiv_pos_site_id
 _symmetry_equiv_pos_as_xyz
  1  'x, y, z'
loop_
 _atom_site_type_symbol
 _atom_site_label
 _atom_site_symmetry_multiplicity
 _atom_site_fract_x
 _atom_site_fract_y
 _atom_site_fract_z
 _atom_site_occupancy
  Lu  Lu0  1  0.822687  0.673950  0.000000  1
  Lu  Lu1  1  0.177313  0.326050  0.000000  1
  Ti  Ti2  1  0.500000  0.500000  0.000000  1
  Nb  Nb3  1  0.326120  0.821445  0.000000  1
  Nb  Nb4  1  0.673880  0.178555  0.000000  1
  Nb  Nb5  1  0.000000  0.000000  0.000000  1
  B  B6  1  0.619796  0.874735  0.000000  1
  B  B7  1  0.380204  0.125265  0.000000  1
  B  B8  1  0.123932  0.619088  0.000000  1
  B  B9  1  0.876068  0.380912  0.000000  1
  Ru  Ru10  1  0.560788  0.719945  0.500000  1
  Ru  Ru11  1  0.439212  0.280055  0.500000  1
  Ru  Ru12  1  0.080210  0.784492  0.500000  1
  Ru  Ru13  1  0.919790  0.215508  0.500000  1
  Ru  Ru14  1  0.287165  0.579509  0.500000  1
  Ru  Ru15  1  0.712835  0.420491  0.500000  1
  Ru  Ru16  1  0.222555  0.062077  0.500000  1
  Ru  Ru17  1  0.777445  0.937923  0.500000  1
  Ru  Ru18  1  0.500000  0.000000  0.500000  1
  Ru  Ru19  1  0.000000  0.500000  0.500000  1
