# generated using pymatgen
data_La4Al3ZnPd4
_symmetry_space_group_name_H-M   'P 1'
_cell_length_a   7.19310028
_cell_length_b   4.59387200
_cell_length_c   8.01337575
_cell_angle_alpha   90.00000000
_cell_angle_beta   90.46994405
_cell_angle_gamma   90.00000000
_symmetry_Int_Tables_number   1
_chemical_formula_structural   La4Al3ZnPd4
_chemical_formula_sum   'La4 Al3 Zn1 Pd4'
_cell_volume   264.78653948
_cell_formula_units_Z   1
loop_
 _symmetry_equiv_pos_site_id
 _symmetry_equiv_pos_as_xyz
  1  'x, y, z'
loop_
 _atom_site_type_symbol
 _atom_site_label
 _atom_site_symmetry_multiplicity
 _atom_site_fract_x
 _atom_site_fract_y
 _atom_site_fract_z
 _atom_site_occupancy
  La  La0  1  0.032549  0.250000  0.312195  1
  La  La1  1  0.538317  0.250000  0.181912  1
  La  La2  1  0.965275  0.750000  0.689976  1
  La  La3  1  0.466077  0.750000  0.816891  1
  Al  Al4  1  0.644149  0.250000  0.566493  1
  Al  Al5  1  0.148674  0.250000  0.931699  1
  Al  Al6  1  0.352546  0.750000  0.432163  1
  Zn  Zn7  1  0.847520  0.750000  0.070962  1
  Pd  Pd8  1  0.279709  0.250000  0.605893  1
  Pd  Pd9  1  0.779471  0.250000  0.882608  1
  Pd  Pd10  1  0.716642  0.750000  0.401172  1
  Pd  Pd11  1  0.229071  0.750000  0.108036  1
