# generated using pymatgen
data_Ho16In4TcNi3
_symmetry_space_group_name_H-M   'P 1'
_cell_length_a   9.56197514
_cell_length_b   9.56197573
_cell_length_c   9.56197565
_cell_angle_alpha   59.81988145
_cell_angle_beta   59.81987844
_cell_angle_gamma   59.81988101
_symmetry_Int_Tables_number   1
_chemical_formula_structural   Ho16In4TcNi3
_chemical_formula_sum   'Ho16 In4 Tc1 Ni3'
_cell_volume   615.67098680
_cell_formula_units_Z   1
loop_
 _symmetry_equiv_pos_site_id
 _symmetry_equiv_pos_as_xyz
  1  'x, y, z'
loop_
 _atom_site_type_symbol
 _atom_site_label
 _atom_site_symmetry_multiplicity
 _atom_site_fract_x
 _atom_site_fract_y
 _atom_site_fract_z
 _atom_site_occupancy
  Ho  Ho0  1  0.346545  0.346545  0.346545  1
  Ho  Ho1  1  0.350127  0.350127  0.954787  1
  Ho  Ho2  1  0.350127  0.954787  0.350127  1
  Ho  Ho3  1  0.954787  0.350127  0.350127  1
  Ho  Ho4  1  0.810114  0.188866  0.188866  1
  Ho  Ho5  1  0.188923  0.810717  0.810717  1
  Ho  Ho6  1  0.188866  0.810114  0.188866  1
  Ho  Ho7  1  0.810717  0.188923  0.810717  1
  Ho  Ho8  1  0.188866  0.188866  0.810114  1
  Ho  Ho9  1  0.810717  0.810717  0.188923  1
  Ho  Ho10  1  0.936496  0.563969  0.563969  1
  Ho  Ho11  1  0.554285  0.941715  0.941715  1
  Ho  Ho12  1  0.563969  0.936496  0.563969  1
  Ho  Ho13  1  0.941715  0.554285  0.941715  1
  Ho  Ho14  1  0.563969  0.563969  0.936496  1
  Ho  Ho15  1  0.941715  0.941715  0.554285  1
  In  In16  1  0.582955  0.582955  0.582955  1
  In  In17  1  0.581328  0.581328  0.252500  1
  In  In18  1  0.581328  0.252500  0.581328  1
  In  In19  1  0.252500  0.581328  0.581328  1
  Tc  Tc20  1  0.142001  0.142001  0.142001  1
  Ni  Ni21  1  0.140728  0.140728  0.576491  1
  Ni  Ni22  1  0.140728  0.576491  0.140728  1
  Ni  Ni23  1  0.576491  0.140728  0.140728  1
