# generated using pymatgen
data_Eu8Lu12Ge15Bi
_symmetry_space_group_name_H-M   'P 1'
_cell_length_a   7.62790148
_cell_length_b   7.87444400
_cell_length_c   14.91120800
_cell_angle_alpha   90.10196828
_cell_angle_beta   88.04973904
_cell_angle_gamma   90.22613798
_symmetry_Int_Tables_number   1
_chemical_formula_structural   Eu8Lu12Ge15Bi
_chemical_formula_sum   'Eu8 Lu12 Ge15 Bi1'
_cell_volume   895.12191988
_cell_formula_units_Z   1
loop_
 _symmetry_equiv_pos_site_id
 _symmetry_equiv_pos_as_xyz
  1  'x, y, z'
loop_
 _atom_site_type_symbol
 _atom_site_label
 _atom_site_symmetry_multiplicity
 _atom_site_fract_x
 _atom_site_fract_y
 _atom_site_fract_z
 _atom_site_occupancy
  Eu  Eu0  1  0.014003  0.178032  0.095249  1
  Eu  Eu1  1  0.986984  0.824286  0.904973  1
  Eu  Eu2  1  0.487758  0.675418  0.905245  1
  Eu  Eu3  1  0.993403  0.826752  0.595450  1
  Eu  Eu4  1  0.513152  0.323855  0.095178  1
  Eu  Eu5  1  0.001561  0.174724  0.402729  1
  Eu  Eu6  1  0.509143  0.318591  0.401556  1
  Eu  Eu7  1  0.510145  0.683346  0.598557  1
  Lu  Lu8  1  0.167046  0.508891  0.754799  1
  Lu  Lu9  1  0.831070  0.491637  0.251673  1
  Lu  Lu10  1  0.334468  0.010961  0.250390  1
  Lu  Lu11  1  0.669072  0.990779  0.752411  1
  Lu  Lu12  1  0.342218  0.151171  0.629428  1
  Lu  Lu13  1  0.664508  0.832602  0.375759  1
  Lu  Lu14  1  0.159031  0.674993  0.372218  1
  Lu  Lu15  1  0.674639  0.829842  0.120326  1
  Lu  Lu16  1  0.819941  0.334815  0.622511  1
  Lu  Lu17  1  0.321749  0.166987  0.878228  1
  Lu  Lu18  1  0.823154  0.330557  0.878876  1
  Lu  Lu19  1  0.176147  0.670349  0.120880  1
  Ge  Ge20  1  0.026613  0.132713  0.750366  1
  Ge  Ge21  1  0.967923  0.877093  0.246067  1
  Ge  Ge22  1  0.465428  0.626695  0.245525  1
  Ge  Ge23  1  0.530367  0.371746  0.755273  1
  Ge  Ge24  1  0.294851  0.866226  0.752877  1
  Ge  Ge25  1  0.711092  0.123239  0.247233  1
  Ge  Ge26  1  0.210671  0.378313  0.249950  1
  Ge  Ge27  1  0.794379  0.625615  0.751016  1
  Ge  Ge28  1  0.815827  0.542814  0.452350  1
  Ge  Ge29  1  0.332166  0.960614  0.457865  1
  Ge  Ge30  1  0.846900  0.535217  0.043632  1
  Ge  Ge31  1  0.667283  0.040153  0.540965  1
  Ge  Ge32  1  0.152888  0.464590  0.957558  1
  Ge  Ge33  1  0.652847  0.034951  0.957574  1
  Ge  Ge34  1  0.346247  0.965947  0.043230  1
  Bi  Bi35  1  0.185324  0.455487  0.542086  1
