# generated using pymatgen
data_MgNbNi12P7
_symmetry_space_group_name_H-M   'P 1'
_cell_length_a   8.99203600
_cell_length_b   8.99203684
_cell_length_c   3.53262200
_cell_angle_alpha   90.00000000
_cell_angle_beta   90.00000000
_cell_angle_gamma   120.00000427
_symmetry_Int_Tables_number   1
_chemical_formula_structural   MgNbNi12P7
_chemical_formula_sum   'Mg1 Nb1 Ni12 P7'
_cell_volume   247.36821585
_cell_formula_units_Z   1
loop_
 _symmetry_equiv_pos_site_id
 _symmetry_equiv_pos_as_xyz
  1  'x, y, z'
loop_
 _atom_site_type_symbol
 _atom_site_label
 _atom_site_symmetry_multiplicity
 _atom_site_fract_x
 _atom_site_fract_y
 _atom_site_fract_z
 _atom_site_occupancy
  Mg  Mg0  1  0.333333  0.666667  0.500000  1
  Nb  Nb1  1  0.000000  0.000000  0.000000  1
  Ni  Ni2  1  0.290862  0.395221  0.000000  1
  Ni  Ni3  1  0.880949  0.459501  0.500000  1
  Ni  Ni4  1  0.104358  0.709138  0.000000  1
  Ni  Ni5  1  0.540499  0.421449  0.500000  1
  Ni  Ni6  1  0.387257  0.176116  0.000000  1
  Ni  Ni7  1  0.788859  0.612743  0.000000  1
  Ni  Ni8  1  0.823884  0.211141  0.000000  1
  Ni  Ni9  1  0.233136  0.948602  0.500000  1
  Ni  Ni10  1  0.051398  0.284534  0.500000  1
  Ni  Ni11  1  0.715466  0.766864  0.500000  1
  Ni  Ni12  1  0.578551  0.119051  0.500000  1
  Ni  Ni13  1  0.604779  0.895642  0.000000  1
  P  P14  1  0.666667  0.333333  0.000000  1
  P  P15  1  0.078498  0.454711  0.000000  1
  P  P16  1  0.248619  0.208905  0.500000  1
  P  P17  1  0.791095  0.039713  0.500000  1
  P  P18  1  0.960287  0.751381  0.500000  1
  P  P19  1  0.545289  0.623787  0.000000  1
  P  P20  1  0.376213  0.921502  0.000000  1
