# generated using pymatgen
data_PrEu5(BN2)6
_symmetry_space_group_name_H-M   'P 1'
_cell_length_a   7.01604320
_cell_length_b   7.35974031
_cell_length_c   7.33617727
_cell_angle_alpha   110.21823542
_cell_angle_beta   108.33240234
_cell_angle_gamma   109.04164088
_symmetry_Int_Tables_number   1
_chemical_formula_structural   PrEu5(BN2)6
_chemical_formula_sum   'Pr1 Eu5 B6 N12'
_cell_volume   294.46775210
_cell_formula_units_Z   1
loop_
 _symmetry_equiv_pos_site_id
 _symmetry_equiv_pos_as_xyz
  1  'x, y, z'
loop_
 _atom_site_type_symbol
 _atom_site_label
 _atom_site_symmetry_multiplicity
 _atom_site_fract_x
 _atom_site_fract_y
 _atom_site_fract_z
 _atom_site_occupancy
  Pr  Pr0  1  0.702811  0.452811  0.905622  1
  Eu  Eu1  1  0.300274  0.550274  0.100550  1
  Eu  Eu2  1  0.748921  0.550833  0.451247  1
  Eu  Eu3  1  0.202326  0.900414  0.451247  1
  Eu  Eu4  1  0.801015  0.099046  0.549356  1
  Eu  Eu5  1  0.248343  0.450311  0.549357  1
  B  B6  1  0.749249  0.879785  0.121401  1
  B  B7  1  0.872151  0.241617  0.121401  1
  B  B8  1  0.370240  0.120240  0.240480  1
  B  B9  1  0.629284  0.879284  0.758570  1
  B  B10  1  0.128548  0.757437  0.877953  1
  B  B11  1  0.249408  0.120517  0.877955  1
  N  N12  1  0.374947  0.245998  0.121531  1
  N  N13  1  0.246585  0.875534  0.121532  1
  N  N14  1  0.993816  0.485342  0.243935  1
  N  N15  1  0.750121  0.758594  0.243936  1
  N  N16  1  0.872980  0.122979  0.245958  1
  N  N17  1  0.491456  0.241456  0.482912  1
  N  N18  1  0.507426  0.757426  0.514853  1
  N  N19  1  0.126662  0.876662  0.753322  1
  N  N20  1  0.006605  0.513823  0.756311  1
  N  N21  1  0.249708  0.242489  0.756312  1
  N  N22  1  0.752509  0.122591  0.877130  1
  N  N23  1  0.624622  0.754540  0.877131  1
