# generated using pymatgen
data_BeNi3B2
_symmetry_space_group_name_H-M   'P 1'
_cell_length_a   2.94093474
_cell_length_b   4.01139430
_cell_length_c   4.90689235
_cell_angle_alpha   75.12146567
_cell_angle_beta   72.57788477
_cell_angle_gamma   68.48501242
_symmetry_Int_Tables_number   1
_chemical_formula_structural   BeNi3B2
_chemical_formula_sum   'Be1 Ni3 B2'
_cell_volume   50.67456042
_cell_formula_units_Z   1
loop_
 _symmetry_equiv_pos_site_id
 _symmetry_equiv_pos_as_xyz
  1  'x, y, z'
loop_
 _atom_site_type_symbol
 _atom_site_label
 _atom_site_symmetry_multiplicity
 _atom_site_fract_x
 _atom_site_fract_y
 _atom_site_fract_z
 _atom_site_occupancy
  Be  Be0  1  0.496372  0.694918  0.039956  1
  Ni  Ni1  1  0.748034  0.754784  0.477710  1
  Ni  Ni2  1  0.921880  0.124561  0.759586  1
  Ni  Ni3  1  0.152789  0.244231  0.178217  1
  B  B4  1  0.466406  0.346216  0.449130  1
  B  B5  1  0.203430  0.544167  0.777046  1
