# generated using pymatgen
data_La4YbZn2Sn
_symmetry_space_group_name_H-M   'P 1'
_cell_length_a   8.95721729
_cell_length_b   8.95721713
_cell_length_c   8.95721725
_cell_angle_alpha   123.30274403
_cell_angle_beta   123.30274014
_cell_angle_gamma   84.36875564
_symmetry_Int_Tables_number   1
_chemical_formula_structural   La4YbZn2Sn
_chemical_formula_sum   'La8 Yb2 Zn4 Sn2'
_cell_volume   480.25995100
_cell_formula_units_Z   2
loop_
 _symmetry_equiv_pos_site_id
 _symmetry_equiv_pos_as_xyz
  1  'x, y, z'
loop_
 _atom_site_type_symbol
 _atom_site_label
 _atom_site_symmetry_multiplicity
 _atom_site_fract_x
 _atom_site_fract_y
 _atom_site_fract_z
 _atom_site_occupancy
  La  La0  1  0.308178  0.808178  0.824932  1
  La  La1  1  0.983245  0.483246  0.175067  1
  La  La2  1  0.191821  0.016754  0.499999  1
  La  La3  1  0.516753  0.691820  0.499999  1
  La  La4  1  0.691820  0.191822  0.175067  1
  La  La5  1  0.016754  0.516754  0.824932  1
  La  La6  1  0.483245  0.308178  0.499999  1
  La  La7  1  0.808178  0.983245  0.499999  1
  Yb  Yb8  1  0.000000  0.000000  0.000000  1
  Yb  Yb9  1  0.500000  0.500000  0.000000  1
  Zn  Zn10  1  0.631289  0.131290  0.762580  1
  Zn  Zn11  1  0.368709  0.868711  0.237420  1
  Zn  Zn12  1  0.868711  0.631290  0.500001  1
  Zn  Zn13  1  0.131290  0.368711  0.500001  1
  Sn  Sn14  1  0.250000  0.250000  0.000000  1
  Sn  Sn15  1  0.750000  0.750000  0.000000  1
