# generated using pymatgen
data_Y3Ho5Re2(B12Ru)2
_symmetry_space_group_name_H-M   'P 1'
_cell_length_a   3.66601900
_cell_length_b   9.14690317
_cell_length_c   11.53442992
_cell_angle_alpha   90.19821323
_cell_angle_beta   90.00000000
_cell_angle_gamma   90.00000000
_symmetry_Int_Tables_number   1
_chemical_formula_structural   Y3Ho5Re2(B12Ru)2
_chemical_formula_sum   'Y3 Ho5 Re2 B24 Ru2'
_cell_volume   386.77850361
_cell_formula_units_Z   1
loop_
 _symmetry_equiv_pos_site_id
 _symmetry_equiv_pos_as_xyz
  1  'x, y, z'
loop_
 _atom_site_type_symbol
 _atom_site_label
 _atom_site_symmetry_multiplicity
 _atom_site_fract_x
 _atom_site_fract_y
 _atom_site_fract_z
 _atom_site_occupancy
  Y  Y0  1  0.000000  0.320701  0.412725  1
  Y  Y1  1  0.000000  0.679293  0.587340  1
  Y  Y2  1  0.000000  0.824398  0.084261  1
  Ho  Ho3  1  0.000000  0.175367  0.915751  1
  Ho  Ho4  1  0.000000  0.942620  0.370197  1
  Ho  Ho5  1  0.000000  0.057493  0.629787  1
  Ho  Ho6  1  0.000000  0.442542  0.129299  1
  Ho  Ho7  1  0.000000  0.557310  0.870592  1
  Re  Re8  1  0.000000  0.138945  0.179652  1
  Re  Re9  1  0.000000  0.861409  0.820154  1
  B  B10  1  0.500000  0.554045  0.432769  1
  B  B11  1  0.500000  0.445813  0.567411  1
  B  B12  1  0.500000  0.053467  0.066615  1
  B  B13  1  0.500000  0.947206  0.932993  1
  B  B14  1  0.500000  0.748877  0.418379  1
  B  B15  1  0.500000  0.251112  0.581818  1
  B  B16  1  0.500000  0.249036  0.081008  1
  B  B17  1  0.500000  0.751055  0.918476  1
  B  B18  1  0.500000  0.790456  0.265662  1
  B  B19  1  0.500000  0.209361  0.734707  1
  B  B20  1  0.500000  0.291542  0.234634  1
  B  B21  1  0.500000  0.708503  0.765228  1
  B  B22  1  0.500000  0.630462  0.185824  1
  B  B23  1  0.500000  0.369122  0.814480  1
  B  B24  1  0.500000  0.130873  0.314768  1
  B  B25  1  0.500000  0.869306  0.685201  1
  B  B26  1  0.500000  0.982577  0.212258  1
  B  B27  1  0.500000  0.017946  0.787803  1
  B  B28  1  0.500000  0.483228  0.287883  1
  B  B29  1  0.500000  0.516569  0.712221  1
  B  B30  1  0.500000  0.602420  0.028405  1
  B  B31  1  0.500000  0.397060  0.971432  1
  B  B32  1  0.500000  0.102760  0.471760  1
  B  B33  1  0.500000  0.897323  0.528261  1
  Ru  Ru34  1  0.000000  0.637877  0.321153  1
  Ru  Ru35  1  0.000000  0.361926  0.679089  1
