# generated using pymatgen
data_Y2ThNi8Ir
_symmetry_space_group_name_H-M   'P 1'
_cell_length_a   8.84281337
_cell_length_b   8.84281280
_cell_length_c   8.84281323
_cell_angle_alpha   32.80826279
_cell_angle_beta   32.80826065
_cell_angle_gamma   32.80825856
_symmetry_Int_Tables_number   1
_chemical_formula_structural   Y2ThNi8Ir
_chemical_formula_sum   'Y2 Th1 Ni8 Ir1'
_cell_volume   180.59673842
_cell_formula_units_Z   1
loop_
 _symmetry_equiv_pos_site_id
 _symmetry_equiv_pos_as_xyz
  1  'x, y, z'
loop_
 _atom_site_type_symbol
 _atom_site_label
 _atom_site_symmetry_multiplicity
 _atom_site_fract_x
 _atom_site_fract_y
 _atom_site_fract_z
 _atom_site_occupancy
  Y  Y0  1  0.860365  0.860365  0.860365  1
  Y  Y1  1  0.139635  0.139635  0.139635  1
  Th  Th2  1  0.000000  0.000000  0.000000  1
  Ni  Ni3  1  0.418292  0.920958  0.418292  1
  Ni  Ni4  1  0.418292  0.418292  0.920958  1
  Ni  Ni5  1  0.920958  0.418292  0.418292  1
  Ni  Ni6  1  0.581708  0.079042  0.581708  1
  Ni  Ni7  1  0.581708  0.581708  0.079042  1
  Ni  Ni8  1  0.079042  0.581708  0.581708  1
  Ni  Ni9  1  0.666637  0.666637  0.666637  1
  Ni  Ni10  1  0.333363  0.333363  0.333363  1
  Ir  Ir11  1  0.500000  0.500000  0.500000  1
