# generated using pymatgen
data_YTm7(AlPt)2
_symmetry_space_group_name_H-M   'P 1'
_cell_length_a   9.49165617
_cell_length_b   9.49165615
_cell_length_c   9.48996300
_cell_angle_alpha   60.00590417
_cell_angle_beta   60.00590425
_cell_angle_gamma   59.98819482
_symmetry_Int_Tables_number   1
_chemical_formula_structural   YTm7(AlPt)2
_chemical_formula_sum   'Y2 Tm14 Al4 Pt4'
_cell_volume   604.55177260
_cell_formula_units_Z   2
loop_
 _symmetry_equiv_pos_site_id
 _symmetry_equiv_pos_as_xyz
  1  'x, y, z'
loop_
 _atom_site_type_symbol
 _atom_site_label
 _atom_site_symmetry_multiplicity
 _atom_site_fract_x
 _atom_site_fract_y
 _atom_site_fract_z
 _atom_site_occupancy
  Y  Y0  1  0.565455  0.565455  0.934545  1
  Y  Y1  1  0.934545  0.934545  0.565455  1
  Tm  Tm2  1  0.354576  0.354576  0.354548  1
  Tm  Tm3  1  0.354576  0.354576  0.936301  1
  Tm  Tm4  1  0.354548  0.936301  0.354576  1
  Tm  Tm5  1  0.936301  0.354548  0.354576  1
  Tm  Tm6  1  0.807746  0.192254  0.192254  1
  Tm  Tm7  1  0.192254  0.807746  0.807746  1
  Tm  Tm8  1  0.192254  0.807746  0.192254  1
  Tm  Tm9  1  0.807746  0.192254  0.807746  1
  Tm  Tm10  1  0.192166  0.192166  0.807834  1
  Tm  Tm11  1  0.807834  0.807834  0.192166  1
  Tm  Tm12  1  0.937232  0.562768  0.562768  1
  Tm  Tm13  1  0.562768  0.937232  0.937232  1
  Tm  Tm14  1  0.562768  0.937232  0.562768  1
  Tm  Tm15  1  0.937232  0.562768  0.937232  1
  Al  Al16  1  0.578471  0.578471  0.577843  1
  Al  Al17  1  0.578471  0.578471  0.265215  1
  Al  Al18  1  0.577843  0.265215  0.578471  1
  Al  Al19  1  0.265215  0.577843  0.578471  1
  Pt  Pt20  1  0.144134  0.144134  0.142745  1
  Pt  Pt21  1  0.144134  0.144134  0.568987  1
  Pt  Pt22  1  0.142745  0.568987  0.144134  1
  Pt  Pt23  1  0.568987  0.142745  0.144134  1
