# generated using pymatgen
data_Ba9Ca3La4(Co4O15)2
_symmetry_space_group_name_H-M   'P 1'
_cell_length_a   6.94961220
_cell_length_b   11.72782955
_cell_length_c   11.74644033
_cell_angle_alpha   119.92118388
_cell_angle_beta   89.79919239
_cell_angle_gamma   90.50582106
_symmetry_Int_Tables_number   1
_chemical_formula_structural   Ba9Ca3La4(Co4O15)2
_chemical_formula_sum   'Ba9 Ca3 La4 Co8 O30'
_cell_volume   829.74059278
_cell_formula_units_Z   1
loop_
 _symmetry_equiv_pos_site_id
 _symmetry_equiv_pos_as_xyz
  1  'x, y, z'
loop_
 _atom_site_type_symbol
 _atom_site_label
 _atom_site_symmetry_multiplicity
 _atom_site_fract_x
 _atom_site_fract_y
 _atom_site_fract_z
 _atom_site_occupancy
  Ba  Ba0  1  0.690228  0.353470  0.181858  1
  Ba  Ba1  1  0.690096  0.823069  0.176267  1
  Ba  Ba2  1  0.688739  0.818262  0.641941  1
  Ba  Ba3  1  0.169117  0.656560  0.826854  1
  Ba  Ba4  1  0.174194  0.168577  0.823852  1
  Ba  Ba5  1  0.171802  0.171153  0.346665  1
  Ba  Ba6  1  0.992685  0.667909  0.336119  1
  Ba  Ba7  1  0.485375  0.330781  0.662127  1
  Ba  Ba8  1  0.497921  0.999194  0.998612  1
  Ca  Ca9  1  0.995202  0.002253  0.001503  1
  Ca  Ca10  1  0.349387  0.948927  0.475162  1
  Ca  Ca11  1  0.855178  0.470941  0.524410  1
  La  La12  1  0.347540  0.520734  0.476138  1
  La  La13  1  0.345990  0.521971  0.045428  1
  La  La14  1  0.850483  0.047032  0.523585  1
  La  La15  1  0.843177  0.473954  0.949804  1
  Co  Co16  1  0.520739  0.668850  0.334208  1
  Co  Co17  1  0.021347  0.334445  0.665146  1
  Co  Co18  1  0.169532  0.351110  0.178390  1
  Co  Co19  1  0.178023  0.825066  0.178713  1
  Co  Co20  1  0.172483  0.821570  0.645944  1
  Co  Co21  1  0.679498  0.651293  0.820806  1
  Co  Co22  1  0.674396  0.167711  0.820720  1
  Co  Co23  1  0.675857  0.171172  0.349795  1
  O  O24  1  0.352313  0.498487  0.248769  1
  O  O25  1  0.351977  0.750778  0.249701  1
  O  O26  1  0.349492  0.749864  0.498763  1
  O  O27  1  0.847096  0.498952  0.748861  1
  O  O28  1  0.849985  0.249528  0.749619  1
  O  O29  1  0.848179  0.251972  0.502059  1
  O  O30  1  0.545628  0.609972  0.939139  1
  O  O31  1  0.536994  0.063396  0.673301  1
  O  O32  1  0.540049  0.329387  0.393977  1
  O  O33  1  0.543718  0.329372  0.936296  1
  O  O34  1  0.532589  0.614996  0.678173  1
  O  O35  1  0.539491  0.064048  0.391695  1
  O  O36  1  0.043693  0.399454  0.065663  1
  O  O37  1  0.040543  0.933982  0.331563  1
  O  O38  1  0.042360  0.666396  0.600377  1
  O  O39  1  0.045020  0.667274  0.066001  1
  O  O40  1  0.042702  0.399508  0.332787  1
  O  O41  1  0.041705  0.933762  0.600716  1
  O  O42  1  0.788506  0.813860  0.912985  1
  O  O43  1  0.786693  0.096953  0.909861  1
  O  O44  1  0.785840  0.101067  0.188191  1
  O  O45  1  0.230433  0.179084  0.086012  1
  O  O46  1  0.227253  0.911777  0.090448  1
  O  O47  1  0.226039  0.913032  0.820310  1
  O  O48  1  0.674332  0.828017  0.414055  1
  O  O49  1  0.669202  0.588168  0.413852  1
  O  O50  1  0.673160  0.587530  0.173259  1
  O  O51  1  0.168623  0.174059  0.585995  1
  O  O52  1  0.173944  0.413926  0.585831  1
  O  O53  1  0.171453  0.415398  0.827696  1
