# generated using pymatgen
data_PrTh3(Pd5Pt)2
_symmetry_space_group_name_H-M   'P 1'
_cell_length_a   5.93426538
_cell_length_b   5.93485241
_cell_length_c   9.77588900
_cell_angle_alpha   89.90246437
_cell_angle_beta   90.20874319
_cell_angle_gamma   119.99364511
_symmetry_Int_Tables_number   1
_chemical_formula_structural   PrTh3(Pd5Pt)2
_chemical_formula_sum   'Pr1 Th3 Pd10 Pt2'
_cell_volume   298.18699700
_cell_formula_units_Z   1
loop_
 _symmetry_equiv_pos_site_id
 _symmetry_equiv_pos_as_xyz
  1  'x, y, z'
loop_
 _atom_site_type_symbol
 _atom_site_label
 _atom_site_symmetry_multiplicity
 _atom_site_fract_x
 _atom_site_fract_y
 _atom_site_fract_z
 _atom_site_occupancy
  Pr  Pr0  1  0.000000  0.000000  0.500000  1
  Th  Th1  1  0.000000  0.000000  0.000000  1
  Th  Th2  1  0.333075  0.666112  0.253223  1
  Th  Th3  1  0.666925  0.333888  0.746777  1
  Pd  Pd4  1  0.500000  0.000000  0.500000  1
  Pd  Pd5  1  0.000000  0.500000  0.500000  1
  Pd  Pd6  1  0.500000  0.500000  0.000000  1
  Pd  Pd7  1  0.500000  0.000000  0.000000  1
  Pd  Pd8  1  0.824231  0.648615  0.248337  1
  Pd  Pd9  1  0.350144  0.174646  0.248830  1
  Pd  Pd10  1  0.824397  0.174592  0.247657  1
  Pd  Pd11  1  0.175769  0.351385  0.751663  1
  Pd  Pd12  1  0.649856  0.825354  0.751170  1
  Pd  Pd13  1  0.175603  0.825408  0.752343  1
  Pt  Pt14  1  0.500000  0.500000  0.500000  1
  Pt  Pt15  1  0.000000  0.500000  0.000000  1
