# generated using pymatgen
data_K11Ba(MnN2)8
_symmetry_space_group_name_H-M   'P 1'
_cell_length_a   6.20742568
_cell_length_b   9.56989495
_cell_length_c   10.32056200
_cell_angle_alpha   90.00000000
_cell_angle_beta   90.00000000
_cell_angle_gamma   90.45285078
_symmetry_Int_Tables_number   1
_chemical_formula_structural   K11Ba(MnN2)8
_chemical_formula_sum   'K11 Ba1 Mn8 N16'
_cell_volume   613.06776480
_cell_formula_units_Z   1
loop_
 _symmetry_equiv_pos_site_id
 _symmetry_equiv_pos_as_xyz
  1  'x, y, z'
loop_
 _atom_site_type_symbol
 _atom_site_label
 _atom_site_symmetry_multiplicity
 _atom_site_fract_x
 _atom_site_fract_y
 _atom_site_fract_z
 _atom_site_occupancy
  K  K0  1  0.644133  0.155930  0.421533  1
  K  K1  1  0.855867  0.844070  0.421533  1
  K  K2  1  0.643760  0.345213  0.085747  1
  K  K3  1  0.856240  0.654787  0.085747  1
  K  K4  1  0.353746  0.840888  0.573648  1
  K  K5  1  0.146254  0.159112  0.573648  1
  K  K6  1  0.363187  0.644230  0.919476  1
  K  K7  1  0.136813  0.355770  0.919476  1
  K  K8  1  0.750000  0.500000  0.406957  1
  K  K9  1  0.750000  0.000000  0.106971  1
  K  K10  1  0.250000  0.500000  0.587008  1
  Ba  Ba11  1  0.250000  0.000000  0.910430  1
  Mn  Mn12  1  0.750000  0.500000  0.737892  1
  Mn  Mn13  1  0.750000  0.000000  0.766965  1
  Mn  Mn14  1  0.250000  0.500000  0.261744  1
  Mn  Mn15  1  0.250000  0.000000  0.233953  1
  Mn  Mn16  1  0.707148  0.250071  0.752763  1
  Mn  Mn17  1  0.792852  0.749929  0.752763  1
  Mn  Mn18  1  0.297399  0.749993  0.246140  1
  Mn  Mn19  1  0.202601  0.250007  0.246140  1
  N  N20  1  0.867966  0.357964  0.646738  1
  N  N21  1  0.632034  0.642036  0.646738  1
  N  N22  1  0.873937  0.142905  0.856673  1
  N  N23  1  0.626063  0.857095  0.856673  1
  N  N24  1  0.131451  0.644198  0.350868  1
  N  N25  1  0.368549  0.355802  0.350868  1
  N  N26  1  0.140686  0.857510  0.136339  1
  N  N27  1  0.359314  0.142490  0.136339  1
  N  N28  1  0.566076  0.394091  0.831341  1
  N  N29  1  0.933924  0.605909  0.831341  1
  N  N30  1  0.559912  0.103454  0.677470  1
  N  N31  1  0.940088  0.896546  0.677470  1
  N  N32  1  0.438989  0.603106  0.170876  1
  N  N33  1  0.061011  0.396894  0.170876  1
  N  N34  1  0.438370  0.897918  0.324427  1
  N  N35  1  0.061630  0.102082  0.324427  1
