# generated using pymatgen
data_Ta7Co4ReN2
_symmetry_space_group_name_H-M   'P 1'
_cell_length_a   8.21845988
_cell_length_b   8.15152833
_cell_length_c   8.15152837
_cell_angle_alpha   59.44592998
_cell_angle_beta   59.72801063
_cell_angle_gamma   59.72801809
_symmetry_Int_Tables_number   1
_chemical_formula_structural   Ta7Co4ReN2
_chemical_formula_sum   'Ta14 Co8 Re2 N4'
_cell_volume   382.92980096
_cell_formula_units_Z   2
loop_
 _symmetry_equiv_pos_site_id
 _symmetry_equiv_pos_as_xyz
  1  'x, y, z'
loop_
 _atom_site_type_symbol
 _atom_site_label
 _atom_site_symmetry_multiplicity
 _atom_site_fract_x
 _atom_site_fract_y
 _atom_site_fract_z
 _atom_site_occupancy
  Ta  Ta0  1  0.625000  0.125000  0.625000  1
  Ta  Ta1  1  0.625000  0.625000  0.125000  1
  Ta  Ta2  1  0.810053  0.809421  0.192952  1
  Ta  Ta3  1  0.187573  0.192952  0.809421  1
  Ta  Ta4  1  0.810053  0.192952  0.809421  1
  Ta  Ta5  1  0.187573  0.809421  0.192952  1
  Ta  Ta6  1  0.194676  0.805324  0.805324  1
  Ta  Ta7  1  0.815013  0.184987  0.184987  1
  Ta  Ta8  1  0.439947  0.440579  0.057048  1
  Ta  Ta9  1  0.062427  0.057048  0.440579  1
  Ta  Ta10  1  0.439947  0.057048  0.440579  1
  Ta  Ta11  1  0.062427  0.440579  0.057048  1
  Ta  Ta12  1  0.055324  0.444676  0.444676  1
  Ta  Ta13  1  0.434987  0.065013  0.065013  1
  Co  Co14  1  0.741120  0.421777  0.421777  1
  Co  Co15  1  0.420316  0.733728  0.425640  1
  Co  Co16  1  0.420316  0.425640  0.733728  1
  Co  Co17  1  0.415328  0.421777  0.421777  1
  Co  Co18  1  0.508880  0.828223  0.828223  1
  Co  Co19  1  0.829684  0.516272  0.824360  1
  Co  Co20  1  0.829684  0.824360  0.516272  1
  Co  Co21  1  0.834672  0.828223  0.828223  1
  Re  Re22  1  0.125000  0.625000  0.625000  1
  Re  Re23  1  0.625000  0.625000  0.625000  1
  N  N24  1  0.625000  0.125000  0.125000  1
  N  N25  1  0.125000  0.625000  0.125000  1
  N  N26  1  0.125000  0.125000  0.625000  1
  N  N27  1  0.125000  0.125000  0.125000  1
