# generated using pymatgen
data_Ho4MgSc3(B6Os)4
_symmetry_space_group_name_H-M   'P 1'
_cell_length_a   3.56048300
_cell_length_b   8.94710780
_cell_length_c   11.33682715
_cell_angle_alpha   89.98501258
_cell_angle_beta   90.00000000
_cell_angle_gamma   90.00000000
_symmetry_Int_Tables_number   1
_chemical_formula_structural   Ho4MgSc3(B6Os)4
_chemical_formula_sum   'Ho4 Mg1 Sc3 B24 Os4'
_cell_volume   361.14623926
_cell_formula_units_Z   1
loop_
 _symmetry_equiv_pos_site_id
 _symmetry_equiv_pos_as_xyz
  1  'x, y, z'
loop_
 _atom_site_type_symbol
 _atom_site_label
 _atom_site_symmetry_multiplicity
 _atom_site_fract_x
 _atom_site_fract_y
 _atom_site_fract_z
 _atom_site_occupancy
  Ho  Ho0  1  0.000000  0.320127  0.412683  1
  Ho  Ho1  1  0.000000  0.680344  0.584802  1
  Ho  Ho2  1  0.000000  0.820484  0.087481  1
  Ho  Ho3  1  0.000000  0.180068  0.915496  1
  Mg  Mg4  1  0.000000  0.946578  0.377245  1
  Sc  Sc5  1  0.000000  0.054574  0.625280  1
  Sc  Sc6  1  0.000000  0.444633  0.126728  1
  Sc  Sc7  1  0.000000  0.554937  0.874032  1
  B  B8  1  0.500000  0.554838  0.432466  1
  B  B9  1  0.500000  0.445209  0.566636  1
  B  B10  1  0.500000  0.054221  0.067591  1
  B  B11  1  0.500000  0.945600  0.932800  1
  B  B12  1  0.500000  0.753402  0.418502  1
  B  B13  1  0.500000  0.246796  0.580222  1
  B  B14  1  0.500000  0.252612  0.081043  1
  B  B15  1  0.500000  0.747243  0.919152  1
  B  B16  1  0.500000  0.794004  0.265049  1
  B  B17  1  0.500000  0.206253  0.734086  1
  B  B18  1  0.500000  0.292502  0.234581  1
  B  B19  1  0.500000  0.706587  0.765274  1
  B  B20  1  0.500000  0.628958  0.183284  1
  B  B21  1  0.500000  0.370961  0.817167  1
  B  B22  1  0.500000  0.127634  0.317030  1
  B  B23  1  0.500000  0.871242  0.682128  1
  B  B24  1  0.500000  0.980646  0.214253  1
  B  B25  1  0.500000  0.018826  0.785230  1
  B  B26  1  0.500000  0.481219  0.285683  1
  B  B27  1  0.500000  0.518588  0.714179  1
  B  B28  1  0.500000  0.600143  0.027344  1
  B  B29  1  0.500000  0.399945  0.972857  1
  B  B30  1  0.500000  0.098702  0.472623  1
  B  B31  1  0.500000  0.901009  0.526724  1
  Os  Os32  1  0.000000  0.640401  0.318868  1
  Os  Os33  1  0.000000  0.360659  0.681250  1
  Os  Os34  1  0.000000  0.139313  0.181320  1
  Os  Os35  1  0.000000  0.860743  0.818914  1
