# generated using pymatgen
data_Ag3OsSe8
_symmetry_space_group_name_H-M   'P 1'
_cell_length_a   6.41666030
_cell_length_b   6.41666084
_cell_length_c   6.41666134
_cell_angle_alpha   88.81060644
_cell_angle_beta   88.81061313
_cell_angle_gamma   88.81061241
_symmetry_Int_Tables_number   1
_chemical_formula_structural   Ag3OsSe8
_chemical_formula_sum   'Ag3 Os1 Se8'
_cell_volume   264.02817659
_cell_formula_units_Z   1
loop_
 _symmetry_equiv_pos_site_id
 _symmetry_equiv_pos_as_xyz
  1  'x, y, z'
loop_
 _atom_site_type_symbol
 _atom_site_label
 _atom_site_symmetry_multiplicity
 _atom_site_fract_x
 _atom_site_fract_y
 _atom_site_fract_z
 _atom_site_occupancy
  Ag  Ag0  1  0.000000  0.500000  0.500000  1
  Ag  Ag1  1  0.500000  0.500000  0.000000  1
  Ag  Ag2  1  0.500000  0.000000  0.500000  1
  Os  Os3  1  0.000000  0.000000  0.000000  1
  Se  Se4  1  0.367674  0.100733  0.902104  1
  Se  Se5  1  0.100733  0.902104  0.367674  1
  Se  Se6  1  0.902104  0.367674  0.100733  1
  Se  Se7  1  0.603239  0.603239  0.603239  1
  Se  Se8  1  0.396761  0.396761  0.396761  1
  Se  Se9  1  0.097896  0.632326  0.899267  1
  Se  Se10  1  0.899267  0.097896  0.632326  1
  Se  Se11  1  0.632326  0.899267  0.097896  1
