# generated using pymatgen
data_YbEu2Dy3(Ni7B2)2
_symmetry_space_group_name_H-M   'P 1'
_cell_length_a   5.06834600
_cell_length_b   5.06834703
_cell_length_c   14.41839600
_cell_angle_alpha   90.00000000
_cell_angle_beta   90.00000000
_cell_angle_gamma   120.00000635
_symmetry_Int_Tables_number   1
_chemical_formula_structural   YbEu2Dy3(Ni7B2)2
_chemical_formula_sum   'Yb1 Eu2 Dy3 Ni14 B4'
_cell_volume   320.75996057
_cell_formula_units_Z   1
loop_
 _symmetry_equiv_pos_site_id
 _symmetry_equiv_pos_as_xyz
  1  'x, y, z'
loop_
 _atom_site_type_symbol
 _atom_site_label
 _atom_site_symmetry_multiplicity
 _atom_site_fract_x
 _atom_site_fract_y
 _atom_site_fract_z
 _atom_site_occupancy
  Yb  Yb0  1  0.333333  0.666667  0.248265  1
  Eu  Eu1  1  0.333333  0.666667  0.035329  1
  Eu  Eu2  1  0.666667  0.333333  0.970006  1
  Dy  Dy3  1  0.666667  0.333333  0.532280  1
  Dy  Dy4  1  0.333333  0.666667  0.462101  1
  Dy  Dy5  1  0.666667  0.333333  0.750311  1
  Ni  Ni6  1  0.165618  0.331236  0.646137  1
  Ni  Ni7  1  0.331575  0.165787  0.351304  1
  Ni  Ni8  1  0.329391  0.164695  0.157680  1
  Ni  Ni9  1  0.164545  0.835455  0.845250  1
  Ni  Ni10  1  0.834213  0.668425  0.351304  1
  Ni  Ni11  1  0.835305  0.164695  0.157680  1
  Ni  Ni12  1  0.668764  0.834382  0.646137  1
  Ni  Ni13  1  0.670910  0.835455  0.845250  1
  Ni  Ni14  1  0.165618  0.834382  0.646137  1
  Ni  Ni15  1  0.835305  0.670609  0.157680  1
  Ni  Ni16  1  0.000000  0.000000  0.001769  1
  Ni  Ni17  1  0.164545  0.329090  0.845250  1
  Ni  Ni18  1  0.834213  0.165787  0.351304  1
  Ni  Ni19  1  0.000000  0.000000  0.498278  1
  B  B20  1  0.666667  0.333333  0.253165  1
  B  B21  1  0.000000  0.000000  0.746052  1
  B  B22  1  0.333333  0.666667  0.747246  1
  B  B23  1  0.000000  0.000000  0.254086  1
