# generated using pymatgen
data_Rb4Li2ErInSb4
_symmetry_space_group_name_H-M   'P 1'
_cell_length_a   11.12255435
_cell_length_b   11.12255362
_cell_length_c   7.12028500
_cell_angle_alpha   90.00000000
_cell_angle_beta   90.00000000
_cell_angle_gamma   101.44698901
_symmetry_Int_Tables_number   1
_chemical_formula_structural   Rb4Li2ErInSb4
_chemical_formula_sum   'Rb8 Li4 Er2 In2 Sb8'
_cell_volume   863.33765919
_cell_formula_units_Z   2
loop_
 _symmetry_equiv_pos_site_id
 _symmetry_equiv_pos_as_xyz
  1  'x, y, z'
loop_
 _atom_site_type_symbol
 _atom_site_label
 _atom_site_symmetry_multiplicity
 _atom_site_fract_x
 _atom_site_fract_y
 _atom_site_fract_z
 _atom_site_occupancy
  Rb  Rb0  1  0.572457  0.927543  0.750000  1
  Rb  Rb1  1  0.927543  0.572457  0.250000  1
  Rb  Rb2  1  0.423105  0.076895  0.250000  1
  Rb  Rb3  1  0.076895  0.423105  0.750000  1
  Rb  Rb4  1  0.670630  0.324456  0.774633  1
  Rb  Rb5  1  0.829370  0.175544  0.274633  1
  Rb  Rb6  1  0.324456  0.670630  0.225367  1
  Rb  Rb7  1  0.175544  0.829370  0.725367  1
  Li  Li8  1  0.619012  0.619012  0.000000  1
  Li  Li9  1  0.880988  0.880988  0.500000  1
  Li  Li10  1  0.378425  0.378425  0.000000  1
  Li  Li11  1  0.121575  0.121575  0.500000  1
  Er  Er12  1  0.873228  0.873228  0.000000  1
  Er  Er13  1  0.626772  0.626772  0.500000  1
  In  In14  1  0.130865  0.130865  0.000000  1
  In  In15  1  0.369135  0.369135  0.500000  1
  Sb  Sb16  1  0.346461  0.153539  0.750000  1
  Sb  Sb17  1  0.153539  0.346461  0.250000  1
  Sb  Sb18  1  0.653207  0.846793  0.250000  1
  Sb  Sb19  1  0.846793  0.653207  0.750000  1
  Sb  Sb20  1  0.907069  0.099092  0.763590  1
  Sb  Sb21  1  0.592931  0.400908  0.263590  1
  Sb  Sb22  1  0.099092  0.907069  0.236410  1
  Sb  Sb23  1  0.400908  0.592931  0.736410  1
