# generated using pymatgen
data_Ca2Pr7NdIr4
_symmetry_space_group_name_H-M   'P 1'
_cell_length_a   8.96080754
_cell_length_b   8.96080830
_cell_length_c   7.47136539
_cell_angle_alpha   83.42794968
_cell_angle_beta   83.42794687
_cell_angle_gamma   44.07131846
_symmetry_Int_Tables_number   1
_chemical_formula_structural   Ca2Pr7NdIr4
_chemical_formula_sum   'Ca2 Pr7 Nd1 Ir4'
_cell_volume   414.08423432
_cell_formula_units_Z   1
loop_
 _symmetry_equiv_pos_site_id
 _symmetry_equiv_pos_as_xyz
  1  'x, y, z'
loop_
 _atom_site_type_symbol
 _atom_site_label
 _atom_site_symmetry_multiplicity
 _atom_site_fract_x
 _atom_site_fract_y
 _atom_site_fract_z
 _atom_site_occupancy
  Ca  Ca0  1  0.017173  0.799193  0.917550  1
  Ca  Ca1  1  0.200807  0.982827  0.582450  1
  Pr  Pr2  1  0.982355  0.201861  0.084555  1
  Pr  Pr3  1  0.798139  0.017645  0.415445  1
  Pr  Pr4  1  0.351368  0.212801  0.817703  1
  Pr  Pr5  1  0.787199  0.648632  0.682297  1
  Pr  Pr6  1  0.653348  0.787072  0.182985  1
  Pr  Pr7  1  0.212928  0.346652  0.317015  1
  Pr  Pr8  1  0.563017  0.436983  0.750000  1
  Nd  Nd9  1  0.430046  0.569954  0.250000  1
  Ir  Ir10  1  0.179678  0.589456  0.569776  1
  Ir  Ir11  1  0.410544  0.820322  0.930224  1
  Ir  Ir12  1  0.816952  0.403555  0.423845  1
  Ir  Ir13  1  0.596445  0.183048  0.076155  1
