# generated using pymatgen
data_Y19ScSi15Pd
_symmetry_space_group_name_H-M   'P 1'
_cell_length_a   7.37533400
_cell_length_b   7.72805595
_cell_length_c   14.63184000
_cell_angle_alpha   90.00000000
_cell_angle_beta   90.00000000
_cell_angle_gamma   90.14265285
_symmetry_Int_Tables_number   1
_chemical_formula_structural   Y19ScSi15Pd
_chemical_formula_sum   'Y19 Sc1 Si15 Pd1'
_cell_volume   833.96830923
_cell_formula_units_Z   1
loop_
 _symmetry_equiv_pos_site_id
 _symmetry_equiv_pos_as_xyz
  1  'x, y, z'
loop_
 _atom_site_type_symbol
 _atom_site_label
 _atom_site_symmetry_multiplicity
 _atom_site_fract_x
 _atom_site_fract_y
 _atom_site_fract_z
 _atom_site_occupancy
  Y  Y0  1  0.681916  0.177139  0.621782  1
  Y  Y1  1  0.186325  0.323886  0.877736  1
  Y  Y2  1  0.316326  0.819040  0.124422  1
  Y  Y3  1  0.818763  0.675954  0.374918  1
  Y  Y4  1  0.316326  0.819040  0.375578  1
  Y  Y5  1  0.818763  0.675954  0.125082  1
  Y  Y6  1  0.681916  0.177139  0.878218  1
  Y  Y7  1  0.186325  0.323886  0.622264  1
  Y  Y8  1  0.525509  0.683248  0.592641  1
  Y  Y9  1  0.026342  0.817773  0.905116  1
  Y  Y10  1  0.472013  0.317180  0.098466  1
  Y  Y11  1  0.974618  0.184461  0.401449  1
  Y  Y12  1  0.472013  0.317180  0.401534  1
  Y  Y13  1  0.974618  0.184461  0.098551  1
  Y  Y14  1  0.525509  0.683248  0.907359  1
  Y  Y15  1  0.026342  0.817773  0.594884  1
  Y  Y16  1  0.845972  0.510366  0.750000  1
  Y  Y17  1  0.355398  0.982026  0.750000  1
  Y  Y18  1  0.647302  0.013487  0.250000  1
  Sc  Sc19  1  0.149982  0.483247  0.250000  1
  Si  Si20  1  0.647431  0.971025  0.458800  1
  Si  Si21  1  0.146636  0.526530  0.042694  1
  Si  Si22  1  0.351811  0.026487  0.961284  1
  Si  Si23  1  0.851477  0.472454  0.539139  1
  Si  Si24  1  0.351811  0.026487  0.538716  1
  Si  Si25  1  0.851477  0.472454  0.960861  1
  Si  Si26  1  0.647431  0.971025  0.041200  1
  Si  Si27  1  0.146636  0.526530  0.457306  1
  Si  Si28  1  0.979971  0.102939  0.750000  1
  Si  Si29  1  0.515459  0.597180  0.250000  1
  Si  Si30  1  0.020225  0.898734  0.250000  1
  Si  Si31  1  0.740772  0.875730  0.750000  1
  Si  Si32  1  0.228460  0.631246  0.750000  1
  Si  Si33  1  0.264908  0.135133  0.250000  1
  Si  Si34  1  0.773035  0.372479  0.250000  1
  Pd  Pd35  1  0.480180  0.407083  0.750000  1
