# generated using pymatgen
data_Y16In6RuRh
_symmetry_space_group_name_H-M   'P 1'
_cell_length_a   10.46813800
_cell_length_b   10.46813899
_cell_length_c   7.10298000
_cell_angle_alpha   90.00000000
_cell_angle_beta   90.00000000
_cell_angle_gamma   120.00000320
_symmetry_Int_Tables_number   1
_chemical_formula_structural   Y16In6RuRh
_chemical_formula_sum   'Y16 In6 Ru1 Rh1'
_cell_volume   674.07796228
_cell_formula_units_Z   1
loop_
 _symmetry_equiv_pos_site_id
 _symmetry_equiv_pos_as_xyz
  1  'x, y, z'
loop_
 _atom_site_type_symbol
 _atom_site_label
 _atom_site_symmetry_multiplicity
 _atom_site_fract_x
 _atom_site_fract_y
 _atom_site_fract_z
 _atom_site_occupancy
  Y  Y0  1  0.466900  0.533100  0.479672  1
  Y  Y1  1  0.066198  0.533100  0.479672  1
  Y  Y2  1  0.466900  0.933802  0.479672  1
  Y  Y3  1  0.534537  0.465463  0.979697  1
  Y  Y4  1  0.930926  0.465463  0.979697  1
  Y  Y5  1  0.534537  0.069074  0.979697  1
  Y  Y6  1  0.823478  0.176522  0.275530  1
  Y  Y7  1  0.353045  0.176522  0.275530  1
  Y  Y8  1  0.823478  0.646955  0.275530  1
  Y  Y9  1  0.175833  0.824167  0.776656  1
  Y  Y10  1  0.648333  0.824167  0.776656  1
  Y  Y11  1  0.175833  0.351667  0.776656  1
  Y  Y12  1  0.333333  0.666667  0.101246  1
  Y  Y13  1  0.666667  0.333333  0.600133  1
  Y  Y14  1  0.000000  0.000000  0.497473  1
  Y  Y15  1  0.000000  0.000000  0.997220  1
  In  In16  1  0.162950  0.837050  0.233858  1
  In  In17  1  0.674100  0.837050  0.233858  1
  In  In18  1  0.162950  0.325900  0.233858  1
  In  In19  1  0.837010  0.162990  0.732568  1
  In  In20  1  0.325981  0.162990  0.732568  1
  In  In21  1  0.837010  0.674019  0.732568  1
  Ru  Ru22  1  0.666667  0.333333  0.206398  1
  Rh  Rh23  1  0.333333  0.666667  0.708137  1
