# generated using pymatgen
data_CrB3W4
_symmetry_space_group_name_H-M   'P 1'
_cell_length_a   6.84753546
_cell_length_b   6.84753547
_cell_length_c   6.84753525
_cell_angle_alpha   130.24417307
_cell_angle_beta   130.24416672
_cell_angle_gamma   73.01671914
_symmetry_Int_Tables_number   1
_chemical_formula_structural   CrB3W4
_chemical_formula_sum   'Cr2 B6 W8'
_cell_volume   182.68846243
_cell_formula_units_Z   2
loop_
 _symmetry_equiv_pos_site_id
 _symmetry_equiv_pos_as_xyz
  1  'x, y, z'
loop_
 _atom_site_type_symbol
 _atom_site_label
 _atom_site_symmetry_multiplicity
 _atom_site_fract_x
 _atom_site_fract_y
 _atom_site_fract_z
 _atom_site_occupancy
  Cr  Cr0  1  0.500000  0.500000  0.000000  1
  Cr  Cr1  1  0.000000  0.000000  0.000000  1
  B  B2  1  0.377596  0.877596  0.255192  1
  B  B3  1  0.877596  0.622404  0.500000  1
  B  B4  1  0.122404  0.377596  0.500000  1
  B  B5  1  0.622404  0.122404  0.744808  1
  B  B6  1  0.250000  0.250000  0.000000  1
  B  B7  1  0.750000  0.750000  0.000000  1
  W  W8  1  0.685813  0.185813  0.159698  1
  W  W9  1  0.973886  0.473886  0.159698  1
  W  W10  1  0.026114  0.526114  0.840302  1
  W  W11  1  0.526114  0.685813  0.500000  1
  W  W12  1  0.185813  0.026114  0.500000  1
  W  W13  1  0.473886  0.314187  0.500000  1
  W  W14  1  0.814187  0.973886  0.500000  1
  W  W15  1  0.314187  0.814187  0.840302  1
