# generated using pymatgen
data_LaEr(Tc2P)4
_symmetry_space_group_name_H-M   'P 1'
_cell_length_a   7.47216320
_cell_length_b   7.47216320
_cell_length_c   3.96321100
_cell_angle_alpha   90.00000000
_cell_angle_beta   90.00000000
_cell_angle_gamma   89.03453897
_symmetry_Int_Tables_number   1
_chemical_formula_structural   LaEr(Tc2P)4
_chemical_formula_sum   'La1 Er1 Tc8 P4'
_cell_volume   221.24742923
_cell_formula_units_Z   1
loop_
 _symmetry_equiv_pos_site_id
 _symmetry_equiv_pos_as_xyz
  1  'x, y, z'
loop_
 _atom_site_type_symbol
 _atom_site_label
 _atom_site_symmetry_multiplicity
 _atom_site_fract_x
 _atom_site_fract_y
 _atom_site_fract_z
 _atom_site_occupancy
  La  La0  1  0.500000  0.500000  0.000000  1
  Er  Er1  1  0.000000  0.000000  0.500000  1
  Tc  Tc2  1  0.585205  0.156602  0.500000  1
  Tc  Tc3  1  0.414795  0.843398  0.500000  1
  Tc  Tc4  1  0.078948  0.337575  0.000000  1
  Tc  Tc5  1  0.921052  0.662425  0.000000  1
  Tc  Tc6  1  0.156602  0.585205  0.500000  1
  Tc  Tc7  1  0.843398  0.414795  0.500000  1
  Tc  Tc8  1  0.337575  0.078948  0.000000  1
  Tc  Tc9  1  0.662425  0.921052  0.000000  1
  P  P10  1  0.718112  0.718112  0.500000  1
  P  P11  1  0.281888  0.281888  0.500000  1
  P  P12  1  0.207126  0.792874  0.000000  1
  P  P13  1  0.792874  0.207126  0.000000  1
