# generated using pymatgen
data_Y12Al4Si4Ru7Rh
_symmetry_space_group_name_H-M   'P 1'
_cell_length_a   5.61281130
_cell_length_b   7.69710341
_cell_length_c   13.49567365
_cell_angle_alpha   90.05023836
_cell_angle_beta   89.96783543
_cell_angle_gamma   89.92809112
_symmetry_Int_Tables_number   1
_chemical_formula_structural   Y12Al4Si4Ru7Rh
_chemical_formula_sum   'Y12 Al4 Si4 Ru7 Rh1'
_cell_volume   583.04456662
_cell_formula_units_Z   1
loop_
 _symmetry_equiv_pos_site_id
 _symmetry_equiv_pos_as_xyz
  1  'x, y, z'
loop_
 _atom_site_type_symbol
 _atom_site_label
 _atom_site_symmetry_multiplicity
 _atom_site_fract_x
 _atom_site_fract_y
 _atom_site_fract_z
 _atom_site_occupancy
  Y  Y0  1  0.145906  0.597798  0.100653  1
  Y  Y1  1  0.146647  0.901086  0.898884  1
  Y  Y2  1  0.853618  0.095322  0.399463  1
  Y  Y3  1  0.857307  0.398386  0.601735  1
  Y  Y4  1  0.853901  0.401799  0.899060  1
  Y  Y5  1  0.853548  0.099871  0.100469  1
  Y  Y6  1  0.146184  0.901645  0.600678  1
  Y  Y7  1  0.144529  0.602737  0.400223  1
  Y  Y8  1  0.369845  0.236057  0.250090  1
  Y  Y9  1  0.372872  0.261454  0.750327  1
  Y  Y10  1  0.628176  0.740785  0.247651  1
  Y  Y11  1  0.629586  0.761475  0.749244  1
  Al  Al12  1  0.380580  0.251000  0.000760  1
  Al  Al13  1  0.619492  0.751186  0.500248  1
  Al  Al14  1  0.619699  0.749761  0.998953  1
  Al  Al15  1  0.377820  0.249018  0.500478  1
  Si  Si16  1  0.867612  0.391054  0.250798  1
  Si  Si17  1  0.870458  0.107823  0.750618  1
  Si  Si18  1  0.130867  0.890588  0.249384  1
  Si  Si19  1  0.131817  0.607901  0.749813  1
  Ru  Ru20  1  0.645052  0.468955  0.097758  1
  Ru  Ru21  1  0.647618  0.034112  0.904377  1
  Ru  Ru22  1  0.351873  0.965881  0.403752  1
  Ru  Ru23  1  0.349440  0.534727  0.594031  1
  Ru  Ru24  1  0.353755  0.532666  0.903642  1
  Ru  Ru25  1  0.352875  0.966161  0.095921  1
  Ru  Ru26  1  0.650966  0.036179  0.595446  1
  Rh  Rh27  1  0.647955  0.464575  0.405544  1
