# generated using pymatgen
data_Lu3Fe8Co
_symmetry_space_group_name_H-M   'P 1'
_cell_length_a   5.03615484
_cell_length_b   5.03615551
_cell_length_c   8.55702283
_cell_angle_alpha   72.88622753
_cell_angle_beta   72.88622439
_cell_angle_gamma   59.99999850
_symmetry_Int_Tables_number   1
_chemical_formula_structural   Lu3Fe8Co
_chemical_formula_sum   'Lu3 Fe8 Co1'
_cell_volume   176.77070669
_cell_formula_units_Z   1
loop_
 _symmetry_equiv_pos_site_id
 _symmetry_equiv_pos_as_xyz
  1  'x, y, z'
loop_
 _atom_site_type_symbol
 _atom_site_label
 _atom_site_symmetry_multiplicity
 _atom_site_fract_x
 _atom_site_fract_y
 _atom_site_fract_z
 _atom_site_occupancy
  Lu  Lu0  1  0.857893  0.857893  0.426320  1
  Lu  Lu1  1  0.142107  0.142107  0.573680  1
  Lu  Lu2  1  0.000000  0.000000  0.000000  1
  Fe  Fe3  1  0.417133  0.417133  0.247297  1
  Fe  Fe4  1  0.918438  0.417133  0.247297  1
  Fe  Fe5  1  0.417133  0.918438  0.247297  1
  Fe  Fe6  1  0.582867  0.582867  0.752703  1
  Fe  Fe7  1  0.081562  0.582867  0.752703  1
  Fe  Fe8  1  0.582867  0.081562  0.752703  1
  Fe  Fe9  1  0.667248  0.667248  0.998256  1
  Fe  Fe10  1  0.332752  0.332752  0.001744  1
  Co  Co11  1  0.500000  0.500000  0.500000  1
