# generated using pymatgen
data_Dy4Al2Si3Ge
_symmetry_space_group_name_H-M   'P 1'
_cell_length_a   6.90196400
_cell_length_b   6.90196400
_cell_length_c   4.30868200
_cell_angle_alpha   90.00000000
_cell_angle_beta   90.00000000
_cell_angle_gamma   89.99794126
_symmetry_Int_Tables_number   1
_chemical_formula_structural   Dy4Al2Si3Ge
_chemical_formula_sum   'Dy4 Al2 Si3 Ge1'
_cell_volume   205.25314564
_cell_formula_units_Z   1
loop_
 _symmetry_equiv_pos_site_id
 _symmetry_equiv_pos_as_xyz
  1  'x, y, z'
loop_
 _atom_site_type_symbol
 _atom_site_label
 _atom_site_symmetry_multiplicity
 _atom_site_fract_x
 _atom_site_fract_y
 _atom_site_fract_z
 _atom_site_occupancy
  Dy  Dy0  1  0.319333  0.822594  0.500000  1
  Dy  Dy1  1  0.823971  0.676029  0.500000  1
  Dy  Dy2  1  0.177739  0.322261  0.500000  1
  Dy  Dy3  1  0.677406  0.180667  0.500000  1
  Al  Al4  1  0.498038  0.495464  0.000000  1
  Al  Al5  1  0.004536  0.001962  0.000000  1
  Si  Si6  1  0.877613  0.376711  0.000000  1
  Si  Si7  1  0.373552  0.126448  0.000000  1
  Si  Si8  1  0.123289  0.622387  0.000000  1
  Ge  Ge9  1  0.624522  0.875478  0.000000  1
