# generated using pymatgen
data_Ac3GaO6
_symmetry_space_group_name_H-M   'P 1'
_cell_length_a   7.86437464
_cell_length_b   7.86437499
_cell_length_c   5.87229100
_cell_angle_alpha   90.00000000
_cell_angle_beta   90.00000000
_cell_angle_gamma   102.98226069
_symmetry_Int_Tables_number   1
_chemical_formula_structural   Ac3GaO6
_chemical_formula_sum   'Ac6 Ga2 O12'
_cell_volume   353.90844842
_cell_formula_units_Z   2
loop_
 _symmetry_equiv_pos_site_id
 _symmetry_equiv_pos_as_xyz
  1  'x, y, z'
loop_
 _atom_site_type_symbol
 _atom_site_label
 _atom_site_symmetry_multiplicity
 _atom_site_fract_x
 _atom_site_fract_y
 _atom_site_fract_z
 _atom_site_occupancy
  Ac  Ac0  1  0.085446  0.301857  0.466255  1
  Ac  Ac1  1  0.301857  0.085446  0.966255  1
  Ac  Ac2  1  0.605233  0.394767  0.430741  1
  Ac  Ac3  1  0.394767  0.605233  0.930741  1
  Ac  Ac4  1  0.698143  0.914554  0.466255  1
  Ac  Ac5  1  0.914554  0.698143  0.966255  1
  Ga  Ga6  1  0.807604  0.192396  0.006767  1
  Ga  Ga7  1  0.192396  0.807604  0.506767  1
  O  O8  1  0.329442  0.351814  0.200978  1
  O  O9  1  0.351814  0.329442  0.700978  1
  O  O10  1  0.111396  0.591413  0.662733  1
  O  O11  1  0.591413  0.111396  0.162733  1
  O  O12  1  0.950647  0.049353  0.126256  1
  O  O13  1  0.786945  0.213055  0.690253  1
  O  O14  1  0.213055  0.786945  0.190253  1
  O  O15  1  0.049353  0.950647  0.626256  1
  O  O16  1  0.408587  0.888604  0.662733  1
  O  O17  1  0.888604  0.408587  0.162733  1
  O  O18  1  0.648186  0.670558  0.200978  1
  O  O19  1  0.670558  0.648186  0.700978  1
