# generated using pymatgen
data_Tb5Gd11(ErPb4)4
_symmetry_space_group_name_H-M   'P 1'
_cell_length_a   8.21024458
_cell_length_b   8.29691786
_cell_length_c   15.67351500
_cell_angle_alpha   90.00177476
_cell_angle_beta   89.96448605
_cell_angle_gamma   89.96164701
_symmetry_Int_Tables_number   1
_chemical_formula_structural   Tb5Gd11(ErPb4)4
_chemical_formula_sum   'Tb5 Gd11 Er4 Pb16'
_cell_volume   1067.67508505
_cell_formula_units_Z   1
loop_
 _symmetry_equiv_pos_site_id
 _symmetry_equiv_pos_as_xyz
  1  'x, y, z'
loop_
 _atom_site_type_symbol
 _atom_site_label
 _atom_site_symmetry_multiplicity
 _atom_site_fract_x
 _atom_site_fract_y
 _atom_site_fract_z
 _atom_site_occupancy
  Tb  Tb0  1  0.965995  0.822641  0.098779  1
  Tb  Tb1  1  0.465511  0.677305  0.099225  1
  Tb  Tb2  1  0.964764  0.823035  0.400360  1
  Tb  Tb3  1  0.535460  0.323198  0.599701  1
  Tb  Tb4  1  0.034922  0.176778  0.900675  1
  Gd  Gd5  1  0.376767  0.842496  0.879779  1
  Gd  Gd6  1  0.877130  0.657413  0.620270  1
  Gd  Gd7  1  0.622868  0.157804  0.379521  1
  Gd  Gd8  1  0.122891  0.342065  0.120391  1
  Gd  Gd9  1  0.623699  0.157419  0.120147  1
  Gd  Gd10  1  0.123830  0.342810  0.379523  1
  Gd  Gd11  1  0.375615  0.842751  0.620123  1
  Gd  Gd12  1  0.876359  0.657273  0.880110  1
  Gd  Gd13  1  0.533419  0.322454  0.901916  1
  Gd  Gd14  1  0.034028  0.177093  0.598350  1
  Gd  Gd15  1  0.466276  0.677786  0.401339  1
  Er  Er16  1  0.208366  0.504646  0.750231  1
  Er  Er17  1  0.708190  0.995264  0.749940  1
  Er  Er18  1  0.792090  0.495319  0.250235  1
  Er  Er19  1  0.292166  0.004775  0.249435  1
  Pb  Pb20  1  0.280766  0.032268  0.044157  1
  Pb  Pb21  1  0.781459  0.466856  0.456056  1
  Pb  Pb22  1  0.718224  0.966691  0.543813  1
  Pb  Pb23  1  0.217927  0.533631  0.956363  1
  Pb  Pb24  1  0.719380  0.967346  0.955853  1
  Pb  Pb25  1  0.219093  0.531671  0.544561  1
  Pb  Pb26  1  0.280986  0.031716  0.454929  1
  Pb  Pb27  1  0.781755  0.468614  0.045126  1
  Pb  Pb28  1  0.571009  0.623847  0.749731  1
  Pb  Pb29  1  0.070720  0.876676  0.750582  1
  Pb  Pb30  1  0.428985  0.377350  0.249185  1
  Pb  Pb31  1  0.928962  0.122631  0.250314  1
  Pb  Pb32  1  0.345421  0.154745  0.749825  1
  Pb  Pb33  1  0.845510  0.345193  0.750502  1
  Pb  Pb34  1  0.655394  0.845335  0.249254  1
  Pb  Pb35  1  0.154065  0.655106  0.249698  1
