# generated using pymatgen
data_ReOs4Ru2W
_symmetry_space_group_name_H-M   'P 1'
_cell_length_a   5.54519270
_cell_length_b   5.54519220
_cell_length_c   4.37063700
_cell_angle_alpha   90.00000000
_cell_angle_beta   90.00000000
_cell_angle_gamma   120.05756682
_symmetry_Int_Tables_number   1
_chemical_formula_structural   ReOs4Ru2W
_chemical_formula_sum   'Re1 Os4 Ru2 W1'
_cell_volume   116.32053687
_cell_formula_units_Z   1
loop_
 _symmetry_equiv_pos_site_id
 _symmetry_equiv_pos_as_xyz
  1  'x, y, z'
loop_
 _atom_site_type_symbol
 _atom_site_label
 _atom_site_symmetry_multiplicity
 _atom_site_fract_x
 _atom_site_fract_y
 _atom_site_fract_z
 _atom_site_occupancy
  Re  Re0  1  0.664158  0.335842  0.250000  1
  Os  Os1  1  0.169816  0.332191  0.250000  1
  Os  Os2  1  0.667809  0.830184  0.250000  1
  Os  Os3  1  0.830195  0.664774  0.750000  1
  Os  Os4  1  0.335226  0.169805  0.750000  1
  Ru  Ru5  1  0.166333  0.833667  0.250000  1
  Ru  Ru6  1  0.832553  0.167447  0.750000  1
  W  W7  1  0.333909  0.666091  0.750000  1
