# generated using pymatgen
data_Dy4Al2(TcOs)3
_symmetry_space_group_name_H-M   'P 1'
_cell_length_a   5.35638177
_cell_length_b   5.39118847
_cell_length_c   8.79903200
_cell_angle_alpha   90.00000000
_cell_angle_beta   90.00000000
_cell_angle_gamma   119.51229566
_symmetry_Int_Tables_number   1
_chemical_formula_structural   Dy4Al2(TcOs)3
_chemical_formula_sum   'Dy4 Al2 Tc3 Os3'
_cell_volume   221.12353455
_cell_formula_units_Z   1
loop_
 _symmetry_equiv_pos_site_id
 _symmetry_equiv_pos_as_xyz
  1  'x, y, z'
loop_
 _atom_site_type_symbol
 _atom_site_label
 _atom_site_symmetry_multiplicity
 _atom_site_fract_x
 _atom_site_fract_y
 _atom_site_fract_z
 _atom_site_occupancy
  Dy  Dy0  1  0.332922  0.670493  0.437611  1
  Dy  Dy1  1  0.670882  0.333937  0.560552  1
  Dy  Dy2  1  0.670882  0.333937  0.939448  1
  Dy  Dy3  1  0.332922  0.670493  0.062389  1
  Al  Al4  1  0.334588  0.170193  0.250000  1
  Al  Al5  1  0.174980  0.340361  0.750000  1
  Tc  Tc6  1  0.983151  0.984995  0.499941  1
  Tc  Tc7  1  0.983151  0.984995  0.000059  1
  Tc  Tc8  1  0.669420  0.838006  0.750000  1
  Os  Os9  1  0.831097  0.176997  0.250000  1
  Os  Os10  1  0.832475  0.660216  0.250000  1
  Os  Os11  1  0.183530  0.835380  0.750000  1
