# generated using pymatgen
data_Sm5Er(BiO7)2
_symmetry_space_group_name_H-M   'P 1'
_cell_length_a   6.64760276
_cell_length_b   6.65504779
_cell_length_c   7.82338929
_cell_angle_alpha   106.87480578
_cell_angle_beta   89.78559456
_cell_angle_gamma   98.68516634
_symmetry_Int_Tables_number   1
_chemical_formula_structural   Sm5Er(BiO7)2
_chemical_formula_sum   'Sm5 Er1 Bi2 O14'
_cell_volume   327.11259775
_cell_formula_units_Z   1
loop_
 _symmetry_equiv_pos_site_id
 _symmetry_equiv_pos_as_xyz
  1  'x, y, z'
loop_
 _atom_site_type_symbol
 _atom_site_label
 _atom_site_symmetry_multiplicity
 _atom_site_fract_x
 _atom_site_fract_y
 _atom_site_fract_z
 _atom_site_occupancy
  Sm  Sm0  1  0.538567  0.995001  0.747499  1
  Sm  Sm1  1  0.269755  0.539461  0.884292  1
  Sm  Sm2  1  0.728936  0.462949  0.118313  1
  Sm  Sm3  1  0.735910  0.475744  0.612271  1
  Sm  Sm4  1  0.263458  0.522285  0.383993  1
  Er  Er5  1  0.461909  0.005644  0.252598  1
  Bi  Bi6  1  0.000139  0.000193  0.498341  1
  Bi  Bi7  1  0.999784  0.999938  0.002051  1
  O  O8  1  0.445558  0.655656  0.170166  1
  O  O9  1  0.556537  0.355020  0.834017  1
  O  O10  1  0.301802  0.927590  0.957990  1
  O  O11  1  0.698965  0.071733  0.052269  1
  O  O12  1  0.298114  0.927863  0.507941  1
  O  O13  1  0.702309  0.071268  0.481371  1
  O  O14  1  0.542636  0.355252  0.342334  1
  O  O15  1  0.451642  0.635953  0.653426  1
  O  O16  1  0.926318  0.669512  0.957468  1
  O  O17  1  0.073191  0.330388  0.042613  1
  O  O18  1  0.068727  0.343159  0.618315  1
  O  O19  1  0.928017  0.655365  0.382829  1
  O  O20  1  0.882174  0.908025  0.726341  1
  O  O21  1  0.125552  0.092002  0.273565  1
