# generated using pymatgen
data_Sm2Fe3P7Ru9
_symmetry_space_group_name_H-M   'P 1'
_cell_length_a   3.87063600
_cell_length_b   9.33569933
_cell_length_c   9.33834858
_cell_angle_alpha   119.98454910
_cell_angle_beta   90.00000000
_cell_angle_gamma   90.00000000
_symmetry_Int_Tables_number   1
_chemical_formula_structural   Sm2Fe3P7Ru9
_chemical_formula_sum   'Sm2 Fe3 P7 Ru9'
_cell_volume   292.27892185
_cell_formula_units_Z   1
loop_
 _symmetry_equiv_pos_site_id
 _symmetry_equiv_pos_as_xyz
  1  'x, y, z'
loop_
 _atom_site_type_symbol
 _atom_site_label
 _atom_site_symmetry_multiplicity
 _atom_site_fract_x
 _atom_site_fract_y
 _atom_site_fract_z
 _atom_site_occupancy
  Sm  Sm0  1  0.000000  0.666715  0.333434  1
  Sm  Sm1  1  0.500000  0.333381  0.666649  1
  Fe  Fe2  1  0.000000  0.889748  0.733185  1
  Fe  Fe3  1  0.000000  0.266680  0.156419  1
  Fe  Fe4  1  0.000000  0.843526  0.110301  1
  P  P5  1  0.000000  0.106268  0.695707  1
  P  P6  1  0.000000  0.304310  0.410593  1
  P  P7  1  0.000000  0.589289  0.893621  1
  P  P8  1  0.500000  0.719548  0.606131  1
  P  P9  1  0.500000  0.393920  0.113401  1
  P  P10  1  0.500000  0.886651  0.280586  1
  P  P11  1  0.000000  0.000008  0.999911  1
  Ru  Ru12  1  0.000000  0.360426  0.940785  1
  Ru  Ru13  1  0.000000  0.059172  0.419605  1
  Ru  Ru14  1  0.000000  0.580411  0.639612  1
  Ru  Ru15  1  0.500000  0.948509  0.563606  1
  Ru  Ru16  1  0.500000  0.436540  0.384987  1
  Ru  Ru17  1  0.500000  0.614959  0.051529  1
  Ru  Ru18  1  0.500000  0.115529  0.911690  1
  Ru  Ru19  1  0.500000  0.088309  0.203855  1
  Ru  Ru20  1  0.500000  0.796103  0.884394  1
