# generated using pymatgen
data_Hf8In4Pd3Pt5
_symmetry_space_group_name_H-M   'P 1'
_cell_length_a   7.55810789
_cell_length_b   7.56058897
_cell_length_c   6.76116504
_cell_angle_alpha   90.04652752
_cell_angle_beta   90.04358957
_cell_angle_gamma   90.03431087
_symmetry_Int_Tables_number   1
_chemical_formula_structural   Hf8In4Pd3Pt5
_chemical_formula_sum   'Hf8 In4 Pd3 Pt5'
_cell_volume   386.35799665
_cell_formula_units_Z   1
loop_
 _symmetry_equiv_pos_site_id
 _symmetry_equiv_pos_as_xyz
  1  'x, y, z'
loop_
 _atom_site_type_symbol
 _atom_site_label
 _atom_site_symmetry_multiplicity
 _atom_site_fract_x
 _atom_site_fract_y
 _atom_site_fract_z
 _atom_site_occupancy
  Hf  Hf0  1  0.148227  0.155479  0.001919  1
  Hf  Hf1  1  0.842755  0.849688  0.999551  1
  Hf  Hf2  1  0.656148  0.347238  0.498920  1
  Hf  Hf3  1  0.351765  0.651840  0.498669  1
  Hf  Hf4  1  0.683087  0.318636  0.000858  1
  Hf  Hf5  1  0.322141  0.679526  0.000845  1
  Hf  Hf6  1  0.815742  0.819721  0.500099  1
  Hf  Hf7  1  0.178542  0.182562  0.498615  1
  In  In8  1  0.497681  0.000113  0.249945  1
  In  In9  1  0.496607  0.001697  0.749634  1
  In  In10  1  0.000720  0.503048  0.250117  1
  In  In11  1  0.002505  0.502053  0.749555  1
  Pd  Pd12  1  0.367798  0.367382  0.779989  1
  Pd  Pd13  1  0.132215  0.867653  0.278375  1
  Pd  Pd14  1  0.132421  0.867528  0.721451  1
  Pt  Pt15  1  0.369029  0.368817  0.223809  1
  Pt  Pt16  1  0.628759  0.628585  0.776368  1
  Pt  Pt17  1  0.631467  0.631073  0.221609  1
  Pt  Pt18  1  0.871157  0.128846  0.722710  1
  Pt  Pt19  1  0.871235  0.128516  0.276962  1
