# generated using pymatgen
data_HoEr9HgBi5
_symmetry_space_group_name_H-M   'P 1'
_cell_length_a   8.16133200
_cell_length_b   9.43636500
_cell_length_c   11.96458700
_cell_angle_alpha   90.00000000
_cell_angle_beta   90.00000000
_cell_angle_gamma   90.00000000
_symmetry_Int_Tables_number   1
_chemical_formula_structural   HoEr9HgBi5
_chemical_formula_sum   'Ho2 Er18 Hg2 Bi10'
_cell_volume   921.43241939
_cell_formula_units_Z   2
loop_
 _symmetry_equiv_pos_site_id
 _symmetry_equiv_pos_as_xyz
  1  'x, y, z'
loop_
 _atom_site_type_symbol
 _atom_site_label
 _atom_site_symmetry_multiplicity
 _atom_site_fract_x
 _atom_site_fract_y
 _atom_site_fract_z
 _atom_site_occupancy
  Ho  Ho0  1  0.687289  0.750000  0.781955  1
  Ho  Ho1  1  0.187289  0.750000  0.718045  1
  Er  Er2  1  0.350393  0.750000  0.216181  1
  Er  Er3  1  0.850393  0.750000  0.283819  1
  Er  Er4  1  0.645401  0.250000  0.789890  1
  Er  Er5  1  0.145401  0.250000  0.710110  1
  Er  Er6  1  0.693522  0.554245  0.059375  1
  Er  Er7  1  0.193522  0.945755  0.440625  1
  Er  Er8  1  0.312491  0.068971  0.942515  1
  Er  Er9  1  0.812491  0.431029  0.557485  1
  Er  Er10  1  0.312491  0.431029  0.942515  1
  Er  Er11  1  0.812491  0.068971  0.557485  1
  Er  Er12  1  0.693522  0.945755  0.059375  1
  Er  Er13  1  0.193522  0.554245  0.440625  1
  Er  Er14  1  0.468011  0.250000  0.490660  1
  Er  Er15  1  0.968011  0.250000  0.009340  1
  Er  Er16  1  0.521641  0.750000  0.510375  1
  Er  Er17  1  0.021641  0.750000  0.989625  1
  Er  Er18  1  0.317877  0.250000  0.216029  1
  Er  Er19  1  0.817877  0.250000  0.283971  1
  Hg  Hg20  1  0.593436  0.250000  0.042502  1
  Hg  Hg21  1  0.093436  0.250000  0.457498  1
  Bi  Bi22  1  0.405097  0.750000  0.957088  1
  Bi  Bi23  1  0.905097  0.750000  0.542912  1
  Bi  Bi24  1  0.562857  0.997565  0.323747  1
  Bi  Bi25  1  0.062857  0.502435  0.176253  1
  Bi  Bi26  1  0.436557  0.496521  0.675053  1
  Bi  Bi27  1  0.936557  0.003479  0.824947  1
  Bi  Bi28  1  0.436557  0.003479  0.675053  1
  Bi  Bi29  1  0.936557  0.496521  0.824947  1
  Bi  Bi30  1  0.562857  0.502435  0.323747  1
  Bi  Bi31  1  0.062857  0.997565  0.176253  1
