# generated using pymatgen
data_Eu2Ag4Pd3
_symmetry_space_group_name_H-M   'P 1'
_cell_length_a   5.52275032
_cell_length_b   5.52275025
_cell_length_c   13.99644200
_cell_angle_alpha   90.00000000
_cell_angle_beta   90.00000000
_cell_angle_gamma   119.78487548
_symmetry_Int_Tables_number   1
_chemical_formula_structural   Eu2Ag4Pd3
_chemical_formula_sum   'Eu4 Ag8 Pd6'
_cell_volume   370.50703132
_cell_formula_units_Z   2
loop_
 _symmetry_equiv_pos_site_id
 _symmetry_equiv_pos_as_xyz
  1  'x, y, z'
loop_
 _atom_site_type_symbol
 _atom_site_label
 _atom_site_symmetry_multiplicity
 _atom_site_fract_x
 _atom_site_fract_y
 _atom_site_fract_z
 _atom_site_occupancy
  Eu  Eu0  1  0.325057  0.325057  0.127290  1
  Eu  Eu1  1  0.674943  0.674943  0.627290  1
  Eu  Eu2  1  0.325057  0.325057  0.372710  1
  Eu  Eu3  1  0.674943  0.674943  0.872710  1
  Ag  Ag4  1  0.994656  0.664025  0.078632  1
  Ag  Ag5  1  0.005344  0.335975  0.578632  1
  Ag  Ag6  1  0.664025  0.994656  0.421368  1
  Ag  Ag7  1  0.335975  0.005344  0.921368  1
  Ag  Ag8  1  0.005344  0.335975  0.921368  1
  Ag  Ag9  1  0.994656  0.664025  0.421368  1
  Ag  Ag10  1  0.335975  0.005344  0.578632  1
  Ag  Ag11  1  0.664025  0.994656  0.078632  1
  Pd  Pd12  1  0.827252  0.827252  0.250000  1
  Pd  Pd13  1  0.172748  0.172748  0.750000  1
  Pd  Pd14  1  0.826175  0.328527  0.250000  1
  Pd  Pd15  1  0.173825  0.671473  0.750000  1
  Pd  Pd16  1  0.328527  0.826175  0.250000  1
  Pd  Pd17  1  0.671473  0.173825  0.750000  1
