# generated using pymatgen
data_Yb3Al8(SiOs)4
_symmetry_space_group_name_H-M   'P 1'
_cell_length_a   8.65666989
_cell_length_b   8.65667082
_cell_length_c   9.54035500
_cell_angle_alpha   90.00000000
_cell_angle_beta   90.00000000
_cell_angle_gamma   120.20108602
_symmetry_Int_Tables_number   1
_chemical_formula_structural   Yb3Al8(SiOs)4
_chemical_formula_sum   'Yb6 Al16 Si8 Os8'
_cell_volume   617.89311437
_cell_formula_units_Z   2
loop_
 _symmetry_equiv_pos_site_id
 _symmetry_equiv_pos_as_xyz
  1  'x, y, z'
loop_
 _atom_site_type_symbol
 _atom_site_label
 _atom_site_symmetry_multiplicity
 _atom_site_fract_x
 _atom_site_fract_y
 _atom_site_fract_z
 _atom_site_occupancy
  Yb  Yb0  1  0.191835  0.388509  0.250000  1
  Yb  Yb1  1  0.808165  0.611491  0.750000  1
  Yb  Yb2  1  0.611491  0.808165  0.250000  1
  Yb  Yb3  1  0.388509  0.191835  0.750000  1
  Yb  Yb4  1  0.195577  0.804423  0.250000  1
  Yb  Yb5  1  0.804423  0.195577  0.750000  1
  Al  Al6  1  0.166764  0.332778  0.576587  1
  Al  Al7  1  0.833236  0.667222  0.423413  1
  Al  Al8  1  0.667222  0.833236  0.576587  1
  Al  Al9  1  0.833236  0.667222  0.076587  1
  Al  Al10  1  0.332778  0.166764  0.423413  1
  Al  Al11  1  0.166764  0.332778  0.923413  1
  Al  Al12  1  0.166221  0.833779  0.575660  1
  Al  Al13  1  0.332778  0.166764  0.076587  1
  Al  Al14  1  0.833779  0.166221  0.424340  1
  Al  Al15  1  0.667222  0.833236  0.923413  1
  Al  Al16  1  0.833779  0.166221  0.075660  1
  Al  Al17  1  0.166221  0.833779  0.924340  1
  Al  Al18  1  0.565121  0.434879  0.250000  1
  Al  Al19  1  0.434879  0.565121  0.750000  1
  Al  Al20  1  0.000502  0.999498  0.250000  1
  Al  Al21  1  0.999498  0.000502  0.750000  1
  Si  Si22  1  0.334920  0.665080  0.036658  1
  Si  Si23  1  0.665080  0.334920  0.963342  1
  Si  Si24  1  0.665080  0.334920  0.536658  1
  Si  Si25  1  0.334920  0.665080  0.463342  1
  Si  Si26  1  0.566241  0.125871  0.250000  1
  Si  Si27  1  0.433759  0.874129  0.750000  1
  Si  Si28  1  0.874129  0.433759  0.250000  1
  Si  Si29  1  0.125871  0.566241  0.750000  1
  Os  Os30  1  0.500000  0.000000  0.000000  1
  Os  Os31  1  0.000000  0.500000  0.000000  1
  Os  Os32  1  0.500000  0.000000  0.500000  1
  Os  Os33  1  0.500000  0.500000  0.000000  1
  Os  Os34  1  0.000000  0.500000  0.500000  1
  Os  Os35  1  0.500000  0.500000  0.500000  1
  Os  Os36  1  0.000000  0.000000  0.000000  1
  Os  Os37  1  0.000000  0.000000  0.500000  1
