# generated using pymatgen
data_Ac3Pr(PbAu2)2
_symmetry_space_group_name_H-M   'P 1'
_cell_length_a   8.36444800
_cell_length_b   8.36444856
_cell_length_c   4.16680800
_cell_angle_alpha   90.00000000
_cell_angle_beta   90.00000000
_cell_angle_gamma   90.65619531
_symmetry_Int_Tables_number   1
_chemical_formula_structural   Ac3Pr(PbAu2)2
_chemical_formula_sum   'Ac3 Pr1 Pb2 Au4'
_cell_volume   291.50741521
_cell_formula_units_Z   1
loop_
 _symmetry_equiv_pos_site_id
 _symmetry_equiv_pos_as_xyz
  1  'x, y, z'
loop_
 _atom_site_type_symbol
 _atom_site_label
 _atom_site_symmetry_multiplicity
 _atom_site_fract_x
 _atom_site_fract_y
 _atom_site_fract_z
 _atom_site_occupancy
  Ac  Ac0  1  0.673545  0.173545  0.500000  1
  Ac  Ac1  1  0.177903  0.325066  0.500000  1
  Ac  Ac2  1  0.825066  0.677903  0.500000  1
  Pr  Pr3  1  0.324407  0.824407  0.500000  1
  Pb  Pb4  1  0.006447  0.995735  0.000000  1
  Pb  Pb5  1  0.495735  0.506447  0.000000  1
  Au  Au6  1  0.127837  0.627837  0.000000  1
  Au  Au7  1  0.615602  0.874085  0.000000  1
  Au  Au8  1  0.374085  0.115602  0.000000  1
  Au  Au9  1  0.879376  0.379376  0.000000  1
