# generated using pymatgen
data_Tb9Y3TcRu3
_symmetry_space_group_name_H-M   'P 1'
_cell_length_a   6.33439038
_cell_length_b   7.37200385
_cell_length_c   9.24950110
_cell_angle_alpha   89.94510589
_cell_angle_beta   90.01107932
_cell_angle_gamma   90.01724845
_symmetry_Int_Tables_number   1
_chemical_formula_structural   Tb9Y3TcRu3
_chemical_formula_sum   'Tb9 Y3 Tc1 Ru3'
_cell_volume   431.92511737
_cell_formula_units_Z   1
loop_
 _symmetry_equiv_pos_site_id
 _symmetry_equiv_pos_as_xyz
  1  'x, y, z'
loop_
 _atom_site_type_symbol
 _atom_site_label
 _atom_site_symmetry_multiplicity
 _atom_site_fract_x
 _atom_site_fract_y
 _atom_site_fract_z
 _atom_site_occupancy
  Tb  Tb0  1  0.632928  0.041337  0.250044  1
  Tb  Tb1  1  0.364659  0.956611  0.750004  1
  Tb  Tb2  1  0.134731  0.456840  0.750028  1
  Tb  Tb3  1  0.870854  0.542934  0.250100  1
  Tb  Tb4  1  0.167231  0.175946  0.065235  1
  Tb  Tb5  1  0.831559  0.823812  0.935022  1
  Tb  Tb6  1  0.666062  0.324491  0.936340  1
  Tb  Tb7  1  0.831287  0.824126  0.564748  1
  Tb  Tb8  1  0.332279  0.676187  0.064981  1
  Y  Y9  1  0.167553  0.175972  0.435192  1
  Y  Y10  1  0.332279  0.675748  0.435610  1
  Y  Y11  1  0.666050  0.324830  0.563209  1
  Tc  Tc12  1  0.463152  0.385835  0.249245  1
  Ru  Ru13  1  0.539235  0.616346  0.750597  1
  Ru  Ru14  1  0.962191  0.114027  0.750292  1
  Ru  Ru15  1  0.037952  0.884959  0.249352  1
