# generated using pymatgen
data_La9NdS10
_symmetry_space_group_name_H-M   'P 1'
_cell_length_a   7.20898135
_cell_length_b   8.25142934
_cell_length_c   9.35307100
_cell_angle_alpha   103.24884557
_cell_angle_beta   96.87309937
_cell_angle_gamma   106.75103013
_symmetry_Int_Tables_number   1
_chemical_formula_structural   La9NdS10
_chemical_formula_sum   'La9 Nd1 S10'
_cell_volume   508.17458054
_cell_formula_units_Z   1
loop_
 _symmetry_equiv_pos_site_id
 _symmetry_equiv_pos_as_xyz
  1  'x, y, z'
loop_
 _atom_site_type_symbol
 _atom_site_label
 _atom_site_symmetry_multiplicity
 _atom_site_fract_x
 _atom_site_fract_y
 _atom_site_fract_z
 _atom_site_occupancy
  La  La0  1  0.800673  0.599777  0.598392  1
  La  La1  1  0.597368  0.199112  0.199452  1
  La  La2  1  0.402632  0.800888  0.800548  1
  La  La3  1  0.599862  0.700305  0.200539  1
  La  La4  1  0.199327  0.400223  0.401608  1
  La  La5  1  0.400138  0.299695  0.799461  1
  La  La6  1  0.000000  0.000000  0.000000  1
  La  La7  1  0.200866  0.900137  0.400307  1
  La  La8  1  0.799134  0.099863  0.599693  1
  Nd  Nd9  1  0.000000  0.500000  0.000000  1
  S  S10  1  0.702480  0.648426  0.900573  1
  S  S11  1  0.500057  0.250434  0.500036  1
  S  S12  1  0.702936  0.153227  0.901213  1
  S  S13  1  0.297064  0.846773  0.098787  1
  S  S14  1  0.499943  0.749566  0.499964  1
  S  S15  1  0.099913  0.451173  0.702952  1
  S  S16  1  0.297520  0.351574  0.099427  1
  S  S17  1  0.899961  0.050410  0.299672  1
  S  S18  1  0.100039  0.949590  0.700328  1
  S  S19  1  0.900087  0.548827  0.297048  1
