# generated using pymatgen
data_Yb2Eu2Co(Si2Pt)5
_symmetry_space_group_name_H-M   'P 1'
_cell_length_a   8.25925657
_cell_length_b   8.23205858
_cell_length_c   8.23205845
_cell_angle_alpha   138.23414300
_cell_angle_beta   104.60612606
_cell_angle_gamma   90.06401365
_symmetry_Int_Tables_number   1
_chemical_formula_structural   Yb2Eu2Co(Si2Pt)5
_chemical_formula_sum   'Yb2 Eu2 Co1 Si10 Pt5'
_cell_volume   344.87021278
_cell_formula_units_Z   1
loop_
 _symmetry_equiv_pos_site_id
 _symmetry_equiv_pos_as_xyz
  1  'x, y, z'
loop_
 _atom_site_type_symbol
 _atom_site_label
 _atom_site_symmetry_multiplicity
 _atom_site_fract_x
 _atom_site_fract_y
 _atom_site_fract_z
 _atom_site_occupancy
  Yb  Yb0  1  0.100898  0.873922  0.237343  1
  Yb  Yb1  1  0.899102  0.136444  0.773024  1
  Eu  Eu2  1  0.637125  0.365563  0.262114  1
  Eu  Eu3  1  0.362875  0.624990  0.728439  1
  Co  Co4  1  0.500000  0.749626  0.249626  1
  Si  Si5  1  0.000000  0.747596  0.747596  1
  Si  Si6  1  0.000000  0.251672  0.251672  1
  Si  Si7  1  0.273784  0.024566  0.748450  1
  Si  Si8  1  0.726216  0.474666  0.750782  1
  Si  Si9  1  0.725101  0.975589  0.251334  1
  Si  Si10  1  0.274899  0.526233  0.250488  1
  Si  Si11  1  0.753666  0.624125  0.165118  1
  Si  Si12  1  0.246334  0.411452  0.870459  1
  Si  Si13  1  0.455949  0.086541  0.334305  1
  Si  Si14  1  0.544051  0.878356  0.630592  1
  Pt  Pt15  1  0.500000  0.249551  0.749551  1
  Pt  Pt16  1  0.022615  0.640631  0.385142  1
  Pt  Pt17  1  0.977385  0.362528  0.618017  1
  Pt  Pt18  1  0.249423  0.133972  0.111400  1
  Pt  Pt19  1  0.750577  0.861976  0.884549  1
