# generated using pymatgen
data_KTl2Pd3
_symmetry_space_group_name_H-M   'P 1'
_cell_length_a   6.02255700
_cell_length_b   6.02255781
_cell_length_c   4.41322500
_cell_angle_alpha   90.00000000
_cell_angle_beta   90.00000000
_cell_angle_gamma   120.00000106
_symmetry_Int_Tables_number   1
_chemical_formula_structural   KTl2Pd3
_chemical_formula_sum   'K1 Tl2 Pd3'
_cell_volume   138.62724517
_cell_formula_units_Z   1
loop_
 _symmetry_equiv_pos_site_id
 _symmetry_equiv_pos_as_xyz
  1  'x, y, z'
loop_
 _atom_site_type_symbol
 _atom_site_label
 _atom_site_symmetry_multiplicity
 _atom_site_fract_x
 _atom_site_fract_y
 _atom_site_fract_z
 _atom_site_occupancy
  K  K0  1  0.000000  0.000000  0.000000  1
  Tl  Tl1  1  0.333333  0.666667  0.000000  1
  Tl  Tl2  1  0.666667  0.333333  0.000000  1
  Pd  Pd3  1  0.000000  0.500000  0.500000  1
  Pd  Pd4  1  0.500000  0.000000  0.500000  1
  Pd  Pd5  1  0.500000  0.500000  0.500000  1
