# generated using pymatgen
data_Tb7Ho9MgAg3Rh4
_symmetry_space_group_name_H-M   'P 1'
_cell_length_a   9.56022282
_cell_length_b   9.58853976
_cell_length_c   9.54457000
_cell_angle_alpha   60.15158365
_cell_angle_beta   60.05415315
_cell_angle_gamma   60.29519134
_symmetry_Int_Tables_number   1
_chemical_formula_structural   Tb7Ho9MgAg3Rh4
_chemical_formula_sum   'Tb7 Ho9 Mg1 Ag3 Rh4'
_cell_volume   621.00812878
_cell_formula_units_Z   1
loop_
 _symmetry_equiv_pos_site_id
 _symmetry_equiv_pos_as_xyz
  1  'x, y, z'
loop_
 _atom_site_type_symbol
 _atom_site_label
 _atom_site_symmetry_multiplicity
 _atom_site_fract_x
 _atom_site_fract_y
 _atom_site_fract_z
 _atom_site_occupancy
  Tb  Tb0  1  0.810822  0.811933  0.188623  1
  Tb  Tb1  1  0.934387  0.563631  0.564532  1
  Tb  Tb2  1  0.563138  0.936471  0.935981  1
  Tb  Tb3  1  0.563138  0.936471  0.564411  1
  Tb  Tb4  1  0.934387  0.563631  0.937450  1
  Tb  Tb5  1  0.562737  0.564298  0.936483  1
  Tb  Tb6  1  0.934686  0.937391  0.563962  1
  Ho  Ho7  1  0.351275  0.349081  0.349088  1
  Ho  Ho8  1  0.351275  0.349081  0.950555  1
  Ho  Ho9  1  0.350173  0.951877  0.348974  1
  Ho  Ho10  1  0.937845  0.353695  0.354230  1
  Ho  Ho11  1  0.811258  0.188017  0.188150  1
  Ho  Ho12  1  0.185649  0.813665  0.813934  1
  Ho  Ho13  1  0.185649  0.813665  0.186751  1
  Ho  Ho14  1  0.811258  0.188017  0.812575  1
  Ho  Ho15  1  0.185150  0.186160  0.814344  1
  Mg  Mg16  1  0.286074  0.571817  0.571055  1
  Ag  Ag17  1  0.582197  0.583954  0.583775  1
  Ag  Ag18  1  0.582197  0.583954  0.250076  1
  Ag  Ag19  1  0.582320  0.250097  0.583793  1
  Rh  Rh20  1  0.140768  0.144556  0.143699  1
  Rh  Rh21  1  0.140768  0.144556  0.570975  1
  Rh  Rh22  1  0.142093  0.569942  0.143982  1
  Rh  Rh23  1  0.570756  0.144038  0.142603  1
