# generated using pymatgen
data_Eu2Sn2Se3O2
_symmetry_space_group_name_H-M   'P 1'
_cell_length_a   3.94117000
_cell_length_b   9.35871512
_cell_length_c   11.33515759
_cell_angle_alpha   101.00283422
_cell_angle_beta   90.00000000
_cell_angle_gamma   90.00000000
_symmetry_Int_Tables_number   1
_chemical_formula_structural   Eu2Sn2Se3O2
_chemical_formula_sum   'Eu4 Sn4 Se6 O4'
_cell_volume   410.40378581
_cell_formula_units_Z   2
loop_
 _symmetry_equiv_pos_site_id
 _symmetry_equiv_pos_as_xyz
  1  'x, y, z'
loop_
 _atom_site_type_symbol
 _atom_site_label
 _atom_site_symmetry_multiplicity
 _atom_site_fract_x
 _atom_site_fract_y
 _atom_site_fract_z
 _atom_site_occupancy
  Eu  Eu0  1  0.501184  0.707819  0.609623  1
  Eu  Eu1  1  0.001184  0.792181  0.890377  1
  Eu  Eu2  1  0.498816  0.292181  0.390377  1
  Eu  Eu3  1  0.998816  0.207819  0.109623  1
  Sn  Sn4  1  0.501018  0.438865  0.807178  1
  Sn  Sn5  1  0.001018  0.061135  0.692822  1
  Sn  Sn6  1  0.498982  0.561135  0.192822  1
  Sn  Sn7  1  0.998982  0.938865  0.307178  1
  Se  Se8  1  0.500000  0.000000  0.500000  1
  Se  Se9  1  0.000000  0.500000  0.000000  1
  Se  Se10  1  0.500713  0.074802  0.884998  1
  Se  Se11  1  0.000713  0.425198  0.615002  1
  Se  Se12  1  0.499287  0.925198  0.115002  1
  Se  Se13  1  0.999287  0.574802  0.384998  1
  O  O14  1  0.498890  0.332384  0.187937  1
  O  O15  1  0.998890  0.167616  0.312063  1
  O  O16  1  0.501110  0.667616  0.812063  1
  O  O17  1  0.001110  0.832384  0.687937  1
