# generated using pymatgen
data_Ho5GaNiBi
_symmetry_space_group_name_H-M   'P 1'
_cell_length_a   8.56382300
_cell_length_b   8.56382356
_cell_length_c   8.74022026
_cell_angle_alpha   124.94320296
_cell_angle_beta   124.94320786
_cell_angle_gamma   80.26312723
_symmetry_Int_Tables_number   1
_chemical_formula_structural   Ho5GaNiBi
_chemical_formula_sum   'Ho10 Ga2 Ni2 Bi2'
_cell_volume   418.49206408
_cell_formula_units_Z   2
loop_
 _symmetry_equiv_pos_site_id
 _symmetry_equiv_pos_as_xyz
  1  'x, y, z'
loop_
 _atom_site_type_symbol
 _atom_site_label
 _atom_site_symmetry_multiplicity
 _atom_site_fract_x
 _atom_site_fract_y
 _atom_site_fract_z
 _atom_site_occupancy
  Ho  Ho0  1  0.000000  0.000000  0.000000  1
  Ho  Ho1  1  0.500000  0.500000  0.000000  1
  Ho  Ho2  1  0.009703  0.509703  0.789115  1
  Ho  Ho3  1  0.720588  0.220588  0.210885  1
  Ho  Ho4  1  0.536798  0.696123  0.500000  1
  Ho  Ho5  1  0.196123  0.036798  0.500000  1
  Ho  Ho6  1  0.990297  0.490297  0.210885  1
  Ho  Ho7  1  0.279412  0.779412  0.789115  1
  Ho  Ho8  1  0.463202  0.303877  0.500000  1
  Ho  Ho9  1  0.803877  0.963202  0.500000  1
  Ga  Ga10  1  0.359957  0.859957  0.219914  1
  Ga  Ga11  1  0.640043  0.140043  0.780086  1
  Ni  Ni12  1  0.870740  0.629260  0.500000  1
  Ni  Ni13  1  0.129260  0.370740  0.500000  1
  Bi  Bi14  1  0.750000  0.750000  0.000000  1
  Bi  Bi15  1  0.250000  0.250000  0.000000  1
