# generated using pymatgen
data_Pu3PaO12
_symmetry_space_group_name_H-M   'P 1'
_cell_length_a   5.65806766
_cell_length_b   5.71003446
_cell_length_c   8.07307500
_cell_angle_alpha   93.42030070
_cell_angle_beta   88.95632703
_cell_angle_gamma   90.08552769
_symmetry_Int_Tables_number   1
_chemical_formula_structural   Pu3PaO12
_chemical_formula_sum   'Pu3 Pa1 O12'
_cell_volume   260.31517535
_cell_formula_units_Z   1
loop_
 _symmetry_equiv_pos_site_id
 _symmetry_equiv_pos_as_xyz
  1  'x, y, z'
loop_
 _atom_site_type_symbol
 _atom_site_label
 _atom_site_symmetry_multiplicity
 _atom_site_fract_x
 _atom_site_fract_y
 _atom_site_fract_z
 _atom_site_occupancy
  Pu  Pu0  1  0.000002  0.006906  0.996597  1
  Pu  Pu1  1  0.000274  0.006738  0.496541  1
  Pu  Pu2  1  0.499706  0.507089  0.996573  1
  Pa  Pa3  1  0.500242  0.506910  0.496570  1
  O  O4  1  0.291766  0.177099  0.452663  1
  O  O5  1  0.090523  0.011008  0.769060  1
  O  O6  1  0.325801  0.779818  0.046069  1
  O  O7  1  0.166841  0.717357  0.452575  1
  O  O8  1  0.818237  0.726222  0.948848  1
  O  O9  1  0.414188  0.517382  0.739634  1
  O  O10  1  0.585628  0.496567  0.253540  1
  O  O11  1  0.181616  0.287619  0.044323  1
  O  O12  1  0.833501  0.295821  0.540476  1
  O  O13  1  0.673995  0.234368  0.947238  1
  O  O14  1  0.909302  0.002649  0.224083  1
  O  O15  1  0.708377  0.836046  0.540410  1
