# generated using pymatgen
data_NdLu(ZnSn)2
_symmetry_space_group_name_H-M   'P 1'
_cell_length_a   4.53452600
_cell_length_b   4.53452539
_cell_length_c   15.84861400
_cell_angle_alpha   90.00000000
_cell_angle_beta   90.00000000
_cell_angle_gamma   120.00000449
_symmetry_Int_Tables_number   1
_chemical_formula_structural   NdLu(ZnSn)2
_chemical_formula_sum   'Nd2 Lu2 Zn4 Sn4'
_cell_volume   282.21860060
_cell_formula_units_Z   2
loop_
 _symmetry_equiv_pos_site_id
 _symmetry_equiv_pos_as_xyz
  1  'x, y, z'
loop_
 _atom_site_type_symbol
 _atom_site_label
 _atom_site_symmetry_multiplicity
 _atom_site_fract_x
 _atom_site_fract_y
 _atom_site_fract_z
 _atom_site_occupancy
  Nd  Nd0  1  0.000000  0.000000  0.500000  1
  Nd  Nd1  1  0.000000  0.000000  0.000000  1
  Lu  Lu2  1  0.000000  0.000000  0.250000  1
  Lu  Lu3  1  0.000000  0.000000  0.750000  1
  Zn  Zn4  1  0.333333  0.666667  0.336386  1
  Zn  Zn5  1  0.666667  0.333333  0.663614  1
  Zn  Zn6  1  0.666667  0.333333  0.836386  1
  Zn  Zn7  1  0.333333  0.666667  0.163614  1
  Sn  Sn8  1  0.333333  0.666667  0.881078  1
  Sn  Sn9  1  0.666667  0.333333  0.118922  1
  Sn  Sn10  1  0.666667  0.333333  0.381078  1
  Sn  Sn11  1  0.333333  0.666667  0.618922  1
