# generated using pymatgen
data_La8Nd11HoSi16
_symmetry_space_group_name_H-M   'P 1'
_cell_length_a   7.92418865
_cell_length_b   7.92418872
_cell_length_c   15.33150600
_cell_angle_alpha   89.93796237
_cell_angle_beta   90.06203763
_cell_angle_gamma   89.95857140
_symmetry_Int_Tables_number   1
_chemical_formula_structural   La8Nd11HoSi16
_chemical_formula_sum   'La8 Nd11 Ho1 Si16'
_cell_volume   962.70629218
_cell_formula_units_Z   1
loop_
 _symmetry_equiv_pos_site_id
 _symmetry_equiv_pos_as_xyz
  1  'x, y, z'
loop_
 _atom_site_type_symbol
 _atom_site_label
 _atom_site_symmetry_multiplicity
 _atom_site_fract_x
 _atom_site_fract_y
 _atom_site_fract_z
 _atom_site_occupancy
  La  La0  1  0.987301  0.622799  0.052561  1
  La  La1  1  0.013443  0.376675  0.552492  1
  La  La2  1  0.622799  0.987301  0.947439  1
  La  La3  1  0.123066  0.513106  0.802223  1
  La  La4  1  0.877104  0.487605  0.302810  1
  La  La5  1  0.513106  0.123066  0.197777  1
  La  La6  1  0.487605  0.877104  0.697190  1
  La  La7  1  0.376675  0.013443  0.447508  1
  Nd  Nd8  1  0.373002  0.481555  0.373380  1
  Nd  Nd9  1  0.873311  0.019266  0.376941  1
  Nd  Nd10  1  0.981274  0.126627  0.123184  1
  Nd  Nd11  1  0.019266  0.873311  0.623059  1
  Nd  Nd12  1  0.626132  0.519007  0.872792  1
  Nd  Nd13  1  0.481555  0.373002  0.626620  1
  Nd  Nd14  1  0.519007  0.626132  0.127208  1
  Nd  Nd15  1  0.126627  0.981274  0.876816  1
  Nd  Nd16  1  0.808043  0.191086  0.749976  1
  Nd  Nd17  1  0.191086  0.808043  0.250024  1
  Nd  Nd18  1  0.308010  0.308010  0.000000  1
  Ho  Ho19  1  0.689486  0.689486  0.500000  1
  Si  Si20  1  0.076500  0.713385  0.439954  1
  Si  Si21  1  0.920462  0.286312  0.939356  1
  Si  Si22  1  0.713385  0.076500  0.560046  1
  Si  Si23  1  0.214168  0.420802  0.189510  1
  Si  Si24  1  0.785107  0.581261  0.686788  1
  Si  Si25  1  0.420802  0.214168  0.810490  1
  Si  Si26  1  0.581261  0.785107  0.313212  1
  Si  Si27  1  0.286312  0.920462  0.060644  1
  Si  Si28  1  0.830823  0.805819  0.795618  1
  Si  Si29  1  0.169381  0.194244  0.296218  1
  Si  Si30  1  0.805819  0.830823  0.204382  1
  Si  Si31  1  0.308468  0.669964  0.545622  1
  Si  Si32  1  0.694158  0.331250  0.046352  1
  Si  Si33  1  0.669964  0.308468  0.454378  1
  Si  Si34  1  0.331250  0.694158  0.953648  1
  Si  Si35  1  0.194244  0.169381  0.703782  1
