# generated using pymatgen
data_Ho10Co4PdAu
_symmetry_space_group_name_H-M   'P 1'
_cell_length_a   7.33704983
_cell_length_b   7.33704923
_cell_length_c   8.50490144
_cell_angle_alpha   115.55278715
_cell_angle_beta   115.55279001
_cell_angle_gamma   89.99999453
_symmetry_Int_Tables_number   1
_chemical_formula_structural   Ho10Co4PdAu
_chemical_formula_sum   'Ho10 Co4 Pd1 Au1'
_cell_volume   362.78811301
_cell_formula_units_Z   1
loop_
 _symmetry_equiv_pos_site_id
 _symmetry_equiv_pos_as_xyz
  1  'x, y, z'
loop_
 _atom_site_type_symbol
 _atom_site_label
 _atom_site_symmetry_multiplicity
 _atom_site_fract_x
 _atom_site_fract_y
 _atom_site_fract_z
 _atom_site_occupancy
  Ho  Ho0  1  0.006897  0.006897  0.013794  1
  Ho  Ho1  1  0.493103  0.493103  0.986206  1
  Ho  Ho2  1  0.473309  0.308617  0.272845  1
  Ho  Ho3  1  0.964229  0.473309  0.272845  1
  Ho  Ho4  1  0.308617  0.799535  0.272845  1
  Ho  Ho5  1  0.799535  0.964229  0.272845  1
  Ho  Ho6  1  0.191383  0.026691  0.727154  1
  Ho  Ho7  1  0.700463  0.191383  0.727154  1
  Ho  Ho8  1  0.026691  0.535771  0.727154  1
  Ho  Ho9  1  0.535771  0.700463  0.727154  1
  Co  Co10  1  0.624484  0.124484  0.000000  1
  Co  Co11  1  0.124484  0.375517  0.000000  1
  Co  Co12  1  0.875516  0.624484  0.000000  1
  Co  Co13  1  0.375517  0.875516  0.000000  1
  Pd  Pd14  1  0.750000  0.750000  0.500000  1
  Au  Au15  1  0.250000  0.250000  0.500000  1
