# generated using pymatgen
data_Nd10TlSi4Ge
_symmetry_space_group_name_H-M   'P 1'
_cell_length_a   7.78789600
_cell_length_b   9.20853824
_cell_length_c   7.78789600
_cell_angle_alpha   115.01545859
_cell_angle_beta   90.00000000
_cell_angle_gamma   115.01545859
_symmetry_Int_Tables_number   1
_chemical_formula_structural   Nd10TlSi4Ge
_chemical_formula_sum   'Nd10 Tl1 Si4 Ge1'
_cell_volume   447.63600585
_cell_formula_units_Z   1
loop_
 _symmetry_equiv_pos_site_id
 _symmetry_equiv_pos_as_xyz
  1  'x, y, z'
loop_
 _atom_site_type_symbol
 _atom_site_label
 _atom_site_symmetry_multiplicity
 _atom_site_fract_x
 _atom_site_fract_y
 _atom_site_fract_z
 _atom_site_occupancy
  Nd  Nd0  1  0.975672  0.952436  0.977226  1
  Nd  Nd1  1  0.522773  0.047567  0.524327  1
  Nd  Nd2  1  0.524114  0.722458  0.674870  1
  Nd  Nd3  1  0.198487  0.721610  0.047232  1
  Nd  Nd4  1  0.674074  0.722556  0.197927  1
  Nd  Nd5  1  0.049570  0.722551  0.524867  1
  Nd  Nd6  1  0.452772  0.278400  0.301516  1
  Nd  Nd7  1  0.825134  0.277551  0.975892  1
  Nd  Nd8  1  0.302076  0.277453  0.825931  1
  Nd  Nd9  1  0.975140  0.277459  0.450434  1
  Tl  Tl10  1  0.749507  0.500014  0.750507  1
  Si  Si11  1  0.883633  0.000001  0.616370  1
  Si  Si12  1  0.116624  0.000000  0.383375  1
  Si  Si13  1  0.616293  0.999751  0.115856  1
  Si  Si14  1  0.384142  0.000251  0.883710  1
  Ge  Ge15  1  0.249991  0.499942  0.249960  1
