# generated using pymatgen
data_Ce3DySi(PtRh)6
_symmetry_space_group_name_H-M   'P 1'
_cell_length_a   7.27065241
_cell_length_b   7.27065300
_cell_length_c   7.27065357
_cell_angle_alpha   109.43352873
_cell_angle_beta   109.43352629
_cell_angle_gamma   109.43352814
_symmetry_Int_Tables_number   1
_chemical_formula_structural   Ce3DySi(PtRh)6
_chemical_formula_sum   'Ce3 Dy1 Si1 Pt6 Rh6'
_cell_volume   296.28042695
_cell_formula_units_Z   1
loop_
 _symmetry_equiv_pos_site_id
 _symmetry_equiv_pos_as_xyz
  1  'x, y, z'
loop_
 _atom_site_type_symbol
 _atom_site_label
 _atom_site_symmetry_multiplicity
 _atom_site_fract_x
 _atom_site_fract_y
 _atom_site_fract_z
 _atom_site_occupancy
  Ce  Ce0  1  0.000000  0.000000  0.500000  1
  Ce  Ce1  1  0.000000  0.500000  0.000000  1
  Ce  Ce2  1  0.500000  0.000000  0.000000  1
  Dy  Dy3  1  0.500000  0.500000  0.500000  1
  Si  Si4  1  0.000000  0.000000  0.000000  1
  Pt  Pt5  1  0.750065  0.249935  0.500000  1
  Pt  Pt6  1  0.750065  0.500000  0.249935  1
  Pt  Pt7  1  0.500000  0.249935  0.750065  1
  Pt  Pt8  1  0.249935  0.500000  0.750065  1
  Pt  Pt9  1  0.249935  0.750065  0.500000  1
  Pt  Pt10  1  0.500000  0.750065  0.249935  1
  Rh  Rh11  1  0.724673  0.724673  0.000464  1
  Rh  Rh12  1  0.275327  0.999536  0.275327  1
  Rh  Rh13  1  0.999536  0.275327  0.275327  1
  Rh  Rh14  1  0.275327  0.275327  0.999536  1
  Rh  Rh15  1  0.724673  0.000464  0.724673  1
  Rh  Rh16  1  0.000464  0.724673  0.724673  1
