# generated using pymatgen
data_V3GaSn4(BO4)4
_symmetry_space_group_name_H-M   'P 1'
_cell_length_a   6.02628136
_cell_length_b   7.45958146
_cell_length_c   8.07903081
_cell_angle_alpha   89.96179703
_cell_angle_beta   90.21397547
_cell_angle_gamma   89.98612260
_symmetry_Int_Tables_number   1
_chemical_formula_structural   V3GaSn4(BO4)4
_chemical_formula_sum   'V3 Ga1 Sn4 B4 O16'
_cell_volume   363.17838352
_cell_formula_units_Z   1
loop_
 _symmetry_equiv_pos_site_id
 _symmetry_equiv_pos_as_xyz
  1  'x, y, z'
loop_
 _atom_site_type_symbol
 _atom_site_label
 _atom_site_symmetry_multiplicity
 _atom_site_fract_x
 _atom_site_fract_y
 _atom_site_fract_z
 _atom_site_occupancy
  V  V0  1  0.000000  0.000000  0.000000  1
  V  V1  1  0.500000  0.000000  0.000000  1
  V  V2  1  0.500000  0.500000  0.500000  1
  Ga  Ga3  1  0.000000  0.500000  0.500000  1
  Sn  Sn4  1  0.753271  0.897759  0.357822  1
  Sn  Sn5  1  0.246729  0.102241  0.642178  1
  Sn  Sn6  1  0.753030  0.400635  0.143704  1
  Sn  Sn7  1  0.246970  0.599365  0.856296  1
  B  B8  1  0.749475  0.220512  0.726676  1
  B  B9  1  0.250525  0.779488  0.273324  1
  B  B10  1  0.749803  0.718943  0.770544  1
  B  B11  1  0.250197  0.281057  0.229456  1
  O  O12  1  0.250458  0.168790  0.094297  1
  O  O13  1  0.749542  0.831210  0.905703  1
  O  O14  1  0.249232  0.669245  0.410389  1
  O  O15  1  0.750768  0.330755  0.589611  1
  O  O16  1  0.249787  0.900054  0.867627  1
  O  O17  1  0.750213  0.099946  0.132373  1
  O  O18  1  0.241334  0.402731  0.628692  1
  O  O19  1  0.758666  0.597269  0.371308  1
  O  O20  1  0.051703  0.837141  0.201858  1
  O  O21  1  0.549728  0.164546  0.796993  1
  O  O22  1  0.450045  0.340100  0.299083  1
  O  O23  1  0.948811  0.662352  0.700081  1
  O  O24  1  0.948297  0.162859  0.798142  1
  O  O25  1  0.450272  0.835454  0.203007  1
  O  O26  1  0.549955  0.659900  0.700917  1
  O  O27  1  0.051189  0.337648  0.299919  1
