# generated using pymatgen
data_CaNd19Si15Pd
_symmetry_space_group_name_H-M   'P 1'
_cell_length_a   7.80110893
_cell_length_b   7.93716638
_cell_length_c   15.18159060
_cell_angle_alpha   89.76189377
_cell_angle_beta   89.46521196
_cell_angle_gamma   90.04835176
_symmetry_Int_Tables_number   1
_chemical_formula_structural   CaNd19Si15Pd
_chemical_formula_sum   'Ca1 Nd19 Si15 Pd1'
_cell_volume   939.97491627
_cell_formula_units_Z   1
loop_
 _symmetry_equiv_pos_site_id
 _symmetry_equiv_pos_as_xyz
  1  'x, y, z'
loop_
 _atom_site_type_symbol
 _atom_site_label
 _atom_site_symmetry_multiplicity
 _atom_site_fract_x
 _atom_site_fract_y
 _atom_site_fract_z
 _atom_site_occupancy
  Ca  Ca0  1  0.138057  0.509385  0.748942  1
  Nd  Nd1  1  0.815467  0.327439  0.617793  1
  Nd  Nd2  1  0.454755  0.686680  0.897730  1
  Nd  Nd3  1  0.957392  0.813106  0.897383  1
  Nd  Nd4  1  0.186640  0.683734  0.120967  1
  Nd  Nd5  1  0.691615  0.819248  0.120692  1
  Nd  Nd6  1  0.308284  0.179482  0.878619  1
  Nd  Nd7  1  0.188814  0.679281  0.379502  1
  Nd  Nd8  1  0.042770  0.187380  0.102966  1
  Nd  Nd9  1  0.311953  0.180949  0.622224  1
  Nd  Nd10  1  0.856446  0.491155  0.256442  1
  Nd  Nd11  1  0.362919  0.008624  0.251336  1
  Nd  Nd12  1  0.533144  0.313187  0.397239  1
  Nd  Nd13  1  0.812764  0.318520  0.878653  1
  Nd  Nd14  1  0.965358  0.816951  0.601343  1
  Nd  Nd15  1  0.458496  0.686471  0.603396  1
  Nd  Nd16  1  0.042508  0.181695  0.397929  1
  Nd  Nd17  1  0.687983  0.818467  0.381625  1
  Nd  Nd18  1  0.638038  0.993921  0.748400  1
  Nd  Nd19  1  0.543422  0.312917  0.102224  1
  Si  Si20  1  0.479771  0.602265  0.246519  1
  Si  Si21  1  0.249508  0.379120  0.247381  1
  Si  Si22  1  0.520504  0.400576  0.751368  1
  Si  Si23  1  0.632086  0.024646  0.957637  1
  Si  Si24  1  0.016248  0.098235  0.749747  1
  Si  Si25  1  0.745132  0.621945  0.750459  1
  Si  Si26  1  0.750759  0.120810  0.248613  1
  Si  Si27  1  0.364578  0.971480  0.460995  1
  Si  Si28  1  0.981672  0.899789  0.248647  1
  Si  Si29  1  0.366323  0.974553  0.041045  1
  Si  Si30  1  0.635984  0.025667  0.542230  1
  Si  Si31  1  0.135555  0.473257  0.960628  1
  Si  Si32  1  0.148446  0.473375  0.540513  1
  Si  Si33  1  0.867235  0.525447  0.039943  1
  Si  Si34  1  0.246386  0.879944  0.751268  1
  Pd  Pd35  1  0.862989  0.520301  0.457605  1
