# generated using pymatgen
data_Er6Al23Co2SiOs6
_symmetry_space_group_name_H-M   'P 1'
_cell_length_a   8.73037400
_cell_length_b   8.73037292
_cell_length_c   9.48817800
_cell_angle_alpha   90.00000000
_cell_angle_beta   90.00000000
_cell_angle_gamma   119.99999651
_symmetry_Int_Tables_number   1
_chemical_formula_structural   Er6Al23Co2SiOs6
_chemical_formula_sum   'Er6 Al23 Co2 Si1 Os6'
_cell_volume   626.29524506
_cell_formula_units_Z   1
loop_
 _symmetry_equiv_pos_site_id
 _symmetry_equiv_pos_as_xyz
  1  'x, y, z'
loop_
 _atom_site_type_symbol
 _atom_site_label
 _atom_site_symmetry_multiplicity
 _atom_site_fract_x
 _atom_site_fract_y
 _atom_site_fract_z
 _atom_site_occupancy
  Er  Er0  1  0.195938  0.391878  0.247972  1
  Er  Er1  1  0.805844  0.611688  0.752472  1
  Er  Er2  1  0.608122  0.804062  0.247972  1
  Er  Er3  1  0.388312  0.194156  0.752472  1
  Er  Er4  1  0.195938  0.804062  0.247972  1
  Er  Er5  1  0.805844  0.194156  0.752472  1
  Al  Al6  1  0.666667  0.333333  0.984866  1
  Al  Al7  1  0.666667  0.333333  0.516683  1
  Al  Al8  1  0.333333  0.666667  0.482433  1
  Al  Al9  1  0.159113  0.318226  0.575694  1
  Al  Al10  1  0.840954  0.681908  0.423500  1
  Al  Al11  1  0.681774  0.840887  0.575694  1
  Al  Al12  1  0.840221  0.680441  0.075824  1
  Al  Al13  1  0.318092  0.159046  0.423500  1
  Al  Al14  1  0.161060  0.322119  0.922276  1
  Al  Al15  1  0.159113  0.840887  0.575694  1
  Al  Al16  1  0.319559  0.159779  0.075824  1
  Al  Al17  1  0.840954  0.159046  0.423500  1
  Al  Al18  1  0.677881  0.838940  0.922276  1
  Al  Al19  1  0.840221  0.159779  0.075824  1
  Al  Al20  1  0.161060  0.838940  0.922276  1
  Al  Al21  1  0.561385  0.122769  0.247977  1
  Al  Al22  1  0.437978  0.875958  0.748900  1
  Al  Al23  1  0.877231  0.438615  0.247977  1
  Al  Al24  1  0.124042  0.562022  0.748900  1
  Al  Al25  1  0.561385  0.438615  0.247977  1
  Al  Al26  1  0.437978  0.562022  0.748900  1
  Al  Al27  1  0.000000  0.000000  0.249372  1
  Al  Al28  1  0.000000  0.000000  0.749727  1
  Co  Co29  1  0.000000  0.000000  0.999159  1
  Co  Co30  1  0.000000  0.000000  0.499677  1
  Si  Si31  1  0.333333  0.666667  0.037483  1
  Os  Os32  1  0.496247  0.992494  0.000070  1
  Os  Os33  1  0.007506  0.503753  0.000070  1
  Os  Os34  1  0.500554  0.001108  0.498851  1
  Os  Os35  1  0.496247  0.503753  0.000070  1
  Os  Os36  1  0.998892  0.499446  0.498851  1
  Os  Os37  1  0.500554  0.499446  0.498851  1
