# generated using pymatgen
data_Er6ZrFe3(Co7P6)2
_symmetry_space_group_name_H-M   'P 1'
_cell_length_a   3.69419700
_cell_length_b   10.59480200
_cell_length_c   12.21382100
_cell_angle_alpha   90.00000000
_cell_angle_beta   90.00000000
_cell_angle_gamma   90.00000000
_symmetry_Int_Tables_number   1
_chemical_formula_structural   Er6ZrFe3(Co7P6)2
_chemical_formula_sum   'Er6 Zr1 Fe3 Co14 P12'
_cell_volume   478.04023039
_cell_formula_units_Z   1
loop_
 _symmetry_equiv_pos_site_id
 _symmetry_equiv_pos_as_xyz
  1  'x, y, z'
loop_
 _atom_site_type_symbol
 _atom_site_label
 _atom_site_symmetry_multiplicity
 _atom_site_fract_x
 _atom_site_fract_y
 _atom_site_fract_z
 _atom_site_occupancy
  Er  Er0  1  0.750000  0.250000  0.469920  1
  Er  Er1  1  0.250000  0.750000  0.522138  1
  Er  Er2  1  0.250000  0.926936  0.794716  1
  Er  Er3  1  0.250000  0.573064  0.794716  1
  Er  Er4  1  0.750000  0.068800  0.203903  1
  Er  Er5  1  0.750000  0.431200  0.203903  1
  Zr  Zr6  1  0.250000  0.250000  0.845774  1
  Fe  Fe7  1  0.750000  0.750000  0.158470  1
  Fe  Fe8  1  0.750000  0.250000  0.016263  1
  Fe  Fe9  1  0.250000  0.750000  0.990469  1
  Co  Co10  1  0.250000  0.250000  0.298500  1
  Co  Co11  1  0.750000  0.750000  0.702863  1
  Co  Co12  1  0.250000  0.424670  0.011794  1
  Co  Co13  1  0.250000  0.075330  0.011794  1
  Co  Co14  1  0.750000  0.587064  0.998808  1
  Co  Co15  1  0.750000  0.912936  0.998808  1
  Co  Co16  1  0.250000  0.456163  0.565205  1
  Co  Co17  1  0.250000  0.043837  0.565205  1
  Co  Co18  1  0.750000  0.548284  0.429326  1
  Co  Co19  1  0.750000  0.951716  0.429326  1
  Co  Co20  1  0.250000  0.869865  0.292397  1
  Co  Co21  1  0.250000  0.630135  0.292397  1
  Co  Co22  1  0.750000  0.126603  0.701444  1
  Co  Co23  1  0.750000  0.373397  0.701444  1
  P  P24  1  0.250000  0.250000  0.116878  1
  P  P25  1  0.750000  0.750000  0.885555  1
  P  P26  1  0.250000  0.250000  0.637363  1
  P  P27  1  0.750000  0.750000  0.344135  1
  P  P28  1  0.250000  0.441006  0.381136  1
  P  P29  1  0.250000  0.058994  0.381136  1
  P  P30  1  0.750000  0.562458  0.614329  1
  P  P31  1  0.750000  0.937542  0.614329  1
  P  P32  1  0.250000  0.899081  0.111647  1
  P  P33  1  0.250000  0.600919  0.111647  1
  P  P34  1  0.750000  0.085815  0.901134  1
  P  P35  1  0.750000  0.414185  0.901134  1
