# generated using pymatgen
data_Ce4MgSiPt3Rh8
_symmetry_space_group_name_H-M   'P 1'
_cell_length_a   7.29953527
_cell_length_b   7.28667610
_cell_length_c   7.29953709
_cell_angle_alpha   107.99225871
_cell_angle_beta   109.22570688
_cell_angle_gamma   111.28485781
_symmetry_Int_Tables_number   1
_chemical_formula_structural   Ce4MgSiPt3Rh8
_chemical_formula_sum   'Ce4 Mg1 Si1 Pt3 Rh8'
_cell_volume   298.36222744
_cell_formula_units_Z   1
loop_
 _symmetry_equiv_pos_site_id
 _symmetry_equiv_pos_as_xyz
  1  'x, y, z'
loop_
 _atom_site_type_symbol
 _atom_site_label
 _atom_site_symmetry_multiplicity
 _atom_site_fract_x
 _atom_site_fract_y
 _atom_site_fract_z
 _atom_site_occupancy
  Ce  Ce0  1  0.006540  0.984064  0.497003  1
  Ce  Ce1  1  0.021210  0.517515  0.030388  1
  Ce  Ce2  1  0.487061  0.984064  0.977525  1
  Ce  Ce3  1  0.487125  0.517515  0.496305  1
  Mg  Mg4  1  0.750295  0.251865  0.501569  1
  Si  Si5  1  0.999983  0.999827  0.999844  1
  Pt  Pt6  1  0.744248  0.489145  0.252974  1
  Pt  Pt7  1  0.510391  0.256619  0.746227  1
  Pt  Pt8  1  0.236171  0.489145  0.744896  1
  Rh  Rh9  1  0.249153  0.750798  0.501644  1
  Rh  Rh10  1  0.508336  0.760527  0.252191  1
  Rh  Rh11  1  0.719860  0.719185  0.999325  1
  Rh  Rh12  1  0.287545  0.013665  0.276470  1
  Rh  Rh13  1  0.986866  0.259715  0.272849  1
  Rh  Rh14  1  0.280325  0.278423  0.998097  1
  Rh  Rh15  1  0.737196  0.013665  0.726121  1
  Rh  Rh16  1  0.987694  0.714262  0.726569  1
