# generated using pymatgen
data_Dy16Cd4Ir3Pt
_symmetry_space_group_name_H-M   'P 1'
_cell_length_a   9.63732239
_cell_length_b   9.63732163
_cell_length_c   9.63732219
_cell_angle_alpha   60.11427553
_cell_angle_beta   60.11427653
_cell_angle_gamma   60.11427667
_symmetry_Int_Tables_number   1
_chemical_formula_structural   Dy16Cd4Ir3Pt
_chemical_formula_sum   'Dy16 Cd4 Ir3 Pt1'
_cell_volume   634.56641105
_cell_formula_units_Z   1
loop_
 _symmetry_equiv_pos_site_id
 _symmetry_equiv_pos_as_xyz
  1  'x, y, z'
loop_
 _atom_site_type_symbol
 _atom_site_label
 _atom_site_symmetry_multiplicity
 _atom_site_fract_x
 _atom_site_fract_y
 _atom_site_fract_z
 _atom_site_occupancy
  Dy  Dy0  1  0.597976  0.597976  0.597976  1
  Dy  Dy1  1  0.602245  0.602245  0.199403  1
  Dy  Dy2  1  0.602245  0.199403  0.602245  1
  Dy  Dy3  1  0.199403  0.602245  0.602245  1
  Dy  Dy4  1  0.055583  0.440783  0.440783  1
  Dy  Dy5  1  0.437776  0.060191  0.060191  1
  Dy  Dy6  1  0.440783  0.055583  0.440783  1
  Dy  Dy7  1  0.060191  0.437776  0.060191  1
  Dy  Dy8  1  0.440783  0.440783  0.055583  1
  Dy  Dy9  1  0.060191  0.060191  0.437776  1
  Dy  Dy10  1  0.188523  0.812735  0.812735  1
  Dy  Dy11  1  0.813634  0.187377  0.187377  1
  Dy  Dy12  1  0.812735  0.188523  0.812735  1
  Dy  Dy13  1  0.187377  0.813634  0.187377  1
  Dy  Dy14  1  0.812735  0.812735  0.188523  1
  Dy  Dy15  1  0.187377  0.187377  0.813634  1
  Cd  Cd16  1  0.830863  0.830863  0.830863  1
  Cd  Cd17  1  0.831183  0.831183  0.505850  1
  Cd  Cd18  1  0.831183  0.505850  0.831183  1
  Cd  Cd19  1  0.505850  0.831183  0.831183  1
  Ir  Ir20  1  0.392245  0.392245  0.824190  1
  Ir  Ir21  1  0.392245  0.824190  0.392245  1
  Ir  Ir22  1  0.824190  0.392245  0.392245  1
  Pt  Pt23  1  0.392682  0.392682  0.392682  1
