# generated using pymatgen
data_Ni3Ag4AsO8
_symmetry_space_group_name_H-M   'P 1'
_cell_length_a   5.24034143
_cell_length_b   6.06538616
_cell_length_c   7.14304747
_cell_angle_alpha   64.49223562
_cell_angle_beta   103.96286284
_cell_angle_gamma   90.05541734
_symmetry_Int_Tables_number   1
_chemical_formula_structural   Ni3Ag4AsO8
_chemical_formula_sum   'Ni3 Ag4 As1 O8'
_cell_volume   197.47649770
_cell_formula_units_Z   1
loop_
 _symmetry_equiv_pos_site_id
 _symmetry_equiv_pos_as_xyz
  1  'x, y, z'
loop_
 _atom_site_type_symbol
 _atom_site_label
 _atom_site_symmetry_multiplicity
 _atom_site_fract_x
 _atom_site_fract_y
 _atom_site_fract_z
 _atom_site_occupancy
  Ni  Ni0  1  0.000123  0.001999  0.500036  1
  Ni  Ni1  1  0.499874  0.249980  0.500124  1
  Ni  Ni2  1  0.999930  0.498133  0.499923  1
  Ag  Ag3  1  0.008681  0.000543  0.998515  1
  Ag  Ag4  1  0.499949  0.249953  0.000002  1
  Ag  Ag5  1  0.991327  0.499491  0.001436  1
  Ag  Ag6  1  0.500062  0.749927  0.000020  1
  As  As7  1  0.500057  0.750037  0.499942  1
  O  O8  1  0.861897  0.669094  0.659920  1
  O  O9  1  0.401589  0.894482  0.662155  1
  O  O10  1  0.893469  0.165866  0.666554  1
  O  O11  1  0.401420  0.440492  0.661987  1
  O  O12  1  0.138138  0.830902  0.340045  1
  O  O13  1  0.598569  0.059459  0.338043  1
  O  O14  1  0.106518  0.334252  0.333392  1
  O  O15  1  0.598400  0.605391  0.337905  1
