# generated using pymatgen
data_Sr6Zn6Te(IrO8)3
_symmetry_space_group_name_H-M   'P 1'
_cell_length_a   11.24167959
_cell_length_b   11.22445412
_cell_length_c   11.22442268
_cell_angle_alpha   109.40849707
_cell_angle_beta   109.47271029
_cell_angle_gamma   109.47022742
_symmetry_Int_Tables_number   1
_chemical_formula_structural   Sr6Zn6Te(IrO8)3
_chemical_formula_sum   'Sr12 Zn12 Te2 Ir6 O48'
_cell_volume   1091.11744181
_cell_formula_units_Z   2
loop_
 _symmetry_equiv_pos_site_id
 _symmetry_equiv_pos_as_xyz
  1  'x, y, z'
loop_
 _atom_site_type_symbol
 _atom_site_label
 _atom_site_symmetry_multiplicity
 _atom_site_fract_x
 _atom_site_fract_y
 _atom_site_fract_z
 _atom_site_occupancy
  Sr  Sr0  1  0.374250  0.751429  0.125738  1
  Sr  Sr1  1  0.249993  0.376366  0.126371  1
  Sr  Sr2  1  0.877113  0.625539  0.251225  1
  Sr  Sr3  1  0.377104  0.125885  0.251564  1
  Sr  Sr4  1  0.125744  0.251480  0.377170  1
  Sr  Sr5  1  0.750003  0.124895  0.374893  1
  Sr  Sr6  1  0.874258  0.748520  0.622831  1
  Sr  Sr7  1  0.249996  0.875104  0.625106  1
  Sr  Sr8  1  0.122886  0.374460  0.748774  1
  Sr  Sr9  1  0.622897  0.874116  0.748436  1
  Sr  Sr10  1  0.625749  0.248570  0.874261  1
  Sr  Sr11  1  0.750007  0.623635  0.873630  1
  Zn  Zn12  1  0.749994  0.875544  0.125548  1
  Zn  Zn13  1  0.874465  0.249794  0.124870  1
  Zn  Zn14  1  0.624947  0.374951  0.250367  1
  Zn  Zn15  1  0.124957  0.874583  0.250006  1
  Zn  Zn16  1  0.625528  0.750399  0.375325  1
  Zn  Zn17  1  0.250006  0.625094  0.375096  1
  Zn  Zn18  1  0.374473  0.249600  0.624675  1
  Zn  Zn19  1  0.749994  0.374905  0.624905  1
  Zn  Zn20  1  0.875043  0.125418  0.749993  1
  Zn  Zn21  1  0.375054  0.625050  0.749632  1
  Zn  Zn22  1  0.125535  0.750205  0.875131  1
  Zn  Zn23  1  0.250006  0.124457  0.874452  1
  Te  Te24  1  0.000000  0.000000  0.000000  1
  Te  Te25  1  0.500000  0.500000  0.000000  1
  Ir  Ir26  1  0.500000  0.000000  0.000000  1
  Ir  Ir27  1  0.000000  0.500000  0.000000  1
  Ir  Ir28  1  0.000000  0.000000  0.500000  1
  Ir  Ir29  1  0.500000  0.500000  0.500000  1
  Ir  Ir30  1  0.500000  0.000000  0.500000  1
  Ir  Ir31  1  0.000000  0.500000  0.500000  1
  O  O32  1  0.329433  0.907604  0.017822  1
  O  O33  1  0.188748  0.111350  0.018889  1
  O  O34  1  0.688754  0.669860  0.077398  1
  O  O35  1  0.889643  0.407357  0.078377  1
  O  O36  1  0.982237  0.670590  0.092477  1
  O  O37  1  0.611347  0.422415  0.092347  1
  O  O38  1  0.592591  0.921948  0.110476  1
  O  O39  1  0.018771  0.188799  0.111287  1
  O  O40  1  0.188593  0.578493  0.170947  1
  O  O41  1  0.481222  0.592511  0.170026  1
  O  O42  1  0.578435  0.170984  0.188769  1
  O  O43  1  0.111340  0.018994  0.188927  1
  O  O44  1  0.329174  0.921976  0.311550  1
  O  O45  1  0.482234  0.389756  0.311649  1
  O  O46  1  0.907412  0.017887  0.329354  1
  O  O47  1  0.921894  0.311405  0.329271  1
  O  O48  1  0.578109  0.907381  0.389511  1
  O  O49  1  0.311397  0.482348  0.389895  1
  O  O50  1  0.829179  0.517625  0.407202  1
  O  O51  1  0.078435  0.889668  0.407452  1
  O  O52  1  0.829438  0.811612  0.421835  1
  O  O53  1  0.092708  0.610447  0.421806  1
  O  O54  1  0.592708  0.170902  0.482256  1
  O  O55  1  0.389636  0.311262  0.482280  1
  O  O56  1  0.610364  0.688737  0.517720  1
  O  O57  1  0.407292  0.829098  0.517744  1
  O  O58  1  0.170562  0.188387  0.578164  1
  O  O59  1  0.907292  0.389553  0.578194  1
  O  O60  1  0.921565  0.110332  0.592548  1
  O  O61  1  0.170821  0.482375  0.592798  1
  O  O62  1  0.688602  0.517652  0.610105  1
  O  O63  1  0.421891  0.092619  0.610489  1
  O  O64  1  0.092587  0.982112  0.670645  1
  O  O65  1  0.078106  0.688594  0.670728  1
  O  O66  1  0.517766  0.610244  0.688351  1
  O  O67  1  0.670825  0.078024  0.688449  1
  O  O68  1  0.888660  0.981006  0.811073  1
  O  O69  1  0.421564  0.829017  0.811231  1
  O  O70  1  0.518778  0.407489  0.829974  1
  O  O71  1  0.811407  0.421507  0.829053  1
  O  O72  1  0.981229  0.811201  0.888713  1
  O  O73  1  0.407409  0.078052  0.889524  1
  O  O74  1  0.017762  0.329409  0.907523  1
  O  O75  1  0.388653  0.577585  0.907653  1
  O  O76  1  0.110357  0.592643  0.921623  1
  O  O77  1  0.311245  0.330139  0.922602  1
  O  O78  1  0.670567  0.092396  0.982176  1
  O  O79  1  0.811252  0.888650  0.981111  1
