# generated using pymatgen
data_La6Y2MgPt6
_symmetry_space_group_name_H-M   'P 1'
_cell_length_a   7.76331855
_cell_length_b   7.76331888
_cell_length_c   7.76331927
_cell_angle_alpha   70.36352633
_cell_angle_beta   70.36352287
_cell_angle_gamma   70.36352813
_symmetry_Int_Tables_number   1
_chemical_formula_structural   La6Y2MgPt6
_chemical_formula_sum   'La6 Y2 Mg1 Pt6'
_cell_volume   401.70598306
_cell_formula_units_Z   1
loop_
 _symmetry_equiv_pos_site_id
 _symmetry_equiv_pos_as_xyz
  1  'x, y, z'
loop_
 _atom_site_type_symbol
 _atom_site_label
 _atom_site_symmetry_multiplicity
 _atom_site_fract_x
 _atom_site_fract_y
 _atom_site_fract_z
 _atom_site_occupancy
  La  La0  1  0.319972  0.614903  0.849285  1
  La  La1  1  0.849285  0.319972  0.614903  1
  La  La2  1  0.614903  0.849285  0.319972  1
  La  La3  1  0.680028  0.385097  0.150715  1
  La  La4  1  0.150715  0.680028  0.385097  1
  La  La5  1  0.385097  0.150715  0.680028  1
  Y  Y6  1  0.812166  0.812166  0.812166  1
  Y  Y7  1  0.187834  0.187834  0.187834  1
  Mg  Mg8  1  0.000000  0.000000  0.000000  1
  Pt  Pt9  1  0.169464  0.960745  0.581003  1
  Pt  Pt10  1  0.581003  0.169464  0.960745  1
  Pt  Pt11  1  0.960745  0.581003  0.169464  1
  Pt  Pt12  1  0.830536  0.039255  0.418997  1
  Pt  Pt13  1  0.418997  0.830536  0.039255  1
  Pt  Pt14  1  0.039255  0.418997  0.830536  1
