# generated using pymatgen
data_Nd4Sm3Au10
_symmetry_space_group_name_H-M   'P 1'
_cell_length_a   8.95969012
_cell_length_b   8.95966450
_cell_length_c   10.65480700
_cell_angle_alpha   90.00000000
_cell_angle_beta   90.00000000
_cell_angle_gamma   107.18932134
_symmetry_Int_Tables_number   1
_chemical_formula_structural   Nd4Sm3Au10
_chemical_formula_sum   'Nd8 Sm6 Au20'
_cell_volume   817.11900650
_cell_formula_units_Z   2
loop_
 _symmetry_equiv_pos_site_id
 _symmetry_equiv_pos_as_xyz
  1  'x, y, z'
loop_
 _atom_site_type_symbol
 _atom_site_label
 _atom_site_symmetry_multiplicity
 _atom_site_fract_x
 _atom_site_fract_y
 _atom_site_fract_z
 _atom_site_occupancy
  Nd  Nd0  1  0.693723  0.306277  0.000000  1
  Nd  Nd1  1  0.193723  0.806277  0.500000  1
  Nd  Nd2  1  0.811664  0.811665  0.308394  1
  Nd  Nd3  1  0.311664  0.311665  0.191606  1
  Nd  Nd4  1  0.806277  0.193723  0.500000  1
  Nd  Nd5  1  0.306277  0.693723  0.000000  1
  Nd  Nd6  1  0.688336  0.688335  0.808394  1
  Nd  Nd7  1  0.188336  0.188335  0.691606  1
  Sm  Sm8  1  0.504248  0.004248  0.250000  1
  Sm  Sm9  1  0.995752  0.495752  0.750000  1
  Sm  Sm10  1  0.000000  0.000000  0.000000  1
  Sm  Sm11  1  0.004248  0.504248  0.250000  1
  Sm  Sm12  1  0.495752  0.995752  0.750000  1
  Sm  Sm13  1  0.500000  0.500000  0.500000  1
  Au  Au14  1  0.145064  0.437756  0.496001  1
  Au  Au15  1  0.897110  0.897110  0.599218  1
  Au  Au16  1  0.562244  0.854936  0.503999  1
  Au  Au17  1  0.864203  0.152712  0.209730  1
  Au  Au18  1  0.364203  0.652712  0.290270  1
  Au  Au19  1  0.652715  0.364202  0.290272  1
  Au  Au20  1  0.397110  0.397110  0.900782  1
  Au  Au21  1  0.937756  0.645064  0.003999  1
  Au  Au22  1  0.347285  0.635798  0.709728  1
  Au  Au23  1  0.354936  0.062244  0.996001  1
  Au  Au24  1  0.602890  0.602890  0.099218  1
  Au  Au25  1  0.645064  0.937756  0.003999  1
  Au  Au26  1  0.102890  0.102890  0.400782  1
  Au  Au27  1  0.635797  0.347288  0.709730  1
  Au  Au28  1  0.135797  0.847288  0.790270  1
  Au  Au29  1  0.062244  0.354936  0.996001  1
  Au  Au30  1  0.854936  0.562244  0.503999  1
  Au  Au31  1  0.152715  0.864202  0.209728  1
  Au  Au32  1  0.437756  0.145064  0.496001  1
  Au  Au33  1  0.847285  0.135798  0.790272  1
