# generated using pymatgen
data_Tb14Ho6Fe3CoBi8
_symmetry_space_group_name_H-M   'P 1'
_cell_length_a   8.00229043
_cell_length_b   8.94887810
_cell_length_c   12.44162850
_cell_angle_alpha   90.04267749
_cell_angle_beta   90.07727848
_cell_angle_gamma   90.04155806
_symmetry_Int_Tables_number   1
_chemical_formula_structural   Tb14Ho6Fe3CoBi8
_chemical_formula_sum   'Tb14 Ho6 Fe3 Co1 Bi8'
_cell_volume   890.96265543
_cell_formula_units_Z   1
loop_
 _symmetry_equiv_pos_site_id
 _symmetry_equiv_pos_as_xyz
  1  'x, y, z'
loop_
 _atom_site_type_symbol
 _atom_site_label
 _atom_site_symmetry_multiplicity
 _atom_site_fract_x
 _atom_site_fract_y
 _atom_site_fract_z
 _atom_site_occupancy
  Tb  Tb0  1  0.348497  0.750573  0.701170  1
  Tb  Tb1  1  0.651197  0.249476  0.300213  1
  Tb  Tb2  1  0.848678  0.250069  0.798873  1
  Tb  Tb3  1  0.149683  0.749931  0.198092  1
  Tb  Tb4  1  0.884823  0.749932  0.812075  1
  Tb  Tb5  1  0.114024  0.250094  0.188354  1
  Tb  Tb6  1  0.384693  0.249018  0.688343  1
  Tb  Tb7  1  0.615481  0.750958  0.312359  1
  Tb  Tb8  1  0.674299  0.532298  0.563138  1
  Tb  Tb9  1  0.322530  0.459254  0.435842  1
  Tb  Tb10  1  0.055485  0.750545  0.495345  1
  Tb  Tb11  1  0.947514  0.249288  0.504183  1
  Tb  Tb12  1  0.556890  0.249964  0.005091  1
  Tb  Tb13  1  0.445992  0.750018  0.995575  1
  Ho  Ho14  1  0.173372  0.464068  0.937672  1
  Ho  Ho15  1  0.324375  0.041764  0.435946  1
  Ho  Ho16  1  0.825941  0.537044  0.062290  1
  Ho  Ho17  1  0.672656  0.966724  0.562997  1
  Ho  Ho18  1  0.826369  0.962565  0.062374  1
  Ho  Ho19  1  0.172951  0.036252  0.937552  1
  Fe  Fe20  1  0.070356  0.749536  0.990000  1
  Fe  Fe21  1  0.930849  0.250337  0.008541  1
  Fe  Fe22  1  0.569781  0.249353  0.509441  1
  Co  Co23  1  0.434137  0.750995  0.492892  1
  Bi  Bi24  1  0.571540  0.507254  0.827675  1
  Bi  Bi25  1  0.428162  0.492749  0.173093  1
  Bi  Bi26  1  0.073067  0.493003  0.673505  1
  Bi  Bi27  1  0.427600  0.007494  0.173150  1
  Bi  Bi28  1  0.926900  0.508233  0.326507  1
  Bi  Bi29  1  0.572020  0.992562  0.827662  1
  Bi  Bi30  1  0.928451  0.991884  0.326534  1
  Bi  Bi31  1  0.071685  0.006764  0.673514  1
