# generated using pymatgen
data_DyTcRu
_symmetry_space_group_name_H-M   'P 1'
_cell_length_a   5.19047910
_cell_length_b   5.19047888
_cell_length_c   9.12377000
_cell_angle_alpha   90.00000000
_cell_angle_beta   90.00000000
_cell_angle_gamma   116.86357550
_symmetry_Int_Tables_number   1
_chemical_formula_structural   DyTcRu
_chemical_formula_sum   'Dy4 Tc4 Ru4'
_cell_volume   219.27818512
_cell_formula_units_Z   4
loop_
 _symmetry_equiv_pos_site_id
 _symmetry_equiv_pos_as_xyz
  1  'x, y, z'
loop_
 _atom_site_type_symbol
 _atom_site_label
 _atom_site_symmetry_multiplicity
 _atom_site_fract_x
 _atom_site_fract_y
 _atom_site_fract_z
 _atom_site_occupancy
  Dy  Dy0  1  0.332252  0.667748  0.436883  1
  Dy  Dy1  1  0.670755  0.329245  0.566958  1
  Dy  Dy2  1  0.670755  0.329245  0.933042  1
  Dy  Dy3  1  0.332252  0.667748  0.063117  1
  Tc  Tc4  1  0.827308  0.172692  0.250000  1
  Tc  Tc5  1  0.829906  0.659865  0.250000  1
  Tc  Tc6  1  0.340135  0.170094  0.250000  1
  Tc  Tc7  1  0.162489  0.837511  0.750000  1
  Ru  Ru8  1  0.007185  0.992815  0.502484  1
  Ru  Ru9  1  0.007185  0.992815  0.997516  1
  Ru  Ru10  1  0.170044  0.350268  0.750000  1
  Ru  Ru11  1  0.649732  0.829956  0.750000  1
