# generated using pymatgen
data_SmU3(Si5Pt3)2
_symmetry_space_group_name_H-M   'P 1'
_cell_length_a   8.17670911
_cell_length_b   8.16775917
_cell_length_c   8.16775872
_cell_angle_alpha   135.79964241
_cell_angle_beta   104.72421950
_cell_angle_gamma   91.63987054
_symmetry_Int_Tables_number   1
_chemical_formula_structural   SmU3(Si5Pt3)2
_chemical_formula_sum   'Sm1 U3 Si10 Pt6'
_cell_volume   349.36589654
_cell_formula_units_Z   1
loop_
 _symmetry_equiv_pos_site_id
 _symmetry_equiv_pos_as_xyz
  1  'x, y, z'
loop_
 _atom_site_type_symbol
 _atom_site_label
 _atom_site_symmetry_multiplicity
 _atom_site_fract_x
 _atom_site_fract_y
 _atom_site_fract_z
 _atom_site_occupancy
  Sm  Sm0  1  0.899429  0.128470  0.770959  1
  U  U1  1  0.637766  0.368304  0.269462  1
  U  U2  1  0.361295  0.630756  0.730539  1
  U  U3  1  0.100528  0.870590  0.229938  1
  Si  Si4  1  0.273569  0.524740  0.251206  1
  Si  Si5  1  0.727510  0.478001  0.749069  1
  Si  Si6  1  0.727510  0.978441  0.249509  1
  Si  Si7  1  0.273569  0.022362  0.748829  1
  Si  Si8  1  0.460535  0.112171  0.348364  1
  Si  Si9  1  0.535124  0.884815  0.650308  1
  Si  Si10  1  0.761625  0.612039  0.149586  1
  Si  Si11  1  0.240327  0.390664  0.849663  1
  Si  Si12  1  0.000164  0.251150  0.253880  1
  Si  Si13  1  0.000164  0.746284  0.749014  1
  Pt  Pt14  1  0.245915  0.137380  0.108535  1
  Pt  Pt15  1  0.752353  0.863338  0.889015  1
  Pt  Pt16  1  0.025876  0.637452  0.388425  1
  Pt  Pt17  1  0.972608  0.361107  0.611500  1
  Pt  Pt18  1  0.502067  0.249035  0.749167  1
  Pt  Pt19  1  0.502067  0.752900  0.253032  1
