# generated using pymatgen
data_Ho4NpUTc6
_symmetry_space_group_name_H-M   'P 1'
_cell_length_a   5.76170300
_cell_length_b   5.76170174
_cell_length_c   8.20317400
_cell_angle_alpha   90.00000000
_cell_angle_beta   90.00000000
_cell_angle_gamma   120.00000150
_symmetry_Int_Tables_number   1
_chemical_formula_structural   Ho4NpUTc6
_chemical_formula_sum   'Ho4 Np1 U1 Tc6'
_cell_volume   235.83822057
_cell_formula_units_Z   1
loop_
 _symmetry_equiv_pos_site_id
 _symmetry_equiv_pos_as_xyz
  1  'x, y, z'
loop_
 _atom_site_type_symbol
 _atom_site_label
 _atom_site_symmetry_multiplicity
 _atom_site_fract_x
 _atom_site_fract_y
 _atom_site_fract_z
 _atom_site_occupancy
  Ho  Ho0  1  0.333333  0.666667  0.440607  1
  Ho  Ho1  1  0.666667  0.333333  0.559393  1
  Ho  Ho2  1  0.666667  0.333333  0.941059  1
  Ho  Ho3  1  0.333333  0.666667  0.058941  1
  Np  Np4  1  0.000000  0.000000  0.500000  1
  U  U5  1  0.000000  0.000000  0.000000  1
  Tc  Tc6  1  0.836219  0.163781  0.252925  1
  Tc  Tc7  1  0.836219  0.672438  0.252925  1
  Tc  Tc8  1  0.327562  0.163781  0.252925  1
  Tc  Tc9  1  0.163781  0.836219  0.747075  1
  Tc  Tc10  1  0.163781  0.327562  0.747075  1
  Tc  Tc11  1  0.672438  0.836219  0.747075  1
