# generated using pymatgen
data_Yb15Ho(TmPt4)4
_symmetry_space_group_name_H-M   'P 1'
_cell_length_a   7.47265144
_cell_length_b   7.55473826
_cell_length_c   14.55148607
_cell_angle_alpha   90.06182807
_cell_angle_beta   90.01603590
_cell_angle_gamma   90.01492276
_symmetry_Int_Tables_number   1
_chemical_formula_structural   Yb15Ho(TmPt4)4
_chemical_formula_sum   'Yb15 Ho1 Tm4 Pt16'
_cell_volume   821.48797568
_cell_formula_units_Z   1
loop_
 _symmetry_equiv_pos_site_id
 _symmetry_equiv_pos_as_xyz
  1  'x, y, z'
loop_
 _atom_site_type_symbol
 _atom_site_label
 _atom_site_symmetry_multiplicity
 _atom_site_fract_x
 _atom_site_fract_y
 _atom_site_fract_z
 _atom_site_occupancy
  Yb  Yb0  1  0.851939  0.666489  0.122048  1
  Yb  Yb1  1  0.647324  0.166894  0.878176  1
  Yb  Yb2  1  0.146858  0.333039  0.621559  1
  Yb  Yb3  1  0.490626  0.675050  0.595513  1
  Yb  Yb4  1  0.990567  0.823565  0.905708  1
  Yb  Yb5  1  0.510038  0.322384  0.093558  1
  Yb  Yb6  1  0.007471  0.178201  0.405523  1
  Yb  Yb7  1  0.509032  0.322141  0.404527  1
  Yb  Yb8  1  0.007636  0.180553  0.094003  1
  Yb  Yb9  1  0.491056  0.679448  0.904558  1
  Yb  Yb10  1  0.991167  0.819588  0.596137  1
  Yb  Yb11  1  0.808716  0.506261  0.750507  1
  Yb  Yb12  1  0.307905  0.992272  0.750230  1
  Yb  Yb13  1  0.189786  0.489784  0.248960  1
  Yb  Yb14  1  0.694932  0.008554  0.249031  1
  Ho  Ho15  1  0.648233  0.162037  0.623159  1
  Tm  Tm16  1  0.148802  0.336285  0.876262  1
  Tm  Tm17  1  0.352586  0.836097  0.123629  1
  Tm  Tm18  1  0.852664  0.664495  0.376763  1
  Tm  Tm19  1  0.352294  0.833656  0.377153  1
  Pt  Pt20  1  0.684255  0.958401  0.458685  1
  Pt  Pt21  1  0.189849  0.539919  0.039305  1
  Pt  Pt22  1  0.310099  0.040571  0.961031  1
  Pt  Pt23  1  0.812325  0.458646  0.538599  1
  Pt  Pt24  1  0.322759  0.030168  0.540863  1
  Pt  Pt25  1  0.827561  0.466874  0.957041  1
  Pt  Pt26  1  0.673652  0.966598  0.043459  1
  Pt  Pt27  1  0.177724  0.542224  0.456923  1
  Pt  Pt28  1  0.442198  0.379065  0.747225  1
  Pt  Pt29  1  0.942644  0.119400  0.751944  1
  Pt  Pt30  1  0.553904  0.623267  0.251953  1
  Pt  Pt31  1  0.060992  0.879263  0.253663  1
  Pt  Pt32  1  0.679219  0.862986  0.747119  1
  Pt  Pt33  1  0.179182  0.635731  0.753431  1
  Pt  Pt34  1  0.325899  0.133818  0.249279  1
  Pt  Pt35  1  0.818106  0.366278  0.252473  1
