# generated using pymatgen
data_Dy6Tm10In3HgRh4
_symmetry_space_group_name_H-M   'P 1'
_cell_length_a   9.55765045
_cell_length_b   9.54434587
_cell_length_c   9.54741261
_cell_angle_alpha   59.97155885
_cell_angle_beta   59.97845845
_cell_angle_gamma   59.94702166
_symmetry_Int_Tables_number   1
_chemical_formula_structural   Dy6Tm10In3HgRh4
_chemical_formula_sum   'Dy6 Tm10 In3 Hg1 Rh4'
_cell_volume   615.36075179
_cell_formula_units_Z   1
loop_
 _symmetry_equiv_pos_site_id
 _symmetry_equiv_pos_as_xyz
  1  'x, y, z'
loop_
 _atom_site_type_symbol
 _atom_site_label
 _atom_site_symmetry_multiplicity
 _atom_site_fract_x
 _atom_site_fract_y
 _atom_site_fract_z
 _atom_site_occupancy
  Dy  Dy0  1  0.061983  0.062068  0.438012  1
  Dy  Dy1  1  0.436965  0.065418  0.436187  1
  Dy  Dy2  1  0.061594  0.438325  0.061947  1
  Dy  Dy3  1  0.053614  0.647396  0.647712  1
  Dy  Dy4  1  0.437139  0.436618  0.064965  1
  Dy  Dy5  1  0.647518  0.053174  0.648013  1
  Tm  Tm6  1  0.188440  0.813653  0.188270  1
  Tm  Tm7  1  0.187897  0.188056  0.814200  1
  Tm  Tm8  1  0.810217  0.810429  0.190628  1
  Tm  Tm9  1  0.439258  0.060512  0.060767  1
  Tm  Tm10  1  0.813751  0.188493  0.188141  1
  Tm  Tm11  1  0.063832  0.437957  0.437671  1
  Tm  Tm12  1  0.810510  0.190496  0.810996  1
  Tm  Tm13  1  0.190427  0.810685  0.810816  1
  Tm  Tm14  1  0.647975  0.648263  0.052138  1
  Tm  Tm15  1  0.651498  0.651244  0.651429  1
  In  In16  1  0.747575  0.418541  0.417578  1
  In  In17  1  0.418847  0.747274  0.417024  1
  In  In18  1  0.418586  0.417744  0.747216  1
  Hg  Hg19  1  0.413405  0.414702  0.413803  1
  Rh  Rh20  1  0.858447  0.857521  0.425872  1
  Rh  Rh21  1  0.856436  0.856948  0.858792  1
  Rh  Rh22  1  0.426363  0.857771  0.859480  1
  Rh  Rh23  1  0.857718  0.426708  0.858341  1
