# generated using pymatgen
data_La4Tm3Lu3Ru4
_symmetry_space_group_name_H-M   'P 1'
_cell_length_a   6.46177461
_cell_length_b   7.23056277
_cell_length_c   8.64901071
_cell_angle_alpha   96.60254199
_cell_angle_beta   111.78260506
_cell_angle_gamma   90.05143107
_symmetry_Int_Tables_number   1
_chemical_formula_structural   La4Tm3Lu3Ru4
_chemical_formula_sum   'La4 Tm3 Lu3 Ru4'
_cell_volume   372.34322529
_cell_formula_units_Z   1
loop_
 _symmetry_equiv_pos_site_id
 _symmetry_equiv_pos_as_xyz
  1  'x, y, z'
loop_
 _atom_site_type_symbol
 _atom_site_label
 _atom_site_symmetry_multiplicity
 _atom_site_fract_x
 _atom_site_fract_y
 _atom_site_fract_z
 _atom_site_occupancy
  La  La0  1  0.520279  0.088080  0.802692  1
  La  La1  1  0.479117  0.911269  0.197422  1
  La  La2  1  0.719855  0.410907  0.198224  1
  La  La3  1  0.281016  0.589471  0.801558  1
  Tm  Tm4  1  0.299621  0.314536  0.428981  1
  Tm  Tm5  1  0.699873  0.685538  0.570981  1
  Tm  Tm6  1  0.872135  0.186476  0.570884  1
  Lu  Lu7  1  0.127301  0.813592  0.428463  1
  Lu  Lu8  1  0.074240  0.250357  0.999990  1
  Lu  Lu9  1  0.926098  0.749607  0.000434  1
  Ru  Ru10  1  0.321254  0.582634  0.226625  1
  Ru  Ru11  1  0.678409  0.418042  0.774221  1
  Ru  Ru12  1  0.095952  0.919164  0.775331  1
  Ru  Ru13  1  0.904847  0.080326  0.224194  1
