# generated using pymatgen
data_Hf18Re8PtSe
_symmetry_space_group_name_H-M   'P 1'
_cell_length_a   8.65437900
_cell_length_b   8.65437783
_cell_length_c   8.60458300
_cell_angle_alpha   90.00000000
_cell_angle_beta   90.00000000
_cell_angle_gamma   120.00000067
_symmetry_Int_Tables_number   1
_chemical_formula_structural   Hf18Re8PtSe
_chemical_formula_sum   'Hf18 Re8 Pt1 Se1'
_cell_volume   558.12595394
_cell_formula_units_Z   1
loop_
 _symmetry_equiv_pos_site_id
 _symmetry_equiv_pos_as_xyz
  1  'x, y, z'
loop_
 _atom_site_type_symbol
 _atom_site_label
 _atom_site_symmetry_multiplicity
 _atom_site_fract_x
 _atom_site_fract_y
 _atom_site_fract_z
 _atom_site_occupancy
  Hf  Hf0  1  0.193508  0.806492  0.447023  1
  Hf  Hf1  1  0.193508  0.387015  0.447023  1
  Hf  Hf2  1  0.612985  0.806492  0.447023  1
  Hf  Hf3  1  0.807747  0.192253  0.548474  1
  Hf  Hf4  1  0.807747  0.615494  0.548474  1
  Hf  Hf5  1  0.384506  0.192253  0.548474  1
  Hf  Hf6  1  0.807747  0.192253  0.951526  1
  Hf  Hf7  1  0.807747  0.615494  0.951526  1
  Hf  Hf8  1  0.384506  0.192253  0.951526  1
  Hf  Hf9  1  0.193508  0.806492  0.052977  1
  Hf  Hf10  1  0.193508  0.387015  0.052977  1
  Hf  Hf11  1  0.612985  0.806492  0.052977  1
  Hf  Hf12  1  0.542256  0.457744  0.250000  1
  Hf  Hf13  1  0.542256  0.084512  0.250000  1
  Hf  Hf14  1  0.915488  0.457744  0.250000  1
  Hf  Hf15  1  0.455570  0.544430  0.750000  1
  Hf  Hf16  1  0.455570  0.911141  0.750000  1
  Hf  Hf17  1  0.088859  0.544430  0.750000  1
  Re  Re18  1  0.889420  0.110580  0.250000  1
  Re  Re19  1  0.889420  0.778840  0.250000  1
  Re  Re20  1  0.221160  0.110580  0.250000  1
  Re  Re21  1  0.109937  0.890063  0.750000  1
  Re  Re22  1  0.109937  0.219874  0.750000  1
  Re  Re23  1  0.780126  0.890063  0.750000  1
  Re  Re24  1  0.000000  0.000000  0.499278  1
  Re  Re25  1  0.000000  0.000000  0.000722  1
  Pt  Pt26  1  0.333333  0.666667  0.250000  1
  Se  Se27  1  0.666667  0.333333  0.750000  1
