# generated using pymatgen
data_Ho4TmRe2BC6
_symmetry_space_group_name_H-M   'P 1'
_cell_length_a   8.28360836
_cell_length_b   8.28360766
_cell_length_c   3.39900500
_cell_angle_alpha   90.00000000
_cell_angle_beta   90.00000000
_cell_angle_gamma   122.28432238
_symmetry_Int_Tables_number   1
_chemical_formula_structural   Ho4TmRe2BC6
_chemical_formula_sum   'Ho4 Tm1 Re2 B1 C6'
_cell_volume   197.17744862
_cell_formula_units_Z   1
loop_
 _symmetry_equiv_pos_site_id
 _symmetry_equiv_pos_as_xyz
  1  'x, y, z'
loop_
 _atom_site_type_symbol
 _atom_site_label
 _atom_site_symmetry_multiplicity
 _atom_site_fract_x
 _atom_site_fract_y
 _atom_site_fract_z
 _atom_site_occupancy
  Ho  Ho0  1  0.078235  0.329809  0.500000  1
  Ho  Ho1  1  0.921765  0.670191  0.500000  1
  Ho  Ho2  1  0.670191  0.921765  0.500000  1
  Ho  Ho3  1  0.329809  0.078235  0.500000  1
  Tm  Tm4  1  0.500000  0.500000  0.000000  1
  Re  Re5  1  0.714149  0.285851  0.000000  1
  Re  Re6  1  0.285851  0.714149  0.000000  1
  B  B7  1  0.000000  0.000000  0.000000  1
  C  C8  1  0.626099  0.373901  0.500000  1
  C  C9  1  0.373901  0.626099  0.500000  1
  C  C10  1  0.183764  0.183764  0.000000  1
  C  C11  1  0.816236  0.816236  0.000000  1
  C  C12  1  0.000000  0.500000  0.000000  1
  C  C13  1  0.500000  0.000000  0.000000  1
