# generated using pymatgen
data_Sr5LaSb6
_symmetry_space_group_name_H-M   'P 1'
_cell_length_a   8.77455300
_cell_length_b   8.79021321
_cell_length_c   6.67359300
_cell_angle_alpha   90.00000000
_cell_angle_beta   90.00000000
_cell_angle_gamma   119.94108803
_symmetry_Int_Tables_number   1
_chemical_formula_structural   Sr5LaSb6
_chemical_formula_sum   'Sr5 La1 Sb6'
_cell_volume   446.03841730
_cell_formula_units_Z   1
loop_
 _symmetry_equiv_pos_site_id
 _symmetry_equiv_pos_as_xyz
  1  'x, y, z'
loop_
 _atom_site_type_symbol
 _atom_site_label
 _atom_site_symmetry_multiplicity
 _atom_site_fract_x
 _atom_site_fract_y
 _atom_site_fract_z
 _atom_site_occupancy
  Sr  Sr0  1  0.323287  0.322944  0.000000  1
  Sr  Sr1  1  0.000343  0.677056  0.000000  1
  Sr  Sr2  1  0.332018  0.000000  0.500000  1
  Sr  Sr3  1  0.007272  0.346887  0.500000  1
  Sr  Sr4  1  0.660385  0.653113  0.500000  1
  La  La5  1  0.676589  0.000000  0.000000  1
  Sb  Sb6  1  0.667279  0.325545  0.234622  1
  Sb  Sb7  1  0.341734  0.674455  0.234622  1
  Sb  Sb8  1  0.991041  0.000000  0.261048  1
  Sb  Sb9  1  0.991041  0.000000  0.738953  1
  Sb  Sb10  1  0.667279  0.325545  0.765379  1
  Sb  Sb11  1  0.341734  0.674455  0.765379  1
