# generated using pymatgen
data_RbGeSbPt2
_symmetry_space_group_name_H-M   'P 1'
_cell_length_a   4.64959452
_cell_length_b   4.64959412
_cell_length_c   6.92812385
_cell_angle_alpha   102.06229029
_cell_angle_beta   102.06228632
_cell_angle_gamma   103.13214246
_symmetry_Int_Tables_number   1
_chemical_formula_structural   RbGeSbPt2
_chemical_formula_sum   'Rb1 Ge1 Sb1 Pt2'
_cell_volume   137.37081982
_cell_formula_units_Z   1
loop_
 _symmetry_equiv_pos_site_id
 _symmetry_equiv_pos_as_xyz
  1  'x, y, z'
loop_
 _atom_site_type_symbol
 _atom_site_label
 _atom_site_symmetry_multiplicity
 _atom_site_fract_x
 _atom_site_fract_y
 _atom_site_fract_z
 _atom_site_occupancy
  Rb  Rb0  1  0.007504  0.007504  0.007571  1
  Ge  Ge1  1  0.628803  0.628803  0.349693  1
  Sb  Sb2  1  0.378282  0.378282  0.672375  1
  Pt  Pt3  1  0.785252  0.200159  0.485179  1
  Pt  Pt4  1  0.200159  0.785252  0.485179  1
