# generated using pymatgen
data_Nd2Co9P7W3
_symmetry_space_group_name_H-M   'P 1'
_cell_length_a   9.14526900
_cell_length_b   9.14527024
_cell_length_c   3.76133800
_cell_angle_alpha   90.00000000
_cell_angle_beta   90.00000000
_cell_angle_gamma   119.99999189
_symmetry_Int_Tables_number   1
_chemical_formula_structural   Nd2Co9P7W3
_chemical_formula_sum   'Nd2 Co9 P7 W3'
_cell_volume   272.43697940
_cell_formula_units_Z   1
loop_
 _symmetry_equiv_pos_site_id
 _symmetry_equiv_pos_as_xyz
  1  'x, y, z'
loop_
 _atom_site_type_symbol
 _atom_site_label
 _atom_site_symmetry_multiplicity
 _atom_site_fract_x
 _atom_site_fract_y
 _atom_site_fract_z
 _atom_site_occupancy
  Nd  Nd0  1  0.666667  0.333333  0.000000  1
  Nd  Nd1  1  0.333333  0.666667  0.500000  1
  Co  Co2  1  0.060832  0.631260  0.000000  1
  Co  Co3  1  0.570428  0.939168  0.000000  1
  Co  Co4  1  0.368740  0.429572  0.000000  1
  Co  Co5  1  0.276199  0.120230  0.000000  1
  Co  Co6  1  0.844031  0.723801  0.000000  1
  Co  Co7  1  0.879770  0.155969  0.000000  1
  Co  Co8  1  0.432882  0.050446  0.500000  1
  Co  Co9  1  0.617564  0.567118  0.500000  1
  Co  Co10  1  0.949554  0.382436  0.500000  1
  P  P11  1  0.303478  0.893306  0.000000  1
  P  P12  1  0.589828  0.696522  0.000000  1
  P  P13  1  0.106694  0.410172  0.000000  1
  P  P14  1  0.407831  0.293889  0.500000  1
  P  P15  1  0.886057  0.592169  0.500000  1
  P  P16  1  0.706111  0.113943  0.500000  1
  P  P17  1  0.000000  0.000000  0.000000  1
  W  W18  1  0.097412  0.878944  0.500000  1
  W  W19  1  0.781532  0.902588  0.500000  1
  W  W20  1  0.121056  0.218468  0.500000  1
