# generated using pymatgen
data_Dy3Er13(In3Ir)2
_symmetry_space_group_name_H-M   'P 1'
_cell_length_a   10.35768100
_cell_length_b   10.35768086
_cell_length_c   7.01989400
_cell_angle_alpha   90.00000000
_cell_angle_beta   90.00000000
_cell_angle_gamma   119.99999725
_symmetry_Int_Tables_number   1
_chemical_formula_structural   Dy3Er13(In3Ir)2
_chemical_formula_sum   'Dy3 Er13 In6 Ir2'
_cell_volume   652.20820032
_cell_formula_units_Z   1
loop_
 _symmetry_equiv_pos_site_id
 _symmetry_equiv_pos_as_xyz
  1  'x, y, z'
loop_
 _atom_site_type_symbol
 _atom_site_label
 _atom_site_symmetry_multiplicity
 _atom_site_fract_x
 _atom_site_fract_y
 _atom_site_fract_z
 _atom_site_occupancy
  Dy  Dy0  1  0.532845  0.065690  0.793015  1
  Dy  Dy1  1  0.934310  0.467155  0.793015  1
  Dy  Dy2  1  0.532845  0.467155  0.793015  1
  Er  Er3  1  0.466744  0.933489  0.292942  1
  Er  Er4  1  0.066511  0.533256  0.292942  1
  Er  Er5  1  0.466744  0.533256  0.292942  1
  Er  Er6  1  0.823446  0.646892  0.499350  1
  Er  Er7  1  0.353108  0.176554  0.499350  1
  Er  Er8  1  0.823446  0.176554  0.499350  1
  Er  Er9  1  0.176578  0.353156  0.999947  1
  Er  Er10  1  0.646844  0.823422  0.999947  1
  Er  Er11  1  0.176578  0.823422  0.999947  1
  Er  Er12  1  0.666667  0.333333  0.174480  1
  Er  Er13  1  0.333333  0.666667  0.674049  1
  Er  Er14  1  0.000000  0.000000  0.778463  1
  Er  Er15  1  0.000000  0.000000  0.278584  1
  In  In16  1  0.837295  0.674592  0.039609  1
  In  In17  1  0.325408  0.162705  0.039609  1
  In  In18  1  0.837295  0.162705  0.039609  1
  In  In19  1  0.162834  0.325666  0.539229  1
  In  In20  1  0.674334  0.837166  0.539229  1
  In  In21  1  0.162834  0.837166  0.539229  1
  Ir  Ir22  1  0.666667  0.333333  0.568537  1
  Ir  Ir23  1  0.333333  0.666667  0.069518  1
