# generated using pymatgen
data_Yb4(HgPd3)3
_symmetry_space_group_name_H-M   'P 1'
_cell_length_a   7.21721356
_cell_length_b   7.21721472
_cell_length_c   7.21721374
_cell_angle_alpha   107.26196646
_cell_angle_beta   107.26197706
_cell_angle_gamma   113.98627111
_symmetry_Int_Tables_number   1
_chemical_formula_structural   Yb4(HgPd3)3
_chemical_formula_sum   'Yb4 Hg3 Pd9'
_cell_volume   288.03339811
_cell_formula_units_Z   1
loop_
 _symmetry_equiv_pos_site_id
 _symmetry_equiv_pos_as_xyz
  1  'x, y, z'
loop_
 _atom_site_type_symbol
 _atom_site_label
 _atom_site_symmetry_multiplicity
 _atom_site_fract_x
 _atom_site_fract_y
 _atom_site_fract_z
 _atom_site_occupancy
  Yb  Yb0  1  0.241047  0.241047  0.482095  1
  Yb  Yb1  1  0.758953  0.758953  0.517905  1
  Yb  Yb2  1  0.241047  0.758953  0.000000  1
  Yb  Yb3  1  0.758953  0.241047  0.000000  1
  Hg  Hg4  1  0.500000  0.000000  0.500000  1
  Hg  Hg5  1  0.000000  0.500000  0.500000  1
  Hg  Hg6  1  0.500000  0.500000  0.000000  1
  Pd  Pd7  1  0.502423  0.254334  0.248089  1
  Pd  Pd8  1  0.497577  0.745666  0.751911  1
  Pd  Pd9  1  0.006245  0.254334  0.751911  1
  Pd  Pd10  1  0.254334  0.006245  0.751911  1
  Pd  Pd11  1  0.993755  0.745666  0.248089  1
  Pd  Pd12  1  0.745666  0.993755  0.248089  1
  Pd  Pd13  1  0.254334  0.502423  0.248089  1
  Pd  Pd14  1  0.745666  0.497577  0.751911  1
  Pd  Pd15  1  0.000000  0.000000  0.000000  1
