# generated using pymatgen
data_Na9Li5(NbAs4)2
_symmetry_space_group_name_H-M   'P 1'
_cell_length_a   7.42132634
_cell_length_b   7.96083814
_cell_length_c   8.79956715
_cell_angle_alpha   89.77038502
_cell_angle_beta   90.74000490
_cell_angle_gamma   89.67592765
_symmetry_Int_Tables_number   1
_chemical_formula_structural   Na9Li5(NbAs4)2
_chemical_formula_sum   'Na9 Li5 Nb2 As8'
_cell_volume   519.82222732
_cell_formula_units_Z   1
loop_
 _symmetry_equiv_pos_site_id
 _symmetry_equiv_pos_as_xyz
  1  'x, y, z'
loop_
 _atom_site_type_symbol
 _atom_site_label
 _atom_site_symmetry_multiplicity
 _atom_site_fract_x
 _atom_site_fract_y
 _atom_site_fract_z
 _atom_site_occupancy
  Na  Na0  1  0.709473  0.835730  0.273335  1
  Na  Na1  1  0.870679  0.455882  0.707593  1
  Na  Na2  1  0.368619  0.541044  0.795064  1
  Na  Na3  1  0.374772  0.539099  0.204396  1
  Na  Na4  1  0.871346  0.455732  0.291875  1
  Na  Na5  1  0.880914  0.052626  0.995240  1
  Na  Na6  1  0.369347  0.948666  0.504669  1
  Na  Na7  1  0.389288  0.937391  0.994136  1
  Na  Na8  1  0.890181  0.068786  0.508389  1
  Li  Li9  1  0.722102  0.824606  0.739602  1
  Li  Li10  1  0.222253  0.176696  0.759681  1
  Li  Li11  1  0.221284  0.175569  0.240281  1
  Li  Li12  1  0.174254  0.647756  0.498414  1
  Li  Li13  1  0.671233  0.348918  0.997281  1
  Nb  Nb14  1  0.001983  0.671704  0.996736  1
  Nb  Nb15  1  0.494877  0.325439  0.502939  1
  As  As16  1  0.666253  0.668580  0.990146  1
  As  As17  1  0.159414  0.325220  0.500031  1
  As  As18  1  0.088708  0.828109  0.757643  1
  As  As19  1  0.590969  0.165081  0.739514  1
  As  As20  1  0.585948  0.186227  0.259098  1
  As  As21  1  0.107362  0.827465  0.231799  1
  As  As22  1  0.580722  0.624527  0.513225  1
  As  As23  1  0.093239  0.369147  0.998912  1
