# generated using pymatgen
data_Sr4(Ga8Pt3)3
_symmetry_space_group_name_H-M   'P 1'
_cell_length_a   7.61628302
_cell_length_b   7.65907030
_cell_length_c   13.76440466
_cell_angle_alpha   84.85865213
_cell_angle_beta   100.73246767
_cell_angle_gamma   119.59938332
_symmetry_Int_Tables_number   1
_chemical_formula_structural   Sr4(Ga8Pt3)3
_chemical_formula_sum   'Sr4 Ga24 Pt9'
_cell_volume   685.93101978
_cell_formula_units_Z   1
loop_
 _symmetry_equiv_pos_site_id
 _symmetry_equiv_pos_as_xyz
  1  'x, y, z'
loop_
 _atom_site_type_symbol
 _atom_site_label
 _atom_site_symmetry_multiplicity
 _atom_site_fract_x
 _atom_site_fract_y
 _atom_site_fract_z
 _atom_site_occupancy
  Sr  Sr0  1  0.435055  0.830901  0.807628  1
  Sr  Sr1  1  0.564945  0.169099  0.192372  1
  Sr  Sr2  1  0.767127  0.500285  0.807695  1
  Sr  Sr3  1  0.232873  0.499715  0.192305  1
  Ga  Ga4  1  0.474863  0.166387  0.944479  1
  Ga  Ga5  1  0.525137  0.833613  0.055521  1
  Ga  Ga6  1  0.019643  0.168660  0.556653  1
  Ga  Ga7  1  0.980357  0.831340  0.443347  1
  Ga  Ga8  1  0.353797  0.832719  0.554095  1
  Ga  Ga9  1  0.646203  0.167281  0.445905  1
  Ga  Ga10  1  0.622588  0.834957  0.333952  1
  Ga  Ga11  1  0.377412  0.165043  0.666048  1
  Ga  Ga12  1  0.054369  0.491204  0.665236  1
  Ga  Ga13  1  0.945631  0.508796  0.334764  1
  Ga  Ga14  1  0.732346  0.842775  0.665067  1
  Ga  Ga15  1  0.267654  0.157225  0.334933  1
  Ga  Ga16  1  0.147278  0.496468  0.946077  1
  Ga  Ga17  1  0.852722  0.503532  0.053923  1
  Ga  Ga18  1  0.818863  0.836192  0.951223  1
  Ga  Ga19  1  0.181137  0.163808  0.048777  1
  Ga  Ga20  1  0.317081  0.501738  0.445665  1
  Ga  Ga21  1  0.682919  0.498262  0.554335  1
  Ga  Ga22  1  0.099653  0.834472  0.183424  1
  Ga  Ga23  1  0.900347  0.165528  0.816576  1
  Ga  Ga24  1  0.304166  0.366868  0.815226  1
  Ga  Ga25  1  0.695834  0.633132  0.184774  1
  Ga  Ga26  1  0.101662  0.962082  0.815125  1
  Ga  Ga27  1  0.898338  0.037918  0.184875  1
  Pt  Pt28  1  0.385729  0.506028  0.635595  1
  Pt  Pt29  1  0.614271  0.493972  0.364405  1
  Pt  Pt30  1  0.170065  0.829863  0.999020  1
  Pt  Pt31  1  0.829935  0.170137  0.000980  1
  Pt  Pt32  1  0.294719  0.833208  0.364459  1
  Pt  Pt33  1  0.705281  0.166792  0.635541  1
  Pt  Pt34  1  0.046262  0.827220  0.632889  1
  Pt  Pt35  1  0.953738  0.172780  0.367111  1
  Pt  Pt36  1  0.500000  0.500000  0.000000  1
