# generated using pymatgen
data_Li3Zn6Ir2Pd
_symmetry_space_group_name_H-M   'P 1'
_cell_length_a   4.30168400
_cell_length_b   6.01835000
_cell_length_c   13.04757401
_cell_angle_alpha   90.00000000
_cell_angle_beta   90.00375312
_cell_angle_gamma   89.99997716
_symmetry_Int_Tables_number   1
_chemical_formula_structural   Li3Zn6Ir2Pd
_chemical_formula_sum   'Li6 Zn12 Ir4 Pd2'
_cell_volume   337.78916354
_cell_formula_units_Z   2
loop_
 _symmetry_equiv_pos_site_id
 _symmetry_equiv_pos_as_xyz
  1  'x, y, z'
loop_
 _atom_site_type_symbol
 _atom_site_label
 _atom_site_symmetry_multiplicity
 _atom_site_fract_x
 _atom_site_fract_y
 _atom_site_fract_z
 _atom_site_occupancy
  Li  Li0  1  0.999999  0.500000  0.997802  1
  Li  Li1  1  0.499987  0.000000  0.168863  1
  Li  Li2  1  0.999974  0.499999  0.337655  1
  Li  Li3  1  0.499997  0.000000  0.502750  1
  Li  Li4  1  0.000023  0.499999  0.663968  1
  Li  Li5  1  0.500023  0.000000  0.828992  1
  Zn  Zn6  1  0.499999  0.253719  0.997560  1
  Zn  Zn7  1  0.500000  0.746280  0.997560  1
  Zn  Zn8  1  0.999985  0.246227  0.169100  1
  Zn  Zn9  1  0.999985  0.753772  0.169100  1
  Zn  Zn10  1  0.499954  0.246550  0.337306  1
  Zn  Zn11  1  0.499954  0.753450  0.337306  1
  Zn  Zn12  1  0.999996  0.245276  0.500685  1
  Zn  Zn13  1  0.999997  0.754723  0.500686  1
  Zn  Zn14  1  0.500033  0.254740  0.665980  1
  Zn  Zn15  1  0.500033  0.745260  0.665979  1
  Zn  Zn16  1  0.000036  0.253428  0.829367  1
  Zn  Zn17  1  0.000036  0.746571  0.829366  1
  Ir  Ir18  1  0.999956  0.000000  0.331769  1
  Ir  Ir19  1  0.499991  0.500000  0.498910  1
  Ir  Ir20  1  0.000025  0.000000  0.667743  1
  Ir  Ir21  1  0.500027  0.500000  0.834910  1
  Pd  Pd22  1  0.000007  0.000000  0.999540  1
  Pd  Pd23  1  0.499988  0.500000  0.167101  1
