# generated using pymatgen
data_Al12CrRe2
_symmetry_space_group_name_H-M   'P 1'
_cell_length_a   9.13510814
_cell_length_b   9.13510760
_cell_length_c   5.15420696
_cell_angle_alpha   86.96468498
_cell_angle_beta   86.96468210
_cell_angle_gamma   146.88928476
_symmetry_Int_Tables_number   1
_chemical_formula_structural   Al12CrRe2
_chemical_formula_sum   'Al12 Cr1 Re2'
_cell_volume   230.86391012
_cell_formula_units_Z   1
loop_
 _symmetry_equiv_pos_site_id
 _symmetry_equiv_pos_as_xyz
  1  'x, y, z'
loop_
 _atom_site_type_symbol
 _atom_site_label
 _atom_site_symmetry_multiplicity
 _atom_site_fract_x
 _atom_site_fract_y
 _atom_site_fract_z
 _atom_site_occupancy
  Al  Al0  1  0.864012  0.864012  0.502242  1
  Al  Al1  1  0.510686  0.510686  0.137631  1
  Al  Al2  1  0.258429  0.409982  0.687880  1
  Al  Al3  1  0.409982  0.258429  0.687880  1
  Al  Al4  1  0.063429  0.297737  0.210904  1
  Al  Al5  1  0.297737  0.063429  0.210904  1
  Al  Al6  1  0.942114  0.697515  0.812494  1
  Al  Al7  1  0.697515  0.942114  0.812494  1
  Al  Al8  1  0.079418  0.548153  0.591362  1
  Al  Al9  1  0.548153  0.079418  0.591362  1
  Al  Al10  1  0.229099  0.727071  0.071705  1
  Al  Al11  1  0.727071  0.229099  0.071705  1
  Cr  Cr12  1  0.016032  0.016032  0.988602  1
  Re  Re13  1  0.803472  0.529850  0.334418  1
  Re  Re14  1  0.529850  0.803472  0.334418  1
