# generated using pymatgen
data_La7YbPrPt6
_symmetry_space_group_name_H-M   'P 1'
_cell_length_a   7.82251447
_cell_length_b   7.82251369
_cell_length_c   7.82251383
_cell_angle_alpha   71.41373484
_cell_angle_beta   71.41374033
_cell_angle_gamma   71.41373600
_symmetry_Int_Tables_number   1
_chemical_formula_structural   La7YbPrPt6
_chemical_formula_sum   'La7 Yb1 Pr1 Pt6'
_cell_volume   417.29472292
_cell_formula_units_Z   1
loop_
 _symmetry_equiv_pos_site_id
 _symmetry_equiv_pos_as_xyz
  1  'x, y, z'
loop_
 _atom_site_type_symbol
 _atom_site_label
 _atom_site_symmetry_multiplicity
 _atom_site_fract_x
 _atom_site_fract_y
 _atom_site_fract_z
 _atom_site_occupancy
  La  La0  1  0.197728  0.197728  0.197728  1
  La  La1  1  0.325705  0.609742  0.844408  1
  La  La2  1  0.844408  0.325705  0.609742  1
  La  La3  1  0.609742  0.844408  0.325705  1
  La  La4  1  0.674410  0.392057  0.154545  1
  La  La5  1  0.154545  0.674410  0.392057  1
  La  La6  1  0.392057  0.154545  0.674410  1
  Yb  Yb7  1  0.999709  0.999709  0.999709  1
  Pr  Pr8  1  0.802287  0.802287  0.802287  1
  Pt  Pt9  1  0.167663  0.957150  0.588695  1
  Pt  Pt10  1  0.588695  0.167663  0.957150  1
  Pt  Pt11  1  0.957150  0.588695  0.167663  1
  Pt  Pt12  1  0.833020  0.042832  0.410049  1
  Pt  Pt13  1  0.410049  0.833020  0.042832  1
  Pt  Pt14  1  0.042832  0.410049  0.833020  1
