# generated using pymatgen
data_Sr3GeAsRh2
_symmetry_space_group_name_H-M   'P 1'
_cell_length_a   5.98587400
_cell_length_b   8.05993600
_cell_length_c   14.32416600
_cell_angle_alpha   90.00000000
_cell_angle_beta   90.00000000
_cell_angle_gamma   90.00000000
_symmetry_Int_Tables_number   1
_chemical_formula_structural   Sr3GeAsRh2
_chemical_formula_sum   'Sr12 Ge4 As4 Rh8'
_cell_volume   691.08029429
_cell_formula_units_Z   4
loop_
 _symmetry_equiv_pos_site_id
 _symmetry_equiv_pos_as_xyz
  1  'x, y, z'
loop_
 _atom_site_type_symbol
 _atom_site_label
 _atom_site_symmetry_multiplicity
 _atom_site_fract_x
 _atom_site_fract_y
 _atom_site_fract_z
 _atom_site_occupancy
  Sr  Sr0  1  0.132114  0.609818  0.102469  1
  Sr  Sr1  1  0.132114  0.890182  0.897531  1
  Sr  Sr2  1  0.867886  0.109818  0.397531  1
  Sr  Sr3  1  0.867886  0.390182  0.602469  1
  Sr  Sr4  1  0.867886  0.390182  0.897531  1
  Sr  Sr5  1  0.867886  0.109818  0.102469  1
  Sr  Sr6  1  0.132114  0.890182  0.602469  1
  Sr  Sr7  1  0.132114  0.609818  0.397531  1
  Sr  Sr8  1  0.366388  0.255610  0.250000  1
  Sr  Sr9  1  0.366388  0.244390  0.750000  1
  Sr  Sr10  1  0.633612  0.755610  0.250000  1
  Sr  Sr11  1  0.633612  0.744390  0.750000  1
  Ge  Ge12  1  0.402747  0.250000  0.000000  1
  Ge  Ge13  1  0.597253  0.750000  0.500000  1
  Ge  Ge14  1  0.597253  0.750000  0.000000  1
  Ge  Ge15  1  0.402747  0.250000  0.500000  1
  As  As16  1  0.841714  0.404637  0.250000  1
  As  As17  1  0.841714  0.095363  0.750000  1
  As  As18  1  0.158286  0.904637  0.250000  1
  As  As19  1  0.158286  0.595363  0.750000  1
  Rh  Rh20  1  0.621094  0.476284  0.085403  1
  Rh  Rh21  1  0.621094  0.023716  0.914597  1
  Rh  Rh22  1  0.378906  0.976284  0.414597  1
  Rh  Rh23  1  0.378906  0.523716  0.585403  1
  Rh  Rh24  1  0.378906  0.523716  0.914597  1
  Rh  Rh25  1  0.378906  0.976284  0.085403  1
  Rh  Rh26  1  0.621094  0.023716  0.585403  1
  Rh  Rh27  1  0.621094  0.476284  0.414597  1
