# generated using pymatgen
data_Zr3ZnAs
_symmetry_space_group_name_H-M   'P 1'
_cell_length_a   7.31218900
_cell_length_b   7.32962000
_cell_length_c   3.66321300
_cell_angle_alpha   90.00000000
_cell_angle_beta   90.00000000
_cell_angle_gamma   90.00000000
_symmetry_Int_Tables_number   1
_chemical_formula_structural   Zr3ZnAs
_chemical_formula_sum   'Zr6 Zn2 As2'
_cell_volume   196.33197682
_cell_formula_units_Z   2
loop_
 _symmetry_equiv_pos_site_id
 _symmetry_equiv_pos_as_xyz
  1  'x, y, z'
loop_
 _atom_site_type_symbol
 _atom_site_label
 _atom_site_symmetry_multiplicity
 _atom_site_fract_x
 _atom_site_fract_y
 _atom_site_fract_z
 _atom_site_occupancy
  Zr  Zr0  1  0.999167  0.003680  0.000000  1
  Zr  Zr1  1  0.499167  0.496320  0.000000  1
  Zr  Zr2  1  0.672499  0.180440  0.500000  1
  Zr  Zr3  1  0.172499  0.319560  0.500000  1
  Zr  Zr4  1  0.822166  0.667214  0.500000  1
  Zr  Zr5  1  0.322166  0.832786  0.500000  1
  Zn  Zn6  1  0.629419  0.871989  0.000000  1
  Zn  Zn7  1  0.129419  0.628011  0.000000  1
  As  As8  1  0.876748  0.377629  0.000000  1
  As  As9  1  0.376748  0.122371  0.000000  1
