# generated using pymatgen
data_La3Pr3(MgAu5)2
_symmetry_space_group_name_H-M   'P 1'
_cell_length_a   8.18120281
_cell_length_b   8.18120201
_cell_length_c   8.18120266
_cell_angle_alpha   65.87134499
_cell_angle_beta   65.87134644
_cell_angle_gamma   65.87133361
_symmetry_Int_Tables_number   1
_chemical_formula_structural   La3Pr3(MgAu5)2
_chemical_formula_sum   'La3 Pr3 Mg2 Au10'
_cell_volume   436.45699235
_cell_formula_units_Z   1
loop_
 _symmetry_equiv_pos_site_id
 _symmetry_equiv_pos_as_xyz
  1  'x, y, z'
loop_
 _atom_site_type_symbol
 _atom_site_label
 _atom_site_symmetry_multiplicity
 _atom_site_fract_x
 _atom_site_fract_y
 _atom_site_fract_z
 _atom_site_occupancy
  La  La0  1  0.107824  0.806946  0.380075  1
  La  La1  1  0.380075  0.107824  0.806946  1
  La  La2  1  0.806946  0.380075  0.107824  1
  Pr  Pr3  1  0.892363  0.193331  0.620084  1
  Pr  Pr4  1  0.620084  0.892363  0.193331  1
  Pr  Pr5  1  0.193331  0.620084  0.892363  1
  Mg  Mg6  1  0.654695  0.654695  0.654695  1
  Mg  Mg7  1  0.345058  0.345058  0.345058  1
  Au  Au8  1  0.999092  0.999092  0.999092  1
  Au  Au9  1  0.500157  0.500157  0.500157  1
  Au  Au10  1  0.800550  0.800550  0.800550  1
  Au  Au11  1  0.200310  0.200310  0.200310  1
  Au  Au12  1  0.941511  0.550552  0.318859  1
  Au  Au13  1  0.318859  0.941511  0.550552  1
  Au  Au14  1  0.550552  0.318859  0.941511  1
  Au  Au15  1  0.057947  0.450108  0.680536  1
  Au  Au16  1  0.680536  0.057947  0.450108  1
  Au  Au17  1  0.450108  0.680536  0.057947  1
