# generated using pymatgen
data_Ti3V9Si10
_symmetry_space_group_name_H-M   'P 1'
_cell_length_a   4.88512522
_cell_length_b   7.55706319
_cell_length_c   9.19982133
_cell_angle_alpha   65.86989354
_cell_angle_beta   74.60328369
_cell_angle_gamma   90.00000541
_symmetry_Int_Tables_number   1
_chemical_formula_structural   Ti3V9Si10
_chemical_formula_sum   'Ti3 V9 Si10'
_cell_volume   296.54794695
_cell_formula_units_Z   1
loop_
 _symmetry_equiv_pos_site_id
 _symmetry_equiv_pos_as_xyz
  1  'x, y, z'
loop_
 _atom_site_type_symbol
 _atom_site_label
 _atom_site_symmetry_multiplicity
 _atom_site_fract_x
 _atom_site_fract_y
 _atom_site_fract_z
 _atom_site_occupancy
  Ti  Ti0  1  0.858329  0.742926  0.283343  1
  Ti  Ti1  1  0.641790  0.029068  0.716421  1
  Ti  Ti2  1  0.358021  0.972480  0.283956  1
  V  V3  1  0.439266  0.690773  0.621767  1
  V  V4  1  0.059006  0.310122  0.379458  1
  V  V5  1  0.561536  0.310122  0.379458  1
  V  V6  1  0.938967  0.690773  0.621767  1
  V  V7  1  0.435168  0.681524  0.129664  1
  V  V8  1  0.565210  0.318040  0.869582  1
  V  V9  1  0.935749  0.189426  0.128503  1
  V  V10  1  0.064116  0.809122  0.871767  1
  V  V11  1  0.142585  0.257646  0.714829  1
  Si  Si12  1  0.064537  0.473777  0.870926  1
  Si  Si13  1  0.936640  0.521712  0.126720  1
  Si  Si14  1  0.563299  0.649449  0.873401  1
  Si  Si15  1  0.436334  0.349898  0.127333  1
  Si  Si16  1  0.751455  0.001219  0.998349  1
  Si  Si17  1  0.250196  0.001219  0.998349  1
  Si  Si18  1  0.285109  0.580360  0.429783  1
  Si  Si19  1  0.713481  0.417976  0.573039  1
  Si  Si20  1  0.786719  0.989990  0.426562  1
  Si  Si21  1  0.212488  0.012378  0.575025  1
