# generated using pymatgen
data_Tb4Ga4Pd3Ru
_symmetry_space_group_name_H-M   'P 1'
_cell_length_a   4.45710200
_cell_length_b   6.95416022
_cell_length_c   7.70241006
_cell_angle_alpha   90.17089213
_cell_angle_beta   90.00000000
_cell_angle_gamma   90.00000000
_symmetry_Int_Tables_number   1
_chemical_formula_structural   Tb4Ga4Pd3Ru
_chemical_formula_sum   'Tb4 Ga4 Pd3 Ru1'
_cell_volume   238.73822992
_cell_formula_units_Z   1
loop_
 _symmetry_equiv_pos_site_id
 _symmetry_equiv_pos_as_xyz
  1  'x, y, z'
loop_
 _atom_site_type_symbol
 _atom_site_label
 _atom_site_symmetry_multiplicity
 _atom_site_fract_x
 _atom_site_fract_y
 _atom_site_fract_z
 _atom_site_occupancy
  Tb  Tb0  1  0.250000  0.026068  0.688094  1
  Tb  Tb1  1  0.250000  0.522341  0.807934  1
  Tb  Tb2  1  0.750000  0.985865  0.305694  1
  Tb  Tb3  1  0.750000  0.478272  0.199903  1
  Ga  Ga4  1  0.250000  0.171834  0.076393  1
  Ga  Ga5  1  0.250000  0.661509  0.426620  1
  Ga  Ga6  1  0.750000  0.831998  0.926214  1
  Ga  Ga7  1  0.750000  0.327484  0.571353  1
  Pd  Pd8  1  0.250000  0.783192  0.101479  1
  Pd  Pd9  1  0.750000  0.717442  0.601069  1
  Pd  Pd10  1  0.750000  0.219249  0.897704  1
  Ru  Ru11  1  0.250000  0.274746  0.397542  1
