# generated using pymatgen
data_K4Li2TmGaSb4
_symmetry_space_group_name_H-M   'P 1'
_cell_length_a   9.53156788
_cell_length_b   9.53156835
_cell_length_c   9.53156760
_cell_angle_alpha   137.21535032
_cell_angle_beta   61.64497363
_cell_angle_gamma   137.81852564
_symmetry_Int_Tables_number   1
_chemical_formula_structural   K4Li2TmGaSb4
_chemical_formula_sum   'K4 Li2 Tm1 Ga1 Sb4'
_cell_volume   390.42594899
_cell_formula_units_Z   1
loop_
 _symmetry_equiv_pos_site_id
 _symmetry_equiv_pos_as_xyz
  1  'x, y, z'
loop_
 _atom_site_type_symbol
 _atom_site_label
 _atom_site_symmetry_multiplicity
 _atom_site_fract_x
 _atom_site_fract_y
 _atom_site_fract_z
 _atom_site_occupancy
  K  K0  1  0.818179  0.253649  0.088009  1
  K  K1  1  0.681822  0.769833  0.435471  1
  K  K2  1  0.334360  0.246351  0.564530  1
  K  K3  1  0.165640  0.730168  0.911991  1
  Li  Li4  1  0.750000  0.250000  0.500000  1
  Li  Li5  1  0.250000  0.750001  0.500000  1
  Tm  Tm6  1  0.250000  0.250000  0.000000  1
  Ga  Ga7  1  0.749999  0.749999  0.000000  1
  Sb  Sb8  1  0.415035  0.754147  0.141397  1
  Sb  Sb9  1  0.084965  0.226362  0.339112  1
  Sb  Sb10  1  0.887252  0.745855  0.660888  1
  Sb  Sb11  1  0.612748  0.273638  0.858603  1
