# generated using pymatgen
data_Sr6ErLu(BO3)6
_symmetry_space_group_name_H-M   'P 1'
_cell_length_a   7.87896394
_cell_length_b   7.87896326
_cell_length_c   7.87896304
_cell_angle_alpha   104.99782169
_cell_angle_beta   104.99782459
_cell_angle_gamma   104.99783463
_symmetry_Int_Tables_number   1
_chemical_formula_structural   Sr6ErLu(BO3)6
_chemical_formula_sum   'Sr6 Er1 Lu1 B6 O18'
_cell_volume   427.63909471
_cell_formula_units_Z   1
loop_
 _symmetry_equiv_pos_site_id
 _symmetry_equiv_pos_as_xyz
  1  'x, y, z'
loop_
 _atom_site_type_symbol
 _atom_site_label
 _atom_site_symmetry_multiplicity
 _atom_site_fract_x
 _atom_site_fract_y
 _atom_site_fract_z
 _atom_site_occupancy
  Sr  Sr0  1  0.358838  0.735209  0.857517  1
  Sr  Sr1  1  0.857517  0.358838  0.735209  1
  Sr  Sr2  1  0.735209  0.857517  0.358838  1
  Sr  Sr3  1  0.641162  0.264791  0.142483  1
  Sr  Sr4  1  0.142483  0.641162  0.264791  1
  Sr  Sr5  1  0.264791  0.142483  0.641162  1
  Er  Er6  1  0.000000  0.000000  0.000000  1
  Lu  Lu7  1  0.500000  0.500000  0.500000  1
  B  B8  1  0.708564  0.612962  0.957871  1
  B  B9  1  0.957871  0.708564  0.612962  1
  B  B10  1  0.612962  0.957871  0.708564  1
  B  B11  1  0.042129  0.291436  0.387038  1
  B  B12  1  0.387038  0.042129  0.291436  1
  B  B13  1  0.291436  0.387038  0.042129  1
  O  O14  1  0.046492  0.810846  0.523483  1
  O  O15  1  0.523483  0.046492  0.810846  1
  O  O16  1  0.442685  0.491495  0.210189  1
  O  O17  1  0.491495  0.210189  0.442685  1
  O  O18  1  0.210189  0.442685  0.491495  1
  O  O19  1  0.789811  0.557315  0.508505  1
  O  O20  1  0.557315  0.508505  0.789811  1
  O  O21  1  0.508505  0.789811  0.557315  1
  O  O22  1  0.251233  0.194279  0.969731  1
  O  O23  1  0.194279  0.969731  0.251233  1
  O  O24  1  0.969731  0.251233  0.194279  1
  O  O25  1  0.748767  0.805721  0.030269  1
  O  O26  1  0.805721  0.030269  0.748767  1
  O  O27  1  0.030269  0.748767  0.805721  1
  O  O28  1  0.189154  0.476517  0.953508  1
  O  O29  1  0.476517  0.953508  0.189154  1
  O  O30  1  0.953508  0.189154  0.476517  1
  O  O31  1  0.810846  0.523483  0.046492  1
