# generated using pymatgen
data_Y6Al7Pd16Se
_symmetry_space_group_name_H-M   'P 1'
_cell_length_a   9.04846427
_cell_length_b   9.04846440
_cell_length_c   9.04846400
_cell_angle_alpha   59.99998608
_cell_angle_beta   59.99999465
_cell_angle_gamma   60.00000171
_symmetry_Int_Tables_number   1
_chemical_formula_structural   Y6Al7Pd16Se
_chemical_formula_sum   'Y6 Al7 Pd16 Se1'
_cell_volume   523.85315690
_cell_formula_units_Z   1
loop_
 _symmetry_equiv_pos_site_id
 _symmetry_equiv_pos_as_xyz
  1  'x, y, z'
loop_
 _atom_site_type_symbol
 _atom_site_label
 _atom_site_symmetry_multiplicity
 _atom_site_fract_x
 _atom_site_fract_y
 _atom_site_fract_z
 _atom_site_occupancy
  Y  Y0  1  0.718558  0.281442  0.281442  1
  Y  Y1  1  0.281442  0.718558  0.718558  1
  Y  Y2  1  0.281442  0.718558  0.281442  1
  Y  Y3  1  0.718558  0.281442  0.718558  1
  Y  Y4  1  0.281442  0.281442  0.718558  1
  Y  Y5  1  0.718558  0.718558  0.281442  1
  Al  Al6  1  0.000000  0.000000  0.000000  1
  Al  Al7  1  0.500000  0.000000  0.000000  1
  Al  Al8  1  0.000000  0.500000  0.500000  1
  Al  Al9  1  0.000000  0.500000  0.000000  1
  Al  Al10  1  0.500000  0.000000  0.500000  1
  Al  Al11  1  0.000000  0.000000  0.500000  1
  Al  Al12  1  0.500000  0.500000  0.000000  1
  Pd  Pd13  1  0.119126  0.119126  0.119126  1
  Pd  Pd14  1  0.880874  0.880874  0.880874  1
  Pd  Pd15  1  0.119126  0.119126  0.642622  1
  Pd  Pd16  1  0.119126  0.642621  0.119126  1
  Pd  Pd17  1  0.880874  0.880874  0.357378  1
  Pd  Pd18  1  0.880874  0.357379  0.880874  1
  Pd  Pd19  1  0.642621  0.119126  0.119126  1
  Pd  Pd20  1  0.357379  0.880874  0.880874  1
  Pd  Pd21  1  0.332838  0.332838  0.332838  1
  Pd  Pd22  1  0.667162  0.667162  0.667162  1
  Pd  Pd23  1  0.332838  0.332838  0.001485  1
  Pd  Pd24  1  0.332838  0.001485  0.332838  1
  Pd  Pd25  1  0.667162  0.667162  0.998515  1
  Pd  Pd26  1  0.667162  0.998515  0.667162  1
  Pd  Pd27  1  0.001485  0.332838  0.332838  1
  Pd  Pd28  1  0.998515  0.667162  0.667162  1
  Se  Se29  1  0.500000  0.500000  0.500000  1
