# generated using pymatgen
data_Tm4Co9P12Rh11
_symmetry_space_group_name_H-M   'P 1'
_cell_length_a   3.76540300
_cell_length_b   10.59926247
_cell_length_c   12.16832045
_cell_angle_alpha   89.84154663
_cell_angle_beta   90.00000000
_cell_angle_gamma   90.00000000
_symmetry_Int_Tables_number   1
_chemical_formula_structural   Tm4Co9P12Rh11
_chemical_formula_sum   'Tm4 Co9 P12 Rh11'
_cell_volume   485.64183151
_cell_formula_units_Z   1
loop_
 _symmetry_equiv_pos_site_id
 _symmetry_equiv_pos_as_xyz
  1  'x, y, z'
loop_
 _atom_site_type_symbol
 _atom_site_label
 _atom_site_symmetry_multiplicity
 _atom_site_fract_x
 _atom_site_fract_y
 _atom_site_fract_z
 _atom_site_occupancy
  Tm  Tm0  1  0.250000  0.582778  0.708660  1
  Tm  Tm1  1  0.250000  0.913263  0.212374  1
  Tm  Tm2  1  0.750000  0.420249  0.291179  1
  Tm  Tm3  1  0.750000  0.082491  0.790380  1
  Co  Co4  1  0.750000  0.723686  0.321335  1
  Co  Co5  1  0.250000  0.882685  0.695735  1
  Co  Co6  1  0.250000  0.621049  0.197605  1
  Co  Co7  1  0.750000  0.112667  0.303187  1
  Co  Co8  1  0.750000  0.384424  0.802590  1
  Co  Co9  1  0.250000  0.463022  0.932768  1
  Co  Co10  1  0.250000  0.035522  0.431147  1
  Co  Co11  1  0.750000  0.538326  0.068916  1
  Co  Co12  1  0.750000  0.963245  0.566008  1
  P  P13  1  0.250000  0.432230  0.111949  1
  P  P14  1  0.250000  0.069048  0.610102  1
  P  P15  1  0.750000  0.569416  0.889749  1
  P  P16  1  0.750000  0.922186  0.387541  1
  P  P17  1  0.250000  0.272940  0.870647  1
  P  P18  1  0.250000  0.226732  0.370883  1
  P  P19  1  0.750000  0.726459  0.138631  1
  P  P20  1  0.750000  0.773409  0.629277  1
  P  P21  1  0.250000  0.605832  0.377386  1
  P  P22  1  0.250000  0.899698  0.881112  1
  P  P23  1  0.750000  0.402244  0.617945  1
  P  P24  1  0.750000  0.098300  0.120009  1
  Rh  Rh25  1  0.250000  0.714338  0.989935  1
  Rh  Rh26  1  0.250000  0.786682  0.485761  1
  Rh  Rh27  1  0.750000  0.283846  0.009616  1
  Rh  Rh28  1  0.750000  0.217069  0.507684  1
  Rh  Rh29  1  0.250000  0.411482  0.476650  1
  Rh  Rh30  1  0.250000  0.089950  0.978775  1
  Rh  Rh31  1  0.750000  0.594329  0.518844  1
  Rh  Rh32  1  0.750000  0.906235  0.024987  1
  Rh  Rh33  1  0.250000  0.226223  0.180808  1
  Rh  Rh34  1  0.250000  0.273848  0.679589  1
  Rh  Rh35  1  0.750000  0.774098  0.820234  1
