# generated using pymatgen
data_NdDyNi9P
_symmetry_space_group_name_H-M   'P 1'
_cell_length_a   3.95197900
_cell_length_b   5.03780400
_cell_length_c   8.20940600
_cell_angle_alpha   90.00000000
_cell_angle_beta   90.00000000
_cell_angle_gamma   90.00000000
_symmetry_Int_Tables_number   1
_chemical_formula_structural   NdDyNi9P
_chemical_formula_sum   'Nd1 Dy1 Ni9 P1'
_cell_volume   163.44349087
_cell_formula_units_Z   1
loop_
 _symmetry_equiv_pos_site_id
 _symmetry_equiv_pos_as_xyz
  1  'x, y, z'
loop_
 _atom_site_type_symbol
 _atom_site_label
 _atom_site_symmetry_multiplicity
 _atom_site_fract_x
 _atom_site_fract_y
 _atom_site_fract_z
 _atom_site_occupancy
  Nd  Nd0  1  0.000000  0.500000  0.500000  1
  Dy  Dy1  1  0.000000  0.000000  0.000000  1
  Ni  Ni2  1  0.000000  0.000000  0.332210  1
  Ni  Ni3  1  0.000000  0.500000  0.847756  1
  Ni  Ni4  1  0.000000  0.500000  0.152244  1
  Ni  Ni5  1  0.000000  0.000000  0.667790  1
  Ni  Ni6  1  0.500000  0.000000  0.500000  1
  Ni  Ni7  1  0.500000  0.241762  0.233983  1
  Ni  Ni8  1  0.500000  0.758238  0.766017  1
  Ni  Ni9  1  0.500000  0.758238  0.233983  1
  Ni  Ni10  1  0.500000  0.241762  0.766017  1
  P  P11  1  0.500000  0.500000  0.000000  1
