# generated using pymatgen
data_Pr16Tl2CdInRh4
_symmetry_space_group_name_H-M   'P 1'
_cell_length_a   10.02488646
_cell_length_b   10.07961812
_cell_length_c   10.08134200
_cell_angle_alpha   60.10984862
_cell_angle_beta   59.93856733
_cell_angle_gamma   60.01765712
_symmetry_Int_Tables_number   1
_chemical_formula_structural   Pr16Tl2CdInRh4
_chemical_formula_sum   'Pr16 Tl2 Cd1 In1 Rh4'
_cell_volume   720.67876805
_cell_formula_units_Z   1
loop_
 _symmetry_equiv_pos_site_id
 _symmetry_equiv_pos_as_xyz
  1  'x, y, z'
loop_
 _atom_site_type_symbol
 _atom_site_label
 _atom_site_symmetry_multiplicity
 _atom_site_fract_x
 _atom_site_fract_y
 _atom_site_fract_z
 _atom_site_occupancy
  Pr  Pr0  1  0.348869  0.346925  0.347957  1
  Pr  Pr1  1  0.349666  0.348175  0.953709  1
  Pr  Pr2  1  0.349194  0.953748  0.348841  1
  Pr  Pr3  1  0.951768  0.349328  0.349945  1
  Pr  Pr4  1  0.808583  0.191046  0.192120  1
  Pr  Pr5  1  0.188021  0.809993  0.810433  1
  Pr  Pr6  1  0.188185  0.810332  0.190417  1
  Pr  Pr7  1  0.807351  0.191792  0.807663  1
  Pr  Pr8  1  0.189459  0.190119  0.809932  1
  Pr  Pr9  1  0.807310  0.806962  0.192953  1
  Pr  Pr10  1  0.941655  0.562068  0.562954  1
  Pr  Pr11  1  0.560552  0.940262  0.938250  1
  Pr  Pr12  1  0.561723  0.940561  0.562177  1
  Pr  Pr13  1  0.941148  0.560232  0.936822  1
  Pr  Pr14  1  0.561520  0.561346  0.939902  1
  Pr  Pr15  1  0.938840  0.937472  0.561413  1
  Tl  Tl16  1  0.581931  0.584223  0.585227  1
  Tl  Tl17  1  0.580226  0.583944  0.250348  1
  Cd  Cd18  1  0.268036  0.576116  0.577323  1
  In  In19  1  0.579367  0.255843  0.582346  1
  Rh  Rh20  1  0.140626  0.142956  0.142345  1
  Rh  Rh21  1  0.140529  0.141941  0.573866  1
  Rh  Rh22  1  0.140933  0.573407  0.141722  1
  Rh  Rh23  1  0.574506  0.141211  0.141330  1
