# generated using pymatgen
data_Sm3B(CCl)2
_symmetry_space_group_name_H-M   'P 1'
_cell_length_a   14.22619300
_cell_length_b   3.79229700
_cell_length_c   11.28828600
_cell_angle_alpha   90.00000000
_cell_angle_beta   90.00000000
_cell_angle_gamma   90.00000000
_symmetry_Int_Tables_number   1
_chemical_formula_structural   Sm3B(CCl)2
_chemical_formula_sum   'Sm12 B4 C8 Cl8'
_cell_volume   609.00245440
_cell_formula_units_Z   4
loop_
 _symmetry_equiv_pos_site_id
 _symmetry_equiv_pos_as_xyz
  1  'x, y, z'
loop_
 _atom_site_type_symbol
 _atom_site_label
 _atom_site_symmetry_multiplicity
 _atom_site_fract_x
 _atom_site_fract_y
 _atom_site_fract_z
 _atom_site_occupancy
  Sm  Sm0  1  0.333844  0.250001  0.698465  1
  Sm  Sm1  1  0.166156  0.750000  0.198465  1
  Sm  Sm2  1  0.833845  0.250001  0.801534  1
  Sm  Sm3  1  0.666155  0.750000  0.301535  1
  Sm  Sm4  1  0.138760  0.250001  0.880928  1
  Sm  Sm5  1  0.361240  0.750000  0.380929  1
  Sm  Sm6  1  0.638760  0.250001  0.619072  1
  Sm  Sm7  1  0.861240  0.750000  0.119072  1
  Sm  Sm8  1  0.343845  0.250001  0.055907  1
  Sm  Sm9  1  0.156155  0.750000  0.555907  1
  Sm  Sm10  1  0.843846  0.250001  0.444093  1
  Sm  Sm11  1  0.656154  0.750000  0.944093  1
  B  B12  1  0.259885  0.750000  0.875973  1
  B  B13  1  0.240115  0.250001  0.375974  1
  B  B14  1  0.759885  0.750000  0.624026  1
  B  B15  1  0.740115  0.250001  0.124027  1
  C  C16  1  0.274510  0.250001  0.251541  1
  C  C17  1  0.225490  0.750000  0.751541  1
  C  C18  1  0.774510  0.250001  0.248459  1
  C  C19  1  0.725490  0.750000  0.748458  1
  C  C20  1  0.266488  0.250001  0.503138  1
  C  C21  1  0.233512  0.750000  0.003139  1
  C  C22  1  0.766488  0.250001  0.996861  1
  C  C23  1  0.733512  0.750000  0.496862  1
  Cl  Cl24  1  0.005494  0.250001  0.631973  1
  Cl  Cl25  1  0.494506  0.750000  0.131972  1
  Cl  Cl26  1  0.505494  0.250001  0.868028  1
  Cl  Cl27  1  0.994506  0.750000  0.368028  1
  Cl  Cl28  1  0.022628  0.250001  0.115594  1
  Cl  Cl29  1  0.477373  0.750000  0.615595  1
  Cl  Cl30  1  0.522628  0.250001  0.384406  1
  Cl  Cl31  1  0.977372  0.750000  0.884405  1
