# generated using pymatgen
data_Lu4Al10Ga7SiIr6
_symmetry_space_group_name_H-M   'P 1'
_cell_length_a   7.51580165
_cell_length_b   7.51622760
_cell_length_c   9.40376374
_cell_angle_alpha   90.13969105
_cell_angle_beta   89.81086373
_cell_angle_gamma   119.91213743
_symmetry_Int_Tables_number   1
_chemical_formula_structural   Lu4Al10Ga7SiIr6
_chemical_formula_sum   'Lu4 Al10 Ga7 Si1 Ir6'
_cell_volume   460.45676026
_cell_formula_units_Z   1
loop_
 _symmetry_equiv_pos_site_id
 _symmetry_equiv_pos_as_xyz
  1  'x, y, z'
loop_
 _atom_site_type_symbol
 _atom_site_label
 _atom_site_symmetry_multiplicity
 _atom_site_fract_x
 _atom_site_fract_y
 _atom_site_fract_z
 _atom_site_occupancy
  Lu  Lu0  1  0.996073  0.671222  0.244857  1
  Lu  Lu1  1  0.001104  0.336480  0.755191  1
  Lu  Lu2  1  0.676711  0.998181  0.249250  1
  Lu  Lu3  1  0.331788  0.999735  0.750797  1
  Al  Al4  1  0.997472  0.666766  0.572001  1
  Al  Al5  1  0.336116  0.998796  0.422429  1
  Al  Al6  1  0.001226  0.336464  0.424578  1
  Al  Al7  1  0.667155  0.999435  0.574024  1
  Al  Al8  1  0.665739  0.997236  0.925589  1
  Al  Al9  1  0.337828  0.000964  0.077871  1
  Al  Al10  1  0.329956  0.330052  0.560879  1
  Al  Al11  1  0.662878  0.662654  0.440561  1
  Al  Al12  1  0.662903  0.662405  0.057271  1
  Al  Al13  1  0.330073  0.330294  0.940965  1
  Ga  Ga14  1  0.880406  0.885585  0.749299  1
  Ga  Ga15  1  0.997606  0.335385  0.086244  1
  Ga  Ga16  1  0.000970  0.668926  0.917364  1
  Ga  Ga17  1  0.340567  0.553100  0.250843  1
  Ga  Ga18  1  0.658298  0.452459  0.749105  1
  Ga  Ga19  1  0.548571  0.338326  0.249811  1
  Ga  Ga20  1  0.455546  0.661453  0.750503  1
  Si  Si21  1  0.129397  0.123822  0.250315  1
  Ir  Ir22  1  0.666789  0.324139  0.998124  1
  Ir  Ir23  1  0.329368  0.671760  0.000795  1
  Ir  Ir24  1  0.325504  0.670190  0.501694  1
  Ir  Ir25  1  0.670865  0.325947  0.499409  1
  Ir  Ir26  1  0.999600  0.999055  0.012166  1
  Ir  Ir27  1  0.999495  0.999172  0.488063  1
