# generated using pymatgen
data_Yb8Ti3SiO16
_symmetry_space_group_name_H-M   'P 1'
_cell_length_a   5.31534804
_cell_length_b   6.70407200
_cell_length_c   11.25597310
_cell_angle_alpha   90.00000000
_cell_angle_beta   90.00045547
_cell_angle_gamma   90.00000000
_symmetry_Int_Tables_number   1
_chemical_formula_structural   Yb8Ti3SiO16
_chemical_formula_sum   'Yb8 Ti3 Si1 O16'
_cell_volume   401.10070321
_cell_formula_units_Z   1
loop_
 _symmetry_equiv_pos_site_id
 _symmetry_equiv_pos_as_xyz
  1  'x, y, z'
loop_
 _atom_site_type_symbol
 _atom_site_label
 _atom_site_symmetry_multiplicity
 _atom_site_fract_x
 _atom_site_fract_y
 _atom_site_fract_z
 _atom_site_occupancy
  Yb  Yb0  1  0.007271  0.750000  0.720281  1
  Yb  Yb1  1  0.993339  0.250000  0.280208  1
  Yb  Yb2  1  0.506464  0.250000  0.775192  1
  Yb  Yb3  1  0.492296  0.750000  0.223444  1
  Yb  Yb4  1  0.500995  0.496589  0.501371  1
  Yb  Yb5  1  0.999972  0.000580  0.999453  1
  Yb  Yb6  1  0.999972  0.499420  0.999453  1
  Yb  Yb7  1  0.500995  0.003411  0.501371  1
  Ti  Ti8  1  0.436165  0.250000  0.097127  1
  Ti  Ti9  1  0.934659  0.750000  0.404431  1
  Ti  Ti10  1  0.563779  0.750000  0.903502  1
  Si  Si11  1  0.075138  0.250000  0.595006  1
  O  O12  1  0.776444  0.750000  0.549273  1
  O  O13  1  0.774504  0.537596  0.336162  1
  O  O14  1  0.721052  0.537804  0.834561  1
  O  O15  1  0.763986  0.250000  0.592030  1
  O  O16  1  0.718208  0.750000  0.049454  1
  O  O17  1  0.275732  0.462635  0.164905  1
  O  O18  1  0.208287  0.447869  0.659782  1
  O  O19  1  0.282143  0.750000  0.409427  1
  O  O20  1  0.774504  0.962404  0.336162  1
  O  O21  1  0.217772  0.750000  0.904840  1
  O  O22  1  0.204098  0.250000  0.458806  1
  O  O23  1  0.721052  0.962196  0.834561  1
  O  O24  1  0.208287  0.052131  0.659782  1
  O  O25  1  0.285323  0.250000  0.950381  1
  O  O26  1  0.275732  0.037365  0.164905  1
  O  O27  1  0.781836  0.250000  0.094129  1
