# generated using pymatgen
data_Sm3Dy2Sn3Se
_symmetry_space_group_name_H-M   'P 1'
_cell_length_a   9.26025100
_cell_length_b   9.26024935
_cell_length_c   6.80462400
_cell_angle_alpha   90.00000000
_cell_angle_beta   90.00000000
_cell_angle_gamma   120.00000231
_symmetry_Int_Tables_number   1
_chemical_formula_structural   Sm3Dy2Sn3Se
_chemical_formula_sum   'Sm6 Dy4 Sn6 Se2'
_cell_volume   505.33594826
_cell_formula_units_Z   2
loop_
 _symmetry_equiv_pos_site_id
 _symmetry_equiv_pos_as_xyz
  1  'x, y, z'
loop_
 _atom_site_type_symbol
 _atom_site_label
 _atom_site_symmetry_multiplicity
 _atom_site_fract_x
 _atom_site_fract_y
 _atom_site_fract_z
 _atom_site_occupancy
  Sm  Sm0  1  0.746434  0.746434  0.750000  1
  Sm  Sm1  1  0.253566  0.000000  0.750000  1
  Sm  Sm2  1  0.000000  0.253566  0.750000  1
  Sm  Sm3  1  0.253566  0.253566  0.250000  1
  Sm  Sm4  1  0.746434  0.000000  0.250000  1
  Sm  Sm5  1  0.000000  0.746434  0.250000  1
  Dy  Dy6  1  0.666667  0.333333  0.000000  1
  Dy  Dy7  1  0.333333  0.666667  0.000000  1
  Dy  Dy8  1  0.333333  0.666667  0.500000  1
  Dy  Dy9  1  0.666667  0.333333  0.500000  1
  Sn  Sn10  1  0.397109  0.397109  0.750000  1
  Sn  Sn11  1  0.602891  0.000000  0.750000  1
  Sn  Sn12  1  0.000000  0.602891  0.750000  1
  Sn  Sn13  1  0.602891  0.602891  0.250000  1
  Sn  Sn14  1  0.397109  0.000000  0.250000  1
  Sn  Sn15  1  0.000000  0.397109  0.250000  1
  Se  Se16  1  0.000000  0.000000  0.000000  1
  Se  Se17  1  0.000000  0.000000  0.500000  1
