# generated using pymatgen
data_Sr9Nd(Si3H)2
_symmetry_space_group_name_H-M   'P 1'
_cell_length_a   9.62147604
_cell_length_b   9.62147566
_cell_length_c   9.61024947
_cell_angle_alpha   130.57246775
_cell_angle_beta   130.57246560
_cell_angle_gamma   72.52399443
_symmetry_Int_Tables_number   1
_chemical_formula_structural   Sr9Nd(Si3H)2
_chemical_formula_sum   'Sr9 Nd1 Si6 H2'
_cell_volume   501.55159280
_cell_formula_units_Z   1
loop_
 _symmetry_equiv_pos_site_id
 _symmetry_equiv_pos_as_xyz
  1  'x, y, z'
loop_
 _atom_site_type_symbol
 _atom_site_label
 _atom_site_symmetry_multiplicity
 _atom_site_fract_x
 _atom_site_fract_y
 _atom_site_fract_z
 _atom_site_occupancy
  Sr  Sr0  1  0.496097  0.502111  0.000324  1
  Sr  Sr1  1  0.002111  0.996097  0.000324  1
  Sr  Sr2  1  0.178803  0.678803  0.155842  1
  Sr  Sr3  1  0.020641  0.180226  0.499206  1
  Sr  Sr4  1  0.680226  0.520641  0.499206  1
  Sr  Sr5  1  0.478541  0.978541  0.161315  1
  Sr  Sr6  1  0.816863  0.316863  0.838886  1
  Sr  Sr7  1  0.979607  0.818520  0.499422  1
  Sr  Sr8  1  0.318520  0.479607  0.499422  1
  Nd  Nd9  1  0.526450  0.026450  0.841956  1
  Si  Si10  1  0.259578  0.241102  0.992542  1
  Si  Si11  1  0.741102  0.759578  0.992542  1
  Si  Si12  1  0.885682  0.385682  0.274884  1
  Si  Si13  1  0.102003  0.602003  0.705207  1
  Si  Si14  1  0.394139  0.106644  0.510792  1
  Si  Si15  1  0.606644  0.894139  0.510792  1
  H  H16  1  0.262374  0.762374  0.513766  1
  H  H17  1  0.750618  0.250618  0.503570  1
