# generated using pymatgen
data_ErLuAlZnPt2
_symmetry_space_group_name_H-M   'P 1'
_cell_length_a   4.31287000
_cell_length_b   6.75143586
_cell_length_c   7.91606700
_cell_angle_alpha   88.60889037
_cell_angle_beta   90.00000000
_cell_angle_gamma   90.00000000
_symmetry_Int_Tables_number   1
_chemical_formula_structural   ErLuAlZnPt2
_chemical_formula_sum   'Er2 Lu2 Al2 Zn2 Pt4'
_cell_volume   230.43261911
_cell_formula_units_Z   2
loop_
 _symmetry_equiv_pos_site_id
 _symmetry_equiv_pos_as_xyz
  1  'x, y, z'
loop_
 _atom_site_type_symbol
 _atom_site_label
 _atom_site_symmetry_multiplicity
 _atom_site_fract_x
 _atom_site_fract_y
 _atom_site_fract_z
 _atom_site_occupancy
  Er  Er0  1  0.250000  0.535361  0.178910  1
  Er  Er1  1  0.750000  0.464639  0.821090  1
  Lu  Lu2  1  0.750000  0.968662  0.683259  1
  Lu  Lu3  1  0.250000  0.031338  0.316741  1
  Al  Al4  1  0.250000  0.640666  0.557974  1
  Al  Al5  1  0.750000  0.359334  0.442026  1
  Zn  Zn6  1  0.750000  0.858951  0.062428  1
  Zn  Zn7  1  0.250000  0.141049  0.937572  1
  Pt  Pt8  1  0.250000  0.757559  0.866573  1
  Pt  Pt9  1  0.750000  0.242441  0.133427  1
  Pt  Pt10  1  0.750000  0.737831  0.388509  1
  Pt  Pt11  1  0.250000  0.262169  0.611491  1
