# generated using pymatgen
data_TbCe(DyCo4)2
_symmetry_space_group_name_H-M   'P 1'
_cell_length_a   5.03826300
_cell_length_b   5.03826323
_cell_length_c   8.77346498
_cell_angle_alpha   73.31375753
_cell_angle_beta   90.00000000
_cell_angle_gamma   120.00000509
_symmetry_Int_Tables_number   1
_chemical_formula_structural   TbCe(DyCo4)2
_chemical_formula_sum   'Tb1 Ce1 Dy2 Co8'
_cell_volume   181.96031557
_cell_formula_units_Z   1
loop_
 _symmetry_equiv_pos_site_id
 _symmetry_equiv_pos_as_xyz
  1  'x, y, z'
loop_
 _atom_site_type_symbol
 _atom_site_label
 _atom_site_symmetry_multiplicity
 _atom_site_fract_x
 _atom_site_fract_y
 _atom_site_fract_z
 _atom_site_occupancy
  Tb  Tb0  1  0.875278  0.750557  0.374164  1
  Ce  Ce1  1  0.374756  0.749512  0.875732  1
  Dy  Dy2  1  0.999971  0.999943  0.000086  1
  Dy  Dy3  1  0.499743  0.999486  0.500769  1
  Co  Co4  1  0.437824  0.373993  0.188183  1
  Co  Co5  1  0.937450  0.375685  0.686866  1
  Co  Co6  1  0.437824  0.875647  0.188183  1
  Co  Co7  1  0.937450  0.874899  0.686866  1
  Co  Co8  1  0.187708  0.375416  0.436876  1
  Co  Co9  1  0.687592  0.375183  0.937225  1
  Co  Co10  1  0.936169  0.373993  0.188183  1
  Co  Co11  1  0.438235  0.375685  0.686866  1
