# generated using pymatgen
data_Y3Fe8NiP6
_symmetry_space_group_name_H-M   'P 1'
_cell_length_a   3.70755000
_cell_length_b   10.47585900
_cell_length_c   12.19847100
_cell_angle_alpha   90.00000000
_cell_angle_beta   90.00000000
_cell_angle_gamma   90.00000000
_symmetry_Int_Tables_number   1
_chemical_formula_structural   Y3Fe8NiP6
_chemical_formula_sum   'Y6 Fe16 Ni2 P12'
_cell_volume   473.78582062
_cell_formula_units_Z   2
loop_
 _symmetry_equiv_pos_site_id
 _symmetry_equiv_pos_as_xyz
  1  'x, y, z'
loop_
 _atom_site_type_symbol
 _atom_site_label
 _atom_site_symmetry_multiplicity
 _atom_site_fract_x
 _atom_site_fract_y
 _atom_site_fract_z
 _atom_site_occupancy
  Y  Y0  1  0.000000  0.500000  0.522682  1
  Y  Y1  1  0.500000  0.000000  0.477318  1
  Y  Y2  1  0.500000  0.817203  0.205935  1
  Y  Y3  1  0.500000  0.182797  0.205935  1
  Y  Y4  1  0.000000  0.682797  0.794065  1
  Y  Y5  1  0.000000  0.317203  0.794065  1
  Fe  Fe6  1  0.500000  0.500000  0.152632  1
  Fe  Fe7  1  0.000000  0.000000  0.847368  1
  Fe  Fe8  1  0.000000  0.500000  0.988792  1
  Fe  Fe9  1  0.500000  0.000000  0.011208  1
  Fe  Fe10  1  0.500000  0.327936  0.995985  1
  Fe  Fe11  1  0.500000  0.672064  0.995985  1
  Fe  Fe12  1  0.000000  0.172064  0.004015  1
  Fe  Fe13  1  0.000000  0.827936  0.004015  1
  Fe  Fe14  1  0.500000  0.299636  0.429764  1
  Fe  Fe15  1  0.500000  0.700364  0.429764  1
  Fe  Fe16  1  0.000000  0.200364  0.570236  1
  Fe  Fe17  1  0.000000  0.799636  0.570236  1
  Fe  Fe18  1  0.500000  0.882518  0.710023  1
  Fe  Fe19  1  0.500000  0.117482  0.710023  1
  Fe  Fe20  1  0.000000  0.617482  0.289977  1
  Fe  Fe21  1  0.000000  0.382518  0.289977  1
  Ni  Ni22  1  0.500000  0.500000  0.701041  1
  Ni  Ni23  1  0.000000  0.000000  0.298959  1
  P  P24  1  0.500000  0.500000  0.886130  1
  P  P25  1  0.000000  0.000000  0.113870  1
  P  P26  1  0.500000  0.500000  0.340787  1
  P  P27  1  0.000000  0.000000  0.659213  1
  P  P28  1  0.500000  0.304379  0.613394  1
  P  P29  1  0.500000  0.695621  0.613394  1
  P  P30  1  0.000000  0.195621  0.386606  1
  P  P31  1  0.000000  0.804379  0.386606  1
  P  P32  1  0.500000  0.851432  0.889080  1
  P  P33  1  0.500000  0.148568  0.889080  1
  P  P34  1  0.000000  0.648568  0.110920  1
  P  P35  1  0.000000  0.351432  0.110920  1
