# generated using pymatgen
data_Gd8Si5Sb
_symmetry_space_group_name_H-M   'P 1'
_cell_length_a   7.86341350
_cell_length_b   7.86341229
_cell_length_c   7.86341200
_cell_angle_alpha   109.52715719
_cell_angle_beta   109.52715405
_cell_angle_gamma   109.35940504
_symmetry_Int_Tables_number   1
_chemical_formula_structural   Gd8Si5Sb
_chemical_formula_sum   'Gd8 Si5 Sb1'
_cell_volume   374.29159849
_cell_formula_units_Z   1
loop_
 _symmetry_equiv_pos_site_id
 _symmetry_equiv_pos_as_xyz
  1  'x, y, z'
loop_
 _atom_site_type_symbol
 _atom_site_label
 _atom_site_symmetry_multiplicity
 _atom_site_fract_x
 _atom_site_fract_y
 _atom_site_fract_z
 _atom_site_occupancy
  Gd  Gd0  1  0.487275  0.995370  0.353949  1
  Gd  Gd1  1  0.627334  0.622863  0.629763  1
  Gd  Gd2  1  0.002428  0.372666  0.495528  1
  Gd  Gd3  1  0.377137  0.506900  0.004472  1
  Gd  Gd4  1  0.004630  0.858579  0.491906  1
  Gd  Gd5  1  0.866673  0.512725  0.008094  1
  Gd  Gd6  1  0.493100  0.997572  0.870237  1
  Gd  Gd7  1  0.141421  0.133327  0.146051  1
  Si  Si8  1  0.374544  0.247967  0.625684  1
  Si  Si9  1  0.122283  0.748861  0.874316  1
  Si  Si10  1  0.752033  0.877717  0.126577  1
  Si  Si11  1  0.251139  0.625456  0.373423  1
  Si  Si12  1  0.625000  0.375000  0.250000  1
  Sb  Sb13  1  0.875000  0.125000  0.750000  1
