# generated using pymatgen
data_Tb6Er10Cd4FePd3
_symmetry_space_group_name_H-M   'P 1'
_cell_length_a   9.63655645
_cell_length_b   9.63655699
_cell_length_c   9.63655600
_cell_angle_alpha   59.68519998
_cell_angle_beta   59.68520151
_cell_angle_gamma   59.68519742
_symmetry_Int_Tables_number   1
_chemical_formula_structural   Tb6Er10Cd4FePd3
_chemical_formula_sum   'Tb6 Er10 Cd4 Fe1 Pd3'
_cell_volume   628.25171574
_cell_formula_units_Z   1
loop_
 _symmetry_equiv_pos_site_id
 _symmetry_equiv_pos_as_xyz
  1  'x, y, z'
loop_
 _atom_site_type_symbol
 _atom_site_label
 _atom_site_symmetry_multiplicity
 _atom_site_fract_x
 _atom_site_fract_y
 _atom_site_fract_z
 _atom_site_occupancy
  Tb  Tb0  1  0.935073  0.564712  0.564712  1
  Tb  Tb1  1  0.559836  0.936962  0.936962  1
  Tb  Tb2  1  0.564712  0.935073  0.564712  1
  Tb  Tb3  1  0.936962  0.559836  0.936962  1
  Tb  Tb4  1  0.564712  0.564712  0.935073  1
  Tb  Tb5  1  0.936962  0.936962  0.559836  1
  Er  Er6  1  0.353162  0.353162  0.353162  1
  Er  Er7  1  0.346257  0.346257  0.949632  1
  Er  Er8  1  0.346257  0.949632  0.346257  1
  Er  Er9  1  0.949632  0.346257  0.346257  1
  Er  Er10  1  0.821752  0.187582  0.187582  1
  Er  Er11  1  0.187636  0.811042  0.811042  1
  Er  Er12  1  0.187582  0.821752  0.187582  1
  Er  Er13  1  0.811042  0.187636  0.811042  1
  Er  Er14  1  0.187582  0.187582  0.821752  1
  Er  Er15  1  0.811042  0.811042  0.187636  1
  Cd  Cd16  1  0.579977  0.579977  0.579977  1
  Cd  Cd17  1  0.581227  0.581227  0.255504  1
  Cd  Cd18  1  0.581227  0.255504  0.581227  1
  Cd  Cd19  1  0.255504  0.581227  0.581227  1
  Fe  Fe20  1  0.143126  0.143126  0.143126  1
  Pd  Pd21  1  0.144474  0.144474  0.569792  1
  Pd  Pd22  1  0.144474  0.569792  0.144474  1
  Pd  Pd23  1  0.569792  0.144474  0.144474  1
