# generated using pymatgen
data_K4SmPaO6
_symmetry_space_group_name_H-M   'P 1'
_cell_length_a   6.29825320
_cell_length_b   6.29825353
_cell_length_c   6.65775253
_cell_angle_alpha   99.23337991
_cell_angle_beta   99.23338396
_cell_angle_gamma   119.87242627
_symmetry_Int_Tables_number   1
_chemical_formula_structural   K4SmPaO6
_chemical_formula_sum   'K4 Sm1 Pa1 O6'
_cell_volume   216.94572200
_cell_formula_units_Z   1
loop_
 _symmetry_equiv_pos_site_id
 _symmetry_equiv_pos_as_xyz
  1  'x, y, z'
loop_
 _atom_site_type_symbol
 _atom_site_label
 _atom_site_symmetry_multiplicity
 _atom_site_fract_x
 _atom_site_fract_y
 _atom_site_fract_z
 _atom_site_occupancy
  K  K0  1  0.499837  0.500161  0.000000  1
  K  K1  1  0.000619  0.999380  0.499999  1
  K  K2  1  0.658303  0.341697  0.500001  1
  K  K3  1  0.342735  0.657265  0.500001  1
  Sm  Sm4  1  0.832502  0.167497  0.000000  1
  Pa  Pa5  1  0.166990  0.833008  0.000000  1
  O  O6  1  0.962489  0.585564  0.194004  1
  O  O7  1  0.545768  0.942433  0.194826  1
  O  O8  1  0.189499  0.170748  0.193467  1
  O  O9  1  0.829253  0.810502  0.806532  1
  O  O10  1  0.057569  0.454234  0.805176  1
  O  O11  1  0.414438  0.037513  0.805997  1
