# generated using pymatgen
data_Yb(HfSe2)4
_symmetry_space_group_name_H-M   'P 1'
_cell_length_a   8.25952227
_cell_length_b   8.25952141
_cell_length_c   8.25952227
_cell_angle_alpha   54.04242734
_cell_angle_beta   54.04243300
_cell_angle_gamma   54.04242495
_symmetry_Int_Tables_number   1
_chemical_formula_structural   Yb(HfSe2)4
_chemical_formula_sum   'Yb1 Hf4 Se8'
_cell_volume   342.99365030
_cell_formula_units_Z   1
loop_
 _symmetry_equiv_pos_site_id
 _symmetry_equiv_pos_as_xyz
  1  'x, y, z'
loop_
 _atom_site_type_symbol
 _atom_site_label
 _atom_site_symmetry_multiplicity
 _atom_site_fract_x
 _atom_site_fract_y
 _atom_site_fract_z
 _atom_site_occupancy
  Yb  Yb0  1  0.500000  0.500000  0.500000  1
  Hf  Hf1  1  0.000000  0.500000  0.500000  1
  Hf  Hf2  1  0.500000  0.000000  0.500000  1
  Hf  Hf3  1  0.500000  0.500000  0.000000  1
  Hf  Hf4  1  0.000000  0.000000  0.000000  1
  Se  Se5  1  0.251969  0.759201  0.759201  1
  Se  Se6  1  0.240799  0.240799  0.748031  1
  Se  Se7  1  0.748031  0.240799  0.240799  1
  Se  Se8  1  0.240799  0.748031  0.240799  1
  Se  Se9  1  0.258584  0.258584  0.258584  1
  Se  Se10  1  0.741416  0.741416  0.741416  1
  Se  Se11  1  0.759201  0.251969  0.759201  1
  Se  Se12  1  0.759201  0.759201  0.251969  1
