# generated using pymatgen
data_Ce2Th2P8Os7Ru
_symmetry_space_group_name_H-M   'P 1'
_cell_length_a   4.16615500
_cell_length_b   7.56466380
_cell_length_c   10.49231506
_cell_angle_alpha   90.09364963
_cell_angle_beta   90.00000000
_cell_angle_gamma   90.00000000
_symmetry_Int_Tables_number   1
_chemical_formula_structural   Ce2Th2P8Os7Ru
_chemical_formula_sum   'Ce2 Th2 P8 Os7 Ru1'
_cell_volume   330.67076311
_cell_formula_units_Z   1
loop_
 _symmetry_equiv_pos_site_id
 _symmetry_equiv_pos_as_xyz
  1  'x, y, z'
loop_
 _atom_site_type_symbol
 _atom_site_label
 _atom_site_symmetry_multiplicity
 _atom_site_fract_x
 _atom_site_fract_y
 _atom_site_fract_z
 _atom_site_occupancy
  Ce  Ce0  1  0.750000  0.733168  0.331718  1
  Ce  Ce1  1  0.750000  0.233223  0.169127  1
  Th  Th2  1  0.250000  0.268955  0.667863  1
  Th  Th3  1  0.250000  0.766478  0.830892  1
  P  P4  1  0.250000  0.093259  0.970128  1
  P  P5  1  0.750000  0.906828  0.034992  1
  P  P6  1  0.250000  0.595603  0.529035  1
  P  P7  1  0.750000  0.407539  0.465266  1
  P  P8  1  0.250000  0.529133  0.162647  1
  P  P9  1  0.750000  0.468225  0.841580  1
  P  P10  1  0.250000  0.029252  0.337508  1
  P  P11  1  0.750000  0.970643  0.659584  1
  Os  Os12  1  0.750000  0.109613  0.448421  1
  Os  Os13  1  0.250000  0.891044  0.548646  1
  Os  Os14  1  0.750000  0.609351  0.051611  1
  Os  Os15  1  0.250000  0.389467  0.951966  1
  Os  Os16  1  0.250000  0.869544  0.134481  1
  Os  Os17  1  0.750000  0.129200  0.867924  1
  Os  Os18  1  0.250000  0.369151  0.364903  1
  Ru  Ru19  1  0.750000  0.630324  0.631707  1
