# generated using pymatgen
data_Tb2Fe5Mo2(P2Ir)3
_symmetry_space_group_name_H-M   'P 1'
_cell_length_a   3.80393800
_cell_length_b   10.53376400
_cell_length_c   12.24549100
_cell_angle_alpha   90.00000000
_cell_angle_beta   90.00000000
_cell_angle_gamma   90.00000000
_symmetry_Int_Tables_number   1
_chemical_formula_structural   Tb2Fe5Mo2(P2Ir)3
_chemical_formula_sum   'Tb4 Fe10 Mo4 P12 Ir6'
_cell_volume   490.67419358
_cell_formula_units_Z   2
loop_
 _symmetry_equiv_pos_site_id
 _symmetry_equiv_pos_as_xyz
  1  'x, y, z'
loop_
 _atom_site_type_symbol
 _atom_site_label
 _atom_site_symmetry_multiplicity
 _atom_site_fract_x
 _atom_site_fract_y
 _atom_site_fract_z
 _atom_site_occupancy
  Tb  Tb0  1  0.250000  0.583187  0.712847  1
  Tb  Tb1  1  0.250000  0.916813  0.212847  1
  Tb  Tb2  1  0.750000  0.419836  0.288825  1
  Tb  Tb3  1  0.750000  0.080164  0.788825  1
  Fe  Fe4  1  0.750000  0.781076  0.824096  1
  Fe  Fe5  1  0.750000  0.718924  0.324096  1
  Fe  Fe6  1  0.250000  0.876770  0.696716  1
  Fe  Fe7  1  0.250000  0.623230  0.196716  1
  Fe  Fe8  1  0.750000  0.115309  0.305265  1
  Fe  Fe9  1  0.750000  0.384691  0.805265  1
  Fe  Fe10  1  0.250000  0.463560  0.936594  1
  Fe  Fe11  1  0.250000  0.036440  0.436594  1
  Fe  Fe12  1  0.750000  0.538274  0.064446  1
  Fe  Fe13  1  0.750000  0.961726  0.564446  1
  Mo  Mo14  1  0.250000  0.700967  0.985673  1
  Mo  Mo15  1  0.250000  0.799033  0.485673  1
  Mo  Mo16  1  0.750000  0.297686  0.009963  1
  Mo  Mo17  1  0.750000  0.202314  0.509963  1
  P  P18  1  0.250000  0.433960  0.111172  1
  P  P19  1  0.250000  0.066040  0.611172  1
  P  P20  1  0.750000  0.575349  0.887558  1
  P  P21  1  0.750000  0.924651  0.387558  1
  P  P22  1  0.250000  0.274343  0.866182  1
  P  P23  1  0.250000  0.225657  0.366182  1
  P  P24  1  0.750000  0.726166  0.140007  1
  P  P25  1  0.750000  0.773834  0.640007  1
  P  P26  1  0.250000  0.605548  0.378685  1
  P  P27  1  0.250000  0.894452  0.878685  1
  P  P28  1  0.750000  0.401874  0.617857  1
  P  P29  1  0.750000  0.098126  0.117857  1
  Ir  Ir30  1  0.250000  0.407489  0.476999  1
  Ir  Ir31  1  0.250000  0.092511  0.976999  1
  Ir  Ir32  1  0.750000  0.598125  0.519948  1
  Ir  Ir33  1  0.750000  0.901875  0.019948  1
  Ir  Ir34  1  0.250000  0.225065  0.177163  1
  Ir  Ir35  1  0.250000  0.274935  0.677163  1
