# generated using pymatgen
data_Tb5FeRhO12
_symmetry_space_group_name_H-M   'P 1'
_cell_length_a   6.83416285
_cell_length_b   6.83416147
_cell_length_c   7.33790208
_cell_angle_alpha   74.34713281
_cell_angle_beta   74.34713482
_cell_angle_gamma   51.32427669
_symmetry_Int_Tables_number   1
_chemical_formula_structural   Tb5FeRhO12
_chemical_formula_sum   'Tb5 Fe1 Rh1 O12'
_cell_volume   255.29363309
_cell_formula_units_Z   1
loop_
 _symmetry_equiv_pos_site_id
 _symmetry_equiv_pos_as_xyz
  1  'x, y, z'
loop_
 _atom_site_type_symbol
 _atom_site_label
 _atom_site_symmetry_multiplicity
 _atom_site_fract_x
 _atom_site_fract_y
 _atom_site_fract_z
 _atom_site_occupancy
  Tb  Tb0  1  0.691249  0.689809  0.670385  1
  Tb  Tb1  1  0.692278  0.698835  0.140734  1
  Tb  Tb2  1  0.995844  0.004156  0.000000  1
  Tb  Tb3  1  0.301165  0.307722  0.859266  1
  Tb  Tb4  1  0.310191  0.308751  0.329615  1
  Fe  Fe5  1  0.248109  0.751891  0.500000  1
  Rh  Rh6  1  0.759689  0.240311  0.500000  1
  O  O7  1  0.401044  0.905539  0.923953  1
  O  O8  1  0.572641  0.096929  0.582340  1
  O  O9  1  0.903071  0.427359  0.417660  1
  O  O10  1  0.094461  0.598956  0.076047  1
  O  O11  1  0.000083  0.000611  0.316174  1
  O  O12  1  0.505965  0.493938  0.686875  1
  O  O13  1  0.901879  0.406261  0.923985  1
  O  O14  1  0.101975  0.578833  0.579693  1
  O  O15  1  0.421167  0.898025  0.420307  1
  O  O16  1  0.593739  0.098121  0.076015  1
  O  O17  1  0.506062  0.494035  0.313125  1
  O  O18  1  0.999389  0.999917  0.683826  1
