# generated using pymatgen
data_TbEuBO4
_symmetry_space_group_name_H-M   'P 1'
_cell_length_a   3.67715100
_cell_length_b   9.75083000
_cell_length_c   10.91358100
_cell_angle_alpha   90.00000000
_cell_angle_beta   90.00000000
_cell_angle_gamma   90.00000000
_symmetry_Int_Tables_number   1
_chemical_formula_structural   TbEuBO4
_chemical_formula_sum   'Tb4 Eu4 B4 O16'
_cell_volume   391.30944019
_cell_formula_units_Z   4
loop_
 _symmetry_equiv_pos_site_id
 _symmetry_equiv_pos_as_xyz
  1  'x, y, z'
loop_
 _atom_site_type_symbol
 _atom_site_label
 _atom_site_symmetry_multiplicity
 _atom_site_fract_x
 _atom_site_fract_y
 _atom_site_fract_z
 _atom_site_occupancy
  Tb  Tb0  1  0.250000  0.083429  0.111811  1
  Tb  Tb1  1  0.750000  0.916571  0.888189  1
  Tb  Tb2  1  0.750000  0.583429  0.388189  1
  Tb  Tb3  1  0.250000  0.416571  0.611811  1
  Eu  Eu4  1  0.250000  0.657947  0.080854  1
  Eu  Eu5  1  0.750000  0.342053  0.919146  1
  Eu  Eu6  1  0.750000  0.157947  0.419146  1
  Eu  Eu7  1  0.250000  0.842053  0.580854  1
  B  B8  1  0.250000  0.364650  0.205619  1
  B  B9  1  0.750000  0.635350  0.794381  1
  B  B10  1  0.750000  0.864650  0.294381  1
  B  B11  1  0.250000  0.135350  0.705619  1
  O  O12  1  0.250000  0.492655  0.261122  1
  O  O13  1  0.750000  0.507345  0.738878  1
  O  O14  1  0.750000  0.992655  0.238878  1
  O  O15  1  0.250000  0.007345  0.761122  1
  O  O16  1  0.250000  0.243689  0.273897  1
  O  O17  1  0.750000  0.756311  0.726103  1
  O  O18  1  0.750000  0.743689  0.226103  1
  O  O19  1  0.250000  0.256311  0.773897  1
  O  O20  1  0.250000  0.354431  0.077190  1
  O  O21  1  0.750000  0.645569  0.922810  1
  O  O22  1  0.750000  0.854431  0.422810  1
  O  O23  1  0.250000  0.145569  0.577190  1
  O  O24  1  0.250000  0.614034  0.502460  1
  O  O25  1  0.750000  0.385966  0.497540  1
  O  O26  1  0.750000  0.114034  0.997540  1
  O  O27  1  0.250000  0.885966  0.002460  1
