# generated using pymatgen
data_BaPa4O11
_symmetry_space_group_name_H-M   'P 1'
_cell_length_a   6.91433800
_cell_length_b   6.91433769
_cell_length_c   13.54469100
_cell_angle_alpha   90.00000000
_cell_angle_beta   90.00000000
_cell_angle_gamma   120.00000148
_symmetry_Int_Tables_number   1
_chemical_formula_structural   BaPa4O11
_chemical_formula_sum   'Ba2 Pa8 O22'
_cell_volume   560.79085000
_cell_formula_units_Z   2
loop_
 _symmetry_equiv_pos_site_id
 _symmetry_equiv_pos_as_xyz
  1  'x, y, z'
loop_
 _atom_site_type_symbol
 _atom_site_label
 _atom_site_symmetry_multiplicity
 _atom_site_fract_x
 _atom_site_fract_y
 _atom_site_fract_z
 _atom_site_occupancy
  Ba  Ba0  1  0.333333  0.666667  0.750000  1
  Ba  Ba1  1  0.666667  0.333333  0.250000  1
  Pa  Pa2  1  0.000000  0.644000  0.500000  1
  Pa  Pa3  1  0.000000  0.356000  0.000000  1
  Pa  Pa4  1  0.333333  0.666667  0.250000  1
  Pa  Pa5  1  0.356000  0.356000  0.500000  1
  Pa  Pa6  1  0.644000  0.644000  0.000000  1
  Pa  Pa7  1  0.356000  0.000000  0.000000  1
  Pa  Pa8  1  0.666667  0.333333  0.750000  1
  Pa  Pa9  1  0.644000  0.000000  0.500000  1
  O  O10  1  0.000000  0.744297  0.000000  1
  O  O11  1  0.059833  0.634338  0.344047  1
  O  O12  1  0.059833  0.425495  0.155953  1
  O  O13  1  0.000000  0.255703  0.500000  1
  O  O14  1  0.365662  0.940167  0.155953  1
  O  O15  1  0.333333  0.666667  0.536579  1
  O  O16  1  0.333333  0.666667  0.963421  1
  O  O17  1  0.574505  0.940167  0.344047  1
  O  O18  1  0.255703  0.255703  0.000000  1
  O  O19  1  0.365662  0.425495  0.344047  1
  O  O20  1  0.425495  0.365662  0.655953  1
  O  O21  1  0.255703  0.000000  0.500000  1
  O  O22  1  0.574505  0.634338  0.155953  1
  O  O23  1  0.634338  0.574505  0.844047  1
  O  O24  1  0.744297  0.744297  0.500000  1
  O  O25  1  0.425495  0.059833  0.844047  1
  O  O26  1  0.666667  0.333333  0.036579  1
  O  O27  1  0.666667  0.333333  0.463421  1
  O  O28  1  0.634338  0.059833  0.655953  1
  O  O29  1  0.940167  0.574505  0.655953  1
  O  O30  1  0.744297  0.000000  0.000000  1
  O  O31  1  0.940167  0.365662  0.844047  1
