# generated using pymatgen
data_Sm8As(Pd5Pt3)3
_symmetry_space_group_name_H-M   'P 1'
_cell_length_a   8.49106600
_cell_length_b   8.49100500
_cell_length_c   8.49592100
_cell_angle_alpha   90.00000000
_cell_angle_beta   90.00000000
_cell_angle_gamma   90.00000000
_symmetry_Int_Tables_number   1
_chemical_formula_structural   Sm8As(Pd5Pt3)3
_chemical_formula_sum   'Sm8 As1 Pd15 Pt9'
_cell_volume   612.53622637
_cell_formula_units_Z   1
loop_
 _symmetry_equiv_pos_site_id
 _symmetry_equiv_pos_as_xyz
  1  'x, y, z'
loop_
 _atom_site_type_symbol
 _atom_site_label
 _atom_site_symmetry_multiplicity
 _atom_site_fract_x
 _atom_site_fract_y
 _atom_site_fract_z
 _atom_site_occupancy
  Sm  Sm0  1  0.253167  0.253400  0.253059  1
  Sm  Sm1  1  0.746082  0.745325  0.745895  1
  Sm  Sm2  1  0.746082  0.745325  0.254105  1
  Sm  Sm3  1  0.746082  0.254675  0.745895  1
  Sm  Sm4  1  0.253167  0.253400  0.746941  1
  Sm  Sm5  1  0.253167  0.746600  0.253059  1
  Sm  Sm6  1  0.253167  0.746600  0.746941  1
  Sm  Sm7  1  0.746082  0.254675  0.254105  1
  As  As8  1  0.007547  0.000000  0.000000  1
  Pd  Pd9  1  0.500579  0.000000  0.259882  1
  Pd  Pd10  1  0.259035  0.000000  0.500000  1
  Pd  Pd11  1  0.500579  0.000000  0.740118  1
  Pd  Pd12  1  0.739087  0.000000  0.500000  1
  Pd  Pd13  1  0.000130  0.500000  0.260322  1
  Pd  Pd14  1  0.000130  0.500000  0.739678  1
  Pd  Pd15  1  0.499661  0.253741  0.500000  1
  Pd  Pd16  1  0.499661  0.746259  0.500000  1
  Pd  Pd17  1  0.499479  0.500000  0.253007  1
  Pd  Pd18  1  0.499479  0.500000  0.746993  1
  Pd  Pd19  1  0.715095  0.000000  0.000000  1
  Pd  Pd20  1  0.998068  0.290900  0.000000  1
  Pd  Pd21  1  0.998068  0.709100  0.000000  1
  Pd  Pd22  1  0.997715  0.000000  0.289444  1
  Pd  Pd23  1  0.997715  0.000000  0.710556  1
  Pt  Pt24  1  0.259805  0.500000  0.000000  1
  Pt  Pt25  1  0.737745  0.500000  0.000000  1
  Pt  Pt26  1  0.999920  0.258211  0.500000  1
  Pt  Pt27  1  0.500327  0.257955  0.000000  1
  Pt  Pt28  1  0.999920  0.741789  0.500000  1
  Pt  Pt29  1  0.500327  0.742045  0.000000  1
  Pt  Pt30  1  0.251316  0.500000  0.500000  1
  Pt  Pt31  1  0.748791  0.500000  0.500000  1
  Pt  Pt32  1  0.292826  0.000000  0.000000  1
