# generated using pymatgen
data_DyU(CoB4)2
_symmetry_space_group_name_H-M   'P 1'
_cell_length_a   3.36578000
_cell_length_b   5.89478103
_cell_length_c   11.41406900
_cell_angle_alpha   90.06774286
_cell_angle_beta   90.00000000
_cell_angle_gamma   90.00000000
_symmetry_Int_Tables_number   1
_chemical_formula_structural   DyU(CoB4)2
_chemical_formula_sum   'Dy2 U2 Co4 B16'
_cell_volume   226.46108959
_cell_formula_units_Z   2
loop_
 _symmetry_equiv_pos_site_id
 _symmetry_equiv_pos_as_xyz
  1  'x, y, z'
loop_
 _atom_site_type_symbol
 _atom_site_label
 _atom_site_symmetry_multiplicity
 _atom_site_fract_x
 _atom_site_fract_y
 _atom_site_fract_z
 _atom_site_occupancy
  Dy  Dy0  1  0.000000  0.627630  0.350960  1
  Dy  Dy1  1  0.000000  0.372370  0.649040  1
  U  U2  1  0.000000  0.127050  0.150478  1
  U  U3  1  0.000000  0.872950  0.849522  1
  Co  Co4  1  0.000000  0.633519  0.089031  1
  Co  Co5  1  0.000000  0.366481  0.910969  1
  Co  Co6  1  0.000000  0.133479  0.409913  1
  Co  Co7  1  0.000000  0.866521  0.590087  1
  B  B8  1  0.500000  0.783714  0.185105  1
  B  B9  1  0.500000  0.216286  0.814895  1
  B  B10  1  0.500000  0.282081  0.314494  1
  B  B11  1  0.500000  0.717919  0.685506  1
  B  B12  1  0.500000  0.864180  0.033960  1
  B  B13  1  0.500000  0.135820  0.966040  1
  B  B14  1  0.500000  0.361153  0.466923  1
  B  B15  1  0.500000  0.638847  0.533077  1
  B  B16  1  0.500000  0.887885  0.454348  1
  B  B17  1  0.500000  0.112115  0.545652  1
  B  B18  1  0.500000  0.386674  0.046068  1
  B  B19  1  0.500000  0.613326  0.953932  1
  B  B20  1  0.500000  0.976892  0.309471  1
  B  B21  1  0.500000  0.023108  0.690529  1
  B  B22  1  0.500000  0.476931  0.190617  1
  B  B23  1  0.500000  0.523069  0.809383  1
