# generated using pymatgen
data_Pr4Al18RuPt5
_symmetry_space_group_name_H-M   'P 1'
_cell_length_a   7.64337292
_cell_length_b   7.64336901
_cell_length_c   9.71861600
_cell_angle_alpha   90.12061301
_cell_angle_beta   90.12055298
_cell_angle_gamma   119.21133161
_symmetry_Int_Tables_number   1
_chemical_formula_structural   Pr4Al18RuPt5
_chemical_formula_sum   'Pr4 Al18 Ru1 Pt5'
_cell_volume   495.56200903
_cell_formula_units_Z   1
loop_
 _symmetry_equiv_pos_site_id
 _symmetry_equiv_pos_as_xyz
  1  'x, y, z'
loop_
 _atom_site_type_symbol
 _atom_site_label
 _atom_site_symmetry_multiplicity
 _atom_site_fract_x
 _atom_site_fract_y
 _atom_site_fract_z
 _atom_site_occupancy
  Pr  Pr0  1  0.994977  0.668012  0.250222  1
  Pr  Pr1  1  0.005023  0.331988  0.749778  1
  Pr  Pr2  1  0.668011  0.994976  0.250221  1
  Pr  Pr3  1  0.331989  0.005024  0.749779  1
  Al  Al4  1  0.130279  0.130279  0.255096  1
  Al  Al5  1  0.869721  0.869721  0.744904  1
  Al  Al6  1  0.003317  0.334643  0.074303  1
  Al  Al7  1  0.996683  0.665357  0.925697  1
  Al  Al8  1  0.998553  0.671428  0.570235  1
  Al  Al9  1  0.328569  0.001446  0.429765  1
  Al  Al10  1  0.001447  0.328572  0.429765  1
  Al  Al11  1  0.671431  0.998554  0.570235  1
  Al  Al12  1  0.665355  0.996682  0.925697  1
  Al  Al13  1  0.334645  0.003318  0.074303  1
  Al  Al14  1  0.329519  0.329520  0.550682  1
  Al  Al15  1  0.670481  0.670480  0.449318  1
  Al  Al16  1  0.664671  0.664671  0.055147  1
  Al  Al17  1  0.335329  0.335329  0.944853  1
  Al  Al18  1  0.339714  0.543969  0.250977  1
  Al  Al19  1  0.660286  0.456031  0.749023  1
  Al  Al20  1  0.543969  0.339714  0.250975  1
  Al  Al21  1  0.456031  0.660286  0.749025  1
  Ru  Ru22  1  0.000000  0.000000  0.500000  1
  Pt  Pt23  1  0.670860  0.329140  0.000000  1
  Pt  Pt24  1  0.329140  0.670860  0.000000  1
  Pt  Pt25  1  0.329059  0.670938  0.500000  1
  Pt  Pt26  1  0.670941  0.329062  0.500000  1
  Pt  Pt27  1  0.000000  0.000000  0.000000  1
