# generated using pymatgen
data_Er4Ga18(NiRu)3
_symmetry_space_group_name_H-M   'P 1'
_cell_length_a   7.49933819
_cell_length_b   7.49933834
_cell_length_c   9.45999779
_cell_angle_alpha   89.86009338
_cell_angle_beta   89.86009474
_cell_angle_gamma   120.65536039
_symmetry_Int_Tables_number   1
_chemical_formula_structural   Er4Ga18(NiRu)3
_chemical_formula_sum   'Er4 Ga18 Ni3 Ru3'
_cell_volume   457.67396436
_cell_formula_units_Z   1
loop_
 _symmetry_equiv_pos_site_id
 _symmetry_equiv_pos_as_xyz
  1  'x, y, z'
loop_
 _atom_site_type_symbol
 _atom_site_label
 _atom_site_symmetry_multiplicity
 _atom_site_fract_x
 _atom_site_fract_y
 _atom_site_fract_z
 _atom_site_occupancy
  Er  Er0  1  0.997682  0.661220  0.250309  1
  Er  Er1  1  0.007318  0.343606  0.748533  1
  Er  Er2  1  0.656394  0.992682  0.251467  1
  Er  Er3  1  0.338780  0.002318  0.749691  1
  Ga  Ga4  1  0.111135  0.110636  0.248651  1
  Ga  Ga5  1  0.889364  0.888865  0.751349  1
  Ga  Ga6  1  0.992160  0.327004  0.075608  1
  Ga  Ga7  1  0.995791  0.668680  0.924422  1
  Ga  Ga8  1  0.999532  0.672427  0.576460  1
  Ga  Ga9  1  0.327573  0.000468  0.423540  1
  Ga  Ga10  1  0.000321  0.326492  0.421865  1
  Ga  Ga11  1  0.673508  0.999679  0.578135  1
  Ga  Ga12  1  0.672996  0.007840  0.924392  1
  Ga  Ga13  1  0.331320  0.004209  0.075578  1
  Ga  Ga14  1  0.333514  0.331967  0.562220  1
  Ga  Ga15  1  0.668033  0.666486  0.437780  1
  Ga  Ga16  1  0.668039  0.668382  0.062649  1
  Ga  Ga17  1  0.331618  0.331961  0.937351  1
  Ga  Ga18  1  0.334841  0.540836  0.249348  1
  Ga  Ga19  1  0.665819  0.453245  0.752752  1
  Ga  Ga20  1  0.546755  0.334181  0.247248  1
  Ga  Ga21  1  0.459164  0.665159  0.750652  1
  Ni  Ni22  1  0.670029  0.329971  0.000000  1
  Ni  Ni23  1  0.000648  0.999352  0.000000  1
  Ni  Ni24  1  0.999983  0.000017  0.500000  1
  Ru  Ru25  1  0.326643  0.673357  0.000000  1
  Ru  Ru26  1  0.327401  0.672599  0.500000  1
  Ru  Ru27  1  0.673636  0.326364  0.500000  1
