# generated using pymatgen
data_Yb2(GePd3)3
_symmetry_space_group_name_H-M   'P 1'
_cell_length_a   7.72010832
_cell_length_b   7.72010754
_cell_length_c   10.12405276
_cell_angle_alpha   67.90283115
_cell_angle_beta   67.90283496
_cell_angle_gamma   60.36041750
_symmetry_Int_Tables_number   1
_chemical_formula_structural   Yb2(GePd3)3
_chemical_formula_sum   'Yb4 Ge6 Pd18'
_cell_volume   472.18169138
_cell_formula_units_Z   2
loop_
 _symmetry_equiv_pos_site_id
 _symmetry_equiv_pos_as_xyz
  1  'x, y, z'
loop_
 _atom_site_type_symbol
 _atom_site_label
 _atom_site_symmetry_multiplicity
 _atom_site_fract_x
 _atom_site_fract_y
 _atom_site_fract_z
 _atom_site_occupancy
  Yb  Yb0  1  0.417180  0.244768  0.749994  1
  Yb  Yb1  1  0.582820  0.755232  0.250006  1
  Yb  Yb2  1  0.755232  0.582820  0.750006  1
  Yb  Yb3  1  0.244768  0.417180  0.249994  1
  Ge  Ge4  1  0.500000  0.000000  0.500000  1
  Ge  Ge5  1  0.000000  0.500000  0.000000  1
  Ge  Ge6  1  0.653685  0.174768  0.998070  1
  Ge  Ge7  1  0.346315  0.825232  0.001930  1
  Ge  Ge8  1  0.825232  0.346315  0.501930  1
  Ge  Ge9  1  0.174768  0.653685  0.498070  1
  Pd  Pd10  1  0.294970  0.919621  0.752936  1
  Pd  Pd11  1  0.705030  0.080379  0.247064  1
  Pd  Pd12  1  0.080379  0.705030  0.747064  1
  Pd  Pd13  1  0.919621  0.294970  0.252936  1
  Pd  Pd14  1  0.483038  0.635848  0.574422  1
  Pd  Pd15  1  0.516962  0.364152  0.425578  1
  Pd  Pd16  1  0.364152  0.516962  0.925578  1
  Pd  Pd17  1  0.635848  0.483038  0.074422  1
  Pd  Pd18  1  0.871151  0.128849  0.750000  1
  Pd  Pd19  1  0.128849  0.871151  0.250000  1
  Pd  Pd20  1  0.810838  0.985723  0.548126  1
  Pd  Pd21  1  0.189162  0.014277  0.451874  1
  Pd  Pd22  1  0.014277  0.189162  0.951874  1
  Pd  Pd23  1  0.985723  0.810838  0.048126  1
  Pd  Pd24  1  0.684424  0.858742  0.924628  1
  Pd  Pd25  1  0.315576  0.141258  0.075372  1
  Pd  Pd26  1  0.141258  0.315576  0.575372  1
  Pd  Pd27  1  0.858742  0.684424  0.424628  1
