# generated using pymatgen
data_Er3TmTaOs7
_symmetry_space_group_name_H-M   'P 1'
_cell_length_a   5.47190000
_cell_length_b   5.28586311
_cell_length_c   8.89496600
_cell_angle_alpha   90.00251039
_cell_angle_beta   89.99987918
_cell_angle_gamma   121.21517623
_symmetry_Int_Tables_number   1
_chemical_formula_structural   Er3TmTaOs7
_chemical_formula_sum   'Er3 Tm1 Ta1 Os7'
_cell_volume   220.02892064
_cell_formula_units_Z   1
loop_
 _symmetry_equiv_pos_site_id
 _symmetry_equiv_pos_as_xyz
  1  'x, y, z'
loop_
 _atom_site_type_symbol
 _atom_site_label
 _atom_site_symmetry_multiplicity
 _atom_site_fract_x
 _atom_site_fract_y
 _atom_site_fract_z
 _atom_site_occupancy
  Er  Er0  1  0.670024  0.340425  0.560360  1
  Er  Er1  1  0.333064  0.666176  0.431322  1
  Er  Er2  1  0.333066  0.666175  0.068664  1
  Tm  Tm3  1  0.670043  0.340460  0.939651  1
  Ta  Ta4  1  0.164382  0.328544  0.750046  1
  Os  Os5  1  0.001234  0.002167  0.495008  1
  Os  Os6  1  0.001225  0.002149  0.004972  1
  Os  Os7  1  0.175613  0.828175  0.750062  1
  Os  Os8  1  0.653101  0.828600  0.750062  1
  Os  Os9  1  0.827786  0.655122  0.249943  1
  Os  Os10  1  0.825885  0.170999  0.249955  1
  Os  Os11  1  0.344578  0.171008  0.249955  1
