# generated using pymatgen
data_Hf16Co3CuRe4
_symmetry_space_group_name_H-M   'P 1'
_cell_length_a   8.62073944
_cell_length_b   8.65580066
_cell_length_c   8.65580100
_cell_angle_alpha   60.00000254
_cell_angle_beta   59.86537325
_cell_angle_gamma   59.86537728
_symmetry_Int_Tables_number   1
_chemical_formula_structural   Hf16Co3CuRe4
_chemical_formula_sum   'Hf16 Co3 Cu1 Re4'
_cell_volume   455.78214771
_cell_formula_units_Z   1
loop_
 _symmetry_equiv_pos_site_id
 _symmetry_equiv_pos_as_xyz
  1  'x, y, z'
loop_
 _atom_site_type_symbol
 _atom_site_label
 _atom_site_symmetry_multiplicity
 _atom_site_fract_x
 _atom_site_fract_y
 _atom_site_fract_z
 _atom_site_occupancy
  Hf  Hf0  1  0.703810  0.098730  0.098730  1
  Hf  Hf1  1  0.097674  0.689992  0.106166  1
  Hf  Hf2  1  0.097674  0.106166  0.689992  1
  Hf  Hf3  1  0.097674  0.106166  0.106166  1
  Hf  Hf4  1  0.314045  0.314587  0.685684  1
  Hf  Hf5  1  0.683979  0.685867  0.315077  1
  Hf  Hf6  1  0.314045  0.685684  0.314587  1
  Hf  Hf7  1  0.683979  0.315077  0.685867  1
  Hf  Hf8  1  0.683979  0.315077  0.315077  1
  Hf  Hf9  1  0.314045  0.685684  0.685684  1
  Hf  Hf10  1  0.951309  0.952854  0.547919  1
  Hf  Hf11  1  0.548975  0.533113  0.958956  1
  Hf  Hf12  1  0.951309  0.547919  0.952854  1
  Hf  Hf13  1  0.548975  0.958956  0.533113  1
  Hf  Hf14  1  0.548975  0.958956  0.958956  1
  Hf  Hf15  1  0.951309  0.547919  0.547919  1
  Co  Co16  1  0.892915  0.327939  0.889573  1
  Co  Co17  1  0.892915  0.889573  0.327939  1
  Co  Co18  1  0.892915  0.889573  0.889573  1
  Cu  Cu19  1  0.330957  0.889681  0.889681  1
  Re  Re20  1  0.001408  0.332864  0.332864  1
  Re  Re21  1  0.332377  0.001403  0.333110  1
  Re  Re22  1  0.332377  0.333110  0.001403  1
  Re  Re23  1  0.332377  0.333110  0.333110  1
