# generated using pymatgen
data_Tm5Be4P8Ir19
_symmetry_space_group_name_H-M   'P 1'
_cell_length_a   12.60378445
_cell_length_b   12.49557252
_cell_length_c   3.93131700
_cell_angle_alpha   90.00000000
_cell_angle_beta   90.00000000
_cell_angle_gamma   120.04055046
_symmetry_Int_Tables_number   1
_chemical_formula_structural   Tm5Be4P8Ir19
_chemical_formula_sum   'Tm5 Be4 P8 Ir19'
_cell_volume   535.97954923
_cell_formula_units_Z   1
loop_
 _symmetry_equiv_pos_site_id
 _symmetry_equiv_pos_as_xyz
  1  'x, y, z'
loop_
 _atom_site_type_symbol
 _atom_site_label
 _atom_site_symmetry_multiplicity
 _atom_site_fract_x
 _atom_site_fract_y
 _atom_site_fract_z
 _atom_site_occupancy
  Tm  Tm0  1  0.334371  0.667198  0.500000  1
  Tm  Tm1  1  0.677500  0.331444  0.500000  1
  Tm  Tm2  1  0.183286  0.191454  0.000000  1
  Tm  Tm3  1  0.808809  0.000168  0.000000  1
  Tm  Tm4  1  0.004859  0.815119  0.000000  1
  Be  Be5  1  0.314379  0.835099  0.000000  1
  Be  Be6  1  0.164678  0.478417  0.000000  1
  Be  Be7  1  0.520846  0.684500  0.000000  1
  Be  Be8  1  0.831085  0.308295  0.000000  1
  P  P9  1  0.485493  0.176363  0.000000  1
  P  P10  1  0.697061  0.517217  0.000000  1
  P  P11  1  0.361222  0.373742  0.500000  1
  P  P12  1  0.626938  0.993612  0.500000  1
  P  P13  1  0.007468  0.632024  0.500000  1
  P  P14  1  0.818329  0.820602  0.500000  1
  P  P15  1  0.181185  0.002106  0.500000  1
  P  P16  1  0.996008  0.180508  0.500000  1
  Ir  Ir17  1  0.194176  0.820379  0.500000  1
  Ir  Ir18  1  0.177586  0.375863  0.500000  1
  Ir  Ir19  1  0.625084  0.805458  0.500000  1
  Ir  Ir20  1  0.811282  0.186934  0.500000  1
  Ir  Ir21  1  0.376690  0.190526  0.500000  1
  Ir  Ir22  1  0.809162  0.623436  0.500000  1
  Ir  Ir23  1  0.127441  0.640965  0.000000  1
  Ir  Ir24  1  0.356856  0.484065  0.000000  1
  Ir  Ir25  1  0.512112  0.868415  0.000000  1
  Ir  Ir26  1  0.634057  0.128233  0.000000  1
  Ir  Ir27  1  0.500360  0.368082  0.000000  1
  Ir  Ir28  1  0.874846  0.509892  0.000000  1
  Ir  Ir29  1  0.546736  0.553982  0.500000  1
  Ir  Ir30  1  0.443513  0.991279  0.500000  1
  Ir  Ir31  1  0.995140  0.443066  0.500000  1
  Ir  Ir32  1  0.718863  0.714553  0.000000  1
  Ir  Ir33  1  0.286502  0.006864  0.000000  1
  Ir  Ir34  1  0.996136  0.280213  0.000000  1
  Ir  Ir35  1  0.999939  0.999926  0.500000  1
