# generated using pymatgen
data_Ho6CoCl10
_symmetry_space_group_name_H-M   'P 1'
_cell_length_a   7.04458505
_cell_length_b   8.71933606
_cell_length_c   8.76308951
_cell_angle_alpha   109.54068652
_cell_angle_beta   106.66470267
_cell_angle_gamma   96.83237344
_symmetry_Int_Tables_number   1
_chemical_formula_structural   Ho6CoCl10
_chemical_formula_sum   'Ho6 Co1 Cl10'
_cell_volume   471.99236695
_cell_formula_units_Z   1
loop_
 _symmetry_equiv_pos_site_id
 _symmetry_equiv_pos_as_xyz
  1  'x, y, z'
loop_
 _atom_site_type_symbol
 _atom_site_label
 _atom_site_symmetry_multiplicity
 _atom_site_fract_x
 _atom_site_fract_y
 _atom_site_fract_z
 _atom_site_occupancy
  Ho  Ho0  1  0.871738  0.239382  0.950820  1
  Ho  Ho1  1  0.128262  0.760618  0.049180  1
  Ho  Ho2  1  0.021713  0.894831  0.692657  1
  Ho  Ho3  1  0.978287  0.105169  0.307343  1
  Ho  Ho4  1  0.367496  0.193232  0.144780  1
  Ho  Ho5  1  0.632504  0.806768  0.855220  1
  Co  Co6  1  0.000000  0.000000  0.000000  1
  Cl  Cl7  1  0.907520  0.161812  0.628538  1
  Cl  Cl8  1  0.092480  0.838188  0.371462  1
  Cl  Cl9  1  0.451600  0.076189  0.828155  1
  Cl  Cl10  1  0.548400  0.923811  0.171845  1
  Cl  Cl11  1  0.203780  0.647146  0.742632  1
  Cl  Cl12  1  0.796220  0.352854  0.257368  1
  Cl  Cl13  1  0.244973  0.457677  0.080949  1
  Cl  Cl14  1  0.755027  0.542323  0.919051  1
  Cl  Cl15  1  0.637414  0.717736  0.537036  1
  Cl  Cl16  1  0.362586  0.282264  0.462964  1
