# generated using pymatgen
data_Nd2SmDy(MoO4)6
_symmetry_space_group_name_H-M   'P 1'
_cell_length_a   7.58458809
_cell_length_b   7.57879029
_cell_length_c   10.87399927
_cell_angle_alpha   89.78719633
_cell_angle_beta   90.05321557
_cell_angle_gamma   89.92269146
_symmetry_Int_Tables_number   1
_chemical_formula_structural   Nd2SmDy(MoO4)6
_chemical_formula_sum   'Nd2 Sm1 Dy1 Mo6 O24'
_cell_volume   625.05410199
_cell_formula_units_Z   1
loop_
 _symmetry_equiv_pos_site_id
 _symmetry_equiv_pos_as_xyz
  1  'x, y, z'
loop_
 _atom_site_type_symbol
 _atom_site_label
 _atom_site_symmetry_multiplicity
 _atom_site_fract_x
 _atom_site_fract_y
 _atom_site_fract_z
 _atom_site_occupancy
  Nd  Nd0  1  0.187812  0.687358  0.739102  1
  Nd  Nd1  1  0.685799  0.814293  0.260150  1
  Sm  Sm2  1  0.810371  0.309890  0.737508  1
  Dy  Dy3  1  0.308884  0.191189  0.264274  1
  Mo  Mo4  1  0.208874  0.706934  0.353260  1
  Mo  Mo5  1  0.792964  0.290952  0.355250  1
  Mo  Mo6  1  0.708306  0.792340  0.646208  1
  Mo  Mo7  1  0.291981  0.208880  0.639922  1
  Mo  Mo8  1  0.004088  0.006598  0.002153  1
  Mo  Mo9  1  0.497362  0.492909  0.002154  1
  O  O10  1  0.003483  0.222249  0.298524  1
  O  O11  1  0.998767  0.769217  0.294392  1
  O  O12  1  0.228140  0.999308  0.699153  1
  O  O13  1  0.499639  0.727489  0.705850  1
  O  O14  1  0.776526  0.000825  0.705150  1
  O  O15  1  0.501153  0.275993  0.698551  1
  O  O16  1  0.277882  0.496543  0.296514  1
  O  O17  1  0.731008  0.501431  0.296392  1
  O  O18  1  0.187112  0.053501  0.101320  1
  O  O19  1  0.812875  0.963584  0.093879  1
  O  O20  1  0.051123  0.817575  0.909332  1
  O  O21  1  0.310073  0.533860  0.905888  1
  O  O22  1  0.961866  0.190930  0.902817  1
  O  O23  1  0.683253  0.444912  0.906179  1
  O  O24  1  0.451986  0.310248  0.102416  1
  O  O25  1  0.541735  0.684765  0.092732  1
  O  O26  1  0.622455  0.132123  0.309284  1
  O  O27  1  0.367889  0.877930  0.307332  1
  O  O28  1  0.125320  0.370582  0.686831  1
  O  O29  1  0.870544  0.624928  0.692935  1
  O  O30  1  0.197430  0.696020  0.516620  1
  O  O31  1  0.803569  0.302223  0.518876  1
  O  O32  1  0.696257  0.804771  0.482956  1
  O  O33  1  0.303473  0.197653  0.476100  1
