# generated using pymatgen
data_CrGa2F6
_symmetry_space_group_name_H-M   'P 1'
_cell_length_a   5.18813517
_cell_length_b   5.06006122
_cell_length_c   7.23000048
_cell_angle_alpha   115.84817160
_cell_angle_beta   114.14443190
_cell_angle_gamma   68.59598251
_symmetry_Int_Tables_number   1
_chemical_formula_structural   CrGa2F6
_chemical_formula_sum   'Cr1 Ga2 F6'
_cell_volume   151.79384805
_cell_formula_units_Z   1
loop_
 _symmetry_equiv_pos_site_id
 _symmetry_equiv_pos_as_xyz
  1  'x, y, z'
loop_
 _atom_site_type_symbol
 _atom_site_label
 _atom_site_symmetry_multiplicity
 _atom_site_fract_x
 _atom_site_fract_y
 _atom_site_fract_z
 _atom_site_occupancy
  Cr  Cr0  1  0.370321  0.414827  0.891008  1
  Ga  Ga1  1  0.873712  0.906414  0.222885  1
  Ga  Ga2  1  0.867566  0.923401  0.558698  1
  F  F3  1  0.782570  0.239462  0.149398  1
  F  F4  1  0.619713  0.700976  0.970897  1
  F  F5  1  0.959056  0.589838  0.631697  1
  F  F6  1  0.121974  0.128052  0.810753  1
  F  F7  1  0.221757  0.695675  0.153757  1
  F  F8  1  0.519720  0.134519  0.628012  1
