# generated using pymatgen
data_Er3Tm7TlSb5
_symmetry_space_group_name_H-M   'P 1'
_cell_length_a   8.85671000
_cell_length_b   8.86956331
_cell_length_c   6.32035400
_cell_angle_alpha   90.00000000
_cell_angle_beta   90.00000000
_cell_angle_gamma   119.95207412
_symmetry_Int_Tables_number   1
_chemical_formula_structural   Er3Tm7TlSb5
_chemical_formula_sum   'Er3 Tm7 Tl1 Sb5'
_cell_volume   430.18595851
_cell_formula_units_Z   1
loop_
 _symmetry_equiv_pos_site_id
 _symmetry_equiv_pos_as_xyz
  1  'x, y, z'
loop_
 _atom_site_type_symbol
 _atom_site_label
 _atom_site_symmetry_multiplicity
 _atom_site_fract_x
 _atom_site_fract_y
 _atom_site_fract_z
 _atom_site_occupancy
  Er  Er0  1  0.997849  0.243556  0.250000  1
  Er  Er1  1  0.754293  0.756444  0.250000  1
  Er  Er2  1  0.241580  0.000000  0.250000  1
  Tm  Tm3  1  0.003987  0.759274  0.750000  1
  Tm  Tm4  1  0.758321  0.000000  0.750000  1
  Tm  Tm5  1  0.244713  0.240726  0.750000  1
  Tm  Tm6  1  0.333833  0.669004  0.499377  1
  Tm  Tm7  1  0.664829  0.330996  0.000623  1
  Tm  Tm8  1  0.664829  0.330996  0.499377  1
  Tm  Tm9  1  0.333833  0.669004  0.000623  1
  Tl  Tl10  1  0.394849  0.000000  0.750000  1
  Sb  Sb11  1  0.389440  0.391152  0.250000  1
  Sb  Sb12  1  0.998287  0.608848  0.250000  1
  Sb  Sb13  1  0.001042  0.390672  0.750000  1
  Sb  Sb14  1  0.610370  0.609328  0.750000  1
  Sb  Sb15  1  0.607944  0.000000  0.250000  1
