# generated using pymatgen
data_Dy2Er10OsRh3
_symmetry_space_group_name_H-M   'P 1'
_cell_length_a   6.32189821
_cell_length_b   7.22086435
_cell_length_c   9.13807100
_cell_angle_alpha   90.00000000
_cell_angle_beta   90.00000000
_cell_angle_gamma   90.13303805
_symmetry_Int_Tables_number   1
_chemical_formula_structural   Dy2Er10OsRh3
_chemical_formula_sum   'Dy2 Er10 Os1 Rh3'
_cell_volume   417.14788232
_cell_formula_units_Z   1
loop_
 _symmetry_equiv_pos_site_id
 _symmetry_equiv_pos_as_xyz
  1  'x, y, z'
loop_
 _atom_site_type_symbol
 _atom_site_label
 _atom_site_symmetry_multiplicity
 _atom_site_fract_x
 _atom_site_fract_y
 _atom_site_fract_z
 _atom_site_occupancy
  Dy  Dy0  1  0.872520  0.535641  0.250000  1
  Dy  Dy1  1  0.629835  0.034761  0.250000  1
  Er  Er2  1  0.333080  0.677063  0.058577  1
  Er  Er3  1  0.170596  0.178077  0.437455  1
  Er  Er4  1  0.671340  0.323988  0.564301  1
  Er  Er5  1  0.825658  0.820054  0.935116  1
  Er  Er6  1  0.671340  0.323988  0.935699  1
  Er  Er7  1  0.825658  0.820054  0.564884  1
  Er  Er8  1  0.333080  0.677063  0.441423  1
  Er  Er9  1  0.170596  0.178077  0.062545  1
  Er  Er10  1  0.128333  0.465719  0.750000  1
  Er  Er11  1  0.371851  0.965053  0.750000  1
  Os  Os12  1  0.539156  0.615601  0.750000  1
  Rh  Rh13  1  0.047375  0.885186  0.250000  1
  Rh  Rh14  1  0.453431  0.384334  0.250000  1
  Rh  Rh15  1  0.956155  0.115339  0.750000  1
