# generated using pymatgen
data_YAlCo2NiB
_symmetry_space_group_name_H-M   'P 1'
_cell_length_a   5.16155051
_cell_length_b   5.16154981
_cell_length_c   6.67497900
_cell_angle_alpha   90.00000000
_cell_angle_beta   90.00000000
_cell_angle_gamma   119.29201555
_symmetry_Int_Tables_number   1
_chemical_formula_structural   YAlCo2NiB
_chemical_formula_sum   'Y2 Al2 Co4 Ni2 B2'
_cell_volume   155.09405459
_cell_formula_units_Z   2
loop_
 _symmetry_equiv_pos_site_id
 _symmetry_equiv_pos_as_xyz
  1  'x, y, z'
loop_
 _atom_site_type_symbol
 _atom_site_label
 _atom_site_symmetry_multiplicity
 _atom_site_fract_x
 _atom_site_fract_y
 _atom_site_fract_z
 _atom_site_occupancy
  Y  Y0  1  0.000000  0.000000  0.500000  1
  Y  Y1  1  0.000000  0.000000  0.000000  1
  Al  Al2  1  0.330701  0.669299  0.000000  1
  Al  Al3  1  0.669299  0.330701  0.000000  1
  Co  Co4  1  0.500000  0.000000  0.295841  1
  Co  Co5  1  0.000000  0.500000  0.295841  1
  Co  Co6  1  0.500000  0.000000  0.704159  1
  Co  Co7  1  0.000000  0.500000  0.704159  1
  Ni  Ni8  1  0.500000  0.500000  0.293952  1
  Ni  Ni9  1  0.500000  0.500000  0.706048  1
  B  B10  1  0.672877  0.327123  0.500000  1
  B  B11  1  0.327123  0.672877  0.500000  1
