# generated using pymatgen
data_Tb5Nd3(HgPt)2
_symmetry_space_group_name_H-M   'P 1'
_cell_length_a   9.79382590
_cell_length_b   9.79382644
_cell_length_c   9.79382700
_cell_angle_alpha   60.00000150
_cell_angle_beta   59.99999966
_cell_angle_gamma   60.00000161
_symmetry_Int_Tables_number   1
_chemical_formula_structural   Tb5Nd3(HgPt)2
_chemical_formula_sum   'Tb10 Nd6 Hg4 Pt4'
_cell_volume   664.26630391
_cell_formula_units_Z   2
loop_
 _symmetry_equiv_pos_site_id
 _symmetry_equiv_pos_as_xyz
  1  'x, y, z'
loop_
 _atom_site_type_symbol
 _atom_site_label
 _atom_site_symmetry_multiplicity
 _atom_site_fract_x
 _atom_site_fract_y
 _atom_site_fract_z
 _atom_site_occupancy
  Tb  Tb0  1  0.351968  0.351968  0.351968  1
  Tb  Tb1  1  0.351968  0.351968  0.944094  1
  Tb  Tb2  1  0.351968  0.944094  0.351968  1
  Tb  Tb3  1  0.944094  0.351968  0.351968  1
  Tb  Tb4  1  0.810521  0.189479  0.189479  1
  Tb  Tb5  1  0.189479  0.810521  0.810521  1
  Tb  Tb6  1  0.189479  0.810521  0.189479  1
  Tb  Tb7  1  0.810521  0.189479  0.810521  1
  Tb  Tb8  1  0.189479  0.189479  0.810521  1
  Tb  Tb9  1  0.810521  0.810521  0.189479  1
  Nd  Nd10  1  0.938006  0.561994  0.561994  1
  Nd  Nd11  1  0.561994  0.938006  0.938006  1
  Nd  Nd12  1  0.561994  0.938006  0.561994  1
  Nd  Nd13  1  0.938006  0.561994  0.938006  1
  Nd  Nd14  1  0.561994  0.561994  0.938006  1
  Nd  Nd15  1  0.938006  0.938006  0.561994  1
  Hg  Hg16  1  0.583353  0.583353  0.583353  1
  Hg  Hg17  1  0.583353  0.583353  0.249942  1
  Hg  Hg18  1  0.583353  0.249942  0.583353  1
  Hg  Hg19  1  0.249942  0.583353  0.583353  1
  Pt  Pt20  1  0.143087  0.143087  0.143087  1
  Pt  Pt21  1  0.143087  0.143087  0.570739  1
  Pt  Pt22  1  0.143087  0.570739  0.143087  1
  Pt  Pt23  1  0.570739  0.143087  0.143087  1
