# generated using pymatgen
data_LaSm5CoP12Rh17
_symmetry_space_group_name_H-M   'P 1'
_cell_length_a   3.92747800
_cell_length_b   11.22764500
_cell_length_c   12.91035700
_cell_angle_alpha   90.00000000
_cell_angle_beta   90.00000000
_cell_angle_gamma   90.00000000
_symmetry_Int_Tables_number   1
_chemical_formula_structural   LaSm5CoP12Rh17
_chemical_formula_sum   'La1 Sm5 Co1 P12 Rh17'
_cell_volume   569.29934628
_cell_formula_units_Z   1
loop_
 _symmetry_equiv_pos_site_id
 _symmetry_equiv_pos_as_xyz
  1  'x, y, z'
loop_
 _atom_site_type_symbol
 _atom_site_label
 _atom_site_symmetry_multiplicity
 _atom_site_fract_x
 _atom_site_fract_y
 _atom_site_fract_z
 _atom_site_occupancy
  La  La0  1  0.000000  0.500000  0.522241  1
  Sm  Sm1  1  0.500000  0.000000  0.478945  1
  Sm  Sm2  1  0.500000  0.817967  0.203091  1
  Sm  Sm3  1  0.500000  0.182033  0.203091  1
  Sm  Sm4  1  0.000000  0.688558  0.797777  1
  Sm  Sm5  1  0.000000  0.311442  0.797777  1
  Co  Co6  1  0.500000  0.000000  0.020870  1
  P  P7  1  0.500000  0.500000  0.881639  1
  P  P8  1  0.000000  0.000000  0.118237  1
  P  P9  1  0.500000  0.500000  0.344461  1
  P  P10  1  0.000000  0.000000  0.649946  1
  P  P11  1  0.500000  0.311140  0.619288  1
  P  P12  1  0.500000  0.688860  0.619288  1
  P  P13  1  0.000000  0.185733  0.381606  1
  P  P14  1  0.000000  0.814267  0.381606  1
  P  P15  1  0.500000  0.856811  0.896818  1
  P  P16  1  0.500000  0.143189  0.896818  1
  P  P17  1  0.000000  0.655592  0.105557  1
  P  P18  1  0.000000  0.344408  0.105557  1
  Rh  Rh19  1  0.500000  0.500000  0.165458  1
  Rh  Rh20  1  0.000000  0.000000  0.829640  1
  Rh  Rh21  1  0.500000  0.500000  0.704306  1
  Rh  Rh22  1  0.000000  0.000000  0.297248  1
  Rh  Rh23  1  0.000000  0.500000  0.982168  1
  Rh  Rh24  1  0.500000  0.331200  0.994912  1
  Rh  Rh25  1  0.500000  0.668800  0.994912  1
  Rh  Rh26  1  0.000000  0.159791  0.004533  1
  Rh  Rh27  1  0.000000  0.840209  0.004533  1
  Rh  Rh28  1  0.500000  0.290536  0.429694  1
  Rh  Rh29  1  0.500000  0.709464  0.429694  1
  Rh  Rh30  1  0.000000  0.204119  0.569991  1
  Rh  Rh31  1  0.000000  0.795881  0.569991  1
  Rh  Rh32  1  0.500000  0.875307  0.711875  1
  Rh  Rh33  1  0.500000  0.124693  0.711875  1
  Rh  Rh34  1  0.000000  0.626298  0.287280  1
  Rh  Rh35  1  0.000000  0.373702  0.287280  1
