# generated using pymatgen
data_TbY3(TcB6)2
_symmetry_space_group_name_H-M   'P 1'
_cell_length_a   3.69625100
_cell_length_b   9.18127800
_cell_length_c   11.56832306
_cell_angle_alpha   89.99521785
_cell_angle_beta   90.00000000
_cell_angle_gamma   90.00000000
_symmetry_Int_Tables_number   1
_chemical_formula_structural   TbY3(TcB6)2
_chemical_formula_sum   'Tb2 Y6 Tc4 B24'
_cell_volume   392.58617299
_cell_formula_units_Z   2
loop_
 _symmetry_equiv_pos_site_id
 _symmetry_equiv_pos_as_xyz
  1  'x, y, z'
loop_
 _atom_site_type_symbol
 _atom_site_label
 _atom_site_symmetry_multiplicity
 _atom_site_fract_x
 _atom_site_fract_y
 _atom_site_fract_z
 _atom_site_occupancy
  Tb  Tb0  1  0.000000  0.324057  0.414129  1
  Tb  Tb1  1  0.000000  0.675943  0.585871  1
  Y  Y2  1  0.000000  0.823973  0.085709  1
  Y  Y3  1  0.000000  0.176027  0.914291  1
  Y  Y4  1  0.000000  0.942671  0.369093  1
  Y  Y5  1  0.000000  0.057329  0.630907  1
  Y  Y6  1  0.000000  0.442685  0.130631  1
  Y  Y7  1  0.000000  0.557315  0.869369  1
  Tc  Tc8  1  0.000000  0.638811  0.320516  1
  Tc  Tc9  1  0.000000  0.361189  0.679484  1
  Tc  Tc10  1  0.000000  0.138743  0.179345  1
  Tc  Tc11  1  0.000000  0.861257  0.820655  1
  B  B12  1  0.500000  0.553589  0.432561  1
  B  B13  1  0.500000  0.446411  0.567439  1
  B  B14  1  0.500000  0.053462  0.067245  1
  B  B15  1  0.500000  0.946538  0.932755  1
  B  B16  1  0.500000  0.748743  0.418223  1
  B  B17  1  0.500000  0.251257  0.581777  1
  B  B18  1  0.500000  0.248654  0.081589  1
  B  B19  1  0.500000  0.751346  0.918411  1
  B  B20  1  0.500000  0.791699  0.265190  1
  B  B21  1  0.500000  0.208301  0.734810  1
  B  B22  1  0.500000  0.291553  0.234573  1
  B  B23  1  0.500000  0.708447  0.765427  1
  B  B24  1  0.500000  0.631014  0.185718  1
  B  B25  1  0.500000  0.368986  0.814282  1
  B  B26  1  0.500000  0.130960  0.314050  1
  B  B27  1  0.500000  0.869040  0.685950  1
  B  B28  1  0.500000  0.982475  0.211415  1
  B  B29  1  0.500000  0.017525  0.788585  1
  B  B30  1  0.500000  0.482607  0.288355  1
  B  B31  1  0.500000  0.517393  0.711645  1
  B  B32  1  0.500000  0.600438  0.028095  1
  B  B33  1  0.500000  0.399562  0.971905  1
  B  B34  1  0.500000  0.099957  0.472029  1
  B  B35  1  0.500000  0.900043  0.527971  1
