# generated using pymatgen
data_Dy2Y14MgIn3Rh4
_symmetry_space_group_name_H-M   'P 1'
_cell_length_a   9.72239038
_cell_length_b   9.70006123
_cell_length_c   9.70377409
_cell_angle_alpha   60.07303120
_cell_angle_beta   60.05109718
_cell_angle_gamma   60.09279391
_symmetry_Int_Tables_number   1
_chemical_formula_structural   Dy2Y14MgIn3Rh4
_chemical_formula_sum   'Dy2 Y14 Mg1 In3 Rh4'
_cell_volume   648.16289586
_cell_formula_units_Z   1
loop_
 _symmetry_equiv_pos_site_id
 _symmetry_equiv_pos_as_xyz
  1  'x, y, z'
loop_
 _atom_site_type_symbol
 _atom_site_label
 _atom_site_symmetry_multiplicity
 _atom_site_fract_x
 _atom_site_fract_y
 _atom_site_fract_z
 _atom_site_occupancy
  Dy  Dy0  1  0.690085  0.310555  0.692328  1
  Dy  Dy1  1  0.545001  0.150587  0.149855  1
  Y  Y2  1  0.688945  0.311240  0.311787  1
  Y  Y3  1  0.687437  0.688778  0.314385  1
  Y  Y4  1  0.311368  0.689243  0.311906  1
  Y  Y5  1  0.935172  0.935422  0.563120  1
  Y  Y6  1  0.148033  0.147960  0.552148  1
  Y  Y7  1  0.562329  0.938282  0.560904  1
  Y  Y8  1  0.153428  0.153371  0.151573  1
  Y  Y9  1  0.309096  0.309584  0.691391  1
  Y  Y10  1  0.937750  0.561840  0.561566  1
  Y  Y11  1  0.562352  0.561270  0.937991  1
  Y  Y12  1  0.564117  0.937844  0.934550  1
  Y  Y13  1  0.936921  0.564191  0.934434  1
  Y  Y14  1  0.149736  0.546889  0.149512  1
  Y  Y15  1  0.309814  0.691471  0.692154  1
  Mg  Mg16  1  0.923991  0.924387  0.229838  1
  In  In17  1  0.249502  0.916344  0.918793  1
  In  In18  1  0.916851  0.248207  0.919691  1
  In  In19  1  0.916230  0.916169  0.917958  1
  Rh  Rh20  1  0.357282  0.355954  0.358425  1
  Rh  Rh21  1  0.924237  0.356911  0.362418  1
  Rh  Rh22  1  0.361988  0.356983  0.924317  1
  Rh  Rh23  1  0.358339  0.926520  0.358957  1
