# generated using pymatgen
data_Dy2Ga2IrPt
_symmetry_space_group_name_H-M   'P 1'
_cell_length_a   4.42090200
_cell_length_b   6.83470400
_cell_length_c   7.70681600
_cell_angle_alpha   90.00000000
_cell_angle_beta   90.00000000
_cell_angle_gamma   90.00000000
_symmetry_Int_Tables_number   1
_chemical_formula_structural   Dy2Ga2IrPt
_chemical_formula_sum   'Dy4 Ga4 Ir2 Pt2'
_cell_volume   232.86573492
_cell_formula_units_Z   2
loop_
 _symmetry_equiv_pos_site_id
 _symmetry_equiv_pos_as_xyz
  1  'x, y, z'
loop_
 _atom_site_type_symbol
 _atom_site_label
 _atom_site_symmetry_multiplicity
 _atom_site_fract_x
 _atom_site_fract_y
 _atom_site_fract_z
 _atom_site_occupancy
  Dy  Dy0  1  0.250000  0.979321  0.308465  1
  Dy  Dy1  1  0.250000  0.479321  0.191535  1
  Dy  Dy2  1  0.750000  0.013553  0.698631  1
  Dy  Dy3  1  0.750000  0.513553  0.801369  1
  Ga  Ga4  1  0.250000  0.335107  0.576048  1
  Ga  Ga5  1  0.250000  0.835107  0.923952  1
  Ga  Ga6  1  0.750000  0.670551  0.428413  1
  Ga  Ga7  1  0.750000  0.170551  0.071587  1
  Ir  Ir8  1  0.250000  0.226823  0.899099  1
  Ir  Ir9  1  0.250000  0.726823  0.600901  1
  Pt  Pt10  1  0.750000  0.774645  0.101254  1
  Pt  Pt11  1  0.750000  0.274645  0.398746  1
