# generated using pymatgen
data_Hf5Ta6NbGa10Os7
_symmetry_space_group_name_H-M   'P 1'
_cell_length_a   8.91058199
_cell_length_b   8.87085609
_cell_length_c   8.87085645
_cell_angle_alpha   59.49578368
_cell_angle_beta   59.85172822
_cell_angle_gamma   59.85173422
_symmetry_Int_Tables_number   1
_chemical_formula_structural   Hf5Ta6NbGa10Os7
_chemical_formula_sum   'Hf5 Ta6 Nb1 Ga10 Os7'
_cell_volume   492.79956089
_cell_formula_units_Z   1
loop_
 _symmetry_equiv_pos_site_id
 _symmetry_equiv_pos_as_xyz
  1  'x, y, z'
loop_
 _atom_site_type_symbol
 _atom_site_label
 _atom_site_symmetry_multiplicity
 _atom_site_fract_x
 _atom_site_fract_y
 _atom_site_fract_z
 _atom_site_occupancy
  Hf  Hf0  1  0.683658  0.696936  0.311839  1
  Hf  Hf1  1  0.307567  0.696936  0.311839  1
  Hf  Hf2  1  0.696798  0.303202  0.303202  1
  Hf  Hf3  1  0.307567  0.311839  0.696936  1
  Hf  Hf4  1  0.683658  0.311839  0.696936  1
  Ta  Ta5  1  0.875377  0.880269  0.368977  1
  Ta  Ta6  1  0.875377  0.368977  0.880269  1
  Ta  Ta7  1  0.376321  0.875748  0.875748  1
  Ta  Ta8  1  0.872184  0.875748  0.875748  1
  Ta  Ta9  1  0.127179  0.125813  0.619829  1
  Ta  Ta10  1  0.127179  0.619829  0.125813  1
  Nb  Nb11  1  0.311531  0.688469  0.688469  1
  Ga  Ga12  1  0.645937  0.118575  0.118575  1
  Ga  Ga13  1  0.116913  0.118575  0.118575  1
  Ga  Ga14  1  0.654513  0.651038  0.039936  1
  Ga  Ga15  1  0.654513  0.039936  0.651038  1
  Ga  Ga16  1  0.033752  0.655818  0.655818  1
  Ga  Ga17  1  0.654613  0.655818  0.655818  1
  Ga  Ga18  1  0.340503  0.340117  0.978878  1
  Ga  Ga19  1  0.340503  0.978878  0.340117  1
  Ga  Ga20  1  0.960006  0.345828  0.345828  1
  Ga  Ga21  1  0.348339  0.345828  0.345828  1
  Os  Os22  1  0.011951  0.988049  0.988049  1
  Os  Os23  1  0.999861  0.997872  0.505174  1
  Os  Os24  1  0.497094  0.997872  0.505174  1
  Os  Os25  1  0.998775  0.501225  0.501225  1
  Os  Os26  1  0.497094  0.505174  0.997872  1
  Os  Os27  1  0.999861  0.505174  0.997872  1
  Os  Os28  1  0.501378  0.998622  0.998622  1
