# generated using pymatgen
data_TmHf4(Re7Tc)3
_symmetry_space_group_name_H-M   'P 1'
_cell_length_a   8.48802931
_cell_length_b   8.48296895
_cell_length_c   8.48296119
_cell_angle_alpha   109.46194763
_cell_angle_beta   109.48319147
_cell_angle_gamma   109.48302178
_symmetry_Int_Tables_number   1
_chemical_formula_structural   TmHf4(Re7Tc)3
_chemical_formula_sum   'Tm1 Hf4 Re21 Tc3'
_cell_volume   470.11335323
_cell_formula_units_Z   1
loop_
 _symmetry_equiv_pos_site_id
 _symmetry_equiv_pos_as_xyz
  1  'x, y, z'
loop_
 _atom_site_type_symbol
 _atom_site_label
 _atom_site_symmetry_multiplicity
 _atom_site_fract_x
 _atom_site_fract_y
 _atom_site_fract_z
 _atom_site_occupancy
  Tm  Tm0  1  0.999831  0.999996  0.999997  1
  Hf  Hf1  1  0.626467  0.999961  0.999963  1
  Hf  Hf2  1  0.999959  0.628249  0.000001  1
  Hf  Hf3  1  0.999957  0.000000  0.628245  1
  Hf  Hf4  1  0.371702  0.371751  0.371751  1
  Re  Re5  1  0.676031  0.396153  0.999988  1
  Re  Re6  1  0.000702  0.396784  0.676850  1
  Re  Re7  1  0.323843  0.719939  0.323143  1
  Re  Re8  1  0.323847  0.323144  0.719942  1
  Re  Re9  1  0.000702  0.676850  0.396785  1
  Re  Re10  1  0.676025  0.999981  0.396148  1
  Re  Re11  1  0.603913  0.603213  0.280054  1
  Re  Re12  1  0.279881  0.603836  0.603836  1
  Re  Re13  1  0.603914  0.280055  0.603216  1
  Re  Re14  1  0.376534  0.195211  0.000009  1
  Re  Re15  1  0.181311  0.804779  0.804780  1
  Re  Re16  1  0.376533  0.000011  0.195212  1
  Re  Re17  1  0.194770  0.378050  0.999997  1
  Re  Re18  1  0.000374  0.377352  0.194132  1
  Re  Re19  1  0.806254  0.183224  0.805849  1
  Re  Re20  1  0.806251  0.805846  0.183222  1
  Re  Re21  1  0.000372  0.194134  0.377352  1
  Re  Re22  1  0.194768  0.999996  0.378051  1
  Re  Re23  1  0.623034  0.622632  0.816777  1
  Re  Re24  1  0.816721  0.621962  0.621962  1
  Re  Re25  1  0.623032  0.816770  0.622626  1
  Tc  Tc26  1  0.396954  0.677638  0.000014  1
  Tc  Tc27  1  0.719363  0.322460  0.322457  1
  Tc  Tc28  1  0.396956  0.000020  0.677640  1
