# generated using pymatgen
data_Nb6Al3PdN2
_symmetry_space_group_name_H-M   'P 1'
_cell_length_a   7.06448435
_cell_length_b   7.07977013
_cell_length_c   7.08137400
_cell_angle_alpha   90.00000000
_cell_angle_beta   90.00000000
_cell_angle_gamma   90.31215718
_symmetry_Int_Tables_number   1
_chemical_formula_structural   Nb6Al3PdN2
_chemical_formula_sum   'Nb12 Al6 Pd2 N4'
_cell_volume   354.16913512
_cell_formula_units_Z   2
loop_
 _symmetry_equiv_pos_site_id
 _symmetry_equiv_pos_as_xyz
  1  'x, y, z'
loop_
 _atom_site_type_symbol
 _atom_site_label
 _atom_site_symmetry_multiplicity
 _atom_site_fract_x
 _atom_site_fract_y
 _atom_site_fract_z
 _atom_site_occupancy
  Nb  Nb0  1  0.789782  0.957777  0.377430  1
  Nb  Nb1  1  0.710218  0.042223  0.877430  1
  Nb  Nb2  1  0.206614  0.453856  0.125805  1
  Nb  Nb3  1  0.293386  0.546144  0.625805  1
  Nb  Nb4  1  0.955263  0.380849  0.790694  1
  Nb  Nb5  1  0.040792  0.868999  0.709194  1
  Nb  Nb6  1  0.459208  0.131001  0.209194  1
  Nb  Nb7  1  0.544737  0.619151  0.290694  1
  Nb  Nb8  1  0.380224  0.788493  0.954723  1
  Nb  Nb9  1  0.871215  0.707166  0.042026  1
  Nb  Nb10  1  0.119776  0.211507  0.454723  1
  Nb  Nb11  1  0.628785  0.292834  0.542026  1
  Al  Al12  1  0.824092  0.320986  0.176315  1
  Al  Al13  1  0.675908  0.679014  0.676315  1
  Al  Al14  1  0.562608  0.420395  0.925741  1
  Al  Al15  1  0.418726  0.933957  0.570826  1
  Al  Al16  1  0.937392  0.579605  0.425741  1
  Al  Al17  1  0.081274  0.066043  0.070826  1
  Pd  Pd18  1  0.182456  0.823047  0.317878  1
  Pd  Pd19  1  0.317544  0.176953  0.817878  1
  N  N20  1  0.879296  0.122293  0.628947  1
  N  N21  1  0.620704  0.877707  0.128947  1
  N  N22  1  0.127436  0.624671  0.880422  1
  N  N23  1  0.372564  0.375329  0.380422  1
