# generated using pymatgen
data_TbDy3(SeO3)6
_symmetry_space_group_name_H-M   'P 1'
_cell_length_a   7.11893657
_cell_length_b   8.17215784
_cell_length_c   9.11359976
_cell_angle_alpha   71.36838448
_cell_angle_beta   70.00326999
_cell_angle_gamma   66.09413063
_symmetry_Int_Tables_number   1
_chemical_formula_structural   TbDy3(SeO3)6
_chemical_formula_sum   'Tb1 Dy3 Se6 O18'
_cell_volume   445.28180992
_cell_formula_units_Z   1
loop_
 _symmetry_equiv_pos_site_id
 _symmetry_equiv_pos_as_xyz
  1  'x, y, z'
loop_
 _atom_site_type_symbol
 _atom_site_label
 _atom_site_symmetry_multiplicity
 _atom_site_fract_x
 _atom_site_fract_y
 _atom_site_fract_z
 _atom_site_occupancy
  Tb  Tb0  1  0.334784  0.727179  0.589872  1
  Dy  Dy1  1  0.665274  0.272847  0.409635  1
  Dy  Dy2  1  0.741580  0.735649  0.798195  1
  Dy  Dy3  1  0.258317  0.264426  0.201868  1
  Se  Se4  1  0.427468  0.775073  0.198409  1
  Se  Se5  1  0.572816  0.224467  0.801478  1
  Se  Se6  1  0.148220  0.749582  0.964707  1
  Se  Se7  1  0.851672  0.250502  0.035479  1
  Se  Se8  1  0.886416  0.760913  0.414797  1
  Se  Se9  1  0.113429  0.239803  0.584897  1
  O  O10  1  0.648673  0.791429  0.051076  1
  O  O11  1  0.351307  0.208643  0.948917  1
  O  O12  1  0.361176  0.943221  0.303792  1
  O  O13  1  0.639086  0.056593  0.695937  1
  O  O14  1  0.517975  0.594212  0.350809  1
  O  O15  1  0.482995  0.404572  0.648511  1
  O  O16  1  0.167191  0.566146  0.119968  1
  O  O17  1  0.832831  0.433742  0.880157  1
  O  O18  1  0.407876  0.710442  0.849152  1
  O  O19  1  0.592087  0.289543  0.151323  1
  O  O20  1  0.343647  0.252718  0.436267  1
  O  O21  1  0.657154  0.747368  0.563706  1
  O  O22  1  0.967805  0.292057  0.445105  1
  O  O23  1  0.031757  0.707759  0.554759  1
  O  O24  1  0.159247  0.013002  0.653444  1
  O  O25  1  0.839998  0.988177  0.346949  1
  O  O26  1  0.932682  0.305969  0.167994  1
  O  O27  1  0.066534  0.693967  0.832799  1
