# generated using pymatgen
data_Nd2Co9Si3Tc3P4
_symmetry_space_group_name_H-M   'P 1'
_cell_length_a   3.74904400
_cell_length_b   9.18591268
_cell_length_c   9.16505833
_cell_angle_alpha   120.07072295
_cell_angle_beta   90.00000000
_cell_angle_gamma   90.00000000
_symmetry_Int_Tables_number   1
_chemical_formula_structural   Nd2Co9Si3Tc3P4
_chemical_formula_sum   'Nd2 Co9 Si3 Tc3 P4'
_cell_volume   273.14847076
_cell_formula_units_Z   1
loop_
 _symmetry_equiv_pos_site_id
 _symmetry_equiv_pos_as_xyz
  1  'x, y, z'
loop_
 _atom_site_type_symbol
 _atom_site_label
 _atom_site_symmetry_multiplicity
 _atom_site_fract_x
 _atom_site_fract_y
 _atom_site_fract_z
 _atom_site_occupancy
  Nd  Nd0  1  0.000000  0.667886  0.335479  1
  Nd  Nd1  1  0.500000  0.335148  0.666508  1
  Co  Co2  1  0.000000  0.568487  0.938426  1
  Co  Co3  1  0.000000  0.371635  0.432344  1
  Co  Co4  1  0.000000  0.060956  0.629373  1
  Co  Co5  1  0.000000  0.876565  0.159613  1
  Co  Co6  1  0.000000  0.278889  0.121179  1
  Co  Co7  1  0.000000  0.843144  0.716982  1
  Co  Co8  1  0.500000  0.953207  0.390300  1
  Co  Co9  1  0.500000  0.429813  0.044887  1
  Co  Co10  1  0.500000  0.619209  0.568881  1
  Si  Si11  1  0.000000  0.999163  0.000393  1
  Si  Si12  1  0.500000  0.707392  0.111256  1
  Si  Si13  1  0.500000  0.402067  0.291054  1
  Tc  Tc14  1  0.500000  0.782840  0.899201  1
  Tc  Tc15  1  0.500000  0.114941  0.219058  1
  Tc  Tc16  1  0.500000  0.097132  0.877761  1
  P  P17  1  0.500000  0.888421  0.596698  1
  P  P18  1  0.000000  0.594978  0.699774  1
  P  P19  1  0.000000  0.106046  0.405957  1
  P  P20  1  0.000000  0.302081  0.894875  1
