# generated using pymatgen
data_Ru2F11
_symmetry_space_group_name_H-M   'P 1'
_cell_length_a   6.78205700
_cell_length_b   8.22853257
_cell_length_c   8.23779254
_cell_angle_alpha   86.31225649
_cell_angle_beta   90.00000000
_cell_angle_gamma   90.00000000
_symmetry_Int_Tables_number   1
_chemical_formula_structural   Ru2F11
_chemical_formula_sum   'Ru4 F22'
_cell_volume   458.76945626
_cell_formula_units_Z   2
loop_
 _symmetry_equiv_pos_site_id
 _symmetry_equiv_pos_as_xyz
  1  'x, y, z'
loop_
 _atom_site_type_symbol
 _atom_site_label
 _atom_site_symmetry_multiplicity
 _atom_site_fract_x
 _atom_site_fract_y
 _atom_site_fract_z
 _atom_site_occupancy
  Ru  Ru0  1  0.009839  0.819538  0.179446  1
  Ru  Ru1  1  0.009839  0.180462  0.820554  1
  Ru  Ru2  1  0.513886  0.331173  0.327764  1
  Ru  Ru3  1  0.513886  0.668827  0.672236  1
  F  F4  1  0.023040  0.344111  0.657144  1
  F  F5  1  0.023040  0.655889  0.342856  1
  F  F6  1  0.294118  0.766983  0.572679  1
  F  F7  1  0.000920  0.018862  0.673604  1
  F  F8  1  0.989124  0.000000  0.000000  1
  F  F9  1  0.350423  0.468252  0.199588  1
  F  F10  1  0.019196  0.326478  0.983068  1
  F  F11  1  0.282677  0.160444  0.829858  1
  F  F12  1  0.504563  0.500000  0.500000  1
  F  F13  1  0.736009  0.811938  0.176073  1
  F  F14  1  0.000920  0.981138  0.326396  1
  F  F15  1  0.520053  0.179086  0.172555  1
  F  F16  1  0.733789  0.561739  0.761837  1
  F  F17  1  0.282677  0.839556  0.170142  1
  F  F18  1  0.678007  0.205156  0.466299  1
  F  F19  1  0.019196  0.673522  0.016932  1
  F  F20  1  0.736009  0.188062  0.823927  1
  F  F21  1  0.520053  0.820914  0.827445  1
  F  F22  1  0.678007  0.794844  0.533701  1
  F  F23  1  0.350423  0.531748  0.800412  1
  F  F24  1  0.733789  0.438261  0.238163  1
  F  F25  1  0.294118  0.233017  0.427321  1
