# generated using pymatgen
data_Ac3InSn2Pt3
_symmetry_space_group_name_H-M   'P 1'
_cell_length_a   7.88347700
_cell_length_b   7.88585822
_cell_length_c   4.27734700
_cell_angle_alpha   90.00000000
_cell_angle_beta   90.00000000
_cell_angle_gamma   120.00997487
_symmetry_Int_Tables_number   1
_chemical_formula_structural   Ac3InSn2Pt3
_chemical_formula_sum   'Ac3 In1 Sn2 Pt3'
_cell_volume   230.26515528
_cell_formula_units_Z   1
loop_
 _symmetry_equiv_pos_site_id
 _symmetry_equiv_pos_as_xyz
  1  'x, y, z'
loop_
 _atom_site_type_symbol
 _atom_site_label
 _atom_site_symmetry_multiplicity
 _atom_site_fract_x
 _atom_site_fract_y
 _atom_site_fract_z
 _atom_site_occupancy
  Ac  Ac0  1  0.585689  0.584593  0.000000  1
  Ac  Ac1  1  0.414311  0.998904  0.000000  1
  Ac  Ac2  1  0.000000  0.415842  0.000000  1
  In  In3  1  0.000000  0.756391  0.500000  1
  Sn  Sn4  1  0.243279  0.240691  0.500000  1
  Sn  Sn5  1  0.756721  0.997412  0.500000  1
  Pt  Pt6  1  0.666760  0.333758  0.500000  1
  Pt  Pt7  1  0.000000  0.005412  0.000000  1
  Pt  Pt8  1  0.333240  0.666999  0.500000  1
