# generated using pymatgen
data_Li4Nd4Sn3Bi
_symmetry_space_group_name_H-M   'P 1'
_cell_length_a   9.60055017
_cell_length_b   9.59430624
_cell_length_c   7.64602462
_cell_angle_alpha   90.00000426
_cell_angle_beta   90.08239293
_cell_angle_gamma   119.97848802
_symmetry_Int_Tables_number   1
_chemical_formula_structural   Li4Nd4Sn3Bi
_chemical_formula_sum   'Li8 Nd8 Sn6 Bi2'
_cell_volume   610.05574886
_cell_formula_units_Z   2
loop_
 _symmetry_equiv_pos_site_id
 _symmetry_equiv_pos_as_xyz
  1  'x, y, z'
loop_
 _atom_site_type_symbol
 _atom_site_label
 _atom_site_symmetry_multiplicity
 _atom_site_fract_x
 _atom_site_fract_y
 _atom_site_fract_z
 _atom_site_occupancy
  Li  Li0  1  0.167446  0.333867  0.285007  1
  Li  Li1  1  0.167446  0.833579  0.285007  1
  Li  Li2  1  0.665724  0.832862  0.287261  1
  Li  Li3  1  0.830028  0.664934  0.788041  1
  Li  Li4  1  0.830028  0.165094  0.788041  1
  Li  Li5  1  0.336383  0.168191  0.790165  1
  Li  Li6  1  0.336555  0.668278  0.664394  1
  Li  Li7  1  0.666434  0.333216  0.167410  1
  Nd  Nd8  1  0.517301  0.026911  0.492226  1
  Nd  Nd9  1  0.517301  0.490390  0.492226  1
  Nd  Nd10  1  0.970438  0.485220  0.490105  1
  Nd  Nd11  1  0.491938  0.977726  0.997216  1
  Nd  Nd12  1  0.491938  0.514212  0.997216  1
  Nd  Nd13  1  0.020296  0.510147  0.999143  1
  Nd  Nd14  1  0.995232  0.997616  0.495407  1
  Nd  Nd15  1  0.995855  0.997928  0.003344  1
  Sn  Sn16  1  0.666457  0.833229  0.730730  1
  Sn  Sn17  1  0.833453  0.666456  0.230967  1
  Sn  Sn18  1  0.833453  0.166996  0.230967  1
  Sn  Sn19  1  0.333633  0.166816  0.230531  1
  Sn  Sn20  1  0.332921  0.666461  0.265892  1
  Sn  Sn21  1  0.667121  0.333560  0.765983  1
  Bi  Bi22  1  0.166309  0.333732  0.732349  1
  Bi  Bi23  1  0.166309  0.832578  0.732349  1
