# generated using pymatgen
data_Dy6Er4In8Pt3Rh
_symmetry_space_group_name_H-M   'P 1'
_cell_length_a   3.62305600
_cell_length_b   8.13240229
_cell_length_c   18.22383414
_cell_angle_alpha   90.03945726
_cell_angle_beta   90.00000000
_cell_angle_gamma   90.00000000
_symmetry_Int_Tables_number   1
_chemical_formula_structural   Dy6Er4In8Pt3Rh
_chemical_formula_sum   'Dy6 Er4 In8 Pt3 Rh1'
_cell_volume   536.94963568
_cell_formula_units_Z   1
loop_
 _symmetry_equiv_pos_site_id
 _symmetry_equiv_pos_as_xyz
  1  'x, y, z'
loop_
 _atom_site_type_symbol
 _atom_site_label
 _atom_site_symmetry_multiplicity
 _atom_site_fract_x
 _atom_site_fract_y
 _atom_site_fract_z
 _atom_site_occupancy
  Dy  Dy0  1  0.000000  0.239878  0.221689  1
  Dy  Dy1  1  0.000000  0.757095  0.779526  1
  Dy  Dy2  1  0.000000  0.256711  0.720839  1
  Dy  Dy3  1  0.000000  0.750507  0.279297  1
  Dy  Dy4  1  0.000000  0.999926  0.000054  1
  Dy  Dy5  1  0.000000  0.500192  0.499818  1
  Er  Er6  1  0.000000  0.114720  0.412250  1
  Er  Er7  1  0.000000  0.882804  0.585248  1
  Er  Er8  1  0.000000  0.383260  0.914812  1
  Er  Er9  1  0.000000  0.616760  0.086003  1
  In  In10  1  0.500000  0.423383  0.351441  1
  In  In11  1  0.500000  0.575363  0.648511  1
  In  In12  1  0.500000  0.075573  0.851569  1
  In  In13  1  0.500000  0.927168  0.149348  1
  In  In14  1  0.500000  0.292412  0.066857  1
  In  In15  1  0.500000  0.707213  0.933486  1
  In  In16  1  0.500000  0.207006  0.566412  1
  In  In17  1  0.500000  0.793672  0.431776  1
  Pt  Pt18  1  0.500000  0.974602  0.696070  1
  Pt  Pt19  1  0.500000  0.474801  0.803834  1
  Pt  Pt20  1  0.500000  0.523758  0.196574  1
  Rh  Rh21  1  0.500000  0.023194  0.304585  1
