# generated using pymatgen
data_DyY2Si4Ge
_symmetry_space_group_name_H-M   'P 1'
_cell_length_a   6.73098600
_cell_length_b   6.73098498
_cell_length_c   8.28857900
_cell_angle_alpha   89.99964170
_cell_angle_beta   90.00035849
_cell_angle_gamma   119.93391771
_symmetry_Int_Tables_number   1
_chemical_formula_structural   DyY2Si4Ge
_chemical_formula_sum   'Dy2 Y4 Si8 Ge2'
_cell_volume   325.42943249
_cell_formula_units_Z   2
loop_
 _symmetry_equiv_pos_site_id
 _symmetry_equiv_pos_as_xyz
  1  'x, y, z'
loop_
 _atom_site_type_symbol
 _atom_site_label
 _atom_site_symmetry_multiplicity
 _atom_site_fract_x
 _atom_site_fract_y
 _atom_site_fract_z
 _atom_site_occupancy
  Dy  Dy0  1  0.328918  0.994583  0.500914  1
  Dy  Dy1  1  0.994583  0.328918  0.499086  1
  Y  Y2  1  0.672175  0.672175  0.000000  1
  Y  Y3  1  0.328920  0.994585  0.999070  1
  Y  Y4  1  0.994585  0.328920  0.000930  1
  Y  Y5  1  0.672182  0.672182  0.500000  1
  Si  Si6  1  0.668458  0.331908  0.749936  1
  Si  Si7  1  0.331908  0.668458  0.250064  1
  Si  Si8  1  0.996629  0.996569  0.749951  1
  Si  Si9  1  0.996569  0.996629  0.250049  1
  Si  Si10  1  0.623530  0.954717  0.749955  1
  Si  Si11  1  0.045261  0.668121  0.749938  1
  Si  Si12  1  0.954717  0.623530  0.250045  1
  Si  Si13  1  0.668121  0.045261  0.250062  1
  Ge  Ge14  1  0.330719  0.392729  0.749949  1
  Ge  Ge15  1  0.392729  0.330719  0.250051  1
