# generated using pymatgen
data_K6GaSe4Br
_symmetry_space_group_name_H-M   'P 1'
_cell_length_a   10.73667900
_cell_length_b   10.73668082
_cell_length_c   8.05357600
_cell_angle_alpha   90.00000000
_cell_angle_beta   90.00000000
_cell_angle_gamma   120.00000364
_symmetry_Int_Tables_number   1
_chemical_formula_structural   K6GaSe4Br
_chemical_formula_sum   'K12 Ga2 Se8 Br2'
_cell_volume   804.00618314
_cell_formula_units_Z   2
loop_
 _symmetry_equiv_pos_site_id
 _symmetry_equiv_pos_as_xyz
  1  'x, y, z'
loop_
 _atom_site_type_symbol
 _atom_site_label
 _atom_site_symmetry_multiplicity
 _atom_site_fract_x
 _atom_site_fract_y
 _atom_site_fract_z
 _atom_site_occupancy
  K  K0  1  0.136918  0.863082  0.510895  1
  K  K1  1  0.726161  0.863082  0.510895  1
  K  K2  1  0.945509  0.472754  0.321505  1
  K  K3  1  0.527246  0.472754  0.321505  1
  K  K4  1  0.863082  0.726161  0.010895  1
  K  K5  1  0.273839  0.136918  0.010895  1
  K  K6  1  0.527246  0.054491  0.321505  1
  K  K7  1  0.136918  0.273839  0.510895  1
  K  K8  1  0.863082  0.136918  0.010895  1
  K  K9  1  0.054491  0.527246  0.821505  1
  K  K10  1  0.472754  0.945509  0.821505  1
  K  K11  1  0.472754  0.527246  0.821505  1
  Ga  Ga12  1  0.666667  0.333333  0.709505  1
  Ga  Ga13  1  0.333333  0.666667  0.209505  1
  Se  Se14  1  0.415206  0.207603  0.612865  1
  Se  Se15  1  0.584794  0.792397  0.112865  1
  Se  Se16  1  0.666667  0.333333  0.023583  1
  Se  Se17  1  0.792397  0.584794  0.612865  1
  Se  Se18  1  0.207603  0.415206  0.112865  1
  Se  Se19  1  0.333333  0.666667  0.523583  1
  Se  Se20  1  0.207603  0.792397  0.112865  1
  Se  Se21  1  0.792397  0.207603  0.612865  1
  Br  Br22  1  0.000000  0.000000  0.271718  1
  Br  Br23  1  0.000000  0.000000  0.771718  1
