# generated using pymatgen
data_BaPu(Ni2B)12
_symmetry_space_group_name_H-M   'P 1'
_cell_length_a   6.08614219
_cell_length_b   6.08614278
_cell_length_c   11.11856578
_cell_angle_alpha   89.89835298
_cell_angle_beta   89.89836074
_cell_angle_gamma   104.78693738
_symmetry_Int_Tables_number   1
_chemical_formula_structural   BaPu(Ni2B)12
_chemical_formula_sum   'Ba1 Pu1 Ni24 B12'
_cell_volume   398.20294010
_cell_formula_units_Z   1
loop_
 _symmetry_equiv_pos_site_id
 _symmetry_equiv_pos_as_xyz
  1  'x, y, z'
loop_
 _atom_site_type_symbol
 _atom_site_label
 _atom_site_symmetry_multiplicity
 _atom_site_fract_x
 _atom_site_fract_y
 _atom_site_fract_z
 _atom_site_occupancy
  Ba  Ba0  1  0.166894  0.166894  0.003197  1
  Pu  Pu1  1  0.833362  0.833362  0.497873  1
  Ni  Ni2  1  0.575952  0.575952  0.912655  1
  Ni  Ni3  1  0.433958  0.433958  0.418001  1
  Ni  Ni4  1  0.771131  0.771131  0.101052  1
  Ni  Ni5  1  0.218681  0.218681  0.598480  1
  Ni  Ni6  1  0.540460  0.804709  0.731947  1
  Ni  Ni7  1  0.804709  0.540460  0.731947  1
  Ni  Ni8  1  0.463655  0.195388  0.238693  1
  Ni  Ni9  1  0.195388  0.463655  0.238693  1
  Ni  Ni10  1  0.145523  0.877679  0.753036  1
  Ni  Ni11  1  0.877679  0.145523  0.753036  1
  Ni  Ni12  1  0.852828  0.118431  0.260087  1
  Ni  Ni13  1  0.118431  0.852828  0.260087  1
  Ni  Ni14  1  0.658305  0.272622  0.566227  1
  Ni  Ni15  1  0.272622  0.658305  0.566227  1
  Ni  Ni16  1  0.346325  0.723094  0.067533  1
  Ni  Ni17  1  0.723094  0.346325  0.067533  1
  Ni  Ni18  1  0.627989  0.993533  0.935874  1
  Ni  Ni19  1  0.993533  0.627989  0.935874  1
  Ni  Ni20  1  0.370138  0.005472  0.437903  1
  Ni  Ni21  1  0.005472  0.370138  0.437903  1
  Ni  Ni22  1  0.476827  0.210707  0.769609  1
  Ni  Ni23  1  0.210707  0.476827  0.769609  1
  Ni  Ni24  1  0.526271  0.791530  0.277530  1
  Ni  Ni25  1  0.791530  0.526271  0.277530  1
  B  B26  1  0.833283  0.833283  0.828888  1
  B  B27  1  0.164344  0.164344  0.336256  1
  B  B28  1  0.487049  0.487049  0.654793  1
  B  B29  1  0.516167  0.516167  0.168039  1
  B  B30  1  0.323521  0.744174  0.884158  1
  B  B31  1  0.744174  0.323521  0.884158  1
  B  B32  1  0.675906  0.245584  0.387069  1
  B  B33  1  0.245584  0.675906  0.387069  1
  B  B34  1  0.399674  0.987162  0.620572  1
  B  B35  1  0.987162  0.399674  0.620572  1
  B  B36  1  0.606792  0.014879  0.123145  1
  B  B37  1  0.014879  0.606792  0.123145  1
