# generated using pymatgen
data_Ta3NbSi4(IrRu)2
_symmetry_space_group_name_H-M   'P 1'
_cell_length_a   3.84519000
_cell_length_b   6.39924985
_cell_length_c   7.30394739
_cell_angle_alpha   89.98125791
_cell_angle_beta   90.00000000
_cell_angle_gamma   90.00000000
_symmetry_Int_Tables_number   1
_chemical_formula_structural   Ta3NbSi4(IrRu)2
_chemical_formula_sum   'Ta3 Nb1 Si4 Ir2 Ru2'
_cell_volume   179.72334112
_cell_formula_units_Z   1
loop_
 _symmetry_equiv_pos_site_id
 _symmetry_equiv_pos_as_xyz
  1  'x, y, z'
loop_
 _atom_site_type_symbol
 _atom_site_label
 _atom_site_symmetry_multiplicity
 _atom_site_fract_x
 _atom_site_fract_y
 _atom_site_fract_z
 _atom_site_occupancy
  Ta  Ta0  1  0.250000  0.977643  0.323201  1
  Ta  Ta1  1  0.750000  0.022851  0.677078  1
  Ta  Ta2  1  0.250000  0.478351  0.176567  1
  Nb  Nb3  1  0.750000  0.523417  0.824278  1
  Si  Si4  1  0.250000  0.230174  0.879200  1
  Si  Si5  1  0.250000  0.727812  0.621240  1
  Si  Si6  1  0.750000  0.772546  0.125866  1
  Si  Si7  1  0.750000  0.272710  0.373700  1
  Ir  Ir8  1  0.250000  0.851453  0.936464  1
  Ir  Ir9  1  0.250000  0.347221  0.561355  1
  Ru  Ru10  1  0.750000  0.648361  0.438286  1
  Ru  Ru11  1  0.750000  0.147463  0.062765  1
