# generated using pymatgen
data_Tb19DyAsRu11
_symmetry_space_group_name_H-M   'P 1'
_cell_length_a   10.86983101
_cell_length_b   10.86960396
_cell_length_c   6.40858500
_cell_angle_alpha   89.97945289
_cell_angle_beta   89.97530498
_cell_angle_gamma   90.01259457
_symmetry_Int_Tables_number   1
_chemical_formula_structural   Tb19DyAsRu11
_chemical_formula_sum   'Tb19 Dy1 As1 Ru11'
_cell_volume   757.17903945
_cell_formula_units_Z   1
loop_
 _symmetry_equiv_pos_site_id
 _symmetry_equiv_pos_as_xyz
  1  'x, y, z'
loop_
 _atom_site_type_symbol
 _atom_site_label
 _atom_site_symmetry_multiplicity
 _atom_site_fract_x
 _atom_site_fract_y
 _atom_site_fract_z
 _atom_site_occupancy
  Tb  Tb0  1  0.291278  0.087153  0.378717  1
  Tb  Tb1  1  0.292661  0.918305  0.876465  1
  Tb  Tb2  1  0.708925  0.087544  0.878006  1
  Tb  Tb3  1  0.708228  0.912585  0.378954  1
  Tb  Tb4  1  0.591634  0.794139  0.877382  1
  Tb  Tb5  1  0.587781  0.206012  0.377146  1
  Tb  Tb6  1  0.415354  0.796854  0.371730  1
  Tb  Tb7  1  0.412767  0.209273  0.877038  1
  Tb  Tb8  1  0.205956  0.408382  0.622438  1
  Tb  Tb9  1  0.203077  0.584683  0.128324  1
  Tb  Tb10  1  0.794214  0.412197  0.122988  1
  Tb  Tb11  1  0.790593  0.587193  0.622871  1
  Tb  Tb12  1  0.912846  0.708742  0.121281  1
  Tb  Tb13  1  0.912473  0.291084  0.622034  1
  Tb  Tb14  1  0.081602  0.707352  0.623514  1
  Tb  Tb15  1  0.087446  0.291777  0.120988  1
  Tb  Tb16  1  0.999943  0.000030  0.499166  1
  Tb  Tb17  1  0.999967  0.000057  0.000843  1
  Tb  Tb18  1  0.502821  0.496855  0.002679  1
  Dy  Dy19  1  0.503133  0.497269  0.497333  1
  As  As20  1  0.345208  0.654576  0.749471  1
  Ru  Ru21  1  0.846317  0.153673  0.250025  1
  Ru  Ru22  1  0.847113  0.846744  0.750503  1
  Ru  Ru23  1  0.153287  0.152820  0.749532  1
  Ru  Ru24  1  0.153703  0.846301  0.249945  1
  Ru  Ru25  1  0.652397  0.347633  0.749514  1
  Ru  Ru26  1  0.648428  0.650669  0.252771  1
  Ru  Ru27  1  0.349454  0.351504  0.248240  1
  Ru  Ru28  1  0.500329  0.998673  0.121951  1
  Ru  Ru29  1  0.500543  0.000775  0.625056  1
  Ru  Ru30  1  0.999201  0.499466  0.875007  1
  Ru  Ru31  1  0.001318  0.499681  0.378083  1
