# generated using pymatgen
data_LaPr11(GaIr)8
_symmetry_space_group_name_H-M   'P 1'
_cell_length_a   5.79607614
_cell_length_b   8.21252905
_cell_length_c   13.70111826
_cell_angle_alpha   89.99559274
_cell_angle_beta   89.97821109
_cell_angle_gamma   90.01250104
_symmetry_Int_Tables_number   1
_chemical_formula_structural   LaPr11(GaIr)8
_chemical_formula_sum   'La1 Pr11 Ga8 Ir8'
_cell_volume   652.17924362
_cell_formula_units_Z   1
loop_
 _symmetry_equiv_pos_site_id
 _symmetry_equiv_pos_as_xyz
  1  'x, y, z'
loop_
 _atom_site_type_symbol
 _atom_site_label
 _atom_site_symmetry_multiplicity
 _atom_site_fract_x
 _atom_site_fract_y
 _atom_site_fract_z
 _atom_site_occupancy
  La  La0  1  0.146938  0.896538  0.596457  1
  Pr  Pr1  1  0.855315  0.104836  0.098851  1
  Pr  Pr2  1  0.144614  0.604273  0.400758  1
  Pr  Pr3  1  0.855377  0.395214  0.901551  1
  Pr  Pr4  1  0.854769  0.106171  0.400741  1
  Pr  Pr5  1  0.144482  0.894805  0.901631  1
  Pr  Pr6  1  0.855194  0.395066  0.598811  1
  Pr  Pr7  1  0.144739  0.605238  0.098857  1
  Pr  Pr8  1  0.372153  0.252705  0.750429  1
  Pr  Pr9  1  0.627959  0.747716  0.249860  1
  Pr  Pr10  1  0.372053  0.247770  0.249914  1
  Pr  Pr11  1  0.628184  0.751725  0.750311  1
  Ga  Ga12  1  0.864305  0.102990  0.750594  1
  Ga  Ga13  1  0.133988  0.897418  0.250111  1
  Ga  Ga14  1  0.865385  0.397571  0.249769  1
  Ga  Ga15  1  0.134694  0.602036  0.750327  1
  Ga  Ga16  1  0.379749  0.250695  0.499626  1
  Ga  Ga17  1  0.620487  0.750036  0.000186  1
  Ga  Ga18  1  0.621424  0.749210  0.499512  1
  Ga  Ga19  1  0.379449  0.249865  0.000185  1
  Ir  Ir20  1  0.644508  0.029647  0.592129  1
  Ir  Ir21  1  0.355490  0.969294  0.091949  1
  Ir  Ir22  1  0.644707  0.469126  0.408027  1
  Ir  Ir23  1  0.355340  0.530175  0.908249  1
  Ir  Ir24  1  0.354464  0.969067  0.408864  1
  Ir  Ir25  1  0.644225  0.030669  0.908279  1
  Ir  Ir26  1  0.355456  0.530754  0.592133  1
  Ir  Ir27  1  0.644553  0.469391  0.091889  1
