# generated using pymatgen
data_Ho8V9Si16W3
_symmetry_space_group_name_H-M   'P 1'
_cell_length_a   6.82045802
_cell_length_b   6.82045804
_cell_length_c   12.66041987
_cell_angle_alpha   89.97196914
_cell_angle_beta   90.02802977
_cell_angle_gamma   90.04293598
_symmetry_Int_Tables_number   1
_chemical_formula_structural   Ho8V9Si16W3
_chemical_formula_sum   'Ho8 V9 Si16 W3'
_cell_volume   588.94530522
_cell_formula_units_Z   1
loop_
 _symmetry_equiv_pos_site_id
 _symmetry_equiv_pos_as_xyz
  1  'x, y, z'
loop_
 _atom_site_type_symbol
 _atom_site_label
 _atom_site_symmetry_multiplicity
 _atom_site_fract_x
 _atom_site_fract_y
 _atom_site_fract_z
 _atom_site_occupancy
  Ho  Ho0  1  0.338258  0.000927  0.469634  1
  Ho  Ho1  1  0.498393  0.838265  0.719784  1
  Ho  Ho2  1  0.500953  0.161205  0.220422  1
  Ho  Ho3  1  0.838265  0.498393  0.280216  1
  Ho  Ho4  1  0.161205  0.500953  0.779578  1
  Ho  Ho5  1  0.661874  0.999263  0.969873  1
  Ho  Ho6  1  0.000927  0.338258  0.530366  1
  Ho  Ho7  1  0.999263  0.661874  0.030127  1
  V  V8  1  0.670022  0.670022  0.500000  1
  V  V9  1  0.158339  0.006939  0.874890  1
  V  V10  1  0.492178  0.658798  0.125462  1
  V  V11  1  0.507615  0.341845  0.625187  1
  V  V12  1  0.658798  0.492178  0.874538  1
  V  V13  1  0.341845  0.507615  0.374813  1
  V  V14  1  0.840755  0.991616  0.375516  1
  V  V15  1  0.006939  0.158339  0.125110  1
  V  V16  1  0.991616  0.840755  0.624484  1
  Si  Si17  1  0.200444  0.124208  0.683691  1
  Si  Si18  1  0.375921  0.700879  0.933728  1
  Si  Si19  1  0.624642  0.301428  0.435231  1
  Si  Si20  1  0.700879  0.375921  0.066272  1
  Si  Si21  1  0.301428  0.624642  0.564769  1
  Si  Si22  1  0.798882  0.875305  0.184436  1
  Si  Si23  1  0.124208  0.200444  0.316309  1
  Si  Si24  1  0.875305  0.798882  0.815564  1
  Si  Si25  1  0.288683  0.958610  0.063971  1
  Si  Si26  1  0.543464  0.787551  0.315939  1
  Si  Si27  1  0.457859  0.211446  0.813851  1
  Si  Si28  1  0.787551  0.543464  0.684061  1
  Si  Si29  1  0.211446  0.457859  0.186149  1
  Si  Si30  1  0.711106  0.040473  0.563563  1
  Si  Si31  1  0.958610  0.288683  0.936029  1
  Si  Si32  1  0.040473  0.711106  0.436437  1
  W  W33  1  0.330714  0.330714  0.000000  1
  W  W34  1  0.170729  0.830410  0.249778  1
  W  W35  1  0.830410  0.170729  0.750222  1
