# generated using pymatgen
data_NdSmGeBr2
_symmetry_space_group_name_H-M   'P 1'
_cell_length_a   4.27465500
_cell_length_b   4.27465800
_cell_length_c   10.79230800
_cell_angle_alpha   90.00000000
_cell_angle_beta   90.00000000
_cell_angle_gamma   119.99998451
_symmetry_Int_Tables_number   1
_chemical_formula_structural   NdSmGeBr2
_chemical_formula_sum   'Nd1 Sm1 Ge1 Br2'
_cell_volume   170.78411526
_cell_formula_units_Z   1
loop_
 _symmetry_equiv_pos_site_id
 _symmetry_equiv_pos_as_xyz
  1  'x, y, z'
loop_
 _atom_site_type_symbol
 _atom_site_label
 _atom_site_symmetry_multiplicity
 _atom_site_fract_x
 _atom_site_fract_y
 _atom_site_fract_z
 _atom_site_occupancy
  Nd  Nd0  1  0.666667  0.333333  0.652865  1
  Sm  Sm1  1  0.333333  0.666667  0.346252  1
  Ge  Ge2  1  0.000000  0.000000  0.497667  1
  Br  Br3  1  0.333333  0.666667  0.819224  1
  Br  Br4  1  0.666667  0.333333  0.183990  1
