# generated using pymatgen
data_Th10Sn6AuCl
_symmetry_space_group_name_H-M   'P 1'
_cell_length_a   9.56157300
_cell_length_b   9.56157128
_cell_length_c   6.58878500
_cell_angle_alpha   90.00000000
_cell_angle_beta   90.00000000
_cell_angle_gamma   119.99999557
_symmetry_Int_Tables_number   1
_chemical_formula_structural   Th10Sn6AuCl
_chemical_formula_sum   'Th10 Sn6 Au1 Cl1'
_cell_volume   521.66848324
_cell_formula_units_Z   1
loop_
 _symmetry_equiv_pos_site_id
 _symmetry_equiv_pos_as_xyz
  1  'x, y, z'
loop_
 _atom_site_type_symbol
 _atom_site_label
 _atom_site_symmetry_multiplicity
 _atom_site_fract_x
 _atom_site_fract_y
 _atom_site_fract_z
 _atom_site_occupancy
  Th  Th0  1  0.000000  0.727771  0.747962  1
  Th  Th1  1  0.272229  0.272229  0.747962  1
  Th  Th2  1  0.333333  0.666667  0.500000  1
  Th  Th3  1  0.666667  0.333333  0.500000  1
  Th  Th4  1  0.727771  0.727771  0.252038  1
  Th  Th5  1  0.727771  0.000000  0.747962  1
  Th  Th6  1  0.000000  0.272229  0.252038  1
  Th  Th7  1  0.272229  0.000000  0.252038  1
  Th  Th8  1  0.333333  0.666667  0.000000  1
  Th  Th9  1  0.666667  0.333333  0.000000  1
  Sn  Sn10  1  0.619262  0.619262  0.750851  1
  Sn  Sn11  1  0.000000  0.380738  0.750851  1
  Sn  Sn12  1  0.380738  0.000000  0.750851  1
  Sn  Sn13  1  0.619262  0.000000  0.249149  1
  Sn  Sn14  1  0.380738  0.380738  0.249149  1
  Sn  Sn15  1  0.000000  0.619262  0.249149  1
  Au  Au16  1  0.000000  0.000000  0.000000  1
  Cl  Cl17  1  0.000000  0.000000  0.500000  1
