# generated using pymatgen
data_Dy5Ho3(Er3Sn4)4
_symmetry_space_group_name_H-M   'P 1'
_cell_length_a   7.99757203
_cell_length_b   8.13517801
_cell_length_c   15.37810006
_cell_angle_alpha   90.00338163
_cell_angle_beta   89.99068612
_cell_angle_gamma   89.99504222
_symmetry_Int_Tables_number   1
_chemical_formula_structural   Dy5Ho3(Er3Sn4)4
_chemical_formula_sum   'Dy5 Ho3 Er12 Sn16'
_cell_volume   1000.52488557
_cell_formula_units_Z   1
loop_
 _symmetry_equiv_pos_site_id
 _symmetry_equiv_pos_as_xyz
  1  'x, y, z'
loop_
 _atom_site_type_symbol
 _atom_site_label
 _atom_site_symmetry_multiplicity
 _atom_site_fract_x
 _atom_site_fract_y
 _atom_site_fract_z
 _atom_site_occupancy
  Dy  Dy0  1  0.978503  0.820249  0.097522  1
  Dy  Dy1  1  0.478505  0.679724  0.097471  1
  Dy  Dy2  1  0.978498  0.820241  0.402507  1
  Dy  Dy3  1  0.521494  0.320258  0.597472  1
  Dy  Dy4  1  0.021478  0.179756  0.902518  1
  Ho  Ho5  1  0.521537  0.320237  0.902459  1
  Ho  Ho6  1  0.021551  0.179747  0.597551  1
  Ho  Ho7  1  0.478451  0.679725  0.402464  1
  Er  Er8  1  0.367729  0.836129  0.877798  1
  Er  Er9  1  0.867733  0.663880  0.622182  1
  Er  Er10  1  0.632234  0.163894  0.377810  1
  Er  Er11  1  0.132275  0.336096  0.122200  1
  Er  Er12  1  0.632218  0.163898  0.122191  1
  Er  Er13  1  0.132222  0.336101  0.377839  1
  Er  Er14  1  0.367745  0.836139  0.622176  1
  Er  Er15  1  0.867736  0.663847  0.877792  1
  Er  Er16  1  0.198172  0.503435  0.750002  1
  Er  Er17  1  0.698189  0.996596  0.749971  1
  Er  Er18  1  0.801795  0.496572  0.250059  1
  Er  Er19  1  0.301879  0.003468  0.250007  1
  Sn  Sn20  1  0.292932  0.035726  0.041804  1
  Sn  Sn21  1  0.792793  0.464389  0.458164  1
  Sn  Sn22  1  0.707214  0.964391  0.541830  1
  Sn  Sn23  1  0.207223  0.535610  0.958174  1
  Sn  Sn24  1  0.706988  0.964355  0.958198  1
  Sn  Sn25  1  0.207113  0.535705  0.541757  1
  Sn  Sn26  1  0.292899  0.035699  0.458237  1
  Sn  Sn27  1  0.792855  0.464204  0.041750  1
  Sn  Sn28  1  0.564916  0.619957  0.749990  1
  Sn  Sn29  1  0.064909  0.880012  0.750001  1
  Sn  Sn30  1  0.435096  0.380036  0.249999  1
  Sn  Sn31  1  0.935091  0.120018  0.250008  1
  Sn  Sn32  1  0.329919  0.147119  0.750044  1
  Sn  Sn33  1  0.829930  0.352883  0.749956  1
  Sn  Sn34  1  0.670009  0.852886  0.250070  1
  Sn  Sn35  1  0.170173  0.647018  0.250025  1
