# generated using pymatgen
data_LuHg6As4Cl7
_symmetry_space_group_name_H-M   'P 1'
_cell_length_a   12.44563800
_cell_length_b   12.44563800
_cell_length_c   12.44563800
_cell_angle_alpha   90.00000000
_cell_angle_beta   90.00000000
_cell_angle_gamma   90.00000000
_symmetry_Int_Tables_number   1
_chemical_formula_structural   LuHg6As4Cl7
_chemical_formula_sum   'Lu4 Hg24 As16 Cl28'
_cell_volume   1927.75347286
_cell_formula_units_Z   4
loop_
 _symmetry_equiv_pos_site_id
 _symmetry_equiv_pos_as_xyz
  1  'x, y, z'
loop_
 _atom_site_type_symbol
 _atom_site_label
 _atom_site_symmetry_multiplicity
 _atom_site_fract_x
 _atom_site_fract_y
 _atom_site_fract_z
 _atom_site_occupancy
  Lu  Lu0  1  0.000000  0.000000  0.500000  1
  Lu  Lu1  1  0.500000  0.000000  0.000000  1
  Lu  Lu2  1  0.500000  0.500000  0.500000  1
  Lu  Lu3  1  0.000000  0.500000  0.000000  1
  Hg  Hg4  1  0.698149  0.953098  0.313906  1
  Hg  Hg5  1  0.198149  0.546902  0.686094  1
  Hg  Hg6  1  0.813906  0.698149  0.546902  1
  Hg  Hg7  1  0.546902  0.813906  0.698149  1
  Hg  Hg8  1  0.698149  0.546902  0.813906  1
  Hg  Hg9  1  0.453098  0.313906  0.801851  1
  Hg  Hg10  1  0.546902  0.686094  0.198149  1
  Hg  Hg11  1  0.686094  0.198149  0.546902  1
  Hg  Hg12  1  0.046902  0.813906  0.801851  1
  Hg  Hg13  1  0.301851  0.453098  0.186094  1
  Hg  Hg14  1  0.801851  0.453098  0.313906  1
  Hg  Hg15  1  0.301851  0.046902  0.686094  1
  Hg  Hg16  1  0.953098  0.313906  0.698149  1
  Hg  Hg17  1  0.186094  0.198149  0.953098  1
  Hg  Hg18  1  0.813906  0.801851  0.046902  1
  Hg  Hg19  1  0.046902  0.686094  0.301851  1
  Hg  Hg20  1  0.313906  0.698149  0.953098  1
  Hg  Hg21  1  0.186094  0.301851  0.453098  1
  Hg  Hg22  1  0.801851  0.046902  0.813906  1
  Hg  Hg23  1  0.453098  0.186094  0.301851  1
  Hg  Hg24  1  0.198149  0.953098  0.186094  1
  Hg  Hg25  1  0.686094  0.301851  0.046902  1
  Hg  Hg26  1  0.313906  0.801851  0.453098  1
  Hg  Hg27  1  0.953098  0.186094  0.198149  1
  As  As28  1  0.733889  0.733889  0.733889  1
  As  As29  1  0.650725  0.150725  0.349275  1
  As  As30  1  0.266111  0.266111  0.266111  1
  As  As31  1  0.766111  0.233889  0.733889  1
  As  As32  1  0.849275  0.849275  0.849275  1
  As  As33  1  0.349275  0.650725  0.150725  1
  As  As34  1  0.233889  0.766111  0.266111  1
  As  As35  1  0.150725  0.349275  0.650725  1
  As  As36  1  0.233889  0.733889  0.766111  1
  As  As37  1  0.266111  0.233889  0.766111  1
  As  As38  1  0.766111  0.266111  0.233889  1
  As  As39  1  0.849275  0.650725  0.349275  1
  As  As40  1  0.150725  0.150725  0.150725  1
  As  As41  1  0.650725  0.349275  0.849275  1
  As  As42  1  0.733889  0.766111  0.233889  1
  As  As43  1  0.349275  0.849275  0.650725  1
  Cl  Cl44  1  0.301547  0.540593  0.452925  1
  Cl  Cl45  1  0.040593  0.452925  0.198453  1
  Cl  Cl46  1  0.698453  0.040593  0.047075  1
  Cl  Cl47  1  0.500000  0.000000  0.500000  1
  Cl  Cl48  1  0.459407  0.952925  0.198453  1
  Cl  Cl49  1  0.198453  0.459407  0.952925  1
  Cl  Cl50  1  0.452925  0.198453  0.040593  1
  Cl  Cl51  1  0.000000  0.000000  0.000000  1
  Cl  Cl52  1  0.959407  0.952925  0.301547  1
  Cl  Cl53  1  0.452925  0.301547  0.540593  1
  Cl  Cl54  1  0.801547  0.540593  0.047075  1
  Cl  Cl55  1  0.047075  0.698453  0.040593  1
  Cl  Cl56  1  0.547075  0.698453  0.459407  1
  Cl  Cl57  1  0.952925  0.301547  0.959407  1
  Cl  Cl58  1  0.698453  0.459407  0.547075  1
  Cl  Cl59  1  0.801547  0.959407  0.547075  1
  Cl  Cl60  1  0.500000  0.500000  0.000000  1
  Cl  Cl61  1  0.000000  0.500000  0.500000  1
  Cl  Cl62  1  0.540593  0.047075  0.801547  1
  Cl  Cl63  1  0.301547  0.959407  0.952925  1
  Cl  Cl64  1  0.040593  0.047075  0.698453  1
  Cl  Cl65  1  0.952925  0.198453  0.459407  1
  Cl  Cl66  1  0.198453  0.040593  0.452925  1
  Cl  Cl67  1  0.540593  0.452925  0.301547  1
  Cl  Cl68  1  0.047075  0.801547  0.540593  1
  Cl  Cl69  1  0.547075  0.801547  0.959407  1
  Cl  Cl70  1  0.959407  0.547075  0.801547  1
  Cl  Cl71  1  0.459407  0.547075  0.698453  1
