# generated using pymatgen
data_Y3Er5Ti3Si16W9
_symmetry_space_group_name_H-M   'P 1'
_cell_length_a   6.89409351
_cell_length_b   6.89448056
_cell_length_c   12.79036439
_cell_angle_alpha   89.97965334
_cell_angle_beta   90.00738673
_cell_angle_gamma   89.86490772
_symmetry_Int_Tables_number   1
_chemical_formula_structural   Y3Er5Ti3Si16W9
_chemical_formula_sum   'Y3 Er5 Ti3 Si16 W9'
_cell_volume   607.93955349
_cell_formula_units_Z   1
loop_
 _symmetry_equiv_pos_site_id
 _symmetry_equiv_pos_as_xyz
  1  'x, y, z'
loop_
 _atom_site_type_symbol
 _atom_site_label
 _atom_site_symmetry_multiplicity
 _atom_site_fract_x
 _atom_site_fract_y
 _atom_site_fract_z
 _atom_site_occupancy
  Y  Y0  1  0.338851  0.002042  0.468667  1
  Y  Y1  1  0.496952  0.837742  0.719264  1
  Y  Y2  1  0.499739  0.162165  0.217443  1
  Er  Er3  1  0.838356  0.497642  0.280672  1
  Er  Er4  1  0.161500  0.498968  0.782505  1
  Er  Er5  1  0.660193  0.999539  0.969001  1
  Er  Er6  1  0.001334  0.339570  0.531224  1
  Er  Er7  1  0.999532  0.660071  0.030962  1
  Ti  Ti8  1  0.169816  0.831648  0.248351  1
  Ti  Ti9  1  0.832080  0.170425  0.751701  1
  Ti  Ti10  1  0.669123  0.668430  0.500019  1
  Si  Si11  1  0.199583  0.130687  0.683148  1
  Si  Si12  1  0.372450  0.698470  0.933221  1
  Si  Si13  1  0.630248  0.299734  0.433307  1
  Si  Si14  1  0.699578  0.373553  0.066584  1
  Si  Si15  1  0.297743  0.627450  0.566783  1
  Si  Si16  1  0.797473  0.870554  0.183259  1
  Si  Si17  1  0.127776  0.201572  0.316988  1
  Si  Si18  1  0.872273  0.796449  0.816966  1
  Si  Si19  1  0.289112  0.962687  0.061847  1
  Si  Si20  1  0.540189  0.790649  0.313650  1
  Si  Si21  1  0.459498  0.209527  0.814507  1
  Si  Si22  1  0.793251  0.538796  0.686155  1
  Si  Si23  1  0.207796  0.460447  0.185622  1
  Si  Si24  1  0.710621  0.041428  0.563866  1
  Si  Si25  1  0.963193  0.289901  0.937677  1
  Si  Si26  1  0.039904  0.708153  0.435934  1
  W  W27  1  0.331620  0.332262  0.999683  1
  W  W28  1  0.157421  0.002555  0.873526  1
  W  W29  1  0.494943  0.665292  0.124705  1
  W  W30  1  0.506037  0.340518  0.625152  1
  W  W31  1  0.665884  0.494764  0.875379  1
  W  W32  1  0.339713  0.505452  0.375319  1
  W  W33  1  0.840027  0.993583  0.374255  1
  W  W34  1  0.002238  0.158037  0.126547  1
  W  W35  1  0.993954  0.839241  0.626115  1
