# generated using pymatgen
data_HoLu3(ZrPt)4
_symmetry_space_group_name_H-M   'P 1'
_cell_length_a   4.67583900
_cell_length_b   7.03914413
_cell_length_c   8.22625000
_cell_angle_alpha   89.86642913
_cell_angle_beta   90.00000000
_cell_angle_gamma   90.00000000
_symmetry_Int_Tables_number   1
_chemical_formula_structural   HoLu3(ZrPt)4
_chemical_formula_sum   'Ho1 Lu3 Zr4 Pt4'
_cell_volume   270.75727230
_cell_formula_units_Z   1
loop_
 _symmetry_equiv_pos_site_id
 _symmetry_equiv_pos_as_xyz
  1  'x, y, z'
loop_
 _atom_site_type_symbol
 _atom_site_label
 _atom_site_symmetry_multiplicity
 _atom_site_fract_x
 _atom_site_fract_y
 _atom_site_fract_z
 _atom_site_occupancy
  Ho  Ho0  1  0.250000  0.515352  0.178049  1
  Lu  Lu1  1  0.750000  0.483203  0.821691  1
  Lu  Lu2  1  0.750000  0.982635  0.677897  1
  Lu  Lu3  1  0.250000  0.016660  0.323070  1
  Zr  Zr4  1  0.250000  0.649547  0.580220  1
  Zr  Zr5  1  0.750000  0.350434  0.422067  1
  Zr  Zr6  1  0.750000  0.852108  0.079671  1
  Zr  Zr7  1  0.250000  0.148228  0.919033  1
  Pt  Pt8  1  0.250000  0.766736  0.903473  1
  Pt  Pt9  1  0.750000  0.233688  0.093785  1
  Pt  Pt10  1  0.750000  0.735353  0.406591  1
  Pt  Pt11  1  0.250000  0.266055  0.594454  1
