# generated using pymatgen
data_DyEr5(Co3P2)6
_symmetry_space_group_name_H-M   'P 1'
_cell_length_a   3.68586800
_cell_length_b   10.49628400
_cell_length_c   12.15093600
_cell_angle_alpha   90.00000000
_cell_angle_beta   90.00000000
_cell_angle_gamma   90.00000000
_symmetry_Int_Tables_number   1
_chemical_formula_structural   DyEr5(Co3P2)6
_chemical_formula_sum   'Dy1 Er5 Co18 P12'
_cell_volume   470.09440726
_cell_formula_units_Z   1
loop_
 _symmetry_equiv_pos_site_id
 _symmetry_equiv_pos_as_xyz
  1  'x, y, z'
loop_
 _atom_site_type_symbol
 _atom_site_label
 _atom_site_symmetry_multiplicity
 _atom_site_fract_x
 _atom_site_fract_y
 _atom_site_fract_z
 _atom_site_occupancy
  Dy  Dy0  1  0.750000  0.250000  0.477578  1
  Er  Er1  1  0.250000  0.750000  0.522291  1
  Er  Er2  1  0.250000  0.932081  0.794085  1
  Er  Er3  1  0.250000  0.567919  0.794085  1
  Er  Er4  1  0.750000  0.067640  0.205717  1
  Er  Er5  1  0.750000  0.432360  0.205717  1
  Co  Co6  1  0.250000  0.250000  0.841160  1
  Co  Co7  1  0.750000  0.750000  0.159311  1
  Co  Co8  1  0.250000  0.250000  0.295895  1
  Co  Co9  1  0.750000  0.750000  0.703461  1
  Co  Co10  1  0.750000  0.250000  0.013496  1
  Co  Co11  1  0.250000  0.750000  0.986298  1
  Co  Co12  1  0.250000  0.416954  0.005304  1
  Co  Co13  1  0.250000  0.083046  0.005304  1
  Co  Co14  1  0.750000  0.583343  0.994769  1
  Co  Co15  1  0.750000  0.916657  0.994769  1
  Co  Co16  1  0.250000  0.453192  0.569434  1
  Co  Co17  1  0.250000  0.046808  0.569434  1
  Co  Co18  1  0.750000  0.547969  0.430639  1
  Co  Co19  1  0.750000  0.952031  0.430639  1
  Co  Co20  1  0.250000  0.870947  0.290377  1
  Co  Co21  1  0.250000  0.629053  0.290377  1
  Co  Co22  1  0.750000  0.128677  0.709805  1
  Co  Co23  1  0.750000  0.371323  0.709805  1
  P  P24  1  0.250000  0.250000  0.117362  1
  P  P25  1  0.750000  0.750000  0.882372  1
  P  P26  1  0.250000  0.250000  0.656135  1
  P  P27  1  0.750000  0.750000  0.344703  1
  P  P28  1  0.250000  0.439420  0.383438  1
  P  P29  1  0.250000  0.060580  0.383438  1
  P  P30  1  0.750000  0.561342  0.616291  1
  P  P31  1  0.750000  0.938658  0.616291  1
  P  P32  1  0.250000  0.902944  0.107449  1
  P  P33  1  0.250000  0.597056  0.107449  1
  P  P34  1  0.750000  0.096698  0.892663  1
  P  P35  1  0.750000  0.403302  0.892663  1
