# generated using pymatgen
data_LiPrNd2Hg3Pd2
_symmetry_space_group_name_H-M   'P 1'
_cell_length_a   7.96549608
_cell_length_b   7.96353868
_cell_length_c   3.84632500
_cell_angle_alpha   90.00000000
_cell_angle_beta   90.00000000
_cell_angle_gamma   119.99186908
_symmetry_Int_Tables_number   1
_chemical_formula_structural   LiPrNd2Hg3Pd2
_chemical_formula_sum   'Li1 Pr1 Nd2 Hg3 Pd2'
_cell_volume   211.31538074
_cell_formula_units_Z   1
loop_
 _symmetry_equiv_pos_site_id
 _symmetry_equiv_pos_as_xyz
  1  'x, y, z'
loop_
 _atom_site_type_symbol
 _atom_site_label
 _atom_site_symmetry_multiplicity
 _atom_site_fract_x
 _atom_site_fract_y
 _atom_site_fract_z
 _atom_site_occupancy
  Li  Li0  1  0.000000  0.000056  0.500000  1
  Pr  Pr1  1  0.000000  0.583897  0.500000  1
  Nd  Nd2  1  0.416213  0.416195  0.500000  1
  Nd  Nd3  1  0.583787  0.999982  0.500000  1
  Hg  Hg4  1  0.747391  0.747564  0.000000  1
  Hg  Hg5  1  0.252609  0.000173  0.000000  1
  Hg  Hg6  1  0.000000  0.252246  0.000000  1
  Pd  Pd7  1  0.666396  0.333141  0.000000  1
  Pd  Pd8  1  0.333604  0.666746  0.000000  1
