# generated using pymatgen
data_Yb2EuNi6B2Pd
_symmetry_space_group_name_H-M   'P 1'
_cell_length_a   5.09329600
_cell_length_b   5.09329537
_cell_length_c   14.61002700
_cell_angle_alpha   90.00000000
_cell_angle_beta   90.00000000
_cell_angle_gamma   120.00000408
_symmetry_Int_Tables_number   1
_chemical_formula_structural   Yb2EuNi6B2Pd
_chemical_formula_sum   'Yb4 Eu2 Ni12 B4 Pd2'
_cell_volume   328.23086044
_cell_formula_units_Z   2
loop_
 _symmetry_equiv_pos_site_id
 _symmetry_equiv_pos_as_xyz
  1  'x, y, z'
loop_
 _atom_site_type_symbol
 _atom_site_label
 _atom_site_symmetry_multiplicity
 _atom_site_fract_x
 _atom_site_fract_y
 _atom_site_fract_z
 _atom_site_occupancy
  Yb  Yb0  1  0.333333  0.666667  0.036596  1
  Yb  Yb1  1  0.666667  0.333333  0.753329  1
  Yb  Yb2  1  0.666667  0.333333  0.963404  1
  Yb  Yb3  1  0.333333  0.666667  0.246671  1
  Eu  Eu4  1  0.666667  0.333333  0.539945  1
  Eu  Eu5  1  0.333333  0.666667  0.460055  1
  Ni  Ni6  1  0.166438  0.332876  0.658674  1
  Ni  Ni7  1  0.332876  0.166438  0.341326  1
  Ni  Ni8  1  0.333637  0.166819  0.153549  1
  Ni  Ni9  1  0.166819  0.833181  0.846451  1
  Ni  Ni10  1  0.833562  0.667124  0.341326  1
  Ni  Ni11  1  0.833181  0.166819  0.153549  1
  Ni  Ni12  1  0.667124  0.833562  0.658674  1
  Ni  Ni13  1  0.666363  0.833181  0.846451  1
  Ni  Ni14  1  0.166438  0.833562  0.658674  1
  Ni  Ni15  1  0.833181  0.666363  0.153549  1
  Ni  Ni16  1  0.166819  0.333637  0.846451  1
  Ni  Ni17  1  0.833562  0.166438  0.341326  1
  B  B18  1  0.666667  0.333333  0.247832  1
  B  B19  1  0.000000  0.000000  0.752592  1
  B  B20  1  0.333333  0.666667  0.752168  1
  B  B21  1  0.000000  0.000000  0.247408  1
  Pd  Pd22  1  0.000000  0.000000  0.000000  1
  Pd  Pd23  1  0.000000  0.000000  0.500000  1
