# generated using pymatgen
data_Li3La3AgSn4
_symmetry_space_group_name_H-M   'P 1'
_cell_length_a   9.01452272
_cell_length_b   8.98864316
_cell_length_c   8.98864400
_cell_angle_alpha   149.06498723
_cell_angle_beta   131.99288406
_cell_angle_gamma   58.18370082
_symmetry_Int_Tables_number   1
_chemical_formula_structural   Li3La3AgSn4
_chemical_formula_sum   'Li3 La3 Ag1 Sn4'
_cell_volume   276.18939681
_cell_formula_units_Z   1
loop_
 _symmetry_equiv_pos_site_id
 _symmetry_equiv_pos_as_xyz
  1  'x, y, z'
loop_
 _atom_site_type_symbol
 _atom_site_label
 _atom_site_symmetry_multiplicity
 _atom_site_fract_x
 _atom_site_fract_y
 _atom_site_fract_z
 _atom_site_occupancy
  Li  Li0  1  0.518527  0.331408  0.187118  1
  Li  Li1  1  0.482765  0.670331  0.812435  1
  Li  Li2  1  0.858489  0.669851  0.188640  1
  La  La3  1  0.497698  0.998114  0.499583  1
  La  La4  1  0.128843  0.132604  0.996238  1
  La  La5  1  0.869014  0.867744  0.001269  1
  Ag  Ag6  1  0.142477  0.330160  0.812317  1
  Sn  Sn7  1  0.711909  0.212692  0.499218  1
  Sn  Sn8  1  0.290076  0.785154  0.504922  1
  Sn  Sn9  1  0.195321  0.501709  0.693612  1
  Sn  Sn10  1  0.804882  0.500234  0.304649  1
