# generated using pymatgen
data_Yb3Eu(Pt2O7)2
_symmetry_space_group_name_H-M   'P 1'
_cell_length_a   7.34686325
_cell_length_b   7.34686374
_cell_length_c   7.32649018
_cell_angle_alpha   59.90797192
_cell_angle_beta   59.90797234
_cell_angle_gamma   59.99999734
_symmetry_Int_Tables_number   1
_chemical_formula_structural   Yb3Eu(Pt2O7)2
_chemical_formula_sum   'Yb3 Eu1 Pt4 O14'
_cell_volume   279.24113876
_cell_formula_units_Z   1
loop_
 _symmetry_equiv_pos_site_id
 _symmetry_equiv_pos_as_xyz
  1  'x, y, z'
loop_
 _atom_site_type_symbol
 _atom_site_label
 _atom_site_symmetry_multiplicity
 _atom_site_fract_x
 _atom_site_fract_y
 _atom_site_fract_z
 _atom_site_occupancy
  Yb  Yb0  1  0.625000  0.125000  0.125000  1
  Yb  Yb1  1  0.125000  0.625000  0.125000  1
  Yb  Yb2  1  0.125000  0.125000  0.125000  1
  Eu  Eu3  1  0.125000  0.125000  0.625000  1
  Pt  Pt4  1  0.125000  0.625000  0.625000  1
  Pt  Pt5  1  0.625000  0.125000  0.625000  1
  Pt  Pt6  1  0.625000  0.625000  0.125000  1
  Pt  Pt7  1  0.625000  0.625000  0.625000  1
  O  O8  1  0.244707  0.244707  0.265879  1
  O  O9  1  0.005293  0.005293  0.984121  1
  O  O10  1  0.707981  0.707981  0.291815  1
  O  O11  1  0.292902  0.292902  0.709005  1
  O  O12  1  0.705190  0.292902  0.709005  1
  O  O13  1  0.292224  0.707981  0.291815  1
  O  O14  1  0.292902  0.705190  0.709005  1
  O  O15  1  0.707981  0.292224  0.291815  1
  O  O16  1  0.542019  0.542019  0.958185  1
  O  O17  1  0.957098  0.957098  0.540995  1
  O  O18  1  0.544810  0.957098  0.540995  1
  O  O19  1  0.957776  0.542019  0.958185  1
  O  O20  1  0.957098  0.544810  0.540995  1
  O  O21  1  0.542019  0.957776  0.958185  1
