# generated using pymatgen
data_Cs5K3RbAlBi4
_symmetry_space_group_name_H-M   'P 1'
_cell_length_a   11.32879860
_cell_length_b   11.34535316
_cell_length_c   11.91137025
_cell_angle_alpha   89.88149096
_cell_angle_beta   90.05932133
_cell_angle_gamma   120.04859292
_symmetry_Int_Tables_number   1
_chemical_formula_structural   Cs5K3RbAlBi4
_chemical_formula_sum   'Cs10 K6 Rb2 Al2 Bi8'
_cell_volume   1325.19698634
_cell_formula_units_Z   2
loop_
 _symmetry_equiv_pos_site_id
 _symmetry_equiv_pos_as_xyz
  1  'x, y, z'
loop_
 _atom_site_type_symbol
 _atom_site_label
 _atom_site_symmetry_multiplicity
 _atom_site_fract_x
 _atom_site_fract_y
 _atom_site_fract_z
 _atom_site_occupancy
  Cs  Cs0  1  0.208977  0.791102  0.957435  1
  Cs  Cs1  1  0.208694  0.417647  0.957144  1
  Cs  Cs2  1  0.582263  0.791300  0.957407  1
  Cs  Cs3  1  0.417737  0.209039  0.457408  1
  Cs  Cs4  1  0.791043  0.581848  0.042705  1
  Cs  Cs5  1  0.791307  0.208953  0.457144  1
  Cs  Cs6  1  0.791022  0.582127  0.457434  1
  Cs  Cs7  1  0.208955  0.790802  0.542705  1
  Cs  Cs8  1  0.581940  0.790792  0.542667  1
  Cs  Cs9  1  0.418061  0.208855  0.042668  1
  K  K10  1  0.239024  0.119895  0.749818  1
  K  K11  1  0.880648  0.119955  0.750279  1
  K  K12  1  0.760975  0.880871  0.249819  1
  K  K13  1  0.119348  0.239307  0.250276  1
  K  K14  1  0.119579  0.880576  0.249971  1
  K  K15  1  0.880426  0.761001  0.749970  1
  Rb  Rb16  1  0.791506  0.208385  0.042232  1
  Rb  Rb17  1  0.208496  0.416878  0.542233  1
  Al  Al18  1  0.333566  0.666350  0.249916  1
  Al  Al19  1  0.666434  0.332783  0.749916  1
  Bi  Bi20  1  0.999437  0.000360  0.000109  1
  Bi  Bi21  1  0.050073  0.524758  0.250179  1
  Bi  Bi22  1  0.474938  0.949803  0.249582  1
  Bi  Bi23  1  0.525701  0.050921  0.750556  1
  Bi  Bi24  1  0.525063  0.474865  0.749582  1
  Bi  Bi25  1  0.000564  0.000924  0.500109  1
  Bi  Bi26  1  0.474299  0.525220  0.250556  1
  Bi  Bi27  1  0.949927  0.474685  0.750180  1
