# generated using pymatgen
data_LaPa5F24
_symmetry_space_group_name_H-M   'P 1'
_cell_length_a   8.51097780
_cell_length_b   8.51097916
_cell_length_c   8.52762318
_cell_angle_alpha   63.16402822
_cell_angle_beta   63.16402476
_cell_angle_gamma   80.16744766
_symmetry_Int_Tables_number   1
_chemical_formula_structural   LaPa5F24
_chemical_formula_sum   'La1 Pa5 F24'
_cell_volume   491.40244243
_cell_formula_units_Z   1
loop_
 _symmetry_equiv_pos_site_id
 _symmetry_equiv_pos_as_xyz
  1  'x, y, z'
loop_
 _atom_site_type_symbol
 _atom_site_label
 _atom_site_symmetry_multiplicity
 _atom_site_fract_x
 _atom_site_fract_y
 _atom_site_fract_z
 _atom_site_occupancy
  La  La0  1  0.788645  0.211355  0.250000  1
  Pa  Pa1  1  0.224951  0.368600  0.330510  1
  Pa  Pa2  1  0.631400  0.775049  0.169490  1
  Pa  Pa3  1  0.776314  0.633797  0.667412  1
  Pa  Pa4  1  0.366203  0.223686  0.832588  1
  Pa  Pa5  1  0.212489  0.787511  0.750000  1
  F  F6  1  0.720589  0.017613  0.149243  1
  F  F7  1  0.982387  0.279411  0.350757  1
  F  F8  1  0.277073  0.972038  0.843452  1
  F  F9  1  0.027962  0.722927  0.656548  1
  F  F10  1  0.491993  0.263827  0.286180  1
  F  F11  1  0.736173  0.508007  0.213820  1
  F  F12  1  0.493700  0.997415  0.003448  1
  F  F13  1  0.002585  0.506300  0.496552  1
  F  F14  1  0.393818  0.606182  0.250000  1
  F  F15  1  0.599066  0.400934  0.750000  1
  F  F16  1  0.811842  0.408531  0.914841  1
  F  F17  1  0.591469  0.188158  0.585159  1
  F  F18  1  0.194599  0.599231  0.069409  1
  F  F19  1  0.400769  0.805401  0.430591  1
  F  F20  1  0.081955  0.168044  0.035847  1
  F  F21  1  0.831956  0.918045  0.464153  1
  F  F22  1  0.935140  0.823271  0.952692  1
  F  F23  1  0.176729  0.064860  0.547308  1
  F  F24  1  0.678298  0.740022  0.894304  1
  F  F25  1  0.259978  0.321702  0.605696  1
  F  F26  1  0.321660  0.263042  0.100647  1
  F  F27  1  0.736958  0.678340  0.399353  1
  F  F28  1  0.256245  0.502947  0.789333  1
  F  F29  1  0.497053  0.743755  0.710667  1
