# generated using pymatgen
data_LiY5Ho11Cd3Co4
_symmetry_space_group_name_H-M   'P 1'
_cell_length_a   9.47230950
_cell_length_b   9.47085912
_cell_length_c   9.49949608
_cell_angle_alpha   60.09966521
_cell_angle_beta   59.99275142
_cell_angle_gamma   60.00506499
_symmetry_Int_Tables_number   1
_chemical_formula_structural   LiY5Ho11Cd3Co4
_chemical_formula_sum   'Li1 Y5 Ho11 Cd3 Co4'
_cell_volume   603.04495752
_cell_formula_units_Z   1
loop_
 _symmetry_equiv_pos_site_id
 _symmetry_equiv_pos_as_xyz
  1  'x, y, z'
loop_
 _atom_site_type_symbol
 _atom_site_label
 _atom_site_symmetry_multiplicity
 _atom_site_fract_x
 _atom_site_fract_y
 _atom_site_fract_z
 _atom_site_occupancy
  Li  Li0  1  0.570708  0.571534  0.286225  1
  Y  Y1  1  0.937154  0.936295  0.563762  1
  Y  Y2  1  0.812798  0.187465  0.185578  1
  Y  Y3  1  0.937154  0.562790  0.563762  1
  Y  Y4  1  0.938662  0.561532  0.938275  1
  Y  Y5  1  0.812798  0.814158  0.185578  1
  Ho  Ho6  1  0.344288  0.342456  0.346680  1
  Ho  Ho7  1  0.558713  0.940755  0.938977  1
  Ho  Ho8  1  0.562082  0.936551  0.564818  1
  Ho  Ho9  1  0.189498  0.812545  0.809327  1
  Ho  Ho10  1  0.189498  0.188630  0.809327  1
  Ho  Ho11  1  0.347741  0.347418  0.957426  1
  Ho  Ho12  1  0.344288  0.966577  0.346680  1
  Ho  Ho13  1  0.811795  0.189177  0.809851  1
  Ho  Ho14  1  0.558713  0.561555  0.938977  1
  Ho  Ho15  1  0.186809  0.813937  0.185316  1
  Ho  Ho16  1  0.966981  0.342916  0.347188  1
  Cd  Cd17  1  0.259067  0.581086  0.578762  1
  Cd  Cd18  1  0.580672  0.582635  0.577388  1
  Cd  Cd19  1  0.580672  0.259307  0.577388  1
  Co  Co20  1  0.575603  0.143976  0.136446  1
  Co  Co21  1  0.146327  0.140076  0.137111  1
  Co  Co22  1  0.146327  0.576488  0.137111  1
  Co  Co23  1  0.141656  0.140145  0.578054  1
