# generated using pymatgen
data_Tb2Ho6Re(TcB8)3
_symmetry_space_group_name_H-M   'P 1'
_cell_length_a   3.68135800
_cell_length_b   9.15608389
_cell_length_c   11.54022403
_cell_angle_alpha   90.02078350
_cell_angle_beta   90.00000000
_cell_angle_gamma   90.00000000
_symmetry_Int_Tables_number   1
_chemical_formula_structural   Tb2Ho6Re(TcB8)3
_chemical_formula_sum   'Tb2 Ho6 Re1 Tc3 B24'
_cell_volume   388.98425944
_cell_formula_units_Z   1
loop_
 _symmetry_equiv_pos_site_id
 _symmetry_equiv_pos_as_xyz
  1  'x, y, z'
loop_
 _atom_site_type_symbol
 _atom_site_label
 _atom_site_symmetry_multiplicity
 _atom_site_fract_x
 _atom_site_fract_y
 _atom_site_fract_z
 _atom_site_occupancy
  Tb  Tb0  1  0.000000  0.323881  0.414015  1
  Tb  Tb1  1  0.000000  0.676359  0.585958  1
  Ho  Ho2  1  0.000000  0.823935  0.085948  1
  Ho  Ho3  1  0.000000  0.176341  0.914300  1
  Ho  Ho4  1  0.000000  0.942713  0.368880  1
  Ho  Ho5  1  0.000000  0.057827  0.630198  1
  Ho  Ho6  1  0.000000  0.442710  0.130660  1
  Ho  Ho7  1  0.000000  0.556244  0.869864  1
  Re  Re8  1  0.000000  0.861609  0.820881  1
  Tc  Tc9  1  0.000000  0.639154  0.320029  1
  Tc  Tc10  1  0.000000  0.360901  0.679893  1
  Tc  Tc11  1  0.000000  0.138625  0.179297  1
  B  B12  1  0.500000  0.553708  0.432510  1
  B  B13  1  0.500000  0.446472  0.567532  1
  B  B14  1  0.500000  0.053311  0.067024  1
  B  B15  1  0.500000  0.946894  0.933280  1
  B  B16  1  0.500000  0.749284  0.418052  1
  B  B17  1  0.500000  0.250975  0.581885  1
  B  B18  1  0.500000  0.248931  0.081225  1
  B  B19  1  0.500000  0.750660  0.918955  1
  B  B20  1  0.500000  0.792098  0.264853  1
  B  B21  1  0.500000  0.207888  0.734982  1
  B  B22  1  0.500000  0.291728  0.234440  1
  B  B23  1  0.500000  0.707910  0.765726  1
  B  B24  1  0.500000  0.630905  0.185214  1
  B  B25  1  0.500000  0.368874  0.814790  1
  B  B26  1  0.500000  0.130511  0.314163  1
  B  B27  1  0.500000  0.869696  0.685709  1
  B  B28  1  0.500000  0.982063  0.211416  1
  B  B29  1  0.500000  0.018229  0.788352  1
  B  B30  1  0.500000  0.482552  0.287921  1
  B  B31  1  0.500000  0.517357  0.712228  1
  B  B32  1  0.500000  0.599967  0.028024  1
  B  B33  1  0.500000  0.399497  0.972210  1
  B  B34  1  0.500000  0.099392  0.471973  1
  B  B35  1  0.500000  0.900799  0.527615  1
