# generated using pymatgen
data_Nd2YEr3Ta2O14
_symmetry_space_group_name_H-M   'P 1'
_cell_length_a   6.48393944
_cell_length_b   6.49305072
_cell_length_c   7.58991200
_cell_angle_alpha   90.00000000
_cell_angle_beta   90.00000000
_cell_angle_gamma   109.26712069
_symmetry_Int_Tables_number   1
_chemical_formula_structural   Nd2YEr3Ta2O14
_chemical_formula_sum   'Nd2 Y1 Er3 Ta2 O14'
_cell_volume   301.64219470
_cell_formula_units_Z   1
loop_
 _symmetry_equiv_pos_site_id
 _symmetry_equiv_pos_as_xyz
  1  'x, y, z'
loop_
 _atom_site_type_symbol
 _atom_site_label
 _atom_site_symmetry_multiplicity
 _atom_site_fract_x
 _atom_site_fract_y
 _atom_site_fract_z
 _atom_site_occupancy
  Nd  Nd0  1  0.502388  0.501828  0.499332  1
  Nd  Nd1  1  0.502388  0.501828  0.000668  1
  Y  Y2  1  0.999473  0.467435  0.750000  1
  Er  Er3  1  0.533050  0.001613  0.750000  1
  Er  Er4  1  0.001274  0.533295  0.250000  1
  Er  Er5  1  0.467023  0.998680  0.250000  1
  Ta  Ta6  1  0.000334  0.000501  0.499300  1
  Ta  Ta7  1  0.000334  0.000501  0.000700  1
  O  O8  1  0.679290  0.932965  0.466559  1
  O  O9  1  0.927936  0.678141  0.529170  1
  O  O10  1  0.679290  0.932965  0.033441  1
  O  O11  1  0.927936  0.678141  0.970830  1
  O  O12  1  0.319649  0.066459  0.534001  1
  O  O13  1  0.068732  0.319789  0.465100  1
  O  O14  1  0.319649  0.066459  0.965999  1
  O  O15  1  0.068732  0.319789  0.034900  1
  O  O16  1  0.934515  0.062692  0.750000  1
  O  O17  1  0.067187  0.936036  0.250000  1
  O  O18  1  0.365952  0.638934  0.750000  1
  O  O19  1  0.637122  0.361886  0.250000  1
  O  O20  1  0.641746  0.355377  0.750000  1
  O  O21  1  0.355997  0.644687  0.250000  1
