# generated using pymatgen
data_Pu3Pa(B6W)2
_symmetry_space_group_name_H-M   'P 1'
_cell_length_a   3.71811200
_cell_length_b   9.31419616
_cell_length_c   11.45981619
_cell_angle_alpha   90.02093913
_cell_angle_beta   90.00000000
_cell_angle_gamma   90.00000000
_symmetry_Int_Tables_number   1
_chemical_formula_structural   Pu3Pa(B6W)2
_chemical_formula_sum   'Pu6 Pa2 B24 W4'
_cell_volume   396.86744070
_cell_formula_units_Z   2
loop_
 _symmetry_equiv_pos_site_id
 _symmetry_equiv_pos_as_xyz
  1  'x, y, z'
loop_
 _atom_site_type_symbol
 _atom_site_label
 _atom_site_symmetry_multiplicity
 _atom_site_fract_x
 _atom_site_fract_y
 _atom_site_fract_z
 _atom_site_occupancy
  Pu  Pu0  1  0.000000  0.834793  0.090743  1
  Pu  Pu1  1  0.000000  0.165207  0.909257  1
  Pu  Pu2  1  0.000000  0.952841  0.387053  1
  Pu  Pu3  1  0.000000  0.047159  0.612947  1
  Pu  Pu4  1  0.000000  0.453316  0.112198  1
  Pu  Pu5  1  0.000000  0.546684  0.887802  1
  Pa  Pa6  1  0.000000  0.331797  0.408223  1
  Pa  Pa7  1  0.000000  0.668203  0.591777  1
  B  B8  1  0.500000  0.552260  0.432607  1
  B  B9  1  0.500000  0.447740  0.567393  1
  B  B10  1  0.500000  0.052522  0.067300  1
  B  B11  1  0.500000  0.947478  0.932700  1
  B  B12  1  0.500000  0.746000  0.422914  1
  B  B13  1  0.500000  0.254000  0.577086  1
  B  B14  1  0.500000  0.245997  0.076502  1
  B  B15  1  0.500000  0.754003  0.923498  1
  B  B16  1  0.500000  0.802200  0.270956  1
  B  B17  1  0.500000  0.197800  0.729044  1
  B  B18  1  0.500000  0.302537  0.228859  1
  B  B19  1  0.500000  0.697463  0.771141  1
  B  B20  1  0.500000  0.642095  0.186769  1
  B  B21  1  0.500000  0.357905  0.813231  1
  B  B22  1  0.500000  0.142070  0.312734  1
  B  B23  1  0.500000  0.857930  0.687266  1
  B  B24  1  0.500000  0.986639  0.217328  1
  B  B25  1  0.500000  0.013361  0.782672  1
  B  B26  1  0.500000  0.486241  0.281915  1
  B  B27  1  0.500000  0.513759  0.718085  1
  B  B28  1  0.500000  0.635561  0.037799  1
  B  B29  1  0.500000  0.364439  0.962201  1
  B  B30  1  0.500000  0.136584  0.462207  1
  B  B31  1  0.500000  0.863416  0.537793  1
  W  W32  1  0.000000  0.644454  0.320583  1
  W  W33  1  0.000000  0.355546  0.679417  1
  W  W34  1  0.000000  0.145645  0.180718  1
  W  W35  1  0.000000  0.854355  0.819282  1
