# generated using pymatgen
data_LiNb8CdS16
_symmetry_space_group_name_H-M   'P 1'
_cell_length_a   6.75801200
_cell_length_b   6.75801021
_cell_length_c   13.36894600
_cell_angle_alpha   90.00000000
_cell_angle_beta   90.00000000
_cell_angle_gamma   120.00000878
_symmetry_Int_Tables_number   1
_chemical_formula_structural   LiNb8CdS16
_chemical_formula_sum   'Li1 Nb8 Cd1 S16'
_cell_volume   528.76848662
_cell_formula_units_Z   1
loop_
 _symmetry_equiv_pos_site_id
 _symmetry_equiv_pos_as_xyz
  1  'x, y, z'
loop_
 _atom_site_type_symbol
 _atom_site_label
 _atom_site_symmetry_multiplicity
 _atom_site_fract_x
 _atom_site_fract_y
 _atom_site_fract_z
 _atom_site_occupancy
  Li  Li0  1  0.000000  0.000000  0.000000  1
  Nb  Nb1  1  0.000000  0.000000  0.238825  1
  Nb  Nb2  1  0.000000  0.000000  0.761175  1
  Nb  Nb3  1  0.505407  0.494593  0.240720  1
  Nb  Nb4  1  0.505407  0.010816  0.240720  1
  Nb  Nb5  1  0.989184  0.494593  0.240720  1
  Nb  Nb6  1  0.494593  0.505407  0.759280  1
  Nb  Nb7  1  0.494593  0.989184  0.759280  1
  Nb  Nb8  1  0.010816  0.505407  0.759280  1
  Cd  Cd9  1  0.000000  0.000000  0.500000  1
  S  S10  1  0.333333  0.666667  0.877879  1
  S  S11  1  0.666667  0.333333  0.122121  1
  S  S12  1  0.666667  0.333333  0.359934  1
  S  S13  1  0.333333  0.666667  0.640066  1
  S  S14  1  0.167620  0.832380  0.356577  1
  S  S15  1  0.167620  0.335240  0.356577  1
  S  S16  1  0.664760  0.832380  0.356577  1
  S  S17  1  0.832380  0.167620  0.643423  1
  S  S18  1  0.832380  0.664760  0.643423  1
  S  S19  1  0.335240  0.167620  0.643423  1
  S  S20  1  0.832166  0.167834  0.874388  1
  S  S21  1  0.832166  0.664334  0.874388  1
  S  S22  1  0.335666  0.167834  0.874388  1
  S  S23  1  0.167834  0.832166  0.125612  1
  S  S24  1  0.167834  0.335666  0.125612  1
  S  S25  1  0.664334  0.832166  0.125612  1
