# generated using pymatgen
data_Tm8Re11Si16W
_symmetry_space_group_name_H-M   'P 1'
_cell_length_a   6.74317721
_cell_length_b   6.74317721
_cell_length_c   12.73828215
_cell_angle_alpha   90.09197953
_cell_angle_beta   89.90802047
_cell_angle_gamma   90.00958763
_symmetry_Int_Tables_number   1
_chemical_formula_structural   Tm8Re11Si16W
_chemical_formula_sum   'Tm8 Re11 Si16 W1'
_cell_volume   579.21377951
_cell_formula_units_Z   1
loop_
 _symmetry_equiv_pos_site_id
 _symmetry_equiv_pos_as_xyz
  1  'x, y, z'
loop_
 _atom_site_type_symbol
 _atom_site_label
 _atom_site_symmetry_multiplicity
 _atom_site_fract_x
 _atom_site_fract_y
 _atom_site_fract_z
 _atom_site_occupancy
  Tm  Tm0  1  0.010762  0.663107  0.031000  1
  Tm  Tm1  1  0.991433  0.335444  0.531264  1
  Tm  Tm2  1  0.335444  0.991433  0.468736  1
  Tm  Tm3  1  0.161407  0.491801  0.781046  1
  Tm  Tm4  1  0.837919  0.507183  0.279360  1
  Tm  Tm5  1  0.491801  0.161407  0.218954  1
  Tm  Tm6  1  0.507183  0.837919  0.720640  1
  Tm  Tm7  1  0.663107  0.010762  0.969000  1
  Re  Re8  1  0.162717  0.833776  0.250992  1
  Re  Re9  1  0.336850  0.336850  0.000000  1
  Re  Re10  1  0.010959  0.811836  0.630215  1
  Re  Re11  1  0.983094  0.188506  0.131431  1
  Re  Re12  1  0.811836  0.010959  0.369785  1
  Re  Re13  1  0.314655  0.479639  0.381449  1
  Re  Re14  1  0.691549  0.521144  0.883176  1
  Re  Re15  1  0.479639  0.314655  0.618551  1
  Re  Re16  1  0.521144  0.691549  0.116824  1
  Re  Re17  1  0.188506  0.983094  0.868569  1
  Re  Re18  1  0.833776  0.162717  0.749008  1
  Si  Si19  1  0.023253  0.718395  0.436361  1
  Si  Si20  1  0.617594  0.300182  0.432205  1
  Si  Si21  1  0.386823  0.696768  0.932173  1
  Si  Si22  1  0.194617  0.113619  0.682961  1
  Si  Si23  1  0.300182  0.617594  0.567795  1
  Si  Si24  1  0.696768  0.386823  0.067827  1
  Si  Si25  1  0.805693  0.886550  0.182641  1
  Si  Si26  1  0.113619  0.194617  0.317039  1
  Si  Si27  1  0.981888  0.275605  0.939426  1
  Si  Si28  1  0.718395  0.023253  0.563639  1
  Si  Si29  1  0.230014  0.481374  0.188315  1
  Si  Si30  1  0.773008  0.518341  0.690080  1
  Si  Si31  1  0.481374  0.230014  0.811685  1
  Si  Si32  1  0.518341  0.773008  0.309920  1
  Si  Si33  1  0.275605  0.981888  0.060574  1
  Si  Si34  1  0.886550  0.805693  0.817359  1
  W  W35  1  0.662492  0.662492  0.500000  1
