# generated using pymatgen
data_PrSmHo4Ta2O14
_symmetry_space_group_name_H-M   'P 1'
_cell_length_a   6.48904209
_cell_length_b   6.48904093
_cell_length_c   7.59126817
_cell_angle_alpha   89.97998688
_cell_angle_beta   90.02000952
_cell_angle_gamma   109.30271344
_symmetry_Int_Tables_number   1
_chemical_formula_structural   PrSmHo4Ta2O14
_chemical_formula_sum   'Pr1 Sm1 Ho4 Ta2 O14'
_cell_volume   301.68144973
_cell_formula_units_Z   1
loop_
 _symmetry_equiv_pos_site_id
 _symmetry_equiv_pos_as_xyz
  1  'x, y, z'
loop_
 _atom_site_type_symbol
 _atom_site_label
 _atom_site_symmetry_multiplicity
 _atom_site_fract_x
 _atom_site_fract_y
 _atom_site_fract_z
 _atom_site_occupancy
  Pr  Pr0  1  0.500000  0.500000  0.500000  1
  Sm  Sm1  1  0.500000  0.500000  0.000000  1
  Ho  Ho2  1  0.533285  0.001041  0.751527  1
  Ho  Ho3  1  0.001041  0.533285  0.248473  1
  Ho  Ho4  1  0.466715  0.998959  0.248473  1
  Ho  Ho5  1  0.998959  0.466715  0.751527  1
  Ta  Ta6  1  0.000000  0.000000  0.500000  1
  Ta  Ta7  1  0.000000  0.000000  0.000000  1
  O  O8  1  0.679018  0.931764  0.467400  1
  O  O9  1  0.931764  0.679018  0.532600  1
  O  O10  1  0.679015  0.929925  0.032353  1
  O  O11  1  0.929925  0.679015  0.967647  1
  O  O12  1  0.320982  0.068236  0.532600  1
  O  O13  1  0.068236  0.320982  0.467400  1
  O  O14  1  0.320985  0.070075  0.967647  1
  O  O15  1  0.070075  0.320985  0.032353  1
  O  O16  1  0.935058  0.064942  0.749925  1
  O  O17  1  0.064942  0.935058  0.250075  1
  O  O18  1  0.363629  0.636370  0.754863  1
  O  O19  1  0.636370  0.363629  0.245137  1
  O  O20  1  0.642983  0.357017  0.754056  1
  O  O21  1  0.357017  0.642983  0.245944  1
