# generated using pymatgen
data_TbV6InO18
_symmetry_space_group_name_H-M   'P 1'
_cell_length_a   8.33508303
_cell_length_b   8.36159815
_cell_length_c   10.74570700
_cell_angle_alpha   122.34262988
_cell_angle_beta   122.13844463
_cell_angle_gamma   52.31105090
_symmetry_Int_Tables_number   1
_chemical_formula_structural   TbV6InO18
_chemical_formula_sum   'Tb1 V6 In1 O18'
_cell_volume   476.61585225
_cell_formula_units_Z   1
loop_
 _symmetry_equiv_pos_site_id
 _symmetry_equiv_pos_as_xyz
  1  'x, y, z'
loop_
 _atom_site_type_symbol
 _atom_site_label
 _atom_site_symmetry_multiplicity
 _atom_site_fract_x
 _atom_site_fract_y
 _atom_site_fract_z
 _atom_site_occupancy
  Tb  Tb0  1  0.992633  0.508386  0.498313  1
  V  V1  1  0.497349  0.731093  0.171447  1
  V  V2  1  0.045131  0.958925  0.252937  1
  V  V3  1  0.303788  0.476832  0.324741  1
  V  V4  1  0.719884  0.510679  0.680668  1
  V  V5  1  0.967785  0.056382  0.768424  1
  V  V6  1  0.485372  0.289951  0.831179  1
  In  In7  1  0.511396  0.990905  0.000911  1
  O  O8  1  0.829477  0.954585  0.096553  1
  O  O9  1  0.393092  0.302028  0.169328  1
  O  O10  1  0.597840  0.843900  0.157531  1
  O  O11  1  0.241198  0.922997  0.202030  1
  O  O12  1  0.144750  0.423858  0.333161  1
  O  O13  1  0.667879  0.628753  0.319619  1
  O  O14  1  0.162366  0.746022  0.323009  1
  O  O15  1  0.978465  0.195437  0.392528  1
  O  O16  1  0.522359  0.462962  0.500018  1
  O  O17  1  0.978640  0.834531  0.614558  1
  O  O18  1  0.316811  0.356968  0.666970  1
  O  O19  1  0.836058  0.606219  0.666133  1
  O  O20  1  0.913249  0.256970  0.713603  1
  O  O21  1  0.432240  0.136646  0.846615  1
  O  O22  1  0.609119  0.682412  0.825585  1
  O  O23  1  0.757962  0.154919  0.836816  1
  O  O24  1  0.203380  0.003653  0.910207  1
  O  O25  1  0.454377  0.526590  0.994533  1
