# generated using pymatgen
data_Nb3ICl7
_symmetry_space_group_name_H-M   'P 1'
_cell_length_a   6.92727700
_cell_length_b   6.92727687
_cell_length_c   14.01574500
_cell_angle_alpha   90.00000000
_cell_angle_beta   90.00000000
_cell_angle_gamma   119.99999584
_symmetry_Int_Tables_number   1
_chemical_formula_structural   Nb3ICl7
_chemical_formula_sum   'Nb6 I2 Cl14'
_cell_volume   582.46782092
_cell_formula_units_Z   2
loop_
 _symmetry_equiv_pos_site_id
 _symmetry_equiv_pos_as_xyz
  1  'x, y, z'
loop_
 _atom_site_type_symbol
 _atom_site_label
 _atom_site_symmetry_multiplicity
 _atom_site_fract_x
 _atom_site_fract_y
 _atom_site_fract_z
 _atom_site_occupancy
  Nb  Nb0  1  0.528154  0.471846  0.758632  1
  Nb  Nb1  1  0.528154  0.056307  0.758632  1
  Nb  Nb2  1  0.471846  0.528154  0.241368  1
  Nb  Nb3  1  0.471846  0.943693  0.241368  1
  Nb  Nb4  1  0.056307  0.528154  0.241368  1
  Nb  Nb5  1  0.943693  0.471846  0.758632  1
  I  I6  1  0.666667  0.333333  0.600763  1
  I  I7  1  0.333333  0.666667  0.399237  1
  Cl  Cl8  1  0.833035  0.166965  0.334950  1
  Cl  Cl9  1  0.833035  0.666069  0.334950  1
  Cl  Cl10  1  0.333931  0.166965  0.334950  1
  Cl  Cl11  1  0.666069  0.833035  0.665050  1
  Cl  Cl12  1  0.166965  0.333931  0.665050  1
  Cl  Cl13  1  0.166965  0.833035  0.665050  1
  Cl  Cl14  1  0.170200  0.829800  0.124929  1
  Cl  Cl15  1  0.170200  0.340401  0.124929  1
  Cl  Cl16  1  0.333333  0.666667  0.857176  1
  Cl  Cl17  1  0.666667  0.333333  0.142824  1
  Cl  Cl18  1  0.829800  0.170200  0.875071  1
  Cl  Cl19  1  0.829800  0.659599  0.875071  1
  Cl  Cl20  1  0.340401  0.170200  0.875071  1
  Cl  Cl21  1  0.659599  0.829800  0.124929  1
