# generated using pymatgen
data_Hf18Al2Re6AsP
_symmetry_space_group_name_H-M   'P 1'
_cell_length_a   8.63315800
_cell_length_b   8.63315788
_cell_length_c   8.51034900
_cell_angle_alpha   90.00000000
_cell_angle_beta   90.00000000
_cell_angle_gamma   120.00000047
_symmetry_Int_Tables_number   1
_chemical_formula_structural   Hf18Al2Re6AsP
_chemical_formula_sum   'Hf18 Al2 Re6 As1 P1'
_cell_volume   549.30983175
_cell_formula_units_Z   1
loop_
 _symmetry_equiv_pos_site_id
 _symmetry_equiv_pos_as_xyz
  1  'x, y, z'
loop_
 _atom_site_type_symbol
 _atom_site_label
 _atom_site_symmetry_multiplicity
 _atom_site_fract_x
 _atom_site_fract_y
 _atom_site_fract_z
 _atom_site_occupancy
  Hf  Hf0  1  0.192192  0.807808  0.449917  1
  Hf  Hf1  1  0.192192  0.384381  0.449917  1
  Hf  Hf2  1  0.615619  0.807808  0.449917  1
  Hf  Hf3  1  0.805068  0.194932  0.552756  1
  Hf  Hf4  1  0.805068  0.610137  0.552756  1
  Hf  Hf5  1  0.389863  0.194932  0.552756  1
  Hf  Hf6  1  0.805068  0.194932  0.947244  1
  Hf  Hf7  1  0.805068  0.610137  0.947244  1
  Hf  Hf8  1  0.389863  0.194932  0.947244  1
  Hf  Hf9  1  0.192192  0.807808  0.050083  1
  Hf  Hf10  1  0.192192  0.384381  0.050083  1
  Hf  Hf11  1  0.615619  0.807808  0.050083  1
  Hf  Hf12  1  0.544663  0.455337  0.250000  1
  Hf  Hf13  1  0.544663  0.089324  0.250000  1
  Hf  Hf14  1  0.910676  0.455337  0.250000  1
  Hf  Hf15  1  0.455454  0.544546  0.750000  1
  Hf  Hf16  1  0.455454  0.910909  0.750000  1
  Hf  Hf17  1  0.089091  0.544546  0.750000  1
  Al  Al18  1  0.000000  0.000000  0.500339  1
  Al  Al19  1  0.000000  0.000000  0.999661  1
  Re  Re20  1  0.887822  0.112178  0.250000  1
  Re  Re21  1  0.887822  0.775644  0.250000  1
  Re  Re22  1  0.224356  0.112178  0.250000  1
  Re  Re23  1  0.112100  0.887900  0.750000  1
  Re  Re24  1  0.112100  0.224200  0.750000  1
  Re  Re25  1  0.775800  0.887900  0.750000  1
  As  As26  1  0.333333  0.666667  0.250000  1
  P  P27  1  0.666667  0.333333  0.750000  1
