# generated using pymatgen
data_Tb3Ce(CO)2
_symmetry_space_group_name_H-M   'P 1'
_cell_length_a   6.13718625
_cell_length_b   6.13718562
_cell_length_c   6.13718600
_cell_angle_alpha   132.11212296
_cell_angle_beta   132.21447709
_cell_angle_gamma   69.97125972
_symmetry_Int_Tables_number   1
_chemical_formula_structural   Tb3Ce(CO)2
_chemical_formula_sum   'Tb3 Ce1 C2 O2'
_cell_volume   124.52289532
_cell_formula_units_Z   1
loop_
 _symmetry_equiv_pos_site_id
 _symmetry_equiv_pos_as_xyz
  1  'x, y, z'
loop_
 _atom_site_type_symbol
 _atom_site_label
 _atom_site_symmetry_multiplicity
 _atom_site_fract_x
 _atom_site_fract_y
 _atom_site_fract_z
 _atom_site_occupancy
  Tb  Tb0  1  0.752074  0.752074  0.000000  1
  Tb  Tb1  1  0.249539  0.249539  0.000000  1
  Tb  Tb2  1  0.999091  0.499091  0.500000  1
  Ce  Ce3  1  0.502715  0.002715  0.500000  1
  C  C4  1  0.000821  0.000821  0.000000  1
  C  C5  1  0.745173  0.245173  0.500000  1
  O  O6  1  0.501133  0.501133  0.000000  1
  O  O7  1  0.249455  0.749455  0.500000  1
