# generated using pymatgen
data_TmSc2(ReSi2)2
_symmetry_space_group_name_H-M   'P 1'
_cell_length_a   10.31316614
_cell_length_b   10.31316574
_cell_length_c   13.91173802
_cell_angle_alpha   55.56520869
_cell_angle_beta   124.43478960
_cell_angle_gamma   149.61582509
_symmetry_Int_Tables_number   1
_chemical_formula_structural   TmSc2(ReSi2)2
_chemical_formula_sum   'Tm4 Sc8 Re8 Si16'
_cell_volume   606.47570861
_cell_formula_units_Z   4
loop_
 _symmetry_equiv_pos_site_id
 _symmetry_equiv_pos_as_xyz
  1  'x, y, z'
loop_
 _atom_site_type_symbol
 _atom_site_label
 _atom_site_symmetry_multiplicity
 _atom_site_fract_x
 _atom_site_fract_y
 _atom_site_fract_z
 _atom_site_occupancy
  Tm  Tm0  1  0.292365  0.964247  0.361161  1
  Tm  Tm1  1  0.964247  0.292365  0.138840  1
  Tm  Tm2  1  0.707635  0.035753  0.638838  1
  Tm  Tm3  1  0.035752  0.707635  0.861161  1
  Sc  Sc4  1  0.532906  0.697771  0.341204  1
  Sc  Sc5  1  0.697771  0.532906  0.158796  1
  Sc  Sc6  1  0.467095  0.302231  0.658795  1
  Sc  Sc7  1  0.302230  0.467096  0.841204  1
  Sc  Sc8  1  0.519394  0.751340  0.046228  1
  Sc  Sc9  1  0.751340  0.519394  0.453773  1
  Sc  Sc10  1  0.480606  0.248660  0.953774  1
  Sc  Sc11  1  0.248660  0.480605  0.546227  1
  Re  Re12  1  0.641442  0.171614  0.217203  1
  Re  Re13  1  0.171614  0.641442  0.282797  1
  Re  Re14  1  0.358557  0.828386  0.782796  1
  Re  Re15  1  0.828385  0.358557  0.717203  1
  Re  Re16  1  0.136586  0.087374  0.422900  1
  Re  Re17  1  0.087374  0.136585  0.077100  1
  Re  Re18  1  0.863414  0.912625  0.577100  1
  Re  Re19  1  0.912626  0.863414  0.922900  1
  Si  Si20  1  0.600803  0.946240  0.426279  1
  Si  Si21  1  0.946239  0.600804  0.073720  1
  Si  Si22  1  0.399196  0.053760  0.573720  1
  Si  Si23  1  0.053760  0.399196  0.926279  1
  Si  Si24  1  0.390788  0.848438  0.111293  1
  Si  Si25  1  0.848438  0.390788  0.388707  1
  Si  Si26  1  0.609212  0.151561  0.888707  1
  Si  Si27  1  0.151561  0.609212  0.611293  1
  Si  Si28  1  0.228179  0.998618  0.122676  1
  Si  Si29  1  0.998618  0.228179  0.377324  1
  Si  Si30  1  0.771820  0.001381  0.877324  1
  Si  Si31  1  0.001381  0.771820  0.622676  1
  Si  Si32  1  0.888419  0.888420  0.249999  1
  Si  Si33  1  0.111580  0.111580  0.750000  1
  Si  Si34  1  0.361999  0.362000  0.249999  1
  Si  Si35  1  0.638000  0.638000  0.750000  1
