# generated using pymatgen
data_Tb4Al17AgPd6
_symmetry_space_group_name_H-M   'P 1'
_cell_length_a   7.67548467
_cell_length_b   7.68521560
_cell_length_c   9.50421200
_cell_angle_alpha   90.03001514
_cell_angle_beta   90.02396940
_cell_angle_gamma   119.65250775
_symmetry_Int_Tables_number   1
_chemical_formula_structural   Tb4Al17AgPd6
_chemical_formula_sum   'Tb4 Al17 Ag1 Pd6'
_cell_volume   487.21259139
_cell_formula_units_Z   1
loop_
 _symmetry_equiv_pos_site_id
 _symmetry_equiv_pos_as_xyz
  1  'x, y, z'
loop_
 _atom_site_type_symbol
 _atom_site_label
 _atom_site_symmetry_multiplicity
 _atom_site_fract_x
 _atom_site_fract_y
 _atom_site_fract_z
 _atom_site_occupancy
  Tb  Tb0  1  0.994621  0.672990  0.249751  1
  Tb  Tb1  1  0.005320  0.330818  0.752711  1
  Tb  Tb2  1  0.665192  0.990397  0.250039  1
  Tb  Tb3  1  0.331160  0.006035  0.750759  1
  Al  Al4  1  0.130213  0.131390  0.247097  1
  Al  Al5  1  0.869409  0.868164  0.749781  1
  Al  Al6  1  0.999978  0.656929  0.926735  1
  Al  Al7  1  0.000069  0.665287  0.576003  1
  Al  Al8  1  0.334418  0.001560  0.423326  1
  Al  Al9  1  0.000029  0.334511  0.422813  1
  Al  Al10  1  0.665836  0.999454  0.575833  1
  Al  Al11  1  0.674649  0.007616  0.927292  1
  Al  Al12  1  0.335554  0.002178  0.076176  1
  Al  Al13  1  0.332893  0.333613  0.555695  1
  Al  Al14  1  0.665935  0.665857  0.442077  1
  Al  Al15  1  0.666438  0.664950  0.054761  1
  Al  Al16  1  0.325221  0.333626  0.947883  1
  Al  Al17  1  0.337974  0.545422  0.246366  1
  Al  Al18  1  0.659777  0.454577  0.748622  1
  Al  Al19  1  0.547717  0.338557  0.248382  1
  Al  Al20  1  0.453731  0.661756  0.749984  1
  Ag  Ag21  1  0.001553  0.335001  0.090519  1
  Pd  Pd22  1  0.653540  0.325880  0.993272  1
  Pd  Pd23  1  0.346015  0.690610  0.997121  1
  Pd  Pd24  1  0.328224  0.672019  0.499720  1
  Pd  Pd25  1  0.672036  0.327762  0.500141  1
  Pd  Pd26  1  0.001688  0.982714  0.996873  1
  Pd  Pd27  1  0.000807  0.000326  0.500271  1
