# generated using pymatgen
data_Li3Nd8Si12Ge
_symmetry_space_group_name_H-M   'P 1'
_cell_length_a   11.03586625
_cell_length_b   9.32975713
_cell_length_c   8.33151200
_cell_angle_alpha   77.12479232
_cell_angle_beta   55.47086791
_cell_angle_gamma   47.36900645
_symmetry_Int_Tables_number   1
_chemical_formula_structural   Li3Nd8Si12Ge
_chemical_formula_sum   'Li3 Nd8 Si12 Ge1'
_cell_volume   501.25568553
_cell_formula_units_Z   1
loop_
 _symmetry_equiv_pos_site_id
 _symmetry_equiv_pos_as_xyz
  1  'x, y, z'
loop_
 _atom_site_type_symbol
 _atom_site_label
 _atom_site_symmetry_multiplicity
 _atom_site_fract_x
 _atom_site_fract_y
 _atom_site_fract_z
 _atom_site_occupancy
  Li  Li0  1  0.833063  0.167328  0.832871  1
  Li  Li1  1  0.166827  0.832690  0.167360  1
  Li  Li2  1  0.416904  0.082653  0.417000  1
  Nd  Nd3  1  0.373219  0.378779  0.627809  1
  Nd  Nd4  1  0.629398  0.618900  0.373208  1
  Nd  Nd5  1  0.872650  0.873828  0.627267  1
  Nd  Nd6  1  0.626216  0.626802  0.873747  1
  Nd  Nd7  1  0.881477  0.869327  0.122291  1
  Nd  Nd8  1  0.122730  0.125748  0.880403  1
  Nd  Nd9  1  0.369139  0.377593  0.124649  1
  Nd  Nd10  1  0.124582  0.129153  0.370102  1
  Si  Si11  1  0.665936  0.333843  0.666122  1
  Si  Si12  1  0.333770  0.666904  0.333373  1
  Si  Si13  1  0.581410  0.919236  0.580363  1
  Si  Si14  1  0.912593  0.587239  0.911845  1
  Si  Si15  1  0.333734  0.664639  0.833098  1
  Si  Si16  1  0.172474  0.834922  0.661217  1
  Si  Si17  1  0.833654  0.168980  0.333172  1
  Si  Si18  1  0.661687  0.330339  0.172660  1
  Si  Si19  1  0.914925  0.595323  0.423090  1
  Si  Si20  1  0.081649  0.408531  0.587849  1
  Si  Si21  1  0.421489  0.066892  0.917069  1
  Si  Si22  1  0.587595  0.922637  0.081688  1
  Ge  Ge23  1  0.082882  0.417710  0.081748  1
