# generated using pymatgen
data_Ce2Th4Ir17Rh
_symmetry_space_group_name_H-M   'P 1'
_cell_length_a   5.35899372
_cell_length_b   5.35771029
_cell_length_c   17.73011306
_cell_angle_alpha   89.93436658
_cell_angle_beta   90.04635998
_cell_angle_gamma   119.89839991
_symmetry_Int_Tables_number   1
_chemical_formula_structural   Ce2Th4Ir17Rh
_chemical_formula_sum   'Ce2 Th4 Ir17 Rh1'
_cell_volume   441.31432648
_cell_formula_units_Z   1
loop_
 _symmetry_equiv_pos_site_id
 _symmetry_equiv_pos_as_xyz
  1  'x, y, z'
loop_
 _atom_site_type_symbol
 _atom_site_label
 _atom_site_symmetry_multiplicity
 _atom_site_fract_x
 _atom_site_fract_y
 _atom_site_fract_z
 _atom_site_occupancy
  Ce  Ce0  1  0.666635  0.333411  0.458518  1
  Ce  Ce1  1  0.333292  0.666836  0.541564  1
  Th  Th2  1  0.333346  0.666657  0.956912  1
  Th  Th3  1  0.666703  0.333323  0.042968  1
  Th  Th4  1  0.333304  0.666619  0.747810  1
  Th  Th5  1  0.666626  0.333276  0.252581  1
  Ir  Ir6  1  0.167631  0.832385  0.374529  1
  Ir  Ir7  1  0.167609  0.335214  0.374537  1
  Ir  Ir8  1  0.664783  0.832379  0.374525  1
  Ir  Ir9  1  0.832704  0.167331  0.625540  1
  Ir  Ir10  1  0.832676  0.665407  0.625543  1
  Ir  Ir11  1  0.334611  0.167356  0.625544  1
  Ir  Ir12  1  0.832822  0.167154  0.872604  1
  Ir  Ir13  1  0.832841  0.665635  0.872579  1
  Ir  Ir14  1  0.334324  0.167131  0.872572  1
  Ir  Ir15  1  0.167560  0.832474  0.127271  1
  Ir  Ir16  1  0.167543  0.335028  0.127279  1
  Ir  Ir17  1  0.665010  0.832489  0.127301  1
  Ir  Ir18  1  0.666663  0.333319  0.749361  1
  Ir  Ir19  1  0.000032  0.000006  0.250754  1
  Ir  Ir20  1  0.999980  0.999979  0.749129  1
  Ir  Ir21  1  0.999980  0.000034  0.499754  1
  Ir  Ir22  1  0.000013  0.999970  0.000236  1
  Rh  Rh23  1  0.333312  0.666586  0.250589  1
