# generated using pymatgen
data_Hf15ZrCo4Pd4(CN)2
_symmetry_space_group_name_H-M   'P 1'
_cell_length_a   8.64794758
_cell_length_b   8.62387663
_cell_length_c   8.62387700
_cell_angle_alpha   59.99815353
_cell_angle_beta   59.90693462
_cell_angle_gamma   59.90695145
_symmetry_Int_Tables_number   1
_chemical_formula_structural   Hf15ZrCo4Pd4(CN)2
_chemical_formula_sum   'Hf15 Zr1 Co4 Pd4 C2 N2'
_cell_volume   454.13482028
_cell_formula_units_Z   1
loop_
 _symmetry_equiv_pos_site_id
 _symmetry_equiv_pos_as_xyz
  1  'x, y, z'
loop_
 _atom_site_type_symbol
 _atom_site_label
 _atom_site_symmetry_multiplicity
 _atom_site_fract_x
 _atom_site_fract_y
 _atom_site_fract_z
 _atom_site_occupancy
  Hf  Hf0  1  0.082445  0.639239  0.639084  1
  Hf  Hf1  1  0.639528  0.081849  0.639440  1
  Hf  Hf2  1  0.639468  0.639548  0.081905  1
  Hf  Hf3  1  0.639386  0.639060  0.638865  1
  Hf  Hf4  1  0.817886  0.817053  0.182974  1
  Hf  Hf5  1  0.182022  0.182872  0.817410  1
  Hf  Hf6  1  0.818315  0.183003  0.816954  1
  Hf  Hf7  1  0.182236  0.817653  0.182625  1
  Hf  Hf8  1  0.183165  0.817312  0.816672  1
  Hf  Hf9  1  0.816873  0.183573  0.183175  1
  Hf  Hf10  1  0.435033  0.435568  0.064808  1
  Hf  Hf11  1  0.065709  0.065482  0.434394  1
  Hf  Hf12  1  0.434539  0.065310  0.435145  1
  Hf  Hf13  1  0.065456  0.434639  0.065195  1
  Hf  Hf14  1  0.065629  0.434300  0.434584  1
  Zr  Zr15  1  0.435325  0.064938  0.064731  1
  Co  Co16  1  0.450389  0.850153  0.848750  1
  Co  Co17  1  0.850689  0.451253  0.848626  1
  Co  Co18  1  0.849913  0.849266  0.452195  1
  Co  Co19  1  0.851165  0.849505  0.848082  1
  Pd  Pd20  1  0.752851  0.414621  0.416186  1
  Pd  Pd21  1  0.414260  0.751151  0.418814  1
  Pd  Pd22  1  0.414779  0.417725  0.751302  1
  Pd  Pd23  1  0.415229  0.415182  0.416596  1
  C  C24  1  0.623222  0.126292  0.126722  1
  C  C25  1  0.126086  0.621235  0.126215  1
  N  N26  1  0.126075  0.125771  0.621449  1
  N  N27  1  0.122326  0.126448  0.127103  1
