# generated using pymatgen
data_TbDy3Cu2(Si2Ru)2
_symmetry_space_group_name_H-M   'P 1'
_cell_length_a   4.23608300
_cell_length_b   6.98576897
_cell_length_c   7.35815217
_cell_angle_alpha   91.57188755
_cell_angle_beta   90.00000000
_cell_angle_gamma   90.00000000
_symmetry_Int_Tables_number   1
_chemical_formula_structural   TbDy3Cu2(Si2Ru)2
_chemical_formula_sum   'Tb1 Dy3 Cu2 Si4 Ru2'
_cell_volume   217.66268705
_cell_formula_units_Z   1
loop_
 _symmetry_equiv_pos_site_id
 _symmetry_equiv_pos_as_xyz
  1  'x, y, z'
loop_
 _atom_site_type_symbol
 _atom_site_label
 _atom_site_symmetry_multiplicity
 _atom_site_fract_x
 _atom_site_fract_y
 _atom_site_fract_z
 _atom_site_occupancy
  Tb  Tb0  1  0.250000  0.991897  0.797308  1
  Dy  Dy1  1  0.750000  0.008054  0.202961  1
  Dy  Dy2  1  0.250000  0.491765  0.687337  1
  Dy  Dy3  1  0.750000  0.508235  0.312677  1
  Cu  Cu4  1  0.750000  0.833970  0.573297  1
  Cu  Cu5  1  0.250000  0.165993  0.426284  1
  Si  Si6  1  0.250000  0.299930  0.089236  1
  Si  Si7  1  0.750000  0.700010  0.911076  1
  Si  Si8  1  0.250000  0.796776  0.388286  1
  Si  Si9  1  0.750000  0.203437  0.611330  1
  Ru  Ru10  1  0.750000  0.347783  0.933981  1
  Ru  Ru11  1  0.250000  0.652150  0.066227  1
