# generated using pymatgen
data_Ce2Al20CrRh3
_symmetry_space_group_name_H-M   'P 1'
_cell_length_a   6.86332122
_cell_length_b   6.88890912
_cell_length_c   9.17490993
_cell_angle_alpha   90.29288008
_cell_angle_beta   90.36192877
_cell_angle_gamma   97.43621576
_symmetry_Int_Tables_number   1
_chemical_formula_structural   Ce2Al20CrRh3
_chemical_formula_sum   'Ce2 Al20 Cr1 Rh3'
_cell_volume   430.13234701
_cell_formula_units_Z   1
loop_
 _symmetry_equiv_pos_site_id
 _symmetry_equiv_pos_as_xyz
  1  'x, y, z'
loop_
 _atom_site_type_symbol
 _atom_site_label
 _atom_site_symmetry_multiplicity
 _atom_site_fract_x
 _atom_site_fract_y
 _atom_site_fract_z
 _atom_site_occupancy
  Ce  Ce0  1  0.869859  0.116853  0.746458  1
  Ce  Ce1  1  0.130141  0.883147  0.253542  1
  Al  Al2  1  0.591565  0.862298  0.253009  1
  Al  Al3  1  0.775846  0.521502  0.249205  1
  Al  Al4  1  0.157652  0.840753  0.896851  1
  Al  Al5  1  0.408435  0.137702  0.746991  1
  Al  Al6  1  0.621178  0.377896  0.947665  1
  Al  Al7  1  0.838324  0.157139  0.399128  1
  Al  Al8  1  0.776674  0.777301  0.000104  1
  Al  Al9  1  0.860107  0.592566  0.749230  1
  Al  Al10  1  0.842348  0.159247  0.103149  1
  Al  Al11  1  0.224154  0.478498  0.750795  1
  Al  Al12  1  0.161676  0.842861  0.600872  1
  Al  Al13  1  0.774168  0.779454  0.501497  1
  Al  Al14  1  0.481690  0.223268  0.255919  1
  Al  Al15  1  0.618799  0.372770  0.549078  1
  Al  Al16  1  0.225832  0.220546  0.498503  1
  Al  Al17  1  0.381201  0.627230  0.450922  1
  Al  Al18  1  0.139893  0.407434  0.250770  1
  Al  Al19  1  0.518310  0.776732  0.744081  1
  Al  Al20  1  0.378822  0.622104  0.052335  1
  Al  Al21  1  0.223326  0.222699  0.999896  1
  Cr  Cr22  1  0.500000  0.000000  0.500000  1
  Rh  Rh23  1  0.500000  0.000000  0.000000  1
  Rh  Rh24  1  0.000000  0.500000  0.000000  1
  Rh  Rh25  1  0.000000  0.500000  0.500000  1
