# generated using pymatgen
data_LaCe3(CdRh2)2
_symmetry_space_group_name_H-M   'P 1'
_cell_length_a   7.73702832
_cell_length_b   7.73702832
_cell_length_c   3.75196000
_cell_angle_alpha   90.00000000
_cell_angle_beta   90.00000000
_cell_angle_gamma   91.19162418
_symmetry_Int_Tables_number   1
_chemical_formula_structural   LaCe3(CdRh2)2
_chemical_formula_sum   'La1 Ce3 Cd2 Rh4'
_cell_volume   224.54978320
_cell_formula_units_Z   1
loop_
 _symmetry_equiv_pos_site_id
 _symmetry_equiv_pos_as_xyz
  1  'x, y, z'
loop_
 _atom_site_type_symbol
 _atom_site_label
 _atom_site_symmetry_multiplicity
 _atom_site_fract_x
 _atom_site_fract_y
 _atom_site_fract_z
 _atom_site_occupancy
  La  La0  1  0.166937  0.333063  0.500000  1
  Ce  Ce1  1  0.831177  0.668823  0.500000  1
  Ce  Ce2  1  0.331643  0.833514  0.500000  1
  Ce  Ce3  1  0.666486  0.168357  0.500000  1
  Cd  Cd4  1  0.997847  0.999671  0.000000  1
  Cd  Cd5  1  0.500329  0.502153  0.000000  1
  Rh  Rh6  1  0.850524  0.364443  0.000000  1
  Rh  Rh7  1  0.377188  0.122812  0.000000  1
  Rh  Rh8  1  0.642311  0.857689  0.000000  1
  Rh  Rh9  1  0.135557  0.649476  0.000000  1
