# generated using pymatgen
data_Sc9URe3P
_symmetry_space_group_name_H-M   'P 1'
_cell_length_a   8.82166800
_cell_length_b   8.82166835
_cell_length_c   8.45225000
_cell_angle_alpha   90.00000000
_cell_angle_beta   90.00000000
_cell_angle_gamma   119.99999867
_symmetry_Int_Tables_number   1
_chemical_formula_structural   Sc9URe3P
_chemical_formula_sum   'Sc18 U2 Re6 P2'
_cell_volume   569.64515444
_cell_formula_units_Z   2
loop_
 _symmetry_equiv_pos_site_id
 _symmetry_equiv_pos_as_xyz
  1  'x, y, z'
loop_
 _atom_site_type_symbol
 _atom_site_label
 _atom_site_symmetry_multiplicity
 _atom_site_fract_x
 _atom_site_fract_y
 _atom_site_fract_z
 _atom_site_occupancy
  Sc  Sc0  1  0.203208  0.796792  0.454095  1
  Sc  Sc1  1  0.203208  0.406418  0.454095  1
  Sc  Sc2  1  0.593582  0.796792  0.454095  1
  Sc  Sc3  1  0.796792  0.203208  0.545905  1
  Sc  Sc4  1  0.796792  0.593582  0.545905  1
  Sc  Sc5  1  0.406418  0.203208  0.545905  1
  Sc  Sc6  1  0.796792  0.203208  0.954095  1
  Sc  Sc7  1  0.796792  0.593582  0.954095  1
  Sc  Sc8  1  0.406418  0.203208  0.954095  1
  Sc  Sc9  1  0.203208  0.796792  0.045905  1
  Sc  Sc10  1  0.203208  0.406418  0.045905  1
  Sc  Sc11  1  0.593582  0.796792  0.045905  1
  Sc  Sc12  1  0.540167  0.459833  0.250000  1
  Sc  Sc13  1  0.540167  0.080332  0.250000  1
  Sc  Sc14  1  0.919668  0.459833  0.250000  1
  Sc  Sc15  1  0.459833  0.540167  0.750000  1
  Sc  Sc16  1  0.459833  0.919668  0.750000  1
  Sc  Sc17  1  0.080332  0.540167  0.750000  1
  U  U18  1  0.000000  0.000000  0.500000  1
  U  U19  1  0.000000  0.000000  0.000000  1
  Re  Re20  1  0.891014  0.108986  0.250000  1
  Re  Re21  1  0.891014  0.782028  0.250000  1
  Re  Re22  1  0.217972  0.108986  0.250000  1
  Re  Re23  1  0.108986  0.891014  0.750000  1
  Re  Re24  1  0.108986  0.217972  0.750000  1
  Re  Re25  1  0.782028  0.891014  0.750000  1
  P  P26  1  0.333333  0.666667  0.250000  1
  P  P27  1  0.666667  0.333333  0.750000  1
