# generated using pymatgen
data_La2Nd3OsRu
_symmetry_space_group_name_H-M   'P 1'
_cell_length_a   9.07859990
_cell_length_b   9.07859894
_cell_length_c   7.38464100
_cell_angle_alpha   84.37416485
_cell_angle_beta   84.37416545
_cell_angle_gamma   43.34051110
_symmetry_Int_Tables_number   1
_chemical_formula_structural   La2Nd3OsRu
_chemical_formula_sum   'La4 Nd6 Os2 Ru2'
_cell_volume   415.40523859
_cell_formula_units_Z   2
loop_
 _symmetry_equiv_pos_site_id
 _symmetry_equiv_pos_as_xyz
  1  'x, y, z'
loop_
 _atom_site_type_symbol
 _atom_site_label
 _atom_site_symmetry_multiplicity
 _atom_site_fract_x
 _atom_site_fract_y
 _atom_site_fract_z
 _atom_site_occupancy
  La  La0  1  0.015094  0.798319  0.908842  1
  La  La1  1  0.201681  0.984906  0.591158  1
  La  La2  1  0.984612  0.203392  0.094676  1
  La  La3  1  0.796608  0.015388  0.405324  1
  Nd  Nd4  1  0.357875  0.211327  0.817338  1
  Nd  Nd5  1  0.788673  0.642125  0.682662  1
  Nd  Nd6  1  0.638333  0.791319  0.182331  1
  Nd  Nd7  1  0.208681  0.361667  0.317669  1
  Nd  Nd8  1  0.569293  0.430707  0.750000  1
  Nd  Nd9  1  0.428935  0.571065  0.250000  1
  Os  Os10  1  0.170449  0.607975  0.579661  1
  Os  Os11  1  0.392025  0.829551  0.920339  1
  Ru  Ru12  1  0.835529  0.387790  0.415421  1
  Ru  Ru13  1  0.612210  0.164471  0.084579  1
