# generated using pymatgen
data_Ho3Er3(Si3Pt2)4
_symmetry_space_group_name_H-M   'P 1'
_cell_length_a   4.23828800
_cell_length_b   8.54316762
_cell_length_c   12.91198802
_cell_angle_alpha   80.25119650
_cell_angle_beta   90.00000000
_cell_angle_gamma   90.00000000
_symmetry_Int_Tables_number   1
_chemical_formula_structural   Ho3Er3(Si3Pt2)4
_chemical_formula_sum   'Ho3 Er3 Si12 Pt8'
_cell_volume   460.77127539
_cell_formula_units_Z   1
loop_
 _symmetry_equiv_pos_site_id
 _symmetry_equiv_pos_as_xyz
  1  'x, y, z'
loop_
 _atom_site_type_symbol
 _atom_site_label
 _atom_site_symmetry_multiplicity
 _atom_site_fract_x
 _atom_site_fract_y
 _atom_site_fract_z
 _atom_site_occupancy
  Ho  Ho0  1  0.750000  0.416392  0.813528  1
  Ho  Ho1  1  0.750000  0.926374  0.815692  1
  Ho  Ho2  1  0.250000  0.073586  0.184266  1
  Er  Er3  1  0.250000  0.766305  0.439370  1
  Er  Er4  1  0.250000  0.583626  0.186611  1
  Er  Er5  1  0.750000  0.233694  0.560659  1
  Si  Si6  1  0.750000  0.588812  0.571426  1
  Si  Si7  1  0.750000  0.126988  0.004610  1
  Si  Si8  1  0.750000  0.872740  0.573610  1
  Si  Si9  1  0.250000  0.696393  0.713655  1
  Si  Si10  1  0.750000  0.303662  0.286330  1
  Si  Si11  1  0.750000  0.805628  0.277096  1
  Si  Si12  1  0.250000  0.872952  0.995455  1
  Si  Si13  1  0.250000  0.194292  0.722871  1
  Si  Si14  1  0.250000  0.378554  0.001382  1
  Si  Si15  1  0.250000  0.127257  0.426372  1
  Si  Si16  1  0.750000  0.621502  0.998681  1
  Si  Si17  1  0.250000  0.411227  0.428525  1
  Pt  Pt18  1  0.750000  0.352130  0.099299  1
  Pt  Pt19  1  0.250000  0.971372  0.624017  1
  Pt  Pt20  1  0.750000  0.849132  0.089141  1
  Pt  Pt21  1  0.750000  0.028647  0.375930  1
  Pt  Pt22  1  0.250000  0.648063  0.900772  1
  Pt  Pt23  1  0.250000  0.150645  0.910936  1
  Pt  Pt24  1  0.750000  0.533363  0.375973  1
  Pt  Pt25  1  0.250000  0.466662  0.623794  1
