# generated using pymatgen
data_Er5IrPb3
_symmetry_space_group_name_H-M   'P 1'
_cell_length_a   9.15304900
_cell_length_b   9.15304965
_cell_length_c   6.79410100
_cell_angle_alpha   90.00000000
_cell_angle_beta   90.00000000
_cell_angle_gamma   119.99999402
_symmetry_Int_Tables_number   1
_chemical_formula_structural   Er5IrPb3
_chemical_formula_sum   'Er10 Ir2 Pb6'
_cell_volume   492.94022873
_cell_formula_units_Z   2
loop_
 _symmetry_equiv_pos_site_id
 _symmetry_equiv_pos_as_xyz
  1  'x, y, z'
loop_
 _atom_site_type_symbol
 _atom_site_label
 _atom_site_symmetry_multiplicity
 _atom_site_fract_x
 _atom_site_fract_y
 _atom_site_fract_z
 _atom_site_occupancy
  Er  Er0  1  0.000000  0.764006  0.750000  1
  Er  Er1  1  0.235994  0.000000  0.250000  1
  Er  Er2  1  0.764006  0.000000  0.750000  1
  Er  Er3  1  0.333333  0.666667  0.500000  1
  Er  Er4  1  0.000000  0.235994  0.250000  1
  Er  Er5  1  0.666667  0.333333  0.500000  1
  Er  Er6  1  0.764006  0.764006  0.250000  1
  Er  Er7  1  0.235994  0.235994  0.750000  1
  Er  Er8  1  0.333333  0.666667  0.000000  1
  Er  Er9  1  0.666667  0.333333  0.000000  1
  Ir  Ir10  1  0.000000  0.000000  0.000000  1
  Ir  Ir11  1  0.000000  0.000000  0.500000  1
  Pb  Pb12  1  0.404418  0.404418  0.250000  1
  Pb  Pb13  1  0.000000  0.404418  0.750000  1
  Pb  Pb14  1  0.000000  0.595582  0.250000  1
  Pb  Pb15  1  0.595582  0.000000  0.250000  1
  Pb  Pb16  1  0.404418  0.000000  0.750000  1
  Pb  Pb17  1  0.595582  0.595582  0.750000  1
