# generated using pymatgen
data_Tb4Lu6Si5P
_symmetry_space_group_name_H-M   'P 1'
_cell_length_a   8.30937300
_cell_length_b   8.32583343
_cell_length_c   6.18177600
_cell_angle_alpha   90.00000000
_cell_angle_beta   90.00000000
_cell_angle_gamma   119.93461791
_symmetry_Int_Tables_number   1
_chemical_formula_structural   Tb4Lu6Si5P
_chemical_formula_sum   'Tb4 Lu6 Si5 P1'
_cell_volume   370.61724116
_cell_formula_units_Z   1
loop_
 _symmetry_equiv_pos_site_id
 _symmetry_equiv_pos_as_xyz
  1  'x, y, z'
loop_
 _atom_site_type_symbol
 _atom_site_label
 _atom_site_symmetry_multiplicity
 _atom_site_fract_x
 _atom_site_fract_y
 _atom_site_fract_z
 _atom_site_occupancy
  Tb  Tb0  1  0.999939  0.754231  0.750000  1
  Tb  Tb1  1  0.754097  0.000000  0.750000  1
  Tb  Tb2  1  0.245708  0.245769  0.750000  1
  Tb  Tb3  1  0.245119  0.000000  0.250000  1
  Lu  Lu4  1  0.000642  0.245741  0.250000  1
  Lu  Lu5  1  0.754901  0.754259  0.250000  1
  Lu  Lu6  1  0.333738  0.667028  0.499201  1
  Lu  Lu7  1  0.666711  0.332972  0.000799  1
  Lu  Lu8  1  0.666711  0.332972  0.499201  1
  Lu  Lu9  1  0.333738  0.667028  0.000799  1
  Si  Si10  1  0.394905  0.396348  0.250000  1
  Si  Si11  1  0.998556  0.603652  0.250000  1
  Si  Si12  1  0.999704  0.395139  0.750000  1
  Si  Si13  1  0.604565  0.604861  0.750000  1
  Si  Si14  1  0.609474  0.000000  0.250000  1
  P  P15  1  0.391491  0.000000  0.750000  1
