# generated using pymatgen
data_BaErSiGe3N7
_symmetry_space_group_name_H-M   'P 1'
_cell_length_a   6.28539500
_cell_length_b   6.28539497
_cell_length_c   10.13527300
_cell_angle_alpha   90.00000000
_cell_angle_beta   90.00000000
_cell_angle_gamma   119.99999488
_symmetry_Int_Tables_number   1
_chemical_formula_structural   BaErSiGe3N7
_chemical_formula_sum   'Ba2 Er2 Si2 Ge6 N14'
_cell_volume   346.76180495
_cell_formula_units_Z   2
loop_
 _symmetry_equiv_pos_site_id
 _symmetry_equiv_pos_as_xyz
  1  'x, y, z'
loop_
 _atom_site_type_symbol
 _atom_site_label
 _atom_site_symmetry_multiplicity
 _atom_site_fract_x
 _atom_site_fract_y
 _atom_site_fract_z
 _atom_site_occupancy
  Ba  Ba0  1  0.333333  0.666667  0.362443  1
  Ba  Ba1  1  0.666667  0.333333  0.862443  1
  Er  Er2  1  0.333333  0.666667  0.738003  1
  Er  Er3  1  0.666667  0.333333  0.238003  1
  Si  Si4  1  0.000000  0.000000  0.813920  1
  Si  Si5  1  0.000000  0.000000  0.313920  1
  Ge  Ge6  1  0.828031  0.656061  0.547044  1
  Ge  Ge7  1  0.171969  0.828031  0.047044  1
  Ge  Ge8  1  0.656061  0.828031  0.047044  1
  Ge  Ge9  1  0.343939  0.171969  0.547044  1
  Ge  Ge10  1  0.828031  0.171969  0.547044  1
  Ge  Ge11  1  0.171969  0.343939  0.047044  1
  N  N12  1  0.000000  0.000000  0.629194  1
  N  N13  1  0.000000  0.000000  0.129194  1
  N  N14  1  0.151579  0.303158  0.865829  1
  N  N15  1  0.848421  0.151579  0.365829  1
  N  N16  1  0.303158  0.151579  0.365829  1
  N  N17  1  0.696842  0.848421  0.865829  1
  N  N18  1  0.151579  0.848421  0.865829  1
  N  N19  1  0.848421  0.696842  0.365829  1
  N  N20  1  0.990231  0.495116  0.603907  1
  N  N21  1  0.495116  0.990231  0.103907  1
  N  N22  1  0.495116  0.504884  0.103907  1
  N  N23  1  0.504884  0.495116  0.603907  1
  N  N24  1  0.009769  0.504884  0.103907  1
  N  N25  1  0.504884  0.009769  0.603907  1
