# generated using pymatgen
data_LaDy3Ni4(SnH)4
_symmetry_space_group_name_H-M   'P 1'
_cell_length_a   7.16227881
_cell_length_b   8.47064215
_cell_length_c   4.31448830
_cell_angle_alpha   89.96169443
_cell_angle_beta   90.01828065
_cell_angle_gamma   90.18040087
_symmetry_Int_Tables_number   1
_chemical_formula_structural   LaDy3Ni4(SnH)4
_chemical_formula_sum   'La1 Dy3 Ni4 Sn4 H4'
_cell_volume   261.75475626
_cell_formula_units_Z   1
loop_
 _symmetry_equiv_pos_site_id
 _symmetry_equiv_pos_as_xyz
  1  'x, y, z'
loop_
 _atom_site_type_symbol
 _atom_site_label
 _atom_site_symmetry_multiplicity
 _atom_site_fract_x
 _atom_site_fract_y
 _atom_site_fract_z
 _atom_site_occupancy
  La  La0  1  0.486253  0.809151  0.742782  1
  Dy  Dy1  1  0.514008  0.184442  0.242789  1
  Dy  Dy2  1  0.014548  0.315686  0.242801  1
  Dy  Dy3  1  0.986099  0.683908  0.742751  1
  Ni  Ni4  1  0.270762  0.598239  0.242656  1
  Ni  Ni5  1  0.783020  0.898599  0.242967  1
  Ni  Ni6  1  0.222901  0.111352  0.742805  1
  Ni  Ni7  1  0.725535  0.393851  0.742680  1
  Sn  Sn8  1  0.657554  0.561724  0.242683  1
  Sn  Sn9  1  0.152649  0.932725  0.242819  1
  Sn  Sn10  1  0.845571  0.074993  0.742912  1
  Sn  Sn11  1  0.341218  0.422778  0.742672  1
  H  H12  1  0.048621  0.577506  0.242764  1
  H  H13  1  0.561540  0.927075  0.242750  1
  H  H14  1  0.443969  0.086046  0.742828  1
  H  H15  1  0.945756  0.421924  0.742745  1
