# generated using pymatgen
data_Tm4AlCo
_symmetry_space_group_name_H-M   'P 1'
_cell_length_a   9.29173427
_cell_length_b   9.29173491
_cell_length_c   9.29173500
_cell_angle_alpha   60.00000323
_cell_angle_beta   60.00000096
_cell_angle_gamma   60.00000086
_symmetry_Int_Tables_number   1
_chemical_formula_structural   Tm4AlCo
_chemical_formula_sum   'Tm16 Al4 Co4'
_cell_volume   567.25120357
_cell_formula_units_Z   4
loop_
 _symmetry_equiv_pos_site_id
 _symmetry_equiv_pos_as_xyz
  1  'x, y, z'
loop_
 _atom_site_type_symbol
 _atom_site_label
 _atom_site_symmetry_multiplicity
 _atom_site_fract_x
 _atom_site_fract_y
 _atom_site_fract_z
 _atom_site_occupancy
  Tm  Tm0  1  0.349331  0.349331  0.349331  1
  Tm  Tm1  1  0.349331  0.349331  0.952009  1
  Tm  Tm2  1  0.349331  0.952009  0.349331  1
  Tm  Tm3  1  0.952009  0.349331  0.349331  1
  Tm  Tm4  1  0.807812  0.192188  0.192188  1
  Tm  Tm5  1  0.192188  0.807812  0.807812  1
  Tm  Tm6  1  0.192188  0.807812  0.192188  1
  Tm  Tm7  1  0.807812  0.192188  0.807812  1
  Tm  Tm8  1  0.192188  0.192188  0.807812  1
  Tm  Tm9  1  0.807812  0.807812  0.192188  1
  Tm  Tm10  1  0.938248  0.561752  0.561752  1
  Tm  Tm11  1  0.561752  0.938248  0.938248  1
  Tm  Tm12  1  0.561752  0.938248  0.561752  1
  Tm  Tm13  1  0.938248  0.561752  0.938248  1
  Tm  Tm14  1  0.561752  0.561752  0.938248  1
  Tm  Tm15  1  0.938248  0.938248  0.561752  1
  Al  Al16  1  0.577641  0.577641  0.577641  1
  Al  Al17  1  0.577641  0.577641  0.267076  1
  Al  Al18  1  0.577641  0.267076  0.577641  1
  Al  Al19  1  0.267076  0.577641  0.577641  1
  Co  Co20  1  0.140485  0.140485  0.140485  1
  Co  Co21  1  0.140485  0.140485  0.578546  1
  Co  Co22  1  0.140485  0.578546  0.140485  1
  Co  Co23  1  0.578546  0.140485  0.140485  1
