# generated using pymatgen
data_Nd8AlZn7Ir5Rh3
_symmetry_space_group_name_H-M   'P 1'
_cell_length_a   4.03997300
_cell_length_b   7.33893038
_cell_length_c   16.65801348
_cell_angle_alpha   90.23082466
_cell_angle_beta   90.00000000
_cell_angle_gamma   90.00000000
_symmetry_Int_Tables_number   1
_chemical_formula_structural   Nd8AlZn7Ir5Rh3
_chemical_formula_sum   'Nd8 Al1 Zn7 Ir5 Rh3'
_cell_volume   493.89077565
_cell_formula_units_Z   1
loop_
 _symmetry_equiv_pos_site_id
 _symmetry_equiv_pos_as_xyz
  1  'x, y, z'
loop_
 _atom_site_type_symbol
 _atom_site_label
 _atom_site_symmetry_multiplicity
 _atom_site_fract_x
 _atom_site_fract_y
 _atom_site_fract_z
 _atom_site_occupancy
  Nd  Nd0  1  0.250000  0.168908  0.939588  1
  Nd  Nd1  1  0.250000  0.661784  0.560692  1
  Nd  Nd2  1  0.750000  0.334281  0.437231  1
  Nd  Nd3  1  0.750000  0.952153  0.283721  1
  Nd  Nd4  1  0.750000  0.831440  0.060778  1
  Nd  Nd5  1  0.750000  0.451158  0.216072  1
  Nd  Nd6  1  0.250000  0.047795  0.719206  1
  Nd  Nd7  1  0.250000  0.549260  0.783860  1
  Al  Al8  1  0.750000  0.002757  0.560999  1
  Zn  Zn9  1  0.250000  0.625483  0.349468  1
  Zn  Zn10  1  0.750000  0.375339  0.652505  1
  Zn  Zn11  1  0.250000  0.498867  0.059902  1
  Zn  Zn12  1  0.750000  0.500992  0.940293  1
  Zn  Zn13  1  0.250000  0.998131  0.437910  1
  Zn  Zn14  1  0.250000  0.124030  0.151169  1
  Zn  Zn15  1  0.750000  0.876432  0.849604  1
  Ir  Ir16  1  0.750000  0.761754  0.437264  1
  Ir  Ir17  1  0.250000  0.245271  0.312404  1
  Ir  Ir18  1  0.750000  0.257676  0.814087  1
  Ir  Ir19  1  0.750000  0.763118  0.682024  1
  Ir  Ir20  1  0.250000  0.227699  0.564442  1
  Rh  Rh21  1  0.250000  0.745283  0.186260  1
  Rh  Rh22  1  0.750000  0.254779  0.065375  1
  Rh  Rh23  1  0.250000  0.745608  0.935146  1
