# generated using pymatgen
data_Rb8Ti6MnCl20
_symmetry_space_group_name_H-M   'P 1'
_cell_length_a   11.42502981
_cell_length_b   11.42503003
_cell_length_c   11.42503000
_cell_angle_alpha   60.00000010
_cell_angle_beta   59.99999945
_cell_angle_gamma   60.00000028
_symmetry_Int_Tables_number   1
_chemical_formula_structural   Rb8Ti6MnCl20
_chemical_formula_sum   'Rb8 Ti6 Mn1 Cl20'
_cell_volume   1054.52539557
_cell_formula_units_Z   1
loop_
 _symmetry_equiv_pos_site_id
 _symmetry_equiv_pos_as_xyz
  1  'x, y, z'
loop_
 _atom_site_type_symbol
 _atom_site_label
 _atom_site_symmetry_multiplicity
 _atom_site_fract_x
 _atom_site_fract_y
 _atom_site_fract_z
 _atom_site_occupancy
  Rb  Rb0  1  0.360859  0.360859  0.360859  1
  Rb  Rb1  1  0.639141  0.639141  0.639141  1
  Rb  Rb2  1  0.360859  0.360859  0.917423  1
  Rb  Rb3  1  0.360859  0.917423  0.360859  1
  Rb  Rb4  1  0.639141  0.639141  0.082577  1
  Rb  Rb5  1  0.639141  0.082577  0.639141  1
  Rb  Rb6  1  0.917423  0.360859  0.360859  1
  Rb  Rb7  1  0.082577  0.639141  0.639141  1
  Ti  Ti8  1  0.858588  0.141412  0.141412  1
  Ti  Ti9  1  0.141412  0.858588  0.858588  1
  Ti  Ti10  1  0.141412  0.858588  0.141412  1
  Ti  Ti11  1  0.858588  0.141412  0.858588  1
  Ti  Ti12  1  0.141412  0.141412  0.858588  1
  Ti  Ti13  1  0.858588  0.858588  0.141412  1
  Mn  Mn14  1  0.000000  0.000000  0.000000  1
  Cl  Cl15  1  0.306670  0.000000  0.000000  1
  Cl  Cl16  1  0.693330  0.000000  0.000000  1
  Cl  Cl17  1  0.000000  0.306670  0.693330  1
  Cl  Cl18  1  0.000000  0.693330  0.306670  1
  Cl  Cl19  1  0.000000  0.306670  0.000000  1
  Cl  Cl20  1  0.693330  0.000000  0.306670  1
  Cl  Cl21  1  0.000000  0.693330  0.000000  1
  Cl  Cl22  1  0.306670  0.000000  0.693330  1
  Cl  Cl23  1  0.000000  0.000000  0.306670  1
  Cl  Cl24  1  0.000000  0.000000  0.693330  1
  Cl  Cl25  1  0.693330  0.306670  0.000000  1
  Cl  Cl26  1  0.306670  0.693330  0.000000  1
  Cl  Cl27  1  0.695290  0.304710  0.304710  1
  Cl  Cl28  1  0.304710  0.695290  0.695290  1
  Cl  Cl29  1  0.304710  0.695290  0.304710  1
  Cl  Cl30  1  0.695290  0.304710  0.695290  1
  Cl  Cl31  1  0.304710  0.304710  0.695290  1
  Cl  Cl32  1  0.695290  0.695290  0.304710  1
  Cl  Cl33  1  0.250000  0.250000  0.250000  1
  Cl  Cl34  1  0.750000  0.750000  0.750000  1
