# generated using pymatgen
data_K2Sc4Cu4S9
_symmetry_space_group_name_H-M   'P 1'
_cell_length_a   3.80342144
_cell_length_b   6.98665845
_cell_length_c   14.61833142
_cell_angle_alpha   93.81413688
_cell_angle_beta   97.47483384
_cell_angle_gamma   105.79473869
_symmetry_Int_Tables_number   1
_chemical_formula_structural   K2Sc4Cu4S9
_chemical_formula_sum   'K2 Sc4 Cu4 S9'
_cell_volume   368.49139342
_cell_formula_units_Z   1
loop_
 _symmetry_equiv_pos_site_id
 _symmetry_equiv_pos_as_xyz
  1  'x, y, z'
loop_
 _atom_site_type_symbol
 _atom_site_label
 _atom_site_symmetry_multiplicity
 _atom_site_fract_x
 _atom_site_fract_y
 _atom_site_fract_z
 _atom_site_occupancy
  K  K0  1  0.257076  0.286279  0.227873  1
  K  K1  1  0.742924  0.713721  0.772127  1
  Sc  Sc2  1  0.402092  0.747808  0.056374  1
  Sc  Sc3  1  0.627826  0.859988  0.395662  1
  Sc  Sc4  1  0.372175  0.140013  0.604338  1
  Sc  Sc5  1  0.597908  0.252191  0.943626  1
  Cu  Cu6  1  0.980552  0.731757  0.229350  1
  Cu  Cu7  1  0.888783  0.318111  0.459458  1
  Cu  Cu8  1  0.111217  0.681889  0.540542  1
  Cu  Cu9  1  0.019449  0.268244  0.770650  1
  S  S10  1  0.000000  0.000000  0.000000  1
  S  S11  1  0.803412  0.509667  0.097157  1
  S  S12  1  0.571238  0.920257  0.222219  1
  S  S13  1  0.985765  0.596748  0.374784  1
  S  S14  1  0.279570  0.134166  0.424973  1
  S  S15  1  0.720430  0.865833  0.575027  1
  S  S16  1  0.014236  0.403253  0.625216  1
  S  S17  1  0.428762  0.079743  0.777781  1
  S  S18  1  0.196588  0.490332  0.902843  1
