# generated using pymatgen
data_Ho2TmAl12Os3Ru
_symmetry_space_group_name_H-M   'P 1'
_cell_length_a   8.80308700
_cell_length_b   8.78840790
_cell_length_c   9.55641400
_cell_angle_alpha   90.00000000
_cell_angle_beta   90.00000000
_cell_angle_gamma   120.05527157
_symmetry_Int_Tables_number   1
_chemical_formula_structural   Ho2TmAl12Os3Ru
_chemical_formula_sum   'Ho4 Tm2 Al24 Os6 Ru2'
_cell_volume   639.92435037
_cell_formula_units_Z   2
loop_
 _symmetry_equiv_pos_site_id
 _symmetry_equiv_pos_as_xyz
  1  'x, y, z'
loop_
 _atom_site_type_symbol
 _atom_site_label
 _atom_site_symmetry_multiplicity
 _atom_site_fract_x
 _atom_site_fract_y
 _atom_site_fract_z
 _atom_site_occupancy
  Ho  Ho0  1  0.806573  0.193479  0.750000  1
  Ho  Ho1  1  0.193427  0.806521  0.250000  1
  Ho  Ho2  1  0.386906  0.193479  0.750000  1
  Ho  Ho3  1  0.613094  0.806521  0.250000  1
  Tm  Tm4  1  0.805829  0.611657  0.750000  1
  Tm  Tm5  1  0.194171  0.388343  0.250000  1
  Al  Al6  1  0.666819  0.333637  0.981859  1
  Al  Al7  1  0.333181  0.666363  0.018141  1
  Al  Al8  1  0.333181  0.666363  0.481859  1
  Al  Al9  1  0.666819  0.333637  0.518141  1
  Al  Al10  1  0.837797  0.162244  0.423097  1
  Al  Al11  1  0.162203  0.837756  0.576903  1
  Al  Al12  1  0.324446  0.162244  0.423097  1
  Al  Al13  1  0.162203  0.837756  0.923097  1
  Al  Al14  1  0.675554  0.837756  0.576903  1
  Al  Al15  1  0.837797  0.162244  0.076903  1
  Al  Al16  1  0.837450  0.674900  0.423418  1
  Al  Al17  1  0.675554  0.837756  0.923097  1
  Al  Al18  1  0.162550  0.325100  0.576582  1
  Al  Al19  1  0.324446  0.162244  0.076903  1
  Al  Al20  1  0.162550  0.325100  0.923418  1
  Al  Al21  1  0.837450  0.674900  0.076582  1
  Al  Al22  1  0.438652  0.561530  0.750000  1
  Al  Al23  1  0.561348  0.438470  0.250000  1
  Al  Al24  1  0.122876  0.561530  0.750000  1
  Al  Al25  1  0.877124  0.438470  0.250000  1
  Al  Al26  1  0.438399  0.876800  0.750000  1
  Al  Al27  1  0.561601  0.123200  0.250000  1
  Al  Al28  1  0.999575  0.999150  0.750000  1
  Al  Al29  1  0.000425  0.000850  0.250000  1
  Os  Os30  1  0.500000  0.500000  0.000000  1
  Os  Os31  1  0.000000  0.500000  0.000000  1
  Os  Os32  1  0.500000  0.500000  0.500000  1
  Os  Os33  1  0.500000  0.000000  0.000000  1
  Os  Os34  1  0.000000  0.500000  0.500000  1
  Os  Os35  1  0.500000  0.000000  0.500000  1
  Ru  Ru36  1  0.000000  0.000000  0.000000  1
  Ru  Ru37  1  0.000000  0.000000  0.500000  1
