# generated using pymatgen
data_BaCoTeO6
_symmetry_space_group_name_H-M   'P 1'
_cell_length_a   5.13386023
_cell_length_b   5.13329742
_cell_length_c   11.71900542
_cell_angle_alpha   89.84090444
_cell_angle_beta   90.31860271
_cell_angle_gamma   120.00396149
_symmetry_Int_Tables_number   1
_chemical_formula_structural   BaCoTeO6
_chemical_formula_sum   'Ba2 Co2 Te2 O12'
_cell_volume   267.44704460
_cell_formula_units_Z   2
loop_
 _symmetry_equiv_pos_site_id
 _symmetry_equiv_pos_as_xyz
  1  'x, y, z'
loop_
 _atom_site_type_symbol
 _atom_site_label
 _atom_site_symmetry_multiplicity
 _atom_site_fract_x
 _atom_site_fract_y
 _atom_site_fract_z
 _atom_site_occupancy
  Ba  Ba0  1  0.999948  0.999653  0.249936  1
  Ba  Ba1  1  0.999701  0.999648  0.750065  1
  Co  Co2  1  0.336428  0.672842  0.999999  1
  Co  Co3  1  0.330281  0.660513  0.499997  1
  Te  Te4  1  0.667025  0.334072  0.999999  1
  Te  Te5  1  0.666434  0.332874  0.499997  1
  O  O6  1  0.382765  0.991834  0.093465  1
  O  O7  1  0.602162  0.612008  0.094006  1
  O  O8  1  0.005522  0.391977  0.094478  1
  O  O9  1  0.010751  0.395782  0.406229  1
  O  O10  1  0.610265  0.615943  0.405889  1
  O  O11  1  0.387790  0.992698  0.405863  1
  O  O12  1  0.604877  0.992672  0.594137  1
  O  O13  1  0.005671  0.615933  0.594117  1
  O  O14  1  0.385005  0.395747  0.593770  1
  O  O15  1  0.386464  0.391968  0.905526  1
  O  O16  1  0.009850  0.612011  0.905992  1
  O  O17  1  0.609064  0.991828  0.906534  1
