# generated using pymatgen
data_NdSmMnCo3O10
_symmetry_space_group_name_H-M   'P 1'
_cell_length_a   5.72750000
_cell_length_b   7.48177186
_cell_length_c   8.57358515
_cell_angle_alpha   90.24273345
_cell_angle_beta   90.00000000
_cell_angle_gamma   90.00000000
_symmetry_Int_Tables_number   1
_chemical_formula_structural   NdSmMnCo3O10
_chemical_formula_sum   'Nd2 Sm2 Mn2 Co6 O20'
_cell_volume   367.39067347
_cell_formula_units_Z   2
loop_
 _symmetry_equiv_pos_site_id
 _symmetry_equiv_pos_as_xyz
  1  'x, y, z'
loop_
 _atom_site_type_symbol
 _atom_site_label
 _atom_site_symmetry_multiplicity
 _atom_site_fract_x
 _atom_site_fract_y
 _atom_site_fract_z
 _atom_site_occupancy
  Nd  Nd0  1  0.999533  0.858287  0.826871  1
  Nd  Nd1  1  0.999533  0.141713  0.173129  1
  Sm  Sm2  1  0.000149  0.358539  0.672374  1
  Sm  Sm3  1  0.000149  0.641461  0.327626  1
  Mn  Mn4  1  0.740698  0.500000  0.000000  1
  Mn  Mn5  1  0.260308  0.000000  0.500000  1
  Co  Co6  1  0.498877  0.090614  0.850125  1
  Co  Co7  1  0.498877  0.909386  0.149875  1
  Co  Co8  1  0.500842  0.588385  0.649270  1
  Co  Co9  1  0.500842  0.411615  0.350730  1
  Co  Co10  1  0.258256  0.500000  0.000000  1
  Co  Co11  1  0.741641  0.000000  0.500000  1
  O  O12  1  0.248750  0.897859  0.291156  1
  O  O13  1  0.248750  0.102141  0.708844  1
  O  O14  1  0.751915  0.404088  0.210198  1
  O  O15  1  0.751915  0.595912  0.789802  1
  O  O16  1  0.750167  0.100074  0.705902  1
  O  O17  1  0.750167  0.899926  0.294098  1
  O  O18  1  0.249142  0.594065  0.792973  1
  O  O19  1  0.249142  0.405935  0.207027  1
  O  O20  1  0.498221  0.343889  0.936991  1
  O  O21  1  0.498221  0.656111  0.063009  1
  O  O22  1  0.502181  0.844916  0.566037  1
  O  O23  1  0.502181  0.155084  0.433963  1
  O  O24  1  0.281232  0.000000  0.000000  1
  O  O25  1  0.721667  0.500000  0.500000  1
  O  O26  1  0.718427  0.000000  0.000000  1
  O  O27  1  0.278041  0.500000  0.500000  1
  O  O28  1  0.998929  0.158859  0.449977  1
  O  O29  1  0.998929  0.841141  0.550023  1
  O  O30  1  0.001158  0.658537  0.052838  1
  O  O31  1  0.001158  0.341463  0.947162  1
