# generated using pymatgen
data_NdThCo3P7Ru9
_symmetry_space_group_name_H-M   'P 1'
_cell_length_a   9.39295000
_cell_length_b   9.39295009
_cell_length_c   3.86485900
_cell_angle_alpha   90.00000000
_cell_angle_beta   90.00000000
_cell_angle_gamma   119.99999263
_symmetry_Int_Tables_number   1
_chemical_formula_structural   NdThCo3P7Ru9
_chemical_formula_sum   'Nd1 Th1 Co3 P7 Ru9'
_cell_volume   295.30332951
_cell_formula_units_Z   1
loop_
 _symmetry_equiv_pos_site_id
 _symmetry_equiv_pos_as_xyz
  1  'x, y, z'
loop_
 _atom_site_type_symbol
 _atom_site_label
 _atom_site_symmetry_multiplicity
 _atom_site_fract_x
 _atom_site_fract_y
 _atom_site_fract_z
 _atom_site_occupancy
  Nd  Nd0  1  0.000000  0.000000  0.000000  1
  Th  Th1  1  0.333333  0.666667  0.500000  1
  Co  Co2  1  0.822056  0.600990  0.000000  1
  Co  Co3  1  0.399010  0.221066  0.000000  1
  Co  Co4  1  0.778934  0.177944  0.000000  1
  P  P5  1  0.779705  0.732502  0.500000  1
  P  P6  1  0.267498  0.047204  0.500000  1
  P  P7  1  0.952796  0.220295  0.500000  1
  P  P8  1  0.666667  0.333333  0.000000  1
  P  P9  1  0.071185  0.633855  0.000000  1
  P  P10  1  0.366145  0.437329  0.000000  1
  P  P11  1  0.562671  0.928815  0.000000  1
  Ru  Ru12  1  0.092471  0.395903  0.000000  1
  Ru  Ru13  1  0.604097  0.696567  0.000000  1
  Ru  Ru14  1  0.303433  0.907529  0.000000  1
  Ru  Ru15  1  0.048306  0.764904  0.500000  1
  Ru  Ru16  1  0.235096  0.283400  0.500000  1
  Ru  Ru17  1  0.716600  0.951694  0.500000  1
  Ru  Ru18  1  0.874361  0.418703  0.500000  1
  Ru  Ru19  1  0.581297  0.455658  0.500000  1
  Ru  Ru20  1  0.544342  0.125639  0.500000  1
