# generated using pymatgen
data_HoEr3PtAu3
_symmetry_space_group_name_H-M   'P 1'
_cell_length_a   4.65832200
_cell_length_b   5.58553174
_cell_length_c   7.12034013
_cell_angle_alpha   91.07887973
_cell_angle_beta   90.00000000
_cell_angle_gamma   90.00000000
_symmetry_Int_Tables_number   1
_chemical_formula_structural   HoEr3PtAu3
_chemical_formula_sum   'Ho1 Er3 Pt1 Au3'
_cell_volume   185.23274865
_cell_formula_units_Z   1
loop_
 _symmetry_equiv_pos_site_id
 _symmetry_equiv_pos_as_xyz
  1  'x, y, z'
loop_
 _atom_site_type_symbol
 _atom_site_label
 _atom_site_symmetry_multiplicity
 _atom_site_fract_x
 _atom_site_fract_y
 _atom_site_fract_z
 _atom_site_occupancy
  Ho  Ho0  1  0.750000  0.857347  0.819303  1
  Er  Er1  1  0.250000  0.350814  0.693180  1
  Er  Er2  1  0.250000  0.154202  0.176591  1
  Er  Er3  1  0.750000  0.641430  0.312023  1
  Pt  Pt4  1  0.750000  0.343461  0.958699  1
  Au  Au5  1  0.250000  0.841452  0.539369  1
  Au  Au6  1  0.250000  0.657527  0.043367  1
  Au  Au7  1  0.750000  0.153765  0.457467  1
