# generated using pymatgen
data_DyTh7ZrSe17
_symmetry_space_group_name_H-M   'P 1'
_cell_length_a   8.48334378
_cell_length_b   8.47136337
_cell_length_c   11.23886500
_cell_angle_alpha   80.63013950
_cell_angle_beta   80.88946799
_cell_angle_gamma   65.08206486
_symmetry_Int_Tables_number   1
_chemical_formula_structural   DyTh7ZrSe17
_chemical_formula_sum   'Dy1 Th7 Zr1 Se17'
_cell_volume   719.08343798
_cell_formula_units_Z   1
loop_
 _symmetry_equiv_pos_site_id
 _symmetry_equiv_pos_as_xyz
  1  'x, y, z'
loop_
 _atom_site_type_symbol
 _atom_site_label
 _atom_site_symmetry_multiplicity
 _atom_site_fract_x
 _atom_site_fract_y
 _atom_site_fract_z
 _atom_site_occupancy
  Dy  Dy0  1  0.811700  0.304242  0.299229  1
  Th  Th1  1  0.300355  0.812840  0.294536  1
  Th  Th2  1  0.186473  0.699292  0.700918  1
  Th  Th3  1  0.699880  0.187713  0.701727  1
  Th  Th4  1  0.206164  0.204079  0.538229  1
  Th  Th5  1  0.793879  0.796404  0.458263  1
  Th  Th6  1  0.682307  0.680636  0.983251  1
  Th  Th7  1  0.318793  0.316773  0.020876  1
  Zr  Zr8  1  0.999028  0.002157  0.001164  1
  Se  Se9  1  0.824431  0.429201  0.530067  1
  Se  Se10  1  0.432331  0.820564  0.530133  1
  Se  Se11  1  0.177323  0.568069  0.467231  1
  Se  Se12  1  0.570472  0.178608  0.468855  1
  Se  Se13  1  0.942407  0.328864  0.033655  1
  Se  Se14  1  0.329597  0.941960  0.028132  1
  Se  Se15  1  0.058252  0.672178  0.968802  1
  Se  Se16  1  0.671139  0.057914  0.969903  1
  Se  Se17  1  0.205484  0.206007  0.276346  1
  Se  Se18  1  0.791968  0.791760  0.724473  1
  Se  Se19  1  0.065577  0.063626  0.766783  1
  Se  Se20  1  0.931685  0.944138  0.235140  1
  Se  Se21  1  0.303919  0.306108  0.753367  1
  Se  Se22  1  0.695183  0.692294  0.246852  1
  Se  Se23  1  0.520268  0.521689  0.832942  1
  Se  Se24  1  0.478881  0.478707  0.165090  1
  Se  Se25  1  0.002504  0.994179  0.504037  1
