# generated using pymatgen
data_MnTcBrO4
_symmetry_space_group_name_H-M   'P 1'
_cell_length_a   5.93786421
_cell_length_b   5.94858189
_cell_length_c   8.46950500
_cell_angle_alpha   105.38172500
_cell_angle_beta   109.20283549
_cell_angle_gamma   94.22378659
_symmetry_Int_Tables_number   1
_chemical_formula_structural   MnTcBrO4
_chemical_formula_sum   'Mn2 Tc2 Br2 O8'
_cell_volume   268.10753480
_cell_formula_units_Z   2
loop_
 _symmetry_equiv_pos_site_id
 _symmetry_equiv_pos_as_xyz
  1  'x, y, z'
loop_
 _atom_site_type_symbol
 _atom_site_label
 _atom_site_symmetry_multiplicity
 _atom_site_fract_x
 _atom_site_fract_y
 _atom_site_fract_z
 _atom_site_occupancy
  Mn  Mn0  1  0.999845  0.000068  0.999959  1
  Mn  Mn1  1  0.499966  0.500135  0.500198  1
  Tc  Tc2  1  0.633722  0.941874  0.269927  1
  Tc  Tc3  1  0.366222  0.058109  0.730023  1
  Br  Br4  1  0.124061  0.420644  0.218909  1
  Br  Br5  1  0.876229  0.579404  0.781242  1
  O  O6  1  0.343807  0.877747  0.110525  1
  O  O7  1  0.847141  0.884927  0.170797  1
  O  O8  1  0.687844  0.242082  0.385325  1
  O  O9  1  0.652581  0.773777  0.412991  1
  O  O10  1  0.347461  0.226128  0.586926  1
  O  O11  1  0.312083  0.757870  0.614654  1
  O  O12  1  0.152827  0.114995  0.829111  1
  O  O13  1  0.656215  0.122239  0.889412  1
