# generated using pymatgen
data_Ce2Dy4Co3(P4Ru5)3
_symmetry_space_group_name_H-M   'P 1'
_cell_length_a   3.90627900
_cell_length_b   11.12697453
_cell_length_c   12.61842158
_cell_angle_alpha   89.82694271
_cell_angle_beta   90.00000000
_cell_angle_gamma   90.00000000
_symmetry_Int_Tables_number   1
_chemical_formula_structural   Ce2Dy4Co3(P4Ru5)3
_chemical_formula_sum   'Ce2 Dy4 Co3 P12 Ru15'
_cell_volume   548.45803648
_cell_formula_units_Z   1
loop_
 _symmetry_equiv_pos_site_id
 _symmetry_equiv_pos_as_xyz
  1  'x, y, z'
loop_
 _atom_site_type_symbol
 _atom_site_label
 _atom_site_symmetry_multiplicity
 _atom_site_fract_x
 _atom_site_fract_y
 _atom_site_fract_z
 _atom_site_occupancy
  Ce  Ce0  1  0.000000  0.499355  0.529766  1
  Ce  Ce1  1  0.500000  0.001631  0.468323  1
  Dy  Dy2  1  0.500000  0.817634  0.203134  1
  Dy  Dy3  1  0.500000  0.184075  0.202867  1
  Dy  Dy4  1  0.000000  0.681510  0.798073  1
  Dy  Dy5  1  0.000000  0.318078  0.797097  1
  Co  Co6  1  0.000000  0.499012  0.988665  1
  Co  Co7  1  0.500000  0.999563  0.013529  1
  Co  Co8  1  0.000000  0.377973  0.281530  1
  P  P9  1  0.500000  0.499869  0.883118  1
  P  P10  1  0.000000  0.999383  0.117859  1
  P  P11  1  0.500000  0.500343  0.338882  1
  P  P12  1  0.000000  0.001047  0.662823  1
  P  P13  1  0.500000  0.302651  0.615207  1
  P  P14  1  0.500000  0.700252  0.618345  1
  P  P15  1  0.000000  0.203510  0.377758  1
  P  P16  1  0.000000  0.799001  0.380842  1
  P  P17  1  0.500000  0.848663  0.899860  1
  P  P18  1  0.500000  0.150477  0.898432  1
  P  P19  1  0.000000  0.649103  0.102675  1
  P  P20  1  0.000000  0.349331  0.104991  1
  Ru  Ru21  1  0.500000  0.492307  0.155851  1
  Ru  Ru22  1  0.000000  0.001714  0.847382  1
  Ru  Ru23  1  0.500000  0.500553  0.693744  1
  Ru  Ru24  1  0.000000  0.000767  0.306378  1
  Ru  Ru25  1  0.500000  0.333894  0.990314  1
  Ru  Ru26  1  0.500000  0.663700  0.992255  1
  Ru  Ru27  1  0.000000  0.165501  0.011917  1
  Ru  Ru28  1  0.000000  0.834378  0.011250  1
  Ru  Ru29  1  0.500000  0.306032  0.423327  1
  Ru  Ru30  1  0.500000  0.698650  0.429722  1
  Ru  Ru31  1  0.000000  0.200357  0.566981  1
  Ru  Ru32  1  0.000000  0.803575  0.569995  1
  Ru  Ru33  1  0.500000  0.879622  0.717164  1
  Ru  Ru34  1  0.500000  0.122419  0.714900  1
  Ru  Ru35  1  0.000000  0.614066  0.285042  1
