# generated using pymatgen
data_Ho4Lu(TcO6)2
_symmetry_space_group_name_H-M   'P 1'
_cell_length_a   6.77427552
_cell_length_b   6.77427467
_cell_length_c   7.45452413
_cell_angle_alpha   73.73830527
_cell_angle_beta   73.73830932
_cell_angle_gamma   49.30264009
_symmetry_Int_Tables_number   1
_chemical_formula_structural   Ho4Lu(TcO6)2
_chemical_formula_sum   'Ho4 Lu1 Tc2 O12'
_cell_volume   246.74616044
_cell_formula_units_Z   1
loop_
 _symmetry_equiv_pos_site_id
 _symmetry_equiv_pos_as_xyz
  1  'x, y, z'
loop_
 _atom_site_type_symbol
 _atom_site_label
 _atom_site_symmetry_multiplicity
 _atom_site_fract_x
 _atom_site_fract_y
 _atom_site_fract_z
 _atom_site_occupancy
  Ho  Ho0  1  0.696212  0.696212  0.641689  1
  Ho  Ho1  1  0.303788  0.303788  0.358311  1
  Ho  Ho2  1  0.683606  0.683606  0.177765  1
  Ho  Ho3  1  0.316394  0.316394  0.822235  1
  Lu  Lu4  1  0.000000  0.000000  0.500000  1
  Tc  Tc5  1  0.786107  0.213893  0.000000  1
  Tc  Tc6  1  0.213893  0.786107  0.000000  1
  O  O7  1  0.001795  0.001795  0.207102  1
  O  O8  1  0.998205  0.998205  0.792898  1
  O  O9  1  0.581506  0.087030  0.085622  1
  O  O10  1  0.418494  0.912970  0.914378  1
  O  O11  1  0.912970  0.418494  0.914378  1
  O  O12  1  0.087030  0.581506  0.085622  1
  O  O13  1  0.498615  0.498615  0.179986  1
  O  O14  1  0.501385  0.501385  0.820014  1
  O  O15  1  0.401007  0.901660  0.428528  1
  O  O16  1  0.598993  0.098340  0.571472  1
  O  O17  1  0.098340  0.598993  0.571472  1
  O  O18  1  0.901660  0.401007  0.428528  1
