# generated using pymatgen
data_Eu2YCo8ReP6
_symmetry_space_group_name_H-M   'P 1'
_cell_length_a   3.74807300
_cell_length_b   10.59315400
_cell_length_c   12.29659800
_cell_angle_alpha   90.00000000
_cell_angle_beta   90.00000000
_cell_angle_gamma   90.00000000
_symmetry_Int_Tables_number   1
_chemical_formula_structural   Eu2YCo8ReP6
_chemical_formula_sum   'Eu4 Y2 Co16 Re2 P12'
_cell_volume   488.22307554
_cell_formula_units_Z   2
loop_
 _symmetry_equiv_pos_site_id
 _symmetry_equiv_pos_as_xyz
  1  'x, y, z'
loop_
 _atom_site_type_symbol
 _atom_site_label
 _atom_site_symmetry_multiplicity
 _atom_site_fract_x
 _atom_site_fract_y
 _atom_site_fract_z
 _atom_site_occupancy
  Eu  Eu0  1  0.000000  0.500000  0.526288  1
  Eu  Eu1  1  0.500000  0.000000  0.474215  1
  Eu  Eu2  1  0.500000  0.820045  0.205447  1
  Eu  Eu3  1  0.500000  0.179955  0.205447  1
  Y  Y4  1  0.000000  0.681460  0.795242  1
  Y  Y5  1  0.000000  0.318540  0.795242  1
  Co  Co6  1  0.500000  0.500000  0.703332  1
  Co  Co7  1  0.000000  0.000000  0.298676  1
  Co  Co8  1  0.000000  0.500000  0.986743  1
  Co  Co9  1  0.500000  0.000000  0.009727  1
  Co  Co10  1  0.500000  0.333003  0.988703  1
  Co  Co11  1  0.500000  0.666997  0.988703  1
  Co  Co12  1  0.000000  0.168765  0.006360  1
  Co  Co13  1  0.000000  0.831235  0.006360  1
  Co  Co14  1  0.500000  0.296765  0.431995  1
  Co  Co15  1  0.500000  0.703235  0.431995  1
  Co  Co16  1  0.000000  0.204321  0.571496  1
  Co  Co17  1  0.000000  0.795679  0.571496  1
  Co  Co18  1  0.500000  0.879647  0.710570  1
  Co  Co19  1  0.500000  0.120353  0.710570  1
  Co  Co20  1  0.000000  0.618726  0.291590  1
  Co  Co21  1  0.000000  0.381274  0.291590  1
  Re  Re22  1  0.500000  0.500000  0.154287  1
  Re  Re23  1  0.000000  0.000000  0.843747  1
  P  P24  1  0.500000  0.500000  0.880949  1
  P  P25  1  0.000000  0.000000  0.115062  1
  P  P26  1  0.500000  0.500000  0.345746  1
  P  P27  1  0.000000  0.000000  0.653662  1
  P  P28  1  0.500000  0.307969  0.617487  1
  P  P29  1  0.500000  0.692031  0.617487  1
  P  P30  1  0.000000  0.193832  0.385736  1
  P  P31  1  0.000000  0.806168  0.385736  1
  P  P32  1  0.500000  0.845822  0.893005  1
  P  P33  1  0.500000  0.154178  0.893005  1
  P  P34  1  0.000000  0.653273  0.106153  1
  P  P35  1  0.000000  0.346727  0.106153  1
