# generated using pymatgen
data_Tb2Al7GaSiIr3
_symmetry_space_group_name_H-M   'P 1'
_cell_length_a   7.54163212
_cell_length_b   7.54541567
_cell_length_c   9.39382100
_cell_angle_alpha   90.00000000
_cell_angle_beta   90.00000000
_cell_angle_gamma   119.67792120
_symmetry_Int_Tables_number   1
_chemical_formula_structural   Tb2Al7GaSiIr3
_chemical_formula_sum   'Tb4 Al14 Ga2 Si2 Ir6'
_cell_volume   464.43163052
_cell_formula_units_Z   2
loop_
 _symmetry_equiv_pos_site_id
 _symmetry_equiv_pos_as_xyz
  1  'x, y, z'
loop_
 _atom_site_type_symbol
 _atom_site_label
 _atom_site_symmetry_multiplicity
 _atom_site_fract_x
 _atom_site_fract_y
 _atom_site_fract_z
 _atom_site_occupancy
  Tb  Tb0  1  0.996421  0.675169  0.250000  1
  Tb  Tb1  1  0.003579  0.324831  0.750000  1
  Tb  Tb2  1  0.673064  0.994215  0.250000  1
  Tb  Tb3  1  0.326936  0.005785  0.750000  1
  Al  Al4  1  0.001261  0.335856  0.076122  1
  Al  Al5  1  0.998739  0.664144  0.923878  1
  Al  Al6  1  0.998739  0.664144  0.576122  1
  Al  Al7  1  0.336337  0.001747  0.424018  1
  Al  Al8  1  0.001261  0.335856  0.423878  1
  Al  Al9  1  0.663663  0.998253  0.575982  1
  Al  Al10  1  0.663663  0.998253  0.924018  1
  Al  Al11  1  0.336337  0.001747  0.075982  1
  Al  Al12  1  0.335412  0.335704  0.556796  1
  Al  Al13  1  0.664588  0.664296  0.443204  1
  Al  Al14  1  0.664588  0.664296  0.056796  1
  Al  Al15  1  0.335412  0.335704  0.943204  1
  Al  Al16  1  0.548510  0.336495  0.250000  1
  Al  Al17  1  0.451490  0.663505  0.750000  1
  Ga  Ga18  1  0.336295  0.548263  0.250000  1
  Ga  Ga19  1  0.663705  0.451737  0.750000  1
  Si  Si20  1  0.127062  0.127319  0.250000  1
  Si  Si21  1  0.872938  0.872681  0.750000  1
  Ir  Ir22  1  0.671363  0.327817  0.002231  1
  Ir  Ir23  1  0.328637  0.672183  0.997769  1
  Ir  Ir24  1  0.328637  0.672183  0.502231  1
  Ir  Ir25  1  0.671363  0.327817  0.497769  1
  Ir  Ir26  1  0.000000  0.000000  0.000000  1
  Ir  Ir27  1  0.000000  0.000000  0.500000  1
