# generated using pymatgen
data_Dy3YSc3Ta(ReB6)4
_symmetry_space_group_name_H-M   'P 1'
_cell_length_a   3.58653900
_cell_length_b   9.01135901
_cell_length_c   11.39333100
_cell_angle_alpha   90.00231437
_cell_angle_beta   90.00000000
_cell_angle_gamma   90.00000000
_symmetry_Int_Tables_number   1
_chemical_formula_structural   Dy3YSc3Ta(ReB6)4
_chemical_formula_sum   'Dy3 Y1 Sc3 Ta1 Re4 B24'
_cell_volume   368.22779231
_cell_formula_units_Z   1
loop_
 _symmetry_equiv_pos_site_id
 _symmetry_equiv_pos_as_xyz
  1  'x, y, z'
loop_
 _atom_site_type_symbol
 _atom_site_label
 _atom_site_symmetry_multiplicity
 _atom_site_fract_x
 _atom_site_fract_y
 _atom_site_fract_z
 _atom_site_occupancy
  Dy  Dy0  1  0.000000  0.678499  0.586726  1
  Dy  Dy1  1  0.000000  0.821164  0.084891  1
  Dy  Dy2  1  0.000000  0.178357  0.912794  1
  Y  Y3  1  0.000000  0.321178  0.415205  1
  Sc  Sc4  1  0.000000  0.055033  0.627465  1
  Sc  Sc5  1  0.000000  0.444609  0.128941  1
  Sc  Sc6  1  0.000000  0.555161  0.871075  1
  Ta  Ta7  1  0.000000  0.944794  0.372278  1
  Re  Re8  1  0.000000  0.645254  0.318719  1
  Re  Re9  1  0.000000  0.358338  0.680929  1
  Re  Re10  1  0.000000  0.137564  0.184717  1
  Re  Re11  1  0.000000  0.859712  0.817188  1
  B  B12  1  0.500000  0.555548  0.433266  1
  B  B13  1  0.500000  0.445952  0.567463  1
  B  B14  1  0.500000  0.054160  0.067109  1
  B  B15  1  0.500000  0.945328  0.932160  1
  B  B16  1  0.500000  0.755376  0.418589  1
  B  B17  1  0.500000  0.246410  0.582049  1
  B  B18  1  0.500000  0.253209  0.082659  1
  B  B19  1  0.500000  0.745800  0.917751  1
  B  B20  1  0.500000  0.795499  0.264572  1
  B  B21  1  0.500000  0.205320  0.734978  1
  B  B22  1  0.500000  0.295334  0.235888  1
  B  B23  1  0.500000  0.704755  0.764760  1
  B  B24  1  0.500000  0.629621  0.182532  1
  B  B25  1  0.500000  0.370771  0.816910  1
  B  B26  1  0.500000  0.128198  0.318178  1
  B  B27  1  0.500000  0.870988  0.683001  1
  B  B28  1  0.500000  0.980594  0.213926  1
  B  B29  1  0.500000  0.018654  0.785675  1
  B  B30  1  0.500000  0.482938  0.286378  1
  B  B31  1  0.500000  0.518159  0.714351  1
  B  B32  1  0.500000  0.596675  0.026156  1
  B  B33  1  0.500000  0.402735  0.974366  1
  B  B34  1  0.500000  0.096891  0.471813  1
  B  B35  1  0.500000  0.901423  0.524544  1
