# generated using pymatgen
data_Er6TaBiO14
_symmetry_space_group_name_H-M   'P 1'
_cell_length_a   6.40968020
_cell_length_b   6.45917804
_cell_length_c   7.60466386
_cell_angle_alpha   106.66508078
_cell_angle_beta   89.93012620
_cell_angle_gamma   98.00563528
_symmetry_Int_Tables_number   1
_chemical_formula_structural   Er6TaBiO14
_chemical_formula_sum   'Er6 Ta1 Bi1 O14'
_cell_volume   298.43016272
_cell_formula_units_Z   1
loop_
 _symmetry_equiv_pos_site_id
 _symmetry_equiv_pos_as_xyz
  1  'x, y, z'
loop_
 _atom_site_type_symbol
 _atom_site_label
 _atom_site_symmetry_multiplicity
 _atom_site_fract_x
 _atom_site_fract_y
 _atom_site_fract_z
 _atom_site_occupancy
  Er  Er0  1  0.733676  0.460659  0.113841  1
  Er  Er1  1  0.729823  0.464782  0.605797  1
  Er  Er2  1  0.541590  0.994296  0.754821  1
  Er  Er3  1  0.458410  0.005704  0.245179  1
  Er  Er4  1  0.270177  0.535218  0.394203  1
  Er  Er5  1  0.266324  0.539341  0.886159  1
  Ta  Ta6  1  0.000000  0.000000  0.000000  1
  Bi  Bi7  1  0.000000  0.000000  0.500000  1
  O  O8  1  0.695150  0.074686  0.488540  1
  O  O9  1  0.924913  0.686788  0.978026  1
  O  O10  1  0.709118  0.074488  0.054314  1
  O  O11  1  0.929910  0.643817  0.384035  1
  O  O12  1  0.886216  0.914598  0.736826  1
  O  O13  1  0.556213  0.349906  0.834503  1
  O  O14  1  0.542573  0.360935  0.342200  1
  O  O15  1  0.457427  0.639065  0.657800  1
  O  O16  1  0.443787  0.650094  0.165497  1
  O  O17  1  0.113784  0.085402  0.263174  1
  O  O18  1  0.070090  0.356183  0.615965  1
  O  O19  1  0.290882  0.925512  0.945686  1
  O  O20  1  0.075087  0.313212  0.021974  1
  O  O21  1  0.304850  0.925314  0.511460  1
