# generated using pymatgen
data_Pr16Er(TmGa4)3
_symmetry_space_group_name_H-M   'P 1'
_cell_length_a   7.82686600
_cell_length_b   7.82686600
_cell_length_c   14.75850200
_cell_angle_alpha   90.00000000
_cell_angle_beta   90.00000000
_cell_angle_gamma   90.00000000
_symmetry_Int_Tables_number   1
_chemical_formula_structural   Pr16Er(TmGa4)3
_chemical_formula_sum   'Pr16 Er1 Tm3 Ga12'
_cell_volume   904.10334397
_cell_formula_units_Z   1
loop_
 _symmetry_equiv_pos_site_id
 _symmetry_equiv_pos_as_xyz
  1  'x, y, z'
loop_
 _atom_site_type_symbol
 _atom_site_label
 _atom_site_symmetry_multiplicity
 _atom_site_fract_x
 _atom_site_fract_y
 _atom_site_fract_z
 _atom_site_occupancy
  Pr  Pr0  1  0.815249  0.839669  0.603845  1
  Pr  Pr1  1  0.184536  0.839354  0.103889  1
  Pr  Pr2  1  0.160607  0.815461  0.396129  1
  Pr  Pr3  1  0.839393  0.184539  0.396129  1
  Pr  Pr4  1  0.684539  0.660607  0.396129  1
  Pr  Pr5  1  0.660331  0.315249  0.603845  1
  Pr  Pr6  1  0.339669  0.684751  0.603845  1
  Pr  Pr7  1  0.660646  0.684536  0.103889  1
  Pr  Pr8  1  0.684501  0.339296  0.896156  1
  Pr  Pr9  1  0.839296  0.815499  0.896156  1
  Pr  Pr10  1  0.315461  0.339393  0.396129  1
  Pr  Pr11  1  0.184751  0.160331  0.603845  1
  Pr  Pr12  1  0.815464  0.160646  0.103889  1
  Pr  Pr13  1  0.315499  0.660704  0.896156  1
  Pr  Pr14  1  0.339354  0.315464  0.103889  1
  Pr  Pr15  1  0.160704  0.184501  0.896156  1
  Er  Er16  1  0.000000  0.500000  0.722991  1
  Tm  Tm17  1  0.000000  0.500000  0.223382  1
  Tm  Tm18  1  0.500000  0.000000  0.276586  1
  Tm  Tm19  1  0.500000  0.000000  0.776640  1
  Ga  Ga20  1  0.621823  0.378176  0.250008  1
  Ga  Ga21  1  0.121975  0.878655  0.750132  1
  Ga  Ga22  1  0.378655  0.378025  0.750132  1
  Ga  Ga23  1  0.378177  0.621824  0.250008  1
  Ga  Ga24  1  0.878176  0.878177  0.250008  1
  Ga  Ga25  1  0.621345  0.621975  0.750132  1
  Ga  Ga26  1  0.000000  0.500000  0.512953  1
  Ga  Ga27  1  0.878025  0.121345  0.750132  1
  Ga  Ga28  1  0.500000  0.000000  0.486623  1
  Ga  Ga29  1  0.500000  0.000000  0.986657  1
  Ga  Ga30  1  0.121824  0.121823  0.250008  1
  Ga  Ga31  1  0.000000  0.500000  0.013534  1
