# generated using pymatgen
data_LuTh3(Sc4Pb5)2
_symmetry_space_group_name_H-M   'P 1'
_cell_length_a   6.33235607
_cell_length_b   9.39201931
_cell_length_c   11.38406474
_cell_angle_alpha   114.50289593
_cell_angle_beta   106.14825266
_cell_angle_gamma   90.00000123
_symmetry_Int_Tables_number   1
_chemical_formula_structural   LuTh3(Sc4Pb5)2
_chemical_formula_sum   'Lu1 Th3 Sc8 Pb10'
_cell_volume   586.59330267
_cell_formula_units_Z   1
loop_
 _symmetry_equiv_pos_site_id
 _symmetry_equiv_pos_as_xyz
  1  'x, y, z'
loop_
 _atom_site_type_symbol
 _atom_site_label
 _atom_site_symmetry_multiplicity
 _atom_site_fract_x
 _atom_site_fract_y
 _atom_site_fract_z
 _atom_site_occupancy
  Lu  Lu0  1  0.355976  0.970941  0.711953  1
  Th  Th1  1  0.143702  0.261032  0.287403  1
  Th  Th2  1  0.857656  0.741938  0.715312  1
  Th  Th3  1  0.642466  0.026232  0.284932  1
  Sc  Sc4  1  0.556942  0.309379  0.614708  1
  Sc  Sc5  1  0.443611  0.694519  0.386694  1
  Sc  Sc6  1  0.943083  0.694519  0.386694  1
  Sc  Sc7  1  0.057767  0.309379  0.614708  1
  Sc  Sc8  1  0.439797  0.675484  0.879594  1
  Sc  Sc9  1  0.560407  0.323109  0.120815  1
  Sc  Sc10  1  0.939020  0.198847  0.878040  1
  Sc  Sc11  1  0.060930  0.800587  0.121860  1
  Pb  Pb12  1  0.293526  0.599110  0.587054  1
  Pb  Pb13  1  0.708401  0.412097  0.416801  1
  Pb  Pb14  1  0.791619  0.993852  0.583238  1
  Pb  Pb15  1  0.210337  0.004970  0.420672  1
  Pb  Pb16  1  0.250454  0.999938  0.997670  1
  Pb  Pb17  1  0.747216  0.999938  0.997670  1
  Pb  Pb18  1  0.070414  0.482199  0.140827  1
  Pb  Pb19  1  0.929893  0.518450  0.859786  1
  Pb  Pb20  1  0.569948  0.656984  0.139896  1
  Pb  Pb21  1  0.426835  0.326496  0.853671  1
