# generated using pymatgen
data_Li3Er3IrPd2
_symmetry_space_group_name_H-M   'P 1'
_cell_length_a   7.15541400
_cell_length_b   7.15541424
_cell_length_c   3.93761100
_cell_angle_alpha   90.00000000
_cell_angle_beta   90.00000000
_cell_angle_gamma   120.00000813
_symmetry_Int_Tables_number   1
_chemical_formula_structural   Li3Er3IrPd2
_chemical_formula_sum   'Li3 Er3 Ir1 Pd2'
_cell_volume   174.59546262
_cell_formula_units_Z   1
loop_
 _symmetry_equiv_pos_site_id
 _symmetry_equiv_pos_as_xyz
  1  'x, y, z'
loop_
 _atom_site_type_symbol
 _atom_site_label
 _atom_site_symmetry_multiplicity
 _atom_site_fract_x
 _atom_site_fract_y
 _atom_site_fract_z
 _atom_site_occupancy
  Li  Li0  1  0.241164  0.000845  0.500000  1
  Li  Li1  1  0.999155  0.240319  0.500000  1
  Li  Li2  1  0.759681  0.758836  0.500000  1
  Er  Er3  1  0.583152  0.987802  0.000000  1
  Er  Er4  1  0.012198  0.595351  0.000000  1
  Er  Er5  1  0.404649  0.416848  0.000000  1
  Ir  Ir6  1  0.333333  0.666667  0.500000  1
  Pd  Pd7  1  0.000000  0.000000  0.000000  1
  Pd  Pd8  1  0.666667  0.333333  0.500000  1
