# generated using pymatgen
data_HfScNi12P7
_symmetry_space_group_name_H-M   'P 1'
_cell_length_a   8.98228200
_cell_length_b   8.98228252
_cell_length_c   3.57189600
_cell_angle_alpha   90.00000000
_cell_angle_beta   90.00000000
_cell_angle_gamma   119.99999807
_symmetry_Int_Tables_number   1
_chemical_formula_structural   HfScNi12P7
_chemical_formula_sum   'Hf1 Sc1 Ni12 P7'
_cell_volume   249.57601279
_cell_formula_units_Z   1
loop_
 _symmetry_equiv_pos_site_id
 _symmetry_equiv_pos_as_xyz
  1  'x, y, z'
loop_
 _atom_site_type_symbol
 _atom_site_label
 _atom_site_symmetry_multiplicity
 _atom_site_fract_x
 _atom_site_fract_y
 _atom_site_fract_z
 _atom_site_occupancy
  Hf  Hf0  1  0.333333  0.666667  0.000000  1
  Sc  Sc1  1  0.666667  0.333333  0.500000  1
  Ni  Ni2  1  0.384236  0.435402  0.500000  1
  Ni  Ni3  1  0.051166  0.615764  0.500000  1
  Ni  Ni4  1  0.220306  0.092663  0.500000  1
  Ni  Ni5  1  0.872357  0.779694  0.500000  1
  Ni  Ni6  1  0.907337  0.127643  0.500000  1
  Ni  Ni7  1  0.722394  0.878547  0.000000  1
  Ni  Ni8  1  0.121453  0.843845  0.000000  1
  Ni  Ni9  1  0.156155  0.277606  0.000000  1
  Ni  Ni10  1  0.938030  0.374562  0.000000  1
  Ni  Ni11  1  0.625438  0.563469  0.000000  1
  Ni  Ni12  1  0.436531  0.061970  0.000000  1
  Ni  Ni13  1  0.564598  0.948834  0.500000  1
  P  P14  1  0.000000  0.000000  0.000000  1
  P  P15  1  0.411979  0.292234  0.000000  1
  P  P16  1  0.587183  0.707161  0.500000  1
  P  P17  1  0.292839  0.880021  0.500000  1
  P  P18  1  0.119979  0.412817  0.500000  1
  P  P19  1  0.707766  0.119745  0.000000  1
  P  P20  1  0.880255  0.588021  0.000000  1
