# generated using pymatgen
data_Hf16FeCo3Rh4
_symmetry_space_group_name_H-M   'P 1'
_cell_length_a   8.60105158
_cell_length_b   8.60105159
_cell_length_c   8.60105244
_cell_angle_alpha   59.89987472
_cell_angle_beta   59.89987542
_cell_angle_gamma   59.89988190
_symmetry_Int_Tables_number   1
_chemical_formula_structural   Hf16FeCo3Rh4
_chemical_formula_sum   'Hf16 Fe1 Co3 Rh4'
_cell_volume   448.90257782
_cell_formula_units_Z   1
loop_
 _symmetry_equiv_pos_site_id
 _symmetry_equiv_pos_as_xyz
  1  'x, y, z'
loop_
 _atom_site_type_symbol
 _atom_site_label
 _atom_site_symmetry_multiplicity
 _atom_site_fract_x
 _atom_site_fract_y
 _atom_site_fract_z
 _atom_site_occupancy
  Hf  Hf0  1  0.681153  0.106456  0.106456  1
  Hf  Hf1  1  0.106456  0.681153  0.106456  1
  Hf  Hf2  1  0.106456  0.106456  0.681153  1
  Hf  Hf3  1  0.105291  0.105291  0.105291  1
  Hf  Hf4  1  0.313357  0.313357  0.686798  1
  Hf  Hf5  1  0.687978  0.687978  0.311851  1
  Hf  Hf6  1  0.313357  0.686798  0.313357  1
  Hf  Hf7  1  0.687978  0.311851  0.687978  1
  Hf  Hf8  1  0.686798  0.313357  0.313357  1
  Hf  Hf9  1  0.311851  0.687978  0.687978  1
  Hf  Hf10  1  0.943225  0.943225  0.558283  1
  Hf  Hf11  1  0.556850  0.556850  0.943163  1
  Hf  Hf12  1  0.943225  0.558283  0.943225  1
  Hf  Hf13  1  0.556850  0.943163  0.556850  1
  Hf  Hf14  1  0.558283  0.943225  0.943225  1
  Hf  Hf15  1  0.943163  0.556850  0.556850  1
  Fe  Fe16  1  0.893603  0.893603  0.893603  1
  Co  Co17  1  0.319433  0.892697  0.892697  1
  Co  Co18  1  0.892697  0.319433  0.892697  1
  Co  Co19  1  0.892697  0.892697  0.319433  1
  Rh  Rh20  1  0.994728  0.334630  0.334630  1
  Rh  Rh21  1  0.334630  0.994728  0.334630  1
  Rh  Rh22  1  0.334630  0.334630  0.994728  1
  Rh  Rh23  1  0.335308  0.335308  0.335308  1
