# generated using pymatgen
data_Rb5(ZnAu2)2
_symmetry_space_group_name_H-M   'P 1'
_cell_length_a   16.78875158
_cell_length_b   16.78875150
_cell_length_c   5.46334100
_cell_angle_alpha   90.00000000
_cell_angle_beta   90.00000000
_cell_angle_gamma   164.29941750
_symmetry_Int_Tables_number   1
_chemical_formula_structural   Rb5(ZnAu2)2
_chemical_formula_sum   'Rb5 Zn2 Au4'
_cell_volume   416.71518643
_cell_formula_units_Z   1
loop_
 _symmetry_equiv_pos_site_id
 _symmetry_equiv_pos_as_xyz
  1  'x, y, z'
loop_
 _atom_site_type_symbol
 _atom_site_label
 _atom_site_symmetry_multiplicity
 _atom_site_fract_x
 _atom_site_fract_y
 _atom_site_fract_z
 _atom_site_occupancy
  Rb  Rb0  1  0.997697  0.002303  0.000000  1
  Rb  Rb1  1  0.618198  0.381800  0.000000  1
  Rb  Rb2  1  0.380986  0.619012  0.000000  1
  Rb  Rb3  1  0.801877  0.198121  0.500001  1
  Rb  Rb4  1  0.202477  0.797521  0.500001  1
  Zn  Zn5  1  0.459586  0.540412  0.500001  1
  Zn  Zn6  1  0.071638  0.928361  0.500001  1
  Au  Au7  1  0.726855  0.273143  0.000000  1
  Au  Au8  1  0.273123  0.726875  0.000000  1
  Au  Au9  1  0.926647  0.073352  0.500001  1
  Au  Au10  1  0.540910  0.459088  0.500001  1
