# generated using pymatgen
data_HoTm7B24Ir3Ru
_symmetry_space_group_name_H-M   'P 1'
_cell_length_a   3.61368700
_cell_length_b   9.12644840
_cell_length_c   11.44465800
_cell_angle_alpha   90.01544638
_cell_angle_beta   90.00000000
_cell_angle_gamma   90.00000000
_symmetry_Int_Tables_number   1
_chemical_formula_structural   HoTm7B24Ir3Ru
_chemical_formula_sum   'Ho1 Tm7 B24 Ir3 Ru1'
_cell_volume   377.44627158
_cell_formula_units_Z   1
loop_
 _symmetry_equiv_pos_site_id
 _symmetry_equiv_pos_as_xyz
  1  'x, y, z'
loop_
 _atom_site_type_symbol
 _atom_site_label
 _atom_site_symmetry_multiplicity
 _atom_site_fract_x
 _atom_site_fract_y
 _atom_site_fract_z
 _atom_site_occupancy
  Ho  Ho0  1  0.000000  0.320371  0.413221  1
  Tm  Tm1  1  0.000000  0.681116  0.588075  1
  Tm  Tm2  1  0.000000  0.820389  0.084838  1
  Tm  Tm3  1  0.000000  0.177740  0.912990  1
  Tm  Tm4  1  0.000000  0.943953  0.374019  1
  Tm  Tm5  1  0.000000  0.054179  0.627110  1
  Tm  Tm6  1  0.000000  0.444165  0.125653  1
  Tm  Tm7  1  0.000000  0.557693  0.874261  1
  B  B8  1  0.500000  0.554073  0.434993  1
  B  B9  1  0.500000  0.446711  0.565611  1
  B  B10  1  0.500000  0.053186  0.065260  1
  B  B11  1  0.500000  0.946004  0.933861  1
  B  B12  1  0.500000  0.750195  0.421370  1
  B  B13  1  0.500000  0.249767  0.579335  1
  B  B14  1  0.500000  0.249676  0.078675  1
  B  B15  1  0.500000  0.751462  0.920252  1
  B  B16  1  0.500000  0.793540  0.264605  1
  B  B17  1  0.500000  0.206561  0.734850  1
  B  B18  1  0.500000  0.293748  0.234971  1
  B  B19  1  0.500000  0.707472  0.765548  1
  B  B20  1  0.500000  0.631870  0.183573  1
  B  B21  1  0.500000  0.368240  0.816310  1
  B  B22  1  0.500000  0.131923  0.316045  1
  B  B23  1  0.500000  0.868268  0.684909  1
  B  B24  1  0.500000  0.980945  0.213126  1
  B  B25  1  0.500000  0.017318  0.786601  1
  B  B26  1  0.500000  0.481761  0.286100  1
  B  B27  1  0.500000  0.518871  0.713996  1
  B  B28  1  0.500000  0.609335  0.030227  1
  B  B29  1  0.500000  0.390275  0.970028  1
  B  B30  1  0.500000  0.108563  0.470155  1
  B  B31  1  0.500000  0.890812  0.529720  1
  Ir  Ir32  1  0.000000  0.638654  0.321517  1
  Ir  Ir33  1  0.000000  0.362130  0.679097  1
  Ir  Ir34  1  0.000000  0.137145  0.177854  1
  Ru  Ru35  1  0.000000  0.861888  0.821248  1
