# generated using pymatgen
data_Nd16MgCd3Ru3Pt
_symmetry_space_group_name_H-M   'P 1'
_cell_length_a   9.96787213
_cell_length_b   9.99076909
_cell_length_c   9.99076888
_cell_angle_alpha   59.77325666
_cell_angle_beta   59.71704334
_cell_angle_gamma   59.71703939
_symmetry_Int_Tables_number   1
_chemical_formula_structural   Nd16MgCd3Ru3Pt
_chemical_formula_sum   'Nd16 Mg1 Cd3 Ru3 Pt1'
_cell_volume   699.31238223
_cell_formula_units_Z   1
loop_
 _symmetry_equiv_pos_site_id
 _symmetry_equiv_pos_as_xyz
  1  'x, y, z'
loop_
 _atom_site_type_symbol
 _atom_site_label
 _atom_site_symmetry_multiplicity
 _atom_site_fract_x
 _atom_site_fract_y
 _atom_site_fract_z
 _atom_site_occupancy
  Nd  Nd0  1  0.343084  0.350689  0.350689  1
  Nd  Nd1  1  0.342798  0.350016  0.957528  1
  Nd  Nd2  1  0.342798  0.957528  0.350016  1
  Nd  Nd3  1  0.963411  0.344570  0.344570  1
  Nd  Nd4  1  0.813439  0.191627  0.191627  1
  Nd  Nd5  1  0.188695  0.811125  0.811125  1
  Nd  Nd6  1  0.191381  0.808849  0.190733  1
  Nd  Nd7  1  0.815884  0.189736  0.805074  1
  Nd  Nd8  1  0.191381  0.190733  0.808849  1
  Nd  Nd9  1  0.815884  0.805074  0.189736  1
  Nd  Nd10  1  0.937170  0.562644  0.562644  1
  Nd  Nd11  1  0.557916  0.939919  0.939919  1
  Nd  Nd12  1  0.559993  0.937686  0.564913  1
  Nd  Nd13  1  0.938260  0.561372  0.940289  1
  Nd  Nd14  1  0.559993  0.564913  0.937686  1
  Nd  Nd15  1  0.938260  0.940289  0.561372  1
  Mg  Mg16  1  0.575485  0.574366  0.574366  1
  Cd  Cd17  1  0.580857  0.580204  0.258684  1
  Cd  Cd18  1  0.580857  0.258684  0.580204  1
  Cd  Cd19  1  0.257912  0.580523  0.580523  1
  Ru  Ru20  1  0.143032  0.137128  0.137128  1
  Ru  Ru21  1  0.143282  0.138302  0.581478  1
  Ru  Ru22  1  0.143282  0.581478  0.138302  1
  Pt  Pt23  1  0.574945  0.142548  0.142548  1
