# generated using pymatgen
data_Ti5Fe6Co4GeB4
_symmetry_space_group_name_H-M   'P 1'
_cell_length_a   8.60297900
_cell_length_b   8.60297900
_cell_length_c   2.88456900
_cell_angle_alpha   90.00000000
_cell_angle_beta   90.00000000
_cell_angle_gamma   90.00000000
_symmetry_Int_Tables_number   1
_chemical_formula_structural   Ti5Fe6Co4GeB4
_chemical_formula_sum   'Ti5 Fe6 Co4 Ge1 B4'
_cell_volume   213.49055069
_cell_formula_units_Z   1
loop_
 _symmetry_equiv_pos_site_id
 _symmetry_equiv_pos_as_xyz
  1  'x, y, z'
loop_
 _atom_site_type_symbol
 _atom_site_label
 _atom_site_symmetry_multiplicity
 _atom_site_fract_x
 _atom_site_fract_y
 _atom_site_fract_z
 _atom_site_occupancy
  Ti  Ti0  1  0.000000  0.000000  0.000000  1
  Ti  Ti1  1  0.830965  0.321825  0.000000  1
  Ti  Ti2  1  0.321825  0.169035  0.000000  1
  Ti  Ti3  1  0.678175  0.830965  0.000000  1
  Ti  Ti4  1  0.169035  0.678175  0.000000  1
  Fe  Fe5  1  0.500000  0.000000  0.500000  1
  Fe  Fe6  1  0.000000  0.500000  0.500000  1
  Fe  Fe7  1  0.075302  0.218936  0.500000  1
  Fe  Fe8  1  0.218936  0.924698  0.500000  1
  Fe  Fe9  1  0.781064  0.075302  0.500000  1
  Fe  Fe10  1  0.924698  0.781064  0.500000  1
  Co  Co11  1  0.431640  0.716326  0.500000  1
  Co  Co12  1  0.568360  0.283674  0.500000  1
  Co  Co13  1  0.716326  0.568360  0.500000  1
  Co  Co14  1  0.283674  0.431640  0.500000  1
  Ge  Ge15  1  0.500000  0.500000  0.000000  1
  B  B16  1  0.622224  0.121987  0.000000  1
  B  B17  1  0.121987  0.377776  0.000000  1
  B  B18  1  0.878013  0.622224  0.000000  1
  B  B19  1  0.377776  0.878013  0.000000  1
