# generated using pymatgen
data_LaYErTaO7
_symmetry_space_group_name_H-M   'P 1'
_cell_length_a   6.52268412
_cell_length_b   6.52268315
_cell_length_c   7.62268100
_cell_angle_alpha   90.00000000
_cell_angle_beta   90.00000000
_cell_angle_gamma   109.00761248
_symmetry_Int_Tables_number   1
_chemical_formula_structural   LaYErTaO7
_chemical_formula_sum   'La2 Y2 Er2 Ta2 O14'
_cell_volume   306.62712278
_cell_formula_units_Z   2
loop_
 _symmetry_equiv_pos_site_id
 _symmetry_equiv_pos_as_xyz
  1  'x, y, z'
loop_
 _atom_site_type_symbol
 _atom_site_label
 _atom_site_symmetry_multiplicity
 _atom_site_fract_x
 _atom_site_fract_y
 _atom_site_fract_z
 _atom_site_occupancy
  La  La0  1  0.500691  0.500691  0.500000  1
  La  La1  1  0.500691  0.500691  0.000000  1
  Y  Y2  1  0.467190  0.999241  0.250000  1
  Y  Y3  1  0.999241  0.467190  0.750000  1
  Er  Er4  1  0.532210  0.001453  0.750000  1
  Er  Er5  1  0.001453  0.532210  0.250000  1
  Ta  Ta6  1  0.000044  0.000044  0.500000  1
  Ta  Ta7  1  0.000044  0.000044  0.000000  1
  O  O8  1  0.680396  0.933482  0.469366  1
  O  O9  1  0.933482  0.680396  0.530634  1
  O  O10  1  0.680396  0.933482  0.030634  1
  O  O11  1  0.933482  0.680396  0.969366  1
  O  O12  1  0.318832  0.065905  0.534485  1
  O  O13  1  0.065905  0.318832  0.465515  1
  O  O14  1  0.318832  0.065905  0.965515  1
  O  O15  1  0.065905  0.318832  0.034485  1
  O  O16  1  0.936884  0.062774  0.750000  1
  O  O17  1  0.062774  0.936884  0.250000  1
  O  O18  1  0.364137  0.640377  0.750000  1
  O  O19  1  0.640377  0.364137  0.250000  1
  O  O20  1  0.643311  0.353723  0.750000  1
  O  O21  1  0.353723  0.643311  0.250000  1
