# generated using pymatgen
data_Pr4Sn8PdRh3
_symmetry_space_group_name_H-M   'P 1'
_cell_length_a   8.92906729
_cell_length_b   8.92906616
_cell_length_c   9.69725113
_cell_angle_alpha   89.69491330
_cell_angle_beta   90.30508814
_cell_angle_gamma   149.55236220
_symmetry_Int_Tables_number   1
_chemical_formula_structural   Pr4Sn8PdRh3
_chemical_formula_sum   'Pr4 Sn8 Pd1 Rh3'
_cell_volume   391.78566022
_cell_formula_units_Z   1
loop_
 _symmetry_equiv_pos_site_id
 _symmetry_equiv_pos_as_xyz
  1  'x, y, z'
loop_
 _atom_site_type_symbol
 _atom_site_label
 _atom_site_symmetry_multiplicity
 _atom_site_fract_x
 _atom_site_fract_y
 _atom_site_fract_z
 _atom_site_occupancy
  Pr  Pr0  1  0.497615  0.502385  0.499448  1
  Pr  Pr1  1  0.499633  0.500367  0.998768  1
  Pr  Pr2  1  0.297712  0.702288  0.249913  1
  Pr  Pr3  1  0.703854  0.296146  0.749150  1
  Sn  Sn4  1  0.908523  0.091477  0.750241  1
  Sn  Sn5  1  0.925777  0.074223  0.250173  1
  Sn  Sn6  1  0.090748  0.909252  0.247013  1
  Sn  Sn7  1  0.072866  0.927134  0.754589  1
  Sn  Sn8  1  0.698501  0.301499  0.406647  1
  Sn  Sn9  1  0.305305  0.694695  0.592213  1
  Sn  Sn10  1  0.303135  0.696865  0.910897  1
  Sn  Sn11  1  0.697432  0.302568  0.088396  1
  Pd  Pd12  1  0.146114  0.853886  0.507519  1
  Rh  Rh13  1  0.851501  0.148499  0.005251  1
  Rh  Rh14  1  0.149197  0.850803  0.995645  1
  Rh  Rh15  1  0.852087  0.147913  0.494137  1
