# generated using pymatgen
data_CaGe4PtRh5
_symmetry_space_group_name_H-M   'P 1'
_cell_length_a   7.29950100
_cell_length_b   7.29949963
_cell_length_c   3.85372000
_cell_angle_alpha   90.00000000
_cell_angle_beta   90.00000000
_cell_angle_gamma   120.69300917
_symmetry_Int_Tables_number   1
_chemical_formula_structural   CaGe4PtRh5
_chemical_formula_sum   'Ca1 Ge4 Pt1 Rh5'
_cell_volume   176.57195347
_cell_formula_units_Z   1
loop_
 _symmetry_equiv_pos_site_id
 _symmetry_equiv_pos_as_xyz
  1  'x, y, z'
loop_
 _atom_site_type_symbol
 _atom_site_label
 _atom_site_symmetry_multiplicity
 _atom_site_fract_x
 _atom_site_fract_y
 _atom_site_fract_z
 _atom_site_occupancy
  Ca  Ca0  1  0.998986  0.001014  0.000000  1
  Ge  Ge1  1  0.803082  0.196918  0.500000  1
  Ge  Ge2  1  0.797331  0.603017  0.500000  1
  Ge  Ge3  1  0.396983  0.202669  0.500000  1
  Ge  Ge4  1  0.338072  0.661928  0.000000  1
  Pt  Pt5  1  0.197335  0.802665  0.500000  1
  Rh  Rh6  1  0.534033  0.465967  0.000000  1
  Rh  Rh7  1  0.531936  0.065969  0.000000  1
  Rh  Rh8  1  0.934031  0.468064  0.000000  1
  Rh  Rh9  1  0.199437  0.397894  0.500000  1
  Rh  Rh10  1  0.602106  0.800563  0.500000  1
