# generated using pymatgen
data_Sc10GaSi3Sb4
_symmetry_space_group_name_H-M   'P 1'
_cell_length_a   8.07093371
_cell_length_b   8.07093517
_cell_length_c   7.39955814
_cell_angle_alpha   89.99680711
_cell_angle_beta   89.99679292
_cell_angle_gamma   125.40551989
_symmetry_Int_Tables_number   1
_chemical_formula_structural   Sc10GaSi3Sb4
_chemical_formula_sum   'Sc10 Ga1 Si3 Sb4'
_cell_volume   392.87047176
_cell_formula_units_Z   1
loop_
 _symmetry_equiv_pos_site_id
 _symmetry_equiv_pos_as_xyz
  1  'x, y, z'
loop_
 _atom_site_type_symbol
 _atom_site_label
 _atom_site_symmetry_multiplicity
 _atom_site_fract_x
 _atom_site_fract_y
 _atom_site_fract_z
 _atom_site_occupancy
  Sc  Sc0  1  0.541882  0.791186  0.168857  1
  Sc  Sc1  1  0.288138  0.042099  0.333968  1
  Sc  Sc2  1  0.207227  0.456077  0.833935  1
  Sc  Sc3  1  0.961157  0.711977  0.664099  1
  Sc  Sc4  1  0.711977  0.961157  0.664099  1
  Sc  Sc5  1  0.456077  0.207227  0.833935  1
  Sc  Sc6  1  0.791186  0.541882  0.168857  1
  Sc  Sc7  1  0.042099  0.288138  0.333968  1
  Sc  Sc8  1  0.498852  0.498852  0.497076  1
  Sc  Sc9  1  0.002405  0.002405  0.001357  1
  Ga  Ga10  1  0.631608  0.631608  0.869207  1
  Si  Si11  1  0.130254  0.130254  0.630841  1
  Si  Si12  1  0.867915  0.867915  0.370876  1
  Si  Si13  1  0.369790  0.369790  0.129176  1
  Sb  Sb14  1  0.293008  0.705998  0.499827  1
  Sb  Sb15  1  0.206889  0.793536  0.000050  1
  Sb  Sb16  1  0.705998  0.293008  0.499827  1
  Sb  Sb17  1  0.793536  0.206889  0.000050  1
