# generated using pymatgen
data_Er5MoRuC7
_symmetry_space_group_name_H-M   'P 1'
_cell_length_a   8.22824676
_cell_length_b   8.22824645
_cell_length_c   3.44936700
_cell_angle_alpha   90.00000000
_cell_angle_beta   90.00000000
_cell_angle_gamma   121.90775494
_symmetry_Int_Tables_number   1
_chemical_formula_structural   Er5MoRuC7
_chemical_formula_sum   'Er5 Mo1 Ru1 C7'
_cell_volume   198.24882237
_cell_formula_units_Z   1
loop_
 _symmetry_equiv_pos_site_id
 _symmetry_equiv_pos_as_xyz
  1  'x, y, z'
loop_
 _atom_site_type_symbol
 _atom_site_label
 _atom_site_symmetry_multiplicity
 _atom_site_fract_x
 _atom_site_fract_y
 _atom_site_fract_z
 _atom_site_occupancy
  Er  Er0  1  0.501720  0.498280  0.000000  1
  Er  Er1  1  0.074997  0.335979  0.500000  1
  Er  Er2  1  0.920383  0.660290  0.500000  1
  Er  Er3  1  0.664021  0.925003  0.500000  1
  Er  Er4  1  0.339710  0.079617  0.500000  1
  Mo  Mo5  1  0.286481  0.713519  0.000000  1
  Ru  Ru6  1  0.711034  0.288966  0.000000  1
  C  C7  1  0.628499  0.371501  0.500000  1
  C  C8  1  0.377627  0.622373  0.500000  1
  C  C9  1  0.999176  0.000824  0.000000  1
  C  C10  1  0.169289  0.170212  0.000000  1
  C  C11  1  0.829788  0.830711  0.000000  1
  C  C12  1  0.000099  0.502822  0.000000  1
  C  C13  1  0.497178  0.999901  0.000000  1
