# generated using pymatgen
data_Cs2Nd10Be2Br17
_symmetry_space_group_name_H-M   'P 1'
_cell_length_a   9.40158310
_cell_length_b   11.11438575
_cell_length_c   11.11433064
_cell_angle_alpha   106.54042581
_cell_angle_beta   94.62652354
_cell_angle_gamma   94.62658382
_symmetry_Int_Tables_number   1
_chemical_formula_structural   Cs2Nd10Be2Br17
_chemical_formula_sum   'Cs2 Nd10 Be2 Br17'
_cell_volume   1103.13660618
_cell_formula_units_Z   1
loop_
 _symmetry_equiv_pos_site_id
 _symmetry_equiv_pos_as_xyz
  1  'x, y, z'
loop_
 _atom_site_type_symbol
 _atom_site_label
 _atom_site_symmetry_multiplicity
 _atom_site_fract_x
 _atom_site_fract_y
 _atom_site_fract_z
 _atom_site_occupancy
  Cs  Cs0  1  0.000000  0.823626  0.176371  1
  Cs  Cs1  1  0.000000  0.176372  0.823627  1
  Nd  Nd2  1  0.439547  0.162511  0.162510  1
  Nd  Nd3  1  0.572211  0.511695  0.202522  1
  Nd  Nd4  1  0.836044  0.289924  0.289925  1
  Nd  Nd5  1  0.302453  0.432647  0.432650  1
  Nd  Nd6  1  0.427784  0.797483  0.488308  1
  Nd  Nd7  1  0.572215  0.202519  0.511693  1
  Nd  Nd8  1  0.697549  0.567355  0.567351  1
  Nd  Nd9  1  0.163956  0.710074  0.710070  1
  Nd  Nd10  1  0.427785  0.488304  0.797480  1
  Nd  Nd11  1  0.560451  0.837487  0.837493  1
  Be  Be12  1  0.570960  0.355981  0.355981  1
  Be  Be13  1  0.429045  0.644015  0.644018  1
  Br  Br14  1  0.580248  0.688442  0.023344  1
  Br  Br15  1  0.714867  0.067048  0.067046  1
  Br  Br16  1  0.856548  0.450957  0.119061  1
  Br  Br17  1  0.136251  0.208629  0.208629  1
  Br  Br18  1  0.281816  0.601948  0.256108  1
  Br  Br19  1  0.419752  0.976658  0.311560  1
  Br  Br20  1  0.718181  0.743891  0.398053  1
  Br  Br21  1  0.856549  0.119061  0.450957  1
  Br  Br22  1  0.999998  0.499999  0.500000  1
  Br  Br23  1  0.143450  0.880939  0.549045  1
  Br  Br24  1  0.281818  0.256109  0.601948  1
  Br  Br25  1  0.580249  0.023343  0.688441  1
  Br  Br26  1  0.718181  0.398053  0.743892  1
  Br  Br27  1  0.863750  0.791371  0.791371  1
  Br  Br28  1  0.143453  0.549046  0.880937  1
  Br  Br29  1  0.285137  0.932951  0.932951  1
  Br  Br30  1  0.419753  0.311560  0.976658  1
