# generated using pymatgen
data_La4Y6ZnSn7
_symmetry_space_group_name_H-M   'P 1'
_cell_length_a   8.01110000
_cell_length_b   8.43824700
_cell_length_c   15.68104700
_cell_angle_alpha   90.00000000
_cell_angle_beta   90.00000000
_cell_angle_gamma   90.00000000
_symmetry_Int_Tables_number   1
_chemical_formula_structural   La4Y6ZnSn7
_chemical_formula_sum   'La8 Y12 Zn2 Sn14'
_cell_volume   1060.03314052
_cell_formula_units_Z   2
loop_
 _symmetry_equiv_pos_site_id
 _symmetry_equiv_pos_as_xyz
  1  'x, y, z'
loop_
 _atom_site_type_symbol
 _atom_site_label
 _atom_site_symmetry_multiplicity
 _atom_site_fract_x
 _atom_site_fract_y
 _atom_site_fract_z
 _atom_site_occupancy
  La  La0  1  0.499193  0.316182  0.906503  1
  La  La1  1  0.999193  0.183818  0.593497  1
  La  La2  1  0.498807  0.678986  0.405923  1
  La  La3  1  0.998807  0.821014  0.094077  1
  La  La4  1  0.498807  0.678986  0.094077  1
  La  La5  1  0.998807  0.821014  0.405923  1
  La  La6  1  0.499193  0.316182  0.593497  1
  La  La7  1  0.999193  0.183818  0.906503  1
  Y  Y8  1  0.333522  0.831460  0.870546  1
  Y  Y9  1  0.833522  0.668540  0.629454  1
  Y  Y10  1  0.664530  0.165033  0.374780  1
  Y  Y11  1  0.164530  0.334967  0.125220  1
  Y  Y12  1  0.664530  0.165033  0.125220  1
  Y  Y13  1  0.164530  0.334967  0.374780  1
  Y  Y14  1  0.333522  0.831460  0.629454  1
  Y  Y15  1  0.833522  0.668540  0.870546  1
  Y  Y16  1  0.182029  0.499989  0.750000  1
  Y  Y17  1  0.682029  0.000011  0.750000  1
  Y  Y18  1  0.828911  0.502112  0.250000  1
  Y  Y19  1  0.328911  0.997888  0.250000  1
  Zn  Zn20  1  0.535848  0.621816  0.750000  1
  Zn  Zn21  1  0.035848  0.878184  0.750000  1
  Sn  Sn22  1  0.323809  0.039234  0.039698  1
  Sn  Sn23  1  0.823809  0.460766  0.460302  1
  Sn  Sn24  1  0.679472  0.960512  0.542759  1
  Sn  Sn25  1  0.179472  0.539488  0.957241  1
  Sn  Sn26  1  0.679472  0.960512  0.957241  1
  Sn  Sn27  1  0.179472  0.539488  0.542759  1
  Sn  Sn28  1  0.323809  0.039234  0.460302  1
  Sn  Sn29  1  0.823809  0.460766  0.039698  1
  Sn  Sn30  1  0.468046  0.377188  0.250000  1
  Sn  Sn31  1  0.968046  0.122812  0.250000  1
  Sn  Sn32  1  0.292606  0.131385  0.750000  1
  Sn  Sn33  1  0.792606  0.368615  0.750000  1
  Sn  Sn34  1  0.693896  0.855661  0.250000  1
  Sn  Sn35  1  0.193896  0.644339  0.250000  1
