# generated using pymatgen
data_La2Al3Zn2Si
_symmetry_space_group_name_H-M   'P 1'
_cell_length_a   9.44346339
_cell_length_b   9.44346331
_cell_length_c   4.26181400
_cell_angle_alpha   90.00000000
_cell_angle_beta   90.00000000
_cell_angle_gamma   153.55929055
_symmetry_Int_Tables_number   1
_chemical_formula_structural   La2Al3Zn2Si
_chemical_formula_sum   'La2 Al3 Zn2 Si1'
_cell_volume   169.23179919
_cell_formula_units_Z   1
loop_
 _symmetry_equiv_pos_site_id
 _symmetry_equiv_pos_as_xyz
  1  'x, y, z'
loop_
 _atom_site_type_symbol
 _atom_site_label
 _atom_site_symmetry_multiplicity
 _atom_site_fract_x
 _atom_site_fract_y
 _atom_site_fract_z
 _atom_site_occupancy
  La  La0  1  0.100148  0.899852  0.250000  1
  La  La1  1  0.898377  0.101623  0.750000  1
  Al  Al2  1  0.750793  0.249207  0.250000  1
  Al  Al3  1  0.250705  0.749295  0.750000  1
  Al  Al4  1  0.533269  0.466731  0.750000  1
  Zn  Zn5  1  0.669424  0.330576  0.750000  1
  Zn  Zn6  1  0.332276  0.667724  0.250000  1
  Si  Si7  1  0.465008  0.534992  0.250000  1
