# generated using pymatgen
data_Pa6Al24FeRe7
_symmetry_space_group_name_H-M   'P 1'
_cell_length_a   8.91126100
_cell_length_b   8.91126126
_cell_length_c   9.45997100
_cell_angle_alpha   90.00000000
_cell_angle_beta   90.00000000
_cell_angle_gamma   119.99999531
_symmetry_Int_Tables_number   1
_chemical_formula_structural   Pa6Al24FeRe7
_chemical_formula_sum   'Pa6 Al24 Fe1 Re7'
_cell_volume   650.57713828
_cell_formula_units_Z   1
loop_
 _symmetry_equiv_pos_site_id
 _symmetry_equiv_pos_as_xyz
  1  'x, y, z'
loop_
 _atom_site_type_symbol
 _atom_site_label
 _atom_site_symmetry_multiplicity
 _atom_site_fract_x
 _atom_site_fract_y
 _atom_site_fract_z
 _atom_site_occupancy
  Pa  Pa0  1  0.800314  0.199686  0.750577  1
  Pa  Pa1  1  0.199686  0.800314  0.249423  1
  Pa  Pa2  1  0.399372  0.199686  0.750577  1
  Pa  Pa3  1  0.600628  0.800314  0.249423  1
  Pa  Pa4  1  0.800314  0.600628  0.750577  1
  Pa  Pa5  1  0.199686  0.399372  0.249423  1
  Al  Al6  1  0.666667  0.333333  0.989512  1
  Al  Al7  1  0.333333  0.666667  0.010488  1
  Al  Al8  1  0.333333  0.666667  0.491691  1
  Al  Al9  1  0.666667  0.333333  0.508309  1
  Al  Al10  1  0.841686  0.158314  0.421914  1
  Al  Al11  1  0.158314  0.841686  0.578086  1
  Al  Al12  1  0.316629  0.158314  0.421914  1
  Al  Al13  1  0.161357  0.838643  0.918642  1
  Al  Al14  1  0.683371  0.841686  0.578086  1
  Al  Al15  1  0.838643  0.161357  0.081358  1
  Al  Al16  1  0.841686  0.683371  0.421914  1
  Al  Al17  1  0.677284  0.838643  0.918642  1
  Al  Al18  1  0.158314  0.316629  0.578086  1
  Al  Al19  1  0.322716  0.161357  0.081358  1
  Al  Al20  1  0.161357  0.322716  0.918642  1
  Al  Al21  1  0.838643  0.677284  0.081358  1
  Al  Al22  1  0.437367  0.562633  0.749620  1
  Al  Al23  1  0.562633  0.437367  0.250380  1
  Al  Al24  1  0.125266  0.562633  0.749620  1
  Al  Al25  1  0.874734  0.437367  0.250380  1
  Al  Al26  1  0.437367  0.874734  0.749620  1
  Al  Al27  1  0.562633  0.125266  0.250380  1
  Al  Al28  1  0.000000  0.000000  0.741580  1
  Al  Al29  1  0.000000  0.000000  0.258420  1
  Fe  Fe30  1  0.000000  0.000000  0.500000  1
  Re  Re31  1  0.500000  0.500000  0.000000  1
  Re  Re32  1  0.000000  0.500000  0.000000  1
  Re  Re33  1  0.500000  0.500000  0.500000  1
  Re  Re34  1  0.500000  0.000000  0.000000  1
  Re  Re35  1  0.000000  0.500000  0.500000  1
  Re  Re36  1  0.500000  0.000000  0.500000  1
  Re  Re37  1  0.000000  0.000000  0.000000  1
