# generated using pymatgen
data_Ho3TmGa20(Tc2Os)2
_symmetry_space_group_name_H-M   'P 1'
_cell_length_a   9.02831798
_cell_length_b   9.02831798
_cell_length_c   6.30104500
_cell_angle_alpha   90.00000000
_cell_angle_beta   90.00000000
_cell_angle_gamma   89.94657744
_symmetry_Int_Tables_number   1
_chemical_formula_structural   Ho3TmGa20(Tc2Os)2
_chemical_formula_sum   'Ho3 Tm1 Ga20 Tc4 Os2'
_cell_volume   513.60126632
_cell_formula_units_Z   1
loop_
 _symmetry_equiv_pos_site_id
 _symmetry_equiv_pos_as_xyz
  1  'x, y, z'
loop_
 _atom_site_type_symbol
 _atom_site_label
 _atom_site_symmetry_multiplicity
 _atom_site_fract_x
 _atom_site_fract_y
 _atom_site_fract_z
 _atom_site_occupancy
  Ho  Ho0  1  0.183147  0.316848  0.000000  1
  Ho  Ho1  1  0.683186  0.183186  0.000000  1
  Ho  Ho2  1  0.816848  0.683147  0.000000  1
  Tm  Tm3  1  0.316792  0.816792  0.000000  1
  Ga  Ga4  1  0.499788  0.999788  0.285147  1
  Ga  Ga5  1  0.499788  0.999788  0.714853  1
  Ga  Ga6  1  0.294171  0.560478  0.708691  1
  Ga  Ga7  1  0.999979  0.499979  0.285567  1
  Ga  Ga8  1  0.999979  0.499979  0.714433  1
  Ga  Ga9  1  0.060478  0.794171  0.708691  1
  Ga  Ga10  1  0.205908  0.060001  0.291361  1
  Ga  Ga11  1  0.060478  0.794171  0.291309  1
  Ga  Ga12  1  0.705835  0.439833  0.708327  1
  Ga  Ga13  1  0.205908  0.060001  0.708639  1
  Ga  Ga14  1  0.939833  0.205835  0.708327  1
  Ga  Ga15  1  0.705835  0.439833  0.291673  1
  Ga  Ga16  1  0.560001  0.705908  0.291361  1
  Ga  Ga17  1  0.939833  0.205835  0.291673  1
  Ga  Ga18  1  0.560001  0.705908  0.708639  1
  Ga  Ga19  1  0.794176  0.939806  0.291612  1
  Ga  Ga20  1  0.439806  0.294176  0.708388  1
  Ga  Ga21  1  0.794176  0.939806  0.708388  1
  Ga  Ga22  1  0.439806  0.294176  0.291612  1
  Ga  Ga23  1  0.294171  0.560478  0.291309  1
  Tc  Tc24  1  0.179174  0.320826  0.500000  1
  Tc  Tc25  1  0.320841  0.820841  0.500000  1
  Tc  Tc26  1  0.820826  0.679174  0.500000  1
  Tc  Tc27  1  0.679082  0.179082  0.500000  1
  Os  Os28  1  0.000357  0.999796  0.000000  1
  Os  Os29  1  0.499796  0.500357  0.000000  1
