# generated using pymatgen
data_Nd2InBiO7
_symmetry_space_group_name_H-M   'P 1'
_cell_length_a   7.71761758
_cell_length_b   7.71761807
_cell_length_c   7.82376500
_cell_angle_alpha   59.54396095
_cell_angle_beta   59.54395881
_cell_angle_gamma   59.27511691
_symmetry_Int_Tables_number   1
_chemical_formula_structural   Nd2InBiO7
_chemical_formula_sum   'Nd4 In2 Bi2 O14'
_cell_volume   325.41397347
_cell_formula_units_Z   2
loop_
 _symmetry_equiv_pos_site_id
 _symmetry_equiv_pos_as_xyz
  1  'x, y, z'
loop_
 _atom_site_type_symbol
 _atom_site_label
 _atom_site_symmetry_multiplicity
 _atom_site_fract_x
 _atom_site_fract_y
 _atom_site_fract_z
 _atom_site_occupancy
  Nd  Nd0  1  0.625000  0.125000  0.125000  1
  Nd  Nd1  1  0.125000  0.125000  0.125000  1
  Nd  Nd2  1  0.125000  0.625000  0.125000  1
  Nd  Nd3  1  0.125000  0.125000  0.625000  1
  In  In4  1  0.625000  0.125000  0.625000  1
  In  In5  1  0.125000  0.625000  0.625000  1
  Bi  Bi6  1  0.625000  0.625000  0.125000  1
  Bi  Bi7  1  0.625000  0.625000  0.625000  1
  O  O8  1  0.709827  0.288454  0.280739  1
  O  O9  1  0.710432  0.710432  0.289568  1
  O  O10  1  0.288454  0.709827  0.280739  1
  O  O11  1  0.998771  0.998771  0.001229  1
  O  O12  1  0.709827  0.288454  0.720980  1
  O  O13  1  0.961546  0.540173  0.529020  1
  O  O14  1  0.288454  0.709827  0.720980  1
  O  O15  1  0.540173  0.961546  0.529020  1
  O  O16  1  0.251229  0.251229  0.248771  1
  O  O17  1  0.961546  0.540173  0.969261  1
  O  O18  1  0.539568  0.539568  0.960432  1
  O  O19  1  0.970450  0.970450  0.529550  1
  O  O20  1  0.540173  0.961546  0.969261  1
  O  O21  1  0.279550  0.279550  0.720450  1
