# generated using pymatgen
data_DyY3FePt3O14
_symmetry_space_group_name_H-M   'P 1'
_cell_length_a   7.30542610
_cell_length_b   7.22874138
_cell_length_c   7.22874200
_cell_angle_alpha   59.99999717
_cell_angle_beta   60.34663036
_cell_angle_gamma   60.34663483
_symmetry_Int_Tables_number   1
_chemical_formula_structural   DyY3FePt3O14
_chemical_formula_sum   'Dy1 Y3 Fe1 Pt3 O14'
_cell_volume   271.33862369
_cell_formula_units_Z   1
loop_
 _symmetry_equiv_pos_site_id
 _symmetry_equiv_pos_as_xyz
  1  'x, y, z'
loop_
 _atom_site_type_symbol
 _atom_site_label
 _atom_site_symmetry_multiplicity
 _atom_site_fract_x
 _atom_site_fract_y
 _atom_site_fract_z
 _atom_site_occupancy
  Dy  Dy0  1  0.625000  0.125000  0.125000  1
  Y  Y1  1  0.125000  0.625000  0.125000  1
  Y  Y2  1  0.125000  0.125000  0.625000  1
  Y  Y3  1  0.125000  0.125000  0.125000  1
  Fe  Fe4  1  0.125000  0.625000  0.625000  1
  Pt  Pt5  1  0.625000  0.625000  0.625000  1
  Pt  Pt6  1  0.625000  0.125000  0.625000  1
  Pt  Pt7  1  0.625000  0.625000  0.125000  1
  O  O8  1  0.289094  0.713157  0.713157  1
  O  O9  1  0.538152  0.964008  0.964008  1
  O  O10  1  0.711848  0.285992  0.716168  1
  O  O11  1  0.289094  0.284592  0.713157  1
  O  O12  1  0.711848  0.716168  0.285992  1
  O  O13  1  0.994797  0.001734  0.001734  1
  O  O14  1  0.289094  0.713157  0.284592  1
  O  O15  1  0.960906  0.536843  0.965408  1
  O  O16  1  0.960906  0.965408  0.536843  1
  O  O17  1  0.538152  0.533832  0.964008  1
  O  O18  1  0.255203  0.248266  0.248266  1
  O  O19  1  0.538152  0.964008  0.533832  1
  O  O20  1  0.711848  0.285992  0.285992  1
  O  O21  1  0.960906  0.536843  0.536843  1
