# generated using pymatgen
data_Be8V2MoRh
_symmetry_space_group_name_H-M   'P 1'
_cell_length_a   4.36442500
_cell_length_b   4.36442395
_cell_length_c   7.15679900
_cell_angle_alpha   90.00000000
_cell_angle_beta   90.00000000
_cell_angle_gamma   120.00000037
_symmetry_Int_Tables_number   1
_chemical_formula_structural   Be8V2MoRh
_chemical_formula_sum   'Be8 V2 Mo1 Rh1'
_cell_volume   118.06017303
_cell_formula_units_Z   1
loop_
 _symmetry_equiv_pos_site_id
 _symmetry_equiv_pos_as_xyz
  1  'x, y, z'
loop_
 _atom_site_type_symbol
 _atom_site_label
 _atom_site_symmetry_multiplicity
 _atom_site_fract_x
 _atom_site_fract_y
 _atom_site_fract_z
 _atom_site_occupancy
  Be  Be0  1  0.000000  0.000000  0.000762  1
  Be  Be1  1  0.000000  0.000000  0.494505  1
  Be  Be2  1  0.830179  0.660357  0.248502  1
  Be  Be3  1  0.168453  0.831547  0.751937  1
  Be  Be4  1  0.663094  0.831547  0.751937  1
  Be  Be5  1  0.339643  0.169821  0.248502  1
  Be  Be6  1  0.830179  0.169821  0.248502  1
  Be  Be7  1  0.168453  0.336906  0.751937  1
  V  V8  1  0.666667  0.333333  0.937443  1
  V  V9  1  0.333333  0.666667  0.437510  1
  Mo  Mo10  1  0.666667  0.333333  0.563558  1
  Rh  Rh11  1  0.333333  0.666667  0.064902  1
