# generated using pymatgen
data_Y7Ho(AlPt)2
_symmetry_space_group_name_H-M   'P 1'
_cell_length_a   9.64238648
_cell_length_b   9.64238586
_cell_length_c   9.65432100
_cell_angle_alpha   59.95904272
_cell_angle_beta   59.95904486
_cell_angle_gamma   59.88933328
_symmetry_Int_Tables_number   1
_chemical_formula_structural   Y7Ho(AlPt)2
_chemical_formula_sum   'Y14 Ho2 Al4 Pt4'
_cell_volume   633.78587209
_cell_formula_units_Z   2
loop_
 _symmetry_equiv_pos_site_id
 _symmetry_equiv_pos_as_xyz
  1  'x, y, z'
loop_
 _atom_site_type_symbol
 _atom_site_label
 _atom_site_symmetry_multiplicity
 _atom_site_fract_x
 _atom_site_fract_y
 _atom_site_fract_z
 _atom_site_occupancy
  Y  Y0  1  0.353769  0.937027  0.354602  1
  Y  Y1  1  0.937027  0.353769  0.354602  1
  Y  Y2  1  0.807023  0.193740  0.192812  1
  Y  Y3  1  0.193740  0.807023  0.806424  1
  Y  Y4  1  0.193740  0.807023  0.192812  1
  Y  Y5  1  0.807023  0.193740  0.806424  1
  Y  Y6  1  0.193467  0.193467  0.806533  1
  Y  Y7  1  0.806915  0.806915  0.193085  1
  Y  Y8  1  0.936650  0.562898  0.563563  1
  Y  Y9  1  0.562898  0.936650  0.936890  1
  Y  Y10  1  0.562898  0.936650  0.563563  1
  Y  Y11  1  0.936650  0.562898  0.936890  1
  Y  Y12  1  0.563113  0.563113  0.936887  1
  Y  Y13  1  0.936685  0.936685  0.563315  1
  Ho  Ho14  1  0.352895  0.352895  0.353668  1
  Ho  Ho15  1  0.352895  0.352895  0.940543  1
  Al  Al16  1  0.578075  0.578075  0.578251  1
  Al  Al17  1  0.578075  0.578075  0.265599  1
  Al  Al18  1  0.577609  0.267008  0.577692  1
  Al  Al19  1  0.267008  0.577609  0.577692  1
  Pt  Pt20  1  0.144170  0.144170  0.142480  1
  Pt  Pt21  1  0.144170  0.144170  0.569182  1
  Pt  Pt22  1  0.144830  0.568678  0.143246  1
  Pt  Pt23  1  0.568678  0.144830  0.143246  1
