# generated using pymatgen
data_Tb3Y5(CdIr)2
_symmetry_space_group_name_H-M   'P 1'
_cell_length_a   9.67738453
_cell_length_b   9.68658845
_cell_length_c   9.68658937
_cell_angle_alpha   59.93714379
_cell_angle_beta   60.03143203
_cell_angle_gamma   60.03143187
_symmetry_Int_Tables_number   1
_chemical_formula_structural   Tb3Y5(CdIr)2
_chemical_formula_sum   'Tb6 Y10 Cd4 Ir4'
_cell_volume   642.07236806
_cell_formula_units_Z   2
loop_
 _symmetry_equiv_pos_site_id
 _symmetry_equiv_pos_as_xyz
  1  'x, y, z'
loop_
 _atom_site_type_symbol
 _atom_site_label
 _atom_site_symmetry_multiplicity
 _atom_site_fract_x
 _atom_site_fract_y
 _atom_site_fract_z
 _atom_site_occupancy
  Tb  Tb0  1  0.348400  0.349144  0.349144  1
  Tb  Tb1  1  0.349144  0.348400  0.953312  1
  Tb  Tb2  1  0.349144  0.953312  0.348400  1
  Tb  Tb3  1  0.953312  0.349144  0.349144  1
  Tb  Tb4  1  0.810433  0.189567  0.189567  1
  Tb  Tb5  1  0.189567  0.810433  0.810433  1
  Y  Y6  1  0.189922  0.810078  0.189922  1
  Y  Y7  1  0.810078  0.189922  0.810078  1
  Y  Y8  1  0.189922  0.189922  0.810078  1
  Y  Y9  1  0.810078  0.810078  0.189922  1
  Y  Y10  1  0.937804  0.562196  0.562196  1
  Y  Y11  1  0.562196  0.937804  0.937804  1
  Y  Y12  1  0.561917  0.938083  0.561917  1
  Y  Y13  1  0.938083  0.561917  0.938083  1
  Y  Y14  1  0.561917  0.561917  0.938083  1
  Y  Y15  1  0.938083  0.938083  0.561917  1
  Cd  Cd16  1  0.581198  0.580765  0.580765  1
  Cd  Cd17  1  0.580765  0.581198  0.257272  1
  Cd  Cd18  1  0.580765  0.257272  0.581198  1
  Cd  Cd19  1  0.257272  0.580765  0.580765  1
  Ir  Ir20  1  0.140931  0.142314  0.142314  1
  Ir  Ir21  1  0.142314  0.140931  0.574441  1
  Ir  Ir22  1  0.142314  0.574441  0.140931  1
  Ir  Ir23  1  0.574441  0.142314  0.142314  1
