# generated using pymatgen
data_Zr4FeCo3SiP3
_symmetry_space_group_name_H-M   'P 1'
_cell_length_a   3.74450600
_cell_length_b   6.38332724
_cell_length_c   7.15921717
_cell_angle_alpha   89.95393779
_cell_angle_beta   90.00000000
_cell_angle_gamma   90.00000000
_symmetry_Int_Tables_number   1
_chemical_formula_structural   Zr4FeCo3SiP3
_chemical_formula_sum   'Zr4 Fe1 Co3 Si1 P3'
_cell_volume   171.12246836
_cell_formula_units_Z   1
loop_
 _symmetry_equiv_pos_site_id
 _symmetry_equiv_pos_as_xyz
  1  'x, y, z'
loop_
 _atom_site_type_symbol
 _atom_site_label
 _atom_site_symmetry_multiplicity
 _atom_site_fract_x
 _atom_site_fract_y
 _atom_site_fract_z
 _atom_site_occupancy
  Zr  Zr0  1  0.250000  0.512737  0.687370  1
  Zr  Zr1  1  0.250000  0.014117  0.815544  1
  Zr  Zr2  1  0.750000  0.986334  0.181204  1
  Zr  Zr3  1  0.750000  0.478601  0.315032  1
  Fe  Fe4  1  0.750000  0.359765  0.939635  1
  Co  Co5  1  0.250000  0.145268  0.440225  1
  Co  Co6  1  0.750000  0.862508  0.564162  1
  Co  Co7  1  0.250000  0.642310  0.058305  1
  Si  Si8  1  0.250000  0.778070  0.388998  1
  P  P9  1  0.250000  0.279772  0.105425  1
  P  P10  1  0.750000  0.220277  0.614756  1
  P  P11  1  0.750000  0.720242  0.889344  1
