# generated using pymatgen
data_Li2LuNi11As4P3
_symmetry_space_group_name_H-M   'P 1'
_cell_length_a   3.64495500
_cell_length_b   9.27555631
_cell_length_c   9.32450158
_cell_angle_alpha   120.26307105
_cell_angle_beta   90.00000000
_cell_angle_gamma   90.00000000
_symmetry_Int_Tables_number   1
_chemical_formula_structural   Li2LuNi11As4P3
_chemical_formula_sum   'Li2 Lu1 Ni11 As4 P3'
_cell_volume   272.28957836
_cell_formula_units_Z   1
loop_
 _symmetry_equiv_pos_site_id
 _symmetry_equiv_pos_as_xyz
  1  'x, y, z'
loop_
 _atom_site_type_symbol
 _atom_site_label
 _atom_site_symmetry_multiplicity
 _atom_site_fract_x
 _atom_site_fract_y
 _atom_site_fract_z
 _atom_site_occupancy
  Li  Li0  1  0.500000  0.325553  0.661721  1
  Li  Li1  1  0.500000  0.120327  0.898887  1
  Lu  Lu2  1  0.000000  0.670913  0.337788  1
  Ni  Ni3  1  0.000000  0.875640  0.716327  1
  Ni  Ni4  1  0.000000  0.288437  0.161469  1
  Ni  Ni5  1  0.000000  0.836711  0.126034  1
  Ni  Ni6  1  0.500000  0.939037  0.556121  1
  Ni  Ni7  1  0.500000  0.446159  0.382315  1
  Ni  Ni8  1  0.500000  0.619991  0.062123  1
  Ni  Ni9  1  0.000000  0.383085  0.956115  1
  Ni  Ni10  1  0.000000  0.047886  0.425478  1
  Ni  Ni11  1  0.000000  0.571417  0.618369  1
  Ni  Ni12  1  0.500000  0.093081  0.223186  1
  Ni  Ni13  1  0.500000  0.775204  0.870542  1
  As  As14  1  0.000000  0.996233  0.003207  1
  As  As15  1  0.000000  0.124779  0.703032  1
  As  As16  1  0.000000  0.291300  0.415293  1
  As  As17  1  0.000000  0.581356  0.872117  1
  P  P18  1  0.500000  0.711927  0.594572  1
  P  P19  1  0.500000  0.417083  0.123367  1
  P  P20  1  0.500000  0.883881  0.291939  1
