# generated using pymatgen
data_Zr6AlNiTe
_symmetry_space_group_name_H-M   'P 1'
_cell_length_a   7.85540500
_cell_length_b   7.85540450
_cell_length_c   3.54235500
_cell_angle_alpha   90.00000000
_cell_angle_beta   90.00000000
_cell_angle_gamma   119.99999789
_symmetry_Int_Tables_number   1
_chemical_formula_structural   Zr6AlNiTe
_chemical_formula_sum   'Zr6 Al1 Ni1 Te1'
_cell_volume   189.30402898
_cell_formula_units_Z   1
loop_
 _symmetry_equiv_pos_site_id
 _symmetry_equiv_pos_as_xyz
  1  'x, y, z'
loop_
 _atom_site_type_symbol
 _atom_site_label
 _atom_site_symmetry_multiplicity
 _atom_site_fract_x
 _atom_site_fract_y
 _atom_site_fract_z
 _atom_site_occupancy
  Zr  Zr0  1  0.242995  0.991915  0.000000  1
  Zr  Zr1  1  0.748920  0.757005  0.000000  1
  Zr  Zr2  1  0.008085  0.251080  0.000000  1
  Zr  Zr3  1  0.594328  0.995971  0.500000  1
  Zr  Zr4  1  0.401643  0.405672  0.500000  1
  Zr  Zr5  1  0.004029  0.598357  0.500000  1
  Al  Al6  1  0.333333  0.666667  0.000000  1
  Ni  Ni7  1  0.000000  0.000000  0.500000  1
  Te  Te8  1  0.666667  0.333333  0.000000  1
