# generated using pymatgen
data_Zr4BeAl(B2Ru5)2
_symmetry_space_group_name_H-M   'P 1'
_cell_length_a   9.33455600
_cell_length_b   9.33455600
_cell_length_c   3.06673300
_cell_angle_alpha   90.00000000
_cell_angle_beta   90.00000000
_cell_angle_gamma   90.00000000
_symmetry_Int_Tables_number   1
_chemical_formula_structural   Zr4BeAl(B2Ru5)2
_chemical_formula_sum   'Zr4 Be1 Al1 B4 Ru10'
_cell_volume   267.21651608
_cell_formula_units_Z   1
loop_
 _symmetry_equiv_pos_site_id
 _symmetry_equiv_pos_as_xyz
  1  'x, y, z'
loop_
 _atom_site_type_symbol
 _atom_site_label
 _atom_site_symmetry_multiplicity
 _atom_site_fract_x
 _atom_site_fract_y
 _atom_site_fract_z
 _atom_site_occupancy
  Zr  Zr0  1  0.674573  0.175119  0.000000  1
  Zr  Zr1  1  0.325427  0.824881  0.000000  1
  Zr  Zr2  1  0.175119  0.325427  0.000000  1
  Zr  Zr3  1  0.824881  0.674573  0.000000  1
  Be  Be4  1  0.500000  0.500000  0.000000  1
  Al  Al5  1  0.000000  0.000000  0.000000  1
  B  B6  1  0.130297  0.622086  0.000000  1
  B  B7  1  0.869703  0.377914  0.000000  1
  B  B8  1  0.622086  0.869703  0.000000  1
  B  B9  1  0.377914  0.130297  0.000000  1
  Ru  Ru10  1  0.215473  0.073470  0.500000  1
  Ru  Ru11  1  0.784527  0.926530  0.500000  1
  Ru  Ru12  1  0.073470  0.784527  0.500000  1
  Ru  Ru13  1  0.707416  0.433066  0.500000  1
  Ru  Ru14  1  0.926530  0.215473  0.500000  1
  Ru  Ru15  1  0.292584  0.566934  0.500000  1
  Ru  Ru16  1  0.566934  0.707416  0.500000  1
  Ru  Ru17  1  0.433066  0.292584  0.500000  1
  Ru  Ru18  1  0.500000  0.000000  0.500000  1
  Ru  Ru19  1  0.000000  0.500000  0.500000  1
