# generated using pymatgen
data_Dy4Cd2Cu3Ru
_symmetry_space_group_name_H-M   'P 1'
_cell_length_a   7.49837176
_cell_length_b   7.49837176
_cell_length_c   3.78088600
_cell_angle_alpha   90.00000000
_cell_angle_beta   90.00000000
_cell_angle_gamma   89.39717586
_symmetry_Int_Tables_number   1
_chemical_formula_structural   Dy4Cd2Cu3Ru
_chemical_formula_sum   'Dy4 Cd2 Cu3 Ru1'
_cell_volume   212.57073841
_cell_formula_units_Z   1
loop_
 _symmetry_equiv_pos_site_id
 _symmetry_equiv_pos_as_xyz
  1  'x, y, z'
loop_
 _atom_site_type_symbol
 _atom_site_label
 _atom_site_symmetry_multiplicity
 _atom_site_fract_x
 _atom_site_fract_y
 _atom_site_fract_z
 _atom_site_occupancy
  Dy  Dy0  1  0.672665  0.172665  0.500000  1
  Dy  Dy1  1  0.313692  0.813692  0.500000  1
  Dy  Dy2  1  0.181535  0.340122  0.500000  1
  Dy  Dy3  1  0.840122  0.681535  0.500000  1
  Cd  Cd4  1  0.999430  0.005616  0.000000  1
  Cd  Cd5  1  0.505616  0.499430  0.000000  1
  Cu  Cu6  1  0.875028  0.375028  0.000000  1
  Cu  Cu7  1  0.616763  0.877533  0.000000  1
  Cu  Cu8  1  0.377533  0.116763  0.000000  1
  Ru  Ru9  1  0.117616  0.617616  0.000000  1
