# generated using pymatgen
data_Er4Al4Ir3Pd
_symmetry_space_group_name_H-M   'P 1'
_cell_length_a   4.26227800
_cell_length_b   6.81696777
_cell_length_c   7.88274388
_cell_angle_alpha   90.05426679
_cell_angle_beta   90.00000000
_cell_angle_gamma   90.00000000
_symmetry_Int_Tables_number   1
_chemical_formula_structural   Er4Al4Ir3Pd
_chemical_formula_sum   'Er4 Al4 Ir3 Pd1'
_cell_volume   229.03941947
_cell_formula_units_Z   1
loop_
 _symmetry_equiv_pos_site_id
 _symmetry_equiv_pos_as_xyz
  1  'x, y, z'
loop_
 _atom_site_type_symbol
 _atom_site_label
 _atom_site_symmetry_multiplicity
 _atom_site_fract_x
 _atom_site_fract_y
 _atom_site_fract_z
 _atom_site_occupancy
  Er  Er0  1  0.250000  0.026682  0.324391  1
  Er  Er1  1  0.250000  0.538355  0.180495  1
  Er  Er2  1  0.750000  0.969476  0.678294  1
  Er  Er3  1  0.750000  0.472443  0.817285  1
  Al  Al4  1  0.250000  0.138699  0.936128  1
  Al  Al5  1  0.250000  0.639809  0.561647  1
  Al  Al6  1  0.750000  0.855116  0.060404  1
  Al  Al7  1  0.750000  0.362278  0.442635  1
  Ir  Ir8  1  0.250000  0.266338  0.621072  1
  Ir  Ir9  1  0.250000  0.766533  0.879508  1
  Ir  Ir10  1  0.750000  0.733196  0.376697  1
  Pd  Pd11  1  0.750000  0.231076  0.121445  1
