# generated using pymatgen
data_ThMg4P12Ru19
_symmetry_space_group_name_H-M   'P 1'
_cell_length_a   12.45397100
_cell_length_b   12.45397102
_cell_length_c   3.96842200
_cell_angle_alpha   90.00000000
_cell_angle_beta   90.00000000
_cell_angle_gamma   119.99999800
_symmetry_Int_Tables_number   1
_chemical_formula_structural   ThMg4P12Ru19
_chemical_formula_sum   'Th1 Mg4 P12 Ru19'
_cell_volume   533.04538785
_cell_formula_units_Z   1
loop_
 _symmetry_equiv_pos_site_id
 _symmetry_equiv_pos_as_xyz
  1  'x, y, z'
loop_
 _atom_site_type_symbol
 _atom_site_label
 _atom_site_symmetry_multiplicity
 _atom_site_fract_x
 _atom_site_fract_y
 _atom_site_fract_z
 _atom_site_occupancy
  Th  Th0  1  0.333333  0.666667  0.000000  1
  Mg  Mg1  1  0.814510  0.999758  0.500000  1
  Mg  Mg2  1  0.000242  0.814752  0.500000  1
  Mg  Mg3  1  0.185248  0.185490  0.500000  1
  Mg  Mg4  1  0.666667  0.333333  0.000000  1
  P  P5  1  0.182794  0.005851  0.000000  1
  P  P6  1  0.994149  0.176943  0.000000  1
  P  P7  1  0.823057  0.817206  0.000000  1
  P  P8  1  0.533099  0.698212  0.500000  1
  P  P9  1  0.301788  0.834888  0.500000  1
  P  P10  1  0.165112  0.466901  0.500000  1
  P  P11  1  0.470293  0.171369  0.500000  1
  P  P12  1  0.701076  0.529707  0.500000  1
  P  P13  1  0.828631  0.298924  0.500000  1
  P  P14  1  0.617355  0.001819  0.000000  1
  P  P15  1  0.998181  0.615535  0.000000  1
  P  P16  1  0.384465  0.382645  0.000000  1
  Ru  Ru17  1  0.432408  0.992244  0.000000  1
  Ru  Ru18  1  0.007756  0.440164  0.000000  1
  Ru  Ru19  1  0.559836  0.567592  0.000000  1
  Ru  Ru20  1  0.272737  0.003028  0.500000  1
  Ru  Ru21  1  0.996972  0.269709  0.500000  1
  Ru  Ru22  1  0.730291  0.727263  0.500000  1
  Ru  Ru23  1  0.640723  0.827055  0.000000  1
  Ru  Ru24  1  0.172945  0.813668  0.000000  1
  Ru  Ru25  1  0.186332  0.359277  0.000000  1
  Ru  Ru26  1  0.372636  0.191036  0.000000  1
  Ru  Ru27  1  0.818402  0.627364  0.000000  1
  Ru  Ru28  1  0.808964  0.181598  0.000000  1
  Ru  Ru29  1  0.507217  0.874432  0.500000  1
  Ru  Ru30  1  0.125568  0.632787  0.500000  1
  Ru  Ru31  1  0.367213  0.492783  0.500000  1
  Ru  Ru32  1  0.502336  0.372293  0.500000  1
  Ru  Ru33  1  0.869959  0.497664  0.500000  1
  Ru  Ru34  1  0.627707  0.130041  0.500000  1
  Ru  Ru35  1  0.000000  0.000000  0.000000  1
