# generated using pymatgen
data_La5Yb7(Pr2Ir3)4
_symmetry_space_group_name_H-M   'P 1'
_cell_length_a   11.20573854
_cell_length_b   11.29498940
_cell_length_c   6.47293748
_cell_angle_alpha   89.90239423
_cell_angle_beta   90.19710494
_cell_angle_gamma   90.11214507
_symmetry_Int_Tables_number   1
_chemical_formula_structural   La5Yb7(Pr2Ir3)4
_chemical_formula_sum   'La5 Yb7 Pr8 Ir12'
_cell_volume   819.26367285
_cell_formula_units_Z   1
loop_
 _symmetry_equiv_pos_site_id
 _symmetry_equiv_pos_as_xyz
  1  'x, y, z'
loop_
 _atom_site_type_symbol
 _atom_site_label
 _atom_site_symmetry_multiplicity
 _atom_site_fract_x
 _atom_site_fract_y
 _atom_site_fract_z
 _atom_site_occupancy
  La  La0  1  0.712535  0.915111  0.388284  1
  La  La1  1  0.586932  0.792123  0.884187  1
  La  La2  1  0.586634  0.210306  0.383129  1
  La  La3  1  0.404848  0.793799  0.384443  1
  La  La4  1  0.409367  0.206834  0.883174  1
  Yb  Yb5  1  0.290796  0.085345  0.381253  1
  Yb  Yb6  1  0.289143  0.915133  0.882745  1
  Yb  Yb7  1  0.708803  0.087440  0.883607  1
  Yb  Yb8  1  0.005526  0.001417  0.494690  1
  Yb  Yb9  1  0.999513  0.000636  0.994062  1
  Yb  Yb10  1  0.500459  0.499903  0.994197  1
  Yb  Yb11  1  0.498787  0.501102  0.494589  1
  Pr  Pr12  1  0.211832  0.410374  0.618784  1
  Pr  Pr13  1  0.213243  0.588649  0.118318  1
  Pr  Pr14  1  0.788840  0.409695  0.118349  1
  Pr  Pr15  1  0.787719  0.588306  0.617148  1
  Pr  Pr16  1  0.912085  0.711983  0.119971  1
  Pr  Pr17  1  0.909078  0.284955  0.623484  1
  Pr  Pr18  1  0.090570  0.713873  0.620473  1
  Pr  Pr19  1  0.091670  0.284470  0.123742  1
  Ir  Ir20  1  0.847529  0.156175  0.249590  1
  Ir  Ir21  1  0.849832  0.842095  0.743970  1
  Ir  Ir22  1  0.152197  0.159348  0.747297  1
  Ir  Ir23  1  0.150608  0.840166  0.244135  1
  Ir  Ir24  1  0.653044  0.346880  0.744612  1
  Ir  Ir25  1  0.652510  0.658649  0.246735  1
  Ir  Ir26  1  0.347724  0.344640  0.244442  1
  Ir  Ir27  1  0.345752  0.653940  0.744646  1
  Ir  Ir28  1  0.500938  0.999579  0.124348  1
  Ir  Ir29  1  0.500777  0.999429  0.625202  1
  Ir  Ir30  1  0.000673  0.499008  0.889294  1
  Ir  Ir31  1  0.000037  0.498637  0.387098  1
