# generated using pymatgen
data_TbZnCuAgPt2
_symmetry_space_group_name_H-M   'P 1'
_cell_length_a   5.15125744
_cell_length_b   5.26809770
_cell_length_c   5.26809702
_cell_angle_alpha   63.47982170
_cell_angle_beta   59.79349371
_cell_angle_gamma   59.79349475
_symmetry_Int_Tables_number   1
_chemical_formula_structural   TbZnCuAgPt2
_chemical_formula_sum   'Tb1 Zn1 Cu1 Ag1 Pt2'
_cell_volume   103.13306807
_cell_formula_units_Z   1
loop_
 _symmetry_equiv_pos_site_id
 _symmetry_equiv_pos_as_xyz
  1  'x, y, z'
loop_
 _atom_site_type_symbol
 _atom_site_label
 _atom_site_symmetry_multiplicity
 _atom_site_fract_x
 _atom_site_fract_y
 _atom_site_fract_z
 _atom_site_occupancy
  Tb  Tb0  1  0.989218  0.007723  0.007723  1
  Zn  Zn1  1  0.130697  0.618551  0.618551  1
  Cu  Cu2  1  0.630949  0.619921  0.619921  1
  Ag  Ag3  1  0.241415  0.258156  0.258156  1
  Pt  Pt4  1  0.628860  0.622993  0.122658  1
  Pt  Pt5  1  0.628860  0.122658  0.622993  1
