# generated using pymatgen
data_Er20Cd6RuPt
_symmetry_space_group_name_H-M   'P 1'
_cell_length_a   9.53612100
_cell_length_b   9.53611572
_cell_length_c   9.78320500
_cell_angle_alpha   90.00000000
_cell_angle_beta   90.00000000
_cell_angle_gamma   119.99986738
_symmetry_Int_Tables_number   1
_chemical_formula_structural   Er20Cd6RuPt
_chemical_formula_sum   'Er20 Cd6 Ru1 Pt1'
_cell_volume   770.46981954
_cell_formula_units_Z   1
loop_
 _symmetry_equiv_pos_site_id
 _symmetry_equiv_pos_as_xyz
  1  'x, y, z'
loop_
 _atom_site_type_symbol
 _atom_site_label
 _atom_site_symmetry_multiplicity
 _atom_site_fract_x
 _atom_site_fract_y
 _atom_site_fract_z
 _atom_site_occupancy
  Er  Er0  1  0.000003  0.999996  0.499552  1
  Er  Er1  1  0.000003  0.999996  0.000448  1
  Er  Er2  1  0.208690  0.791310  0.442607  1
  Er  Er3  1  0.208689  0.417380  0.442612  1
  Er  Er4  1  0.582619  0.791310  0.442611  1
  Er  Er5  1  0.790180  0.209820  0.559329  1
  Er  Er6  1  0.790182  0.580362  0.559329  1
  Er  Er7  1  0.419640  0.209819  0.559329  1
  Er  Er8  1  0.790180  0.209820  0.940671  1
  Er  Er9  1  0.790182  0.580362  0.940671  1
  Er  Er10  1  0.419640  0.209819  0.940671  1
  Er  Er11  1  0.208690  0.791310  0.057393  1
  Er  Er12  1  0.208689  0.417380  0.057388  1
  Er  Er13  1  0.582619  0.791310  0.057389  1
  Er  Er14  1  0.542040  0.457962  0.250000  1
  Er  Er15  1  0.542033  0.084078  0.250000  1
  Er  Er16  1  0.915923  0.457968  0.250000  1
  Er  Er17  1  0.458917  0.541084  0.750000  1
  Er  Er18  1  0.458914  0.917830  0.750000  1
  Er  Er19  1  0.082172  0.541087  0.750000  1
  Cd  Cd20  1  0.885539  0.114459  0.250000  1
  Cd  Cd21  1  0.885546  0.771083  0.250000  1
  Cd  Cd22  1  0.228917  0.114456  0.250000  1
  Cd  Cd23  1  0.114320  0.885676  0.750000  1
  Cd  Cd24  1  0.114322  0.228645  0.750000  1
  Cd  Cd25  1  0.771355  0.885676  0.750000  1
  Ru  Ru26  1  0.666667  0.333332  0.750000  1
  Pt  Pt27  1  0.333332  0.666667  0.250000  1
