# generated using pymatgen
data_Ce12CuSi5Ru6
_symmetry_space_group_name_H-M   'P 1'
_cell_length_a   7.65266600
_cell_length_b   7.65266449
_cell_length_c   9.68618200
_cell_angle_alpha   90.00000000
_cell_angle_beta   90.00000000
_cell_angle_gamma   119.99999787
_symmetry_Int_Tables_number   1
_chemical_formula_structural   Ce12CuSi5Ru6
_chemical_formula_sum   'Ce12 Cu1 Si5 Ru6'
_cell_volume   491.25693978
_cell_formula_units_Z   1
loop_
 _symmetry_equiv_pos_site_id
 _symmetry_equiv_pos_as_xyz
  1  'x, y, z'
loop_
 _atom_site_type_symbol
 _atom_site_label
 _atom_site_symmetry_multiplicity
 _atom_site_fract_x
 _atom_site_fract_y
 _atom_site_fract_z
 _atom_site_occupancy
  Ce  Ce0  1  0.000000  0.593396  0.502479  1
  Ce  Ce1  1  0.593396  0.000000  0.502479  1
  Ce  Ce2  1  0.406604  0.406604  0.502479  1
  Ce  Ce3  1  0.000000  0.406857  0.004770  1
  Ce  Ce4  1  0.406857  0.000000  0.004770  1
  Ce  Ce5  1  0.593143  0.593143  0.004770  1
  Ce  Ce6  1  0.000000  0.734633  0.172002  1
  Ce  Ce7  1  0.734633  0.000000  0.172002  1
  Ce  Ce8  1  0.265367  0.265367  0.172002  1
  Ce  Ce9  1  0.000000  0.255858  0.677150  1
  Ce  Ce10  1  0.255858  0.000000  0.677150  1
  Ce  Ce11  1  0.744142  0.744142  0.677150  1
  Cu  Cu12  1  0.000000  0.000000  0.925230  1
  Si  Si13  1  0.666667  0.333333  0.274402  1
  Si  Si14  1  0.333333  0.666667  0.274402  1
  Si  Si15  1  0.333333  0.666667  0.769847  1
  Si  Si16  1  0.666667  0.333333  0.769847  1
  Si  Si17  1  0.000000  0.000000  0.418387  1
  Ru  Ru18  1  0.000000  0.340051  0.339532  1
  Ru  Ru19  1  0.340051  0.000000  0.339532  1
  Ru  Ru20  1  0.659949  0.659949  0.339532  1
  Ru  Ru21  1  0.000000  0.646859  0.836446  1
  Ru  Ru22  1  0.646859  0.000000  0.836446  1
  Ru  Ru23  1  0.353141  0.353141  0.836446  1
