# generated using pymatgen
data_LuTa2NbB8
_symmetry_space_group_name_H-M   'P 1'
_cell_length_a   3.12419400
_cell_length_b   3.12419505
_cell_length_c   13.82254400
_cell_angle_alpha   90.00000000
_cell_angle_beta   90.00000000
_cell_angle_gamma   120.00001011
_symmetry_Int_Tables_number   1
_chemical_formula_structural   LuTa2NbB8
_chemical_formula_sum   'Lu1 Ta2 Nb1 B8'
_cell_volume   116.84084841
_cell_formula_units_Z   1
loop_
 _symmetry_equiv_pos_site_id
 _symmetry_equiv_pos_as_xyz
  1  'x, y, z'
loop_
 _atom_site_type_symbol
 _atom_site_label
 _atom_site_symmetry_multiplicity
 _atom_site_fract_x
 _atom_site_fract_y
 _atom_site_fract_z
 _atom_site_occupancy
  Lu  Lu0  1  0.000000  0.000000  0.000000  1
  Ta  Ta1  1  0.000000  0.000000  0.739521  1
  Ta  Ta2  1  0.000000  0.000000  0.260479  1
  Nb  Nb3  1  0.000000  0.000000  0.500000  1
  B  B4  1  0.666667  0.333333  0.862769  1
  B  B5  1  0.666667  0.333333  0.622066  1
  B  B6  1  0.666667  0.333333  0.377934  1
  B  B7  1  0.666667  0.333333  0.137231  1
  B  B8  1  0.333333  0.666667  0.862769  1
  B  B9  1  0.333333  0.666667  0.622066  1
  B  B10  1  0.333333  0.666667  0.377934  1
  B  B11  1  0.333333  0.666667  0.137231  1
