# generated using pymatgen
data_Dy(ScZn4)3
_symmetry_space_group_name_H-M   'P 1'
_cell_length_a   4.27458200
_cell_length_b   6.53049140
_cell_length_c   9.84569676
_cell_angle_alpha   89.37823102
_cell_angle_beta   90.00000000
_cell_angle_gamma   90.00000000
_symmetry_Int_Tables_number   1
_chemical_formula_structural   Dy(ScZn4)3
_chemical_formula_sum   'Dy1 Sc3 Zn12'
_cell_volume   274.82763322
_cell_formula_units_Z   1
loop_
 _symmetry_equiv_pos_site_id
 _symmetry_equiv_pos_as_xyz
  1  'x, y, z'
loop_
 _atom_site_type_symbol
 _atom_site_label
 _atom_site_symmetry_multiplicity
 _atom_site_fract_x
 _atom_site_fract_y
 _atom_site_fract_z
 _atom_site_occupancy
  Dy  Dy0  1  0.750000  0.219912  0.170059  1
  Sc  Sc1  1  0.250000  0.278233  0.665623  1
  Sc  Sc2  1  0.750000  0.723407  0.336921  1
  Sc  Sc3  1  0.250000  0.781577  0.833154  1
  Zn  Zn4  1  0.250000  0.533979  0.096159  1
  Zn  Zn5  1  0.750000  0.463135  0.895320  1
  Zn  Zn6  1  0.250000  0.040106  0.399377  1
  Zn  Zn7  1  0.750000  0.962949  0.598259  1
  Zn  Zn8  1  0.750000  0.297736  0.465107  1
  Zn  Zn9  1  0.250000  0.712607  0.543783  1
  Zn  Zn10  1  0.750000  0.779239  0.041950  1
  Zn  Zn11  1  0.250000  0.209419  0.951923  1
  Zn  Zn12  1  0.750000  0.577884  0.653239  1
  Zn  Zn13  1  0.250000  0.433644  0.353019  1
  Zn  Zn14  1  0.750000  0.074356  0.844637  1
  Zn  Zn15  1  0.250000  0.911817  0.151471  1
