# generated using pymatgen
data_Li4Nd3ErPd4
_symmetry_space_group_name_H-M   'P 1'
_cell_length_a   4.07945100
_cell_length_b   7.18789489
_cell_length_c   8.55805100
_cell_angle_alpha   90.66962363
_cell_angle_beta   90.00000000
_cell_angle_gamma   90.00000000
_symmetry_Int_Tables_number   1
_chemical_formula_structural   Li4Nd3ErPd4
_chemical_formula_sum   'Li4 Nd3 Er1 Pd4'
_cell_volume   250.92772447
_cell_formula_units_Z   1
loop_
 _symmetry_equiv_pos_site_id
 _symmetry_equiv_pos_as_xyz
  1  'x, y, z'
loop_
 _atom_site_type_symbol
 _atom_site_label
 _atom_site_symmetry_multiplicity
 _atom_site_fract_x
 _atom_site_fract_y
 _atom_site_fract_z
 _atom_site_occupancy
  Li  Li0  1  0.250000  0.121696  0.052618  1
  Li  Li1  1  0.250000  0.631677  0.445780  1
  Li  Li2  1  0.750000  0.875033  0.940452  1
  Li  Li3  1  0.750000  0.371462  0.559286  1
  Nd  Nd4  1  0.250000  0.543759  0.812372  1
  Nd  Nd5  1  0.750000  0.956330  0.318992  1
  Nd  Nd6  1  0.750000  0.452168  0.183729  1
  Er  Er7  1  0.250000  0.046671  0.682308  1
  Pd  Pd8  1  0.250000  0.248913  0.388649  1
  Pd  Pd9  1  0.250000  0.747128  0.119800  1
  Pd  Pd10  1  0.750000  0.763110  0.624261  1
  Pd  Pd11  1  0.750000  0.242053  0.871751  1
