# generated using pymatgen
data_Mn4B4MoW3
_symmetry_space_group_name_H-M   'P 1'
_cell_length_a   5.86338146
_cell_length_b   3.16332300
_cell_length_c   6.95066981
_cell_angle_alpha   90.00000000
_cell_angle_beta   89.98731397
_cell_angle_gamma   90.00000000
_symmetry_Int_Tables_number   1
_chemical_formula_structural   Mn4B4MoW3
_chemical_formula_sum   'Mn4 B4 Mo1 W3'
_cell_volume   128.91941791
_cell_formula_units_Z   1
loop_
 _symmetry_equiv_pos_site_id
 _symmetry_equiv_pos_as_xyz
  1  'x, y, z'
loop_
 _atom_site_type_symbol
 _atom_site_label
 _atom_site_symmetry_multiplicity
 _atom_site_fract_x
 _atom_site_fract_y
 _atom_site_fract_z
 _atom_site_occupancy
  Mn  Mn0  1  0.140912  0.250000  0.442055  1
  Mn  Mn1  1  0.640897  0.250000  0.057850  1
  Mn  Mn2  1  0.858804  0.750000  0.557567  1
  Mn  Mn3  1  0.358490  0.750000  0.942227  1
  B  B4  1  0.265378  0.250000  0.135817  1
  B  B5  1  0.765082  0.250000  0.365060  1
  B  B6  1  0.734387  0.750000  0.864750  1
  B  B7  1  0.235800  0.750000  0.634481  1
  Mo  Mo8  1  0.029575  0.250000  0.827164  1
  W  W9  1  0.529983  0.250000  0.673118  1
  W  W10  1  0.970217  0.750000  0.172747  1
  W  W11  1  0.470474  0.750000  0.327163  1
