# generated using pymatgen
data_LiErPa2Ge6Rh7
_symmetry_space_group_name_H-M   'P 1'
_cell_length_a   7.18038486
_cell_length_b   7.23772314
_cell_length_c   7.22708850
_cell_angle_alpha   109.62629732
_cell_angle_beta   109.30523871
_cell_angle_gamma   109.38098485
_symmetry_Int_Tables_number   1
_chemical_formula_structural   LiErPa2Ge6Rh7
_chemical_formula_sum   'Li1 Er1 Pa2 Ge6 Rh7'
_cell_volume   289.48714643
_cell_formula_units_Z   1
loop_
 _symmetry_equiv_pos_site_id
 _symmetry_equiv_pos_as_xyz
  1  'x, y, z'
loop_
 _atom_site_type_symbol
 _atom_site_label
 _atom_site_symmetry_multiplicity
 _atom_site_fract_x
 _atom_site_fract_y
 _atom_site_fract_z
 _atom_site_occupancy
  Li  Li0  1  0.000000  0.500000  0.000000  1
  Er  Er1  1  0.500000  0.000000  0.000000  1
  Pa  Pa2  1  0.000000  0.000000  0.500000  1
  Pa  Pa3  1  0.500000  0.500000  0.500000  1
  Ge  Ge4  1  0.691815  0.680070  0.000000  1
  Ge  Ge5  1  0.308805  0.983090  0.304057  1
  Ge  Ge6  1  0.995252  0.320968  0.304057  1
  Ge  Ge7  1  0.308185  0.319930  0.000000  1
  Ge  Ge8  1  0.691195  0.016910  0.695943  1
  Ge  Ge9  1  0.004748  0.679032  0.695943  1
  Rh  Rh10  1  0.750803  0.250803  0.501606  1
  Rh  Rh11  1  0.750630  0.504519  0.252699  1
  Rh  Rh12  1  0.497931  0.251820  0.747301  1
  Rh  Rh13  1  0.249370  0.495481  0.747301  1
  Rh  Rh14  1  0.249197  0.749197  0.498394  1
  Rh  Rh15  1  0.502069  0.748180  0.252699  1
  Rh  Rh16  1  0.000000  0.000000  0.000000  1
