# generated using pymatgen
data_Cs8Mn5Tc3N16
_symmetry_space_group_name_H-M   'P 1'
_cell_length_a   5.89541319
_cell_length_b   8.34866492
_cell_length_c   11.80739256
_cell_angle_alpha   89.89920259
_cell_angle_beta   90.00179381
_cell_angle_gamma   89.92722132
_symmetry_Int_Tables_number   1
_chemical_formula_structural   Cs8Mn5Tc3N16
_chemical_formula_sum   'Cs8 Mn5 Tc3 N16'
_cell_volume   581.14467029
_cell_formula_units_Z   1
loop_
 _symmetry_equiv_pos_site_id
 _symmetry_equiv_pos_as_xyz
  1  'x, y, z'
loop_
 _atom_site_type_symbol
 _atom_site_label
 _atom_site_symmetry_multiplicity
 _atom_site_fract_x
 _atom_site_fract_y
 _atom_site_fract_z
 _atom_site_occupancy
  Cs  Cs0  1  0.750313  0.112714  0.002328  1
  Cs  Cs1  1  0.250571  0.884064  0.507569  1
  Cs  Cs2  1  0.250390  0.867518  0.997388  1
  Cs  Cs3  1  0.750342  0.130093  0.493608  1
  Cs  Cs4  1  0.746274  0.385920  0.236607  1
  Cs  Cs5  1  0.246263  0.628480  0.261759  1
  Cs  Cs6  1  0.252996  0.628712  0.744269  1
  Cs  Cs7  1  0.752873  0.366051  0.755977  1
  Mn  Mn8  1  0.750214  0.639152  0.994506  1
  Mn  Mn9  1  0.250476  0.367150  0.508966  1
  Mn  Mn10  1  0.747737  0.866000  0.244978  1
  Mn  Mn11  1  0.751782  0.883504  0.752204  1
  Mn  Mn12  1  0.251620  0.117637  0.747821  1
  Tc  Tc13  1  0.250346  0.382739  0.993936  1
  Tc  Tc14  1  0.750306  0.622969  0.502920  1
  Tc  Tc15  1  0.247611  0.119930  0.254448  1
  N  N16  1  0.990876  0.991375  0.249637  1
  N  N17  1  0.502120  0.988862  0.249397  1
  N  N18  1  0.003203  0.000595  0.750126  1
  N  N19  1  0.501328  0.001727  0.750029  1
  N  N20  1  0.249554  0.243892  0.384153  1
  N  N21  1  0.749544  0.752958  0.120755  1
  N  N22  1  0.750652  0.763384  0.874925  1
  N  N23  1  0.250733  0.242386  0.626927  1
  N  N24  1  0.750855  0.757516  0.628353  1
  N  N25  1  0.250797  0.248588  0.870016  1
  N  N26  1  0.249291  0.257300  0.126713  1
  N  N27  1  0.749248  0.740950  0.368882  1
  N  N28  1  0.493529  0.490983  0.506418  1
  N  N29  1  0.994177  0.512870  0.993943  1
  N  N30  1  0.506408  0.512590  0.994056  1
  N  N31  1  0.007569  0.491394  0.506385  1
