# generated using pymatgen
data_YU3PaGa15
_symmetry_space_group_name_H-M   'P 1'
_cell_length_a   12.62964302
_cell_length_b   12.62964272
_cell_length_c   12.62964200
_cell_angle_alpha   27.88997519
_cell_angle_beta   27.88997769
_cell_angle_gamma   27.88998021
_symmetry_Int_Tables_number   1
_chemical_formula_structural   YU3PaGa15
_chemical_formula_sum   'Y1 U3 Pa1 Ga15'
_cell_volume   389.27899630
_cell_formula_units_Z   1
loop_
 _symmetry_equiv_pos_site_id
 _symmetry_equiv_pos_as_xyz
  1  'x, y, z'
loop_
 _atom_site_type_symbol
 _atom_site_label
 _atom_site_symmetry_multiplicity
 _atom_site_fract_x
 _atom_site_fract_y
 _atom_site_fract_z
 _atom_site_occupancy
  Y  Y0  1  0.999983  0.999983  0.999983  1
  U  U1  1  0.599688  0.599688  0.599688  1
  U  U2  1  0.401013  0.401013  0.401013  1
  U  U3  1  0.869095  0.869095  0.869095  1
  Pa  Pa4  1  0.130464  0.130464  0.130464  1
  Ga  Ga5  1  0.571602  0.114783  0.114783  1
  Ga  Ga6  1  0.114783  0.571602  0.114783  1
  Ga  Ga7  1  0.114783  0.114783  0.571602  1
  Ga  Ga8  1  0.430695  0.883605  0.883605  1
  Ga  Ga9  1  0.883605  0.430695  0.883605  1
  Ga  Ga10  1  0.499997  0.499997  0.999655  1
  Ga  Ga11  1  0.499997  0.999655  0.499997  1
  Ga  Ga12  1  0.999655  0.499997  0.499997  1
  Ga  Ga13  1  0.636792  0.636792  0.128786  1
  Ga  Ga14  1  0.636792  0.128786  0.636792  1
  Ga  Ga15  1  0.128786  0.636792  0.636792  1
  Ga  Ga16  1  0.364848  0.364848  0.868973  1
  Ga  Ga17  1  0.364848  0.868973  0.364848  1
  Ga  Ga18  1  0.868973  0.364848  0.364848  1
  Ga  Ga19  1  0.883605  0.883605  0.430695  1
