# generated using pymatgen
data_TbY11GaCo4Bi
_symmetry_space_group_name_H-M   'P 1'
_cell_length_a   8.42301727
_cell_length_b   8.42301886
_cell_length_c   8.40957002
_cell_angle_alpha   111.52443232
_cell_angle_beta   109.18251993
_cell_angle_gamma   107.79630413
_symmetry_Int_Tables_number   1
_chemical_formula_structural   TbY11GaCo4Bi
_chemical_formula_sum   'Tb1 Y11 Ga1 Co4 Bi1'
_cell_volume   458.40836759
_cell_formula_units_Z   1
loop_
 _symmetry_equiv_pos_site_id
 _symmetry_equiv_pos_as_xyz
  1  'x, y, z'
loop_
 _atom_site_type_symbol
 _atom_site_label
 _atom_site_symmetry_multiplicity
 _atom_site_fract_x
 _atom_site_fract_y
 _atom_site_fract_z
 _atom_site_occupancy
  Tb  Tb0  1  0.822176  0.779766  0.601941  1
  Y  Y1  1  0.026977  0.729375  0.297879  1
  Y  Y2  1  0.973638  0.271054  0.702557  1
  Y  Y3  1  0.568503  0.270902  0.297879  1
  Y  Y4  1  0.431504  0.728919  0.702557  1
  Y  Y5  1  0.676639  0.860649  0.183995  1
  Y  Y6  1  0.323346  0.507356  0.183995  1
  Y  Y7  1  0.323543  0.139862  0.816176  1
  Y  Y8  1  0.676316  0.492633  0.816176  1
  Y  Y9  1  0.178401  0.220144  0.398547  1
  Y  Y10  1  0.821241  0.220577  0.041818  1
  Y  Y11  1  0.178894  0.779328  0.958222  1
  Ga  Ga12  1  0.000108  0.499469  0.499577  1
  Co  Co13  1  0.657464  0.500032  0.157496  1
  Co  Co14  1  0.342798  0.500050  0.842848  1
  Co  Co15  1  0.886891  0.887490  0.999223  1
  Co  Co16  1  0.111733  0.112332  0.999223  1
  Bi  Bi17  1  0.499827  0.000062  0.499889  1
