# generated using pymatgen
data_Tb3TmZr4F28
_symmetry_space_group_name_H-M   'P 1'
_cell_length_a   5.75205991
_cell_length_b   9.10393252
_cell_length_c   12.24176360
_cell_angle_alpha   62.39058415
_cell_angle_beta   90.03431353
_cell_angle_gamma   89.98488464
_symmetry_Int_Tables_number   1
_chemical_formula_structural   Tb3TmZr4F28
_chemical_formula_sum   'Tb3 Tm1 Zr4 F28'
_cell_volume   568.05768685
_cell_formula_units_Z   1
loop_
 _symmetry_equiv_pos_site_id
 _symmetry_equiv_pos_as_xyz
  1  'x, y, z'
loop_
 _atom_site_type_symbol
 _atom_site_label
 _atom_site_symmetry_multiplicity
 _atom_site_fract_x
 _atom_site_fract_y
 _atom_site_fract_z
 _atom_site_occupancy
  Tb  Tb0  1  0.743208  0.814709  0.266431  1
  Tb  Tb1  1  0.243270  0.184293  0.233710  1
  Tb  Tb2  1  0.256923  0.181688  0.733918  1
  Tm  Tm3  1  0.756738  0.815035  0.766158  1
  Zr  Zr4  1  0.744944  0.272833  0.456012  1
  Zr  Zr5  1  0.244153  0.725952  0.043185  1
  Zr  Zr6  1  0.255238  0.725588  0.547051  1
  Zr  Zr7  1  0.755386  0.276098  0.953888  1
  F  F8  1  0.469865  0.712987  0.919479  1
  F  F9  1  0.967662  0.288748  0.579284  1
  F  F10  1  0.533868  0.289592  0.078460  1
  F  F11  1  0.034863  0.710913  0.422191  1
  F  F12  1  0.453208  0.280822  0.549661  1
  F  F13  1  0.951604  0.721068  0.947495  1
  F  F14  1  0.545120  0.718495  0.451491  1
  F  F15  1  0.046690  0.282180  0.048674  1
  F  F16  1  0.767223  0.528640  0.857169  1
  F  F17  1  0.267146  0.474300  0.642462  1
  F  F18  1  0.232428  0.475094  0.141666  1
  F  F19  1  0.732691  0.524526  0.358316  1
  F  F20  1  0.759846  0.024816  0.057236  1
  F  F21  1  0.260049  0.976562  0.442624  1
  F  F22  1  0.240370  0.977313  0.941550  1
  F  F23  1  0.739898  0.021679  0.560482  1
  F  F24  1  0.982754  0.735247  0.651137  1
  F  F25  1  0.484152  0.266567  0.850008  1
  F  F26  1  0.015078  0.266583  0.350669  1
  F  F27  1  0.513929  0.733435  0.148837  1
  F  F28  1  0.034880  0.746101  0.171969  1
  F  F29  1  0.534499  0.253941  0.327457  1
  F  F30  1  0.966360  0.253993  0.826869  1
  F  F31  1  0.470451  0.747952  0.673729  1
  F  F32  1  0.428025  0.972143  0.234716  1
  F  F33  1  0.926781  0.027305  0.265469  1
  F  F34  1  0.574621  0.022792  0.765102  1
  F  F35  1  0.066083  0.970004  0.735442  1
