# generated using pymatgen
data_Ho8ErMg(Ni2Sb)2
_symmetry_space_group_name_H-M   'P 1'
_cell_length_a   8.58543007
_cell_length_b   8.58453491
_cell_length_c   8.58479208
_cell_angle_alpha   128.29498963
_cell_angle_beta   128.31103812
_cell_angle_gamma   76.13278492
_symmetry_Int_Tables_number   1
_chemical_formula_structural   Ho8ErMg(Ni2Sb)2
_chemical_formula_sum   'Ho8 Er1 Mg1 Ni4 Sb2'
_cell_volume   378.76164744
_cell_formula_units_Z   1
loop_
 _symmetry_equiv_pos_site_id
 _symmetry_equiv_pos_as_xyz
  1  'x, y, z'
loop_
 _atom_site_type_symbol
 _atom_site_label
 _atom_site_symmetry_multiplicity
 _atom_site_fract_x
 _atom_site_fract_y
 _atom_site_fract_z
 _atom_site_occupancy
  Ho  Ho0  1  0.537958  0.712942  0.516186  1
  Ho  Ho1  1  0.021712  0.537961  0.825025  1
  Ho  Ho2  1  0.712907  0.196700  0.174942  1
  Ho  Ho3  1  0.978288  0.462039  0.174975  1
  Ho  Ho4  1  0.196758  0.021754  0.483803  1
  Ho  Ho5  1  0.462042  0.287058  0.483814  1
  Ho  Ho6  1  0.803242  0.978246  0.516197  1
  Ho  Ho7  1  0.287093  0.803300  0.825058  1
  Er  Er8  1  0.500000  0.500000  0.000000  1
  Mg  Mg9  1  0.000000  0.000000  0.000000  1
  Ni  Ni10  1  0.377960  0.869516  0.247479  1
  Ni  Ni11  1  0.869579  0.621982  0.491567  1
  Ni  Ni12  1  0.622040  0.130484  0.752521  1
  Ni  Ni13  1  0.130421  0.378018  0.508433  1
  Sb  Sb14  1  0.741984  0.742009  0.000023  1
  Sb  Sb15  1  0.258016  0.257991  0.999977  1
