# generated using pymatgen
data_Dy4TmReRuO12
_symmetry_space_group_name_H-M   'P 1'
_cell_length_a   6.83176975
_cell_length_b   6.83177035
_cell_length_c   7.48050478
_cell_angle_alpha   73.76095877
_cell_angle_beta   73.76095901
_cell_angle_gamma   49.02689026
_symmetry_Int_Tables_number   1
_chemical_formula_structural   Dy4TmReRuO12
_chemical_formula_sum   'Dy4 Tm1 Re1 Ru1 O12'
_cell_volume   250.84613337
_cell_formula_units_Z   1
loop_
 _symmetry_equiv_pos_site_id
 _symmetry_equiv_pos_as_xyz
  1  'x, y, z'
loop_
 _atom_site_type_symbol
 _atom_site_label
 _atom_site_symmetry_multiplicity
 _atom_site_fract_x
 _atom_site_fract_y
 _atom_site_fract_z
 _atom_site_occupancy
  Dy  Dy0  1  0.818685  0.786442  0.357676  1
  Dy  Dy1  1  0.213558  0.181315  0.642324  1
  Dy  Dy2  1  0.190461  0.178957  0.175056  1
  Dy  Dy3  1  0.821043  0.809539  0.824944  1
  Tm  Tm4  1  0.511622  0.488378  0.500000  1
  Re  Re5  1  0.700530  0.299470  0.000000  1
  Ru  Ru6  1  0.267048  0.732952  0.000000  1
  O  O7  1  0.413914  0.934579  0.914019  1
  O  O8  1  0.065421  0.586086  0.085981  1
  O  O9  1  0.587727  0.095077  0.085993  1
  O  O10  1  0.904923  0.412273  0.914007  1
  O  O11  1  0.610263  0.092801  0.566505  1
  O  O12  1  0.907199  0.389737  0.433495  1
  O  O13  1  0.413094  0.894344  0.424863  1
  O  O14  1  0.985157  0.016419  0.824104  1
  O  O15  1  0.983581  0.014843  0.175896  1
  O  O16  1  0.497354  0.497235  0.796129  1
  O  O17  1  0.502765  0.502646  0.203871  1
  O  O18  1  0.105656  0.586906  0.575137  1
