# generated using pymatgen
data_Zr4MnZn(B2Ru5)2
_symmetry_space_group_name_H-M   'P 1'
_cell_length_a   9.36191800
_cell_length_b   9.36191800
_cell_length_c   3.09288300
_cell_angle_alpha   90.00000000
_cell_angle_beta   90.00000000
_cell_angle_gamma   90.00000000
_symmetry_Int_Tables_number   1
_chemical_formula_structural   Zr4MnZn(B2Ru5)2
_chemical_formula_sum   'Zr4 Mn1 Zn1 B4 Ru10'
_cell_volume   271.07730370
_cell_formula_units_Z   1
loop_
 _symmetry_equiv_pos_site_id
 _symmetry_equiv_pos_as_xyz
  1  'x, y, z'
loop_
 _atom_site_type_symbol
 _atom_site_label
 _atom_site_symmetry_multiplicity
 _atom_site_fract_x
 _atom_site_fract_y
 _atom_site_fract_z
 _atom_site_occupancy
  Zr  Zr0  1  0.675731  0.176200  0.000000  1
  Zr  Zr1  1  0.324269  0.823800  0.000000  1
  Zr  Zr2  1  0.176200  0.324269  0.000000  1
  Zr  Zr3  1  0.823800  0.675731  0.000000  1
  Mn  Mn4  1  0.500000  0.500000  0.000000  1
  Zn  Zn5  1  0.000000  0.000000  0.000000  1
  B  B6  1  0.122827  0.625620  0.000000  1
  B  B7  1  0.877173  0.374380  0.000000  1
  B  B8  1  0.625620  0.877173  0.000000  1
  B  B9  1  0.374380  0.122827  0.000000  1
  Ru  Ru10  1  0.216020  0.072718  0.500000  1
  Ru  Ru11  1  0.783980  0.927282  0.500000  1
  Ru  Ru12  1  0.072718  0.783980  0.500000  1
  Ru  Ru13  1  0.713429  0.430025  0.500000  1
  Ru  Ru14  1  0.927282  0.216020  0.500000  1
  Ru  Ru15  1  0.286571  0.569975  0.500000  1
  Ru  Ru16  1  0.569975  0.713429  0.500000  1
  Ru  Ru17  1  0.430025  0.286571  0.500000  1
  Ru  Ru18  1  0.500000  0.000000  0.500000  1
  Ru  Ru19  1  0.000000  0.500000  0.500000  1
