# generated using pymatgen
data_Dy3Tm9Co4BiRh
_symmetry_space_group_name_H-M   'P 1'
_cell_length_a   8.24508234
_cell_length_b   8.24513048
_cell_length_c   8.24120434
_cell_angle_alpha   110.83331088
_cell_angle_beta   110.92722011
_cell_angle_gamma   106.70803140
_symmetry_Int_Tables_number   1
_chemical_formula_structural   Dy3Tm9Co4BiRh
_chemical_formula_sum   'Dy3 Tm9 Co4 Bi1 Rh1'
_cell_volume   430.42458379
_cell_formula_units_Z   1
loop_
 _symmetry_equiv_pos_site_id
 _symmetry_equiv_pos_as_xyz
  1  'x, y, z'
loop_
 _atom_site_type_symbol
 _atom_site_label
 _atom_site_symmetry_multiplicity
 _atom_site_fract_x
 _atom_site_fract_y
 _atom_site_fract_z
 _atom_site_occupancy
  Dy  Dy0  1  0.286728  0.184818  0.471544  1
  Dy  Dy1  1  0.713539  0.815781  0.529322  1
  Dy  Dy2  1  0.286515  0.815063  0.101574  1
  Tm  Tm3  1  0.713877  0.184058  0.897936  1
  Tm  Tm4  1  0.621253  0.311670  0.308958  1
  Tm  Tm5  1  0.379202  0.688849  0.690767  1
  Tm  Tm6  1  0.001903  0.311559  0.690758  1
  Tm  Tm7  1  0.997278  0.687700  0.308950  1
  Tm  Tm8  1  0.211215  0.409503  0.197344  1
  Tm  Tm9  1  0.787975  0.589771  0.802325  1
  Tm  Tm10  1  0.212549  0.014348  0.802321  1
  Tm  Tm11  1  0.787841  0.986128  0.197344  1
  Co  Co12  1  0.999447  0.375449  0.374899  1
  Co  Co13  1  0.000032  0.624316  0.624348  1
  Co  Co14  1  0.388771  0.888635  0.501020  1
  Co  Co15  1  0.612401  0.112262  0.501019  1
  Bi  Bi16  1  0.499992  0.499989  0.999982  1
  Rh  Rh17  1  0.999483  0.000100  0.999589  1
