# generated using pymatgen
data_Dy3Al12(OsPd)2
_symmetry_space_group_name_H-M   'P 1'
_cell_length_a   8.78001100
_cell_length_b   8.83618724
_cell_length_c   9.56142400
_cell_angle_alpha   90.00000000
_cell_angle_beta   90.00000000
_cell_angle_gamma   119.78991310
_symmetry_Int_Tables_number   1
_chemical_formula_structural   Dy3Al12(OsPd)2
_chemical_formula_sum   'Dy6 Al24 Os4 Pd4'
_cell_volume   643.76695789
_cell_formula_units_Z   2
loop_
 _symmetry_equiv_pos_site_id
 _symmetry_equiv_pos_as_xyz
  1  'x, y, z'
loop_
 _atom_site_type_symbol
 _atom_site_label
 _atom_site_symmetry_multiplicity
 _atom_site_fract_x
 _atom_site_fract_y
 _atom_site_fract_z
 _atom_site_occupancy
  Dy  Dy0  1  0.190583  0.381168  0.250000  1
  Dy  Dy1  1  0.809417  0.618832  0.750000  1
  Dy  Dy2  1  0.614998  0.813829  0.250000  1
  Dy  Dy3  1  0.385002  0.186171  0.750000  1
  Dy  Dy4  1  0.198830  0.813829  0.250000  1
  Dy  Dy5  1  0.801170  0.186171  0.750000  1
  Al  Al6  1  0.335022  0.670044  0.027792  1
  Al  Al7  1  0.664978  0.329956  0.972208  1
  Al  Al8  1  0.664978  0.329956  0.527792  1
  Al  Al9  1  0.335022  0.670044  0.472208  1
  Al  Al10  1  0.161404  0.322811  0.579212  1
  Al  Al11  1  0.838596  0.677189  0.420788  1
  Al  Al12  1  0.673478  0.840961  0.577864  1
  Al  Al13  1  0.838596  0.677189  0.079212  1
  Al  Al14  1  0.326522  0.159039  0.422136  1
  Al  Al15  1  0.161404  0.322811  0.920788  1
  Al  Al16  1  0.167482  0.840961  0.577864  1
  Al  Al17  1  0.326522  0.159039  0.077864  1
  Al  Al18  1  0.832518  0.159039  0.422136  1
  Al  Al19  1  0.673478  0.840961  0.922136  1
  Al  Al20  1  0.832518  0.159039  0.077864  1
  Al  Al21  1  0.167482  0.840961  0.922136  1
  Al  Al22  1  0.563105  0.126211  0.250000  1
  Al  Al23  1  0.436895  0.873789  0.750000  1
  Al  Al24  1  0.875741  0.438919  0.250000  1
  Al  Al25  1  0.124259  0.561081  0.750000  1
  Al  Al26  1  0.563178  0.438919  0.250000  1
  Al  Al27  1  0.436822  0.561081  0.750000  1
  Al  Al28  1  0.001363  0.002726  0.250000  1
  Al  Al29  1  0.998637  0.997274  0.750000  1
  Os  Os30  1  0.500000  0.000000  0.000000  1
  Os  Os31  1  0.500000  0.000000  0.500000  1
  Os  Os32  1  0.000000  0.000000  0.000000  1
  Os  Os33  1  0.000000  0.000000  0.500000  1
  Pd  Pd34  1  0.000000  0.500000  0.000000  1
  Pd  Pd35  1  0.500000  0.500000  0.000000  1
  Pd  Pd36  1  0.000000  0.500000  0.500000  1
  Pd  Pd37  1  0.500000  0.500000  0.500000  1
