# generated using pymatgen
data_Th8Co(Si4Rh)3
_symmetry_space_group_name_H-M   'P 1'
_cell_length_a   8.20405100
_cell_length_b   8.20405111
_cell_length_c   8.52217500
_cell_angle_alpha   90.00000000
_cell_angle_beta   90.00000000
_cell_angle_gamma   119.99999551
_symmetry_Int_Tables_number   1
_chemical_formula_structural   Th8Co(Si4Rh)3
_chemical_formula_sum   'Th8 Co1 Si12 Rh3'
_cell_volume   496.74992288
_cell_formula_units_Z   1
loop_
 _symmetry_equiv_pos_site_id
 _symmetry_equiv_pos_as_xyz
  1  'x, y, z'
loop_
 _atom_site_type_symbol
 _atom_site_label
 _atom_site_symmetry_multiplicity
 _atom_site_fract_x
 _atom_site_fract_y
 _atom_site_fract_z
 _atom_site_occupancy
  Th  Th0  1  0.501325  0.498675  0.752341  1
  Th  Th1  1  0.501676  0.498324  0.247768  1
  Th  Th2  1  0.997349  0.498675  0.752341  1
  Th  Th3  1  0.996649  0.498324  0.247768  1
  Th  Th4  1  0.501325  0.002651  0.752341  1
  Th  Th5  1  0.501676  0.003351  0.247768  1
  Th  Th6  1  0.000000  0.000000  0.750916  1
  Th  Th7  1  0.000000  0.000000  0.249196  1
  Co  Co8  1  0.666667  0.333333  0.998875  1
  Si  Si9  1  0.827805  0.172195  0.999861  1
  Si  Si10  1  0.165845  0.834155  0.000185  1
  Si  Si11  1  0.344389  0.172195  0.999861  1
  Si  Si12  1  0.166573  0.833427  0.499949  1
  Si  Si13  1  0.668312  0.834155  0.000185  1
  Si  Si14  1  0.833652  0.166348  0.500163  1
  Si  Si15  1  0.827805  0.655611  0.999861  1
  Si  Si16  1  0.666854  0.833427  0.499949  1
  Si  Si17  1  0.165845  0.331688  0.000185  1
  Si  Si18  1  0.332695  0.166348  0.500163  1
  Si  Si19  1  0.166573  0.333146  0.499949  1
  Si  Si20  1  0.833652  0.667305  0.500163  1
  Rh  Rh21  1  0.333333  0.666667  0.000584  1
  Rh  Rh22  1  0.333333  0.666667  0.499499  1
  Rh  Rh23  1  0.666667  0.333333  0.500135  1
