# generated using pymatgen
data_Tb17Ho3(IrRu)6
_symmetry_space_group_name_H-M   'P 1'
_cell_length_a   10.87711699
_cell_length_b   10.87353107
_cell_length_c   6.41925106
_cell_angle_alpha   89.98717498
_cell_angle_beta   89.94947884
_cell_angle_gamma   90.00108442
_symmetry_Int_Tables_number   1
_chemical_formula_structural   Tb17Ho3(IrRu)6
_chemical_formula_sum   'Tb17 Ho3 Ir6 Ru6'
_cell_volume   759.22164511
_cell_formula_units_Z   1
loop_
 _symmetry_equiv_pos_site_id
 _symmetry_equiv_pos_as_xyz
  1  'x, y, z'
loop_
 _atom_site_type_symbol
 _atom_site_label
 _atom_site_symmetry_multiplicity
 _atom_site_fract_x
 _atom_site_fract_y
 _atom_site_fract_z
 _atom_site_occupancy
  Tb  Tb0  1  0.292818  0.086384  0.378734  1
  Tb  Tb1  1  0.292719  0.913683  0.878854  1
  Tb  Tb2  1  0.708184  0.086506  0.877763  1
  Tb  Tb3  1  0.707955  0.913456  0.377551  1
  Tb  Tb4  1  0.587413  0.793121  0.878998  1
  Tb  Tb5  1  0.587447  0.206939  0.378928  1
  Tb  Tb6  1  0.413549  0.793086  0.377939  1
  Tb  Tb7  1  0.413545  0.206830  0.877939  1
  Tb  Tb8  1  0.206761  0.413612  0.621262  1
  Tb  Tb9  1  0.206692  0.586414  0.121264  1
  Tb  Tb10  1  0.793003  0.412607  0.121793  1
  Tb  Tb11  1  0.792950  0.587394  0.621766  1
  Tb  Tb12  1  0.913377  0.707503  0.121161  1
  Tb  Tb13  1  0.913342  0.292685  0.621382  1
  Tb  Tb14  1  0.086184  0.708039  0.622476  1
  Tb  Tb15  1  0.086124  0.291827  0.122308  1
  Tb  Tb16  1  0.998422  0.000806  0.499757  1
  Ho  Ho17  1  0.998660  0.999178  0.999729  1
  Ho  Ho18  1  0.499889  0.500366  0.000193  1
  Ho  Ho19  1  0.499896  0.499630  0.500205  1
  Ir  Ir20  1  0.153401  0.153177  0.750960  1
  Ir  Ir21  1  0.153440  0.846848  0.249562  1
  Ir  Ir22  1  0.651617  0.348920  0.749676  1
  Ir  Ir23  1  0.651548  0.651143  0.249695  1
  Ir  Ir24  1  0.348263  0.347587  0.250405  1
  Ir  Ir25  1  0.348178  0.652341  0.750431  1
  Ru  Ru26  1  0.847466  0.152443  0.249174  1
  Ru  Ru27  1  0.847576  0.847469  0.750111  1
  Ru  Ru28  1  0.500192  0.000129  0.122631  1
  Ru  Ru29  1  0.500188  0.999861  0.622720  1
  Ru  Ru30  1  0.999604  0.500346  0.877376  1
  Ru  Ru31  1  0.999596  0.499670  0.377256  1
