# generated using pymatgen
data_SmAl8Cu3SiAu
_symmetry_space_group_name_H-M   'P 1'
_cell_length_a   5.91379034
_cell_length_b   5.91378939
_cell_length_c   14.40398017
_cell_angle_alpha   101.84607537
_cell_angle_beta   101.84607319
_cell_angle_gamma   90.00000607
_symmetry_Int_Tables_number   1
_chemical_formula_structural   SmAl8Cu3SiAu
_chemical_formula_sum   'Sm2 Al16 Cu6 Si2 Au2'
_cell_volume   482.05332912
_cell_formula_units_Z   2
loop_
 _symmetry_equiv_pos_site_id
 _symmetry_equiv_pos_as_xyz
  1  'x, y, z'
loop_
 _atom_site_type_symbol
 _atom_site_label
 _atom_site_symmetry_multiplicity
 _atom_site_fract_x
 _atom_site_fract_y
 _atom_site_fract_z
 _atom_site_occupancy
  Sm  Sm0  1  0.750001  0.250000  0.500000  1
  Sm  Sm1  1  0.250000  0.750001  0.500000  1
  Al  Al2  1  0.306833  0.306833  0.114233  1
  Al  Al3  1  0.807400  0.306833  0.114233  1
  Al  Al4  1  0.306833  0.807400  0.114233  1
  Al  Al5  1  0.807400  0.807400  0.114233  1
  Al  Al6  1  0.412120  0.412120  0.314261  1
  Al  Al7  1  0.902140  0.412120  0.314261  1
  Al  Al8  1  0.412120  0.902140  0.314261  1
  Al  Al9  1  0.902140  0.902140  0.314261  1
  Al  Al10  1  0.097859  0.097859  0.685739  1
  Al  Al11  1  0.587880  0.097859  0.685739  1
  Al  Al12  1  0.097859  0.587880  0.685739  1
  Al  Al13  1  0.587880  0.587880  0.685739  1
  Al  Al14  1  0.192601  0.192601  0.885767  1
  Al  Al15  1  0.693166  0.192601  0.885767  1
  Al  Al16  1  0.192601  0.693166  0.885767  1
  Al  Al17  1  0.693166  0.693166  0.885767  1
  Cu  Cu18  1  0.607865  0.107865  0.215729  1
  Cu  Cu19  1  0.107865  0.607865  0.215729  1
  Cu  Cu20  1  0.707720  0.707720  0.415438  1
  Cu  Cu21  1  0.292281  0.292281  0.584562  1
  Cu  Cu22  1  0.892136  0.392135  0.784270  1
  Cu  Cu23  1  0.392135  0.892136  0.784270  1
  Si  Si24  1  0.209681  0.209681  0.419363  1
  Si  Si25  1  0.790319  0.790319  0.580638  1
  Au  Au26  1  0.000000  0.000000  0.000000  1
  Au  Au27  1  0.500001  0.500001  0.000000  1
