# generated using pymatgen
data_TbYTi2Al2O10
_symmetry_space_group_name_H-M   'P 1'
_cell_length_a   5.71106400
_cell_length_b   7.44326700
_cell_length_c   8.48892000
_cell_angle_alpha   89.99875554
_cell_angle_beta   90.00000000
_cell_angle_gamma   90.00000000
_symmetry_Int_Tables_number   1
_chemical_formula_structural   TbYTi2Al2O10
_chemical_formula_sum   'Tb2 Y2 Ti4 Al4 O20'
_cell_volume   360.85528127
_cell_formula_units_Z   2
loop_
 _symmetry_equiv_pos_site_id
 _symmetry_equiv_pos_as_xyz
  1  'x, y, z'
loop_
 _atom_site_type_symbol
 _atom_site_label
 _atom_site_symmetry_multiplicity
 _atom_site_fract_x
 _atom_site_fract_y
 _atom_site_fract_z
 _atom_site_occupancy
  Tb  Tb0  1  0.000000  0.357777  0.329506  1
  Tb  Tb1  1  0.000000  0.642223  0.670494  1
  Y  Y2  1  0.000000  0.857544  0.170519  1
  Y  Y3  1  0.000000  0.142456  0.829481  1
  Ti  Ti4  1  0.500000  0.123578  0.145689  1
  Ti  Ti5  1  0.500000  0.876422  0.854311  1
  Ti  Ti6  1  0.500000  0.623603  0.354311  1
  Ti  Ti7  1  0.500000  0.376397  0.645689  1
  Al  Al8  1  0.243052  0.500000  0.000000  1
  Al  Al9  1  0.756919  0.000000  0.500000  1
  Al  Al10  1  0.756948  0.500000  0.000000  1
  Al  Al11  1  0.243081  0.000000  0.500000  1
  O  O12  1  0.000000  0.340155  0.057594  1
  O  O13  1  0.000000  0.659845  0.942406  1
  O  O14  1  0.000000  0.840250  0.442241  1
  O  O15  1  0.000000  0.159750  0.557759  1
  O  O16  1  0.500000  0.349562  0.070863  1
  O  O17  1  0.500000  0.650438  0.929137  1
  O  O18  1  0.500000  0.849565  0.429176  1
  O  O19  1  0.500000  0.150435  0.570824  1
  O  O20  1  0.251297  0.106977  0.293822  1
  O  O21  1  0.251297  0.893023  0.706178  1
  O  O22  1  0.748705  0.607039  0.206153  1
  O  O23  1  0.748705  0.392961  0.793847  1
  O  O24  1  0.748703  0.893023  0.706178  1
  O  O25  1  0.748703  0.106977  0.293822  1
  O  O26  1  0.251295  0.392961  0.793847  1
  O  O27  1  0.251295  0.607039  0.206153  1
  O  O28  1  0.277269  0.000000  0.000000  1
  O  O29  1  0.722552  0.500000  0.500000  1
  O  O30  1  0.722731  0.000000  0.000000  1
  O  O31  1  0.277448  0.500000  0.500000  1
