# generated using pymatgen
data_Dy3As2Se
_symmetry_space_group_name_H-M   'P 1'
_cell_length_a   7.12366921
_cell_length_b   7.12366902
_cell_length_c   7.12366804
_cell_angle_alpha   146.52586148
_cell_angle_beta   132.09132924
_cell_angle_gamma   59.70520000
_symmetry_Int_Tables_number   1
_chemical_formula_structural   Dy3As2Se
_chemical_formula_sum   'Dy3 As2 Se1'
_cell_volume   146.63664496
_cell_formula_units_Z   1
loop_
 _symmetry_equiv_pos_site_id
 _symmetry_equiv_pos_as_xyz
  1  'x, y, z'
loop_
 _atom_site_type_symbol
 _atom_site_label
 _atom_site_symmetry_multiplicity
 _atom_site_fract_x
 _atom_site_fract_y
 _atom_site_fract_z
 _atom_site_occupancy
  Dy  Dy0  1  0.500000  0.000000  0.500000  1
  Dy  Dy1  1  0.172450  0.672450  0.500000  1
  Dy  Dy2  1  0.827550  0.327550  0.500000  1
  As  As3  1  0.665522  0.665522  0.000000  1
  As  As4  1  0.334478  0.334478  0.000000  1
  Se  Se5  1  0.000000  0.000000  0.000000  1
