# generated using pymatgen
data_Li8Pr7Nd(SnBi)4
_symmetry_space_group_name_H-M   'P 1'
_cell_length_a   9.67160000
_cell_length_b   9.67979743
_cell_length_c   7.69060235
_cell_angle_alpha   89.93443283
_cell_angle_beta   90.00000000
_cell_angle_gamma   119.97199007
_symmetry_Int_Tables_number   1
_chemical_formula_structural   Li8Pr7Nd(SnBi)4
_chemical_formula_sum   'Li8 Pr7 Nd1 Sn4 Bi4'
_cell_volume   623.70282788
_cell_formula_units_Z   1
loop_
 _symmetry_equiv_pos_site_id
 _symmetry_equiv_pos_as_xyz
  1  'x, y, z'
loop_
 _atom_site_type_symbol
 _atom_site_label
 _atom_site_symmetry_multiplicity
 _atom_site_fract_x
 _atom_site_fract_y
 _atom_site_fract_z
 _atom_site_occupancy
  Li  Li0  1  0.166853  0.333707  0.271310  1
  Li  Li1  1  0.170336  0.834491  0.278207  1
  Li  Li2  1  0.664156  0.834491  0.278207  1
  Li  Li3  1  0.831641  0.663281  0.779700  1
  Li  Li4  1  0.831180  0.168092  0.785608  1
  Li  Li5  1  0.336911  0.168092  0.785608  1
  Li  Li6  1  0.333802  0.667604  0.672060  1
  Li  Li7  1  0.665056  0.330112  0.178898  1
  Pr  Pr8  1  0.513660  0.027319  0.491353  1
  Pr  Pr9  1  0.507261  0.483959  0.492375  1
  Pr  Pr10  1  0.976696  0.483959  0.492375  1
  Pr  Pr11  1  0.490880  0.981758  0.999169  1
  Pr  Pr12  1  0.488119  0.507009  0.997462  1
  Pr  Pr13  1  0.018890  0.507009  0.997462  1
  Pr  Pr14  1  0.002650  0.005300  0.496443  1
  Nd  Nd15  1  0.001954  0.003909  0.005666  1
  Sn  Sn16  1  0.834097  0.166296  0.233523  1
  Sn  Sn17  1  0.332200  0.166296  0.233523  1
  Sn  Sn18  1  0.332818  0.665638  0.262957  1
  Sn  Sn19  1  0.667106  0.334211  0.762463  1
  Bi  Bi20  1  0.166315  0.332632  0.738116  1
  Bi  Bi21  1  0.165975  0.833640  0.736650  1
  Bi  Bi22  1  0.667662  0.833640  0.736650  1
  Bi  Bi23  1  0.833779  0.667557  0.236192  1
