# generated using pymatgen
data_La11(Ni2Sn3)2
_symmetry_space_group_name_H-M   'P 1'
_cell_length_a   4.57568725
_cell_length_b   9.84689704
_cell_length_c   14.81192012
_cell_angle_alpha   106.23532491
_cell_angle_beta   90.01390667
_cell_angle_gamma   103.34769684
_symmetry_Int_Tables_number   1
_chemical_formula_structural   La11(Ni2Sn3)2
_chemical_formula_sum   'La11 Ni4 Sn6'
_cell_volume   621.94705356
_cell_formula_units_Z   1
loop_
 _symmetry_equiv_pos_site_id
 _symmetry_equiv_pos_as_xyz
  1  'x, y, z'
loop_
 _atom_site_type_symbol
 _atom_site_label
 _atom_site_symmetry_multiplicity
 _atom_site_fract_x
 _atom_site_fract_y
 _atom_site_fract_z
 _atom_site_occupancy
  La  La0  1  0.906774  0.811670  0.215753  1
  La  La1  1  0.854140  0.705190  0.643420  1
  La  La2  1  0.211016  0.422306  0.100294  1
  La  La3  1  0.547642  0.095436  0.122440  1
  La  La4  1  0.336575  0.675048  0.415788  1
  La  La5  1  0.453056  0.904083  0.878863  1
  La  La6  1  0.000265  0.999660  0.500568  1
  La  La7  1  0.146502  0.294975  0.357931  1
  La  La8  1  0.789194  0.577202  0.900752  1
  La  La9  1  0.663450  0.325012  0.584704  1
  La  La10  1  0.093665  0.187822  0.785421  1
  Ni  Ni11  1  0.749950  0.504578  0.455325  1
  Ni  Ni12  1  0.943205  0.886233  0.023433  1
  Ni  Ni13  1  0.057045  0.112811  0.977837  1
  Ni  Ni14  1  0.249311  0.496623  0.545891  1
  Sn  Sn15  1  0.630256  0.261350  0.949784  1
  Sn  Sn16  1  0.261313  0.521069  0.735013  1
  Sn  Sn17  1  0.738546  0.478151  0.265875  1
  Sn  Sn18  1  0.369899  0.738066  0.051322  1
  Sn  Sn19  1  0.515526  0.031205  0.349308  1
  Sn  Sn20  1  0.485263  0.968556  0.651802  1
