# generated using pymatgen
data_YTm3(Zn2In)2
_symmetry_space_group_name_H-M   'P 1'
_cell_length_a   7.34493827
_cell_length_b   7.34493891
_cell_length_c   8.30665500
_cell_angle_alpha   90.00000000
_cell_angle_beta   90.00000000
_cell_angle_gamma   90.28629643
_symmetry_Int_Tables_number   1
_chemical_formula_structural   YTm3(Zn2In)2
_chemical_formula_sum   'Y2 Tm6 Zn8 In4'
_cell_volume   448.12285034
_cell_formula_units_Z   2
loop_
 _symmetry_equiv_pos_site_id
 _symmetry_equiv_pos_as_xyz
  1  'x, y, z'
loop_
 _atom_site_type_symbol
 _atom_site_label
 _atom_site_symmetry_multiplicity
 _atom_site_fract_x
 _atom_site_fract_y
 _atom_site_fract_z
 _atom_site_occupancy
  Y  Y0  1  0.828457  0.171543  0.500000  1
  Y  Y1  1  0.171543  0.828457  0.500000  1
  Tm  Tm2  1  0.330180  0.330180  0.000000  1
  Tm  Tm3  1  0.669820  0.669820  0.000000  1
  Tm  Tm4  1  0.669768  0.669768  0.500000  1
  Tm  Tm5  1  0.330232  0.330232  0.500000  1
  Tm  Tm6  1  0.170385  0.829615  0.000000  1
  Tm  Tm7  1  0.829615  0.170385  0.000000  1
  Zn  Zn8  1  0.623568  0.376432  0.248528  1
  Zn  Zn9  1  0.376432  0.623568  0.248528  1
  Zn  Zn10  1  0.124899  0.124899  0.752907  1
  Zn  Zn11  1  0.875101  0.875101  0.752907  1
  Zn  Zn12  1  0.376432  0.623568  0.751472  1
  Zn  Zn13  1  0.623568  0.376432  0.751472  1
  Zn  Zn14  1  0.875101  0.875101  0.247093  1
  Zn  Zn15  1  0.124899  0.124899  0.247093  1
  In  In16  1  0.500000  0.000000  0.247232  1
  In  In17  1  0.000000  0.500000  0.752768  1
  In  In18  1  0.500000  0.000000  0.752768  1
  In  In19  1  0.000000  0.500000  0.247232  1
