# generated using pymatgen
data_Ho16Cd4Co3Os
_symmetry_space_group_name_H-M   'P 1'
_cell_length_a   9.53119117
_cell_length_b   9.45892800
_cell_length_c   9.45892800
_cell_angle_alpha   60.00000001
_cell_angle_beta   60.25048716
_cell_angle_gamma   60.25049211
_symmetry_Int_Tables_number   1
_chemical_formula_structural   Ho16Cd4Co3Os
_chemical_formula_sum   'Ho16 Cd4 Co3 Os1'
_cell_volume   605.27117465
_cell_formula_units_Z   1
loop_
 _symmetry_equiv_pos_site_id
 _symmetry_equiv_pos_as_xyz
  1  'x, y, z'
loop_
 _atom_site_type_symbol
 _atom_site_label
 _atom_site_symmetry_multiplicity
 _atom_site_fract_x
 _atom_site_fract_y
 _atom_site_fract_z
 _atom_site_occupancy
  Ho  Ho0  1  0.937436  0.936656  0.562955  1
  Ho  Ho1  1  0.816371  0.187855  0.187855  1
  Ho  Ho2  1  0.937436  0.562955  0.562955  1
  Ho  Ho3  1  0.937436  0.562955  0.936656  1
  Ho  Ho4  1  0.816371  0.807918  0.187855  1
  Ho  Ho5  1  0.341199  0.349424  0.349424  1
  Ho  Ho6  1  0.563699  0.939060  0.939060  1
  Ho  Ho7  1  0.563699  0.939060  0.558180  1
  Ho  Ho8  1  0.188910  0.812121  0.812121  1
  Ho  Ho9  1  0.188910  0.186847  0.812121  1
  Ho  Ho10  1  0.341199  0.349424  0.959953  1
  Ho  Ho11  1  0.341199  0.959953  0.349424  1
  Ho  Ho12  1  0.816371  0.187855  0.807918  1
  Ho  Ho13  1  0.563699  0.558180  0.939060  1
  Ho  Ho14  1  0.188910  0.812121  0.186847  1
  Ho  Ho15  1  0.961956  0.346015  0.346015  1
  Cd  Cd16  1  0.580646  0.580046  0.259264  1
  Cd  Cd17  1  0.260460  0.579847  0.579847  1
  Cd  Cd18  1  0.580646  0.580046  0.580046  1
  Cd  Cd19  1  0.580646  0.259264  0.580046  1
  Co  Co20  1  0.138816  0.141533  0.141533  1
  Co  Co21  1  0.138816  0.578118  0.141533  1
  Co  Co22  1  0.138816  0.141533  0.578118  1
  Os  Os23  1  0.576354  0.141216  0.141216  1
