# generated using pymatgen
data_Y2Mo3As2P5Rh9
_symmetry_space_group_name_H-M   'P 1'
_cell_length_a   3.96759100
_cell_length_b   9.58203878
_cell_length_c   9.62272201
_cell_angle_alpha   119.94039366
_cell_angle_beta   90.00268585
_cell_angle_gamma   90.00115410
_symmetry_Int_Tables_number   1
_chemical_formula_structural   Y2Mo3As2P5Rh9
_chemical_formula_sum   'Y2 Mo3 As2 P5 Rh9'
_cell_volume   317.01070633
_cell_formula_units_Z   1
loop_
 _symmetry_equiv_pos_site_id
 _symmetry_equiv_pos_as_xyz
  1  'x, y, z'
loop_
 _atom_site_type_symbol
 _atom_site_label
 _atom_site_symmetry_multiplicity
 _atom_site_fract_x
 _atom_site_fract_y
 _atom_site_fract_z
 _atom_site_occupancy
  Y  Y0  1  0.261880  0.668368  0.327708  1
  Y  Y1  1  0.761856  0.332453  0.666783  1
  Mo  Mo2  1  0.761945  0.095507  0.877221  1
  Mo  Mo3  1  0.761900  0.119716  0.210757  1
  Mo  Mo4  1  0.761963  0.784266  0.914535  1
  As  As5  1  0.761939  0.879023  0.592180  1
  As  As6  1  0.761847  0.409906  0.290114  1
  P  P7  1  0.262000  0.002418  0.003073  1
  P  P8  1  0.761903  0.713065  0.116954  1
  P  P9  1  0.261827  0.113645  0.411194  1
  P  P10  1  0.261827  0.584519  0.702845  1
  P  P11  1  0.261832  0.297107  0.882134  1
  Rh  Rh12  1  0.261967  0.883843  0.159375  1
  Rh  Rh13  1  0.261906  0.840840  0.732936  1
  Rh  Rh14  1  0.261857  0.275525  0.110642  1
  Rh  Rh15  1  0.761916  0.609562  0.573569  1
  Rh  Rh16  1  0.761881  0.442355  0.047153  1
  Rh  Rh17  1  0.761948  0.949672  0.382193  1
  Rh  Rh18  1  0.261864  0.362687  0.437990  1
  Rh  Rh19  1  0.261942  0.562810  0.928312  1
  Rh  Rh20  1  0.261998  0.072709  0.632337  1
