# generated using pymatgen
data_Ca2ZnCuNi5
_symmetry_space_group_name_H-M   'P 1'
_cell_length_a   5.10327482
_cell_length_b   5.10327403
_cell_length_c   12.42558597
_cell_angle_alpha   78.14980200
_cell_angle_beta   78.14980300
_cell_angle_gamma   60.00000022
_symmetry_Int_Tables_number   1
_chemical_formula_structural   Ca2ZnCuNi5
_chemical_formula_sum   'Ca4 Zn2 Cu2 Ni10'
_cell_volume   272.25707907
_cell_formula_units_Z   2
loop_
 _symmetry_equiv_pos_site_id
 _symmetry_equiv_pos_as_xyz
  1  'x, y, z'
loop_
 _atom_site_type_symbol
 _atom_site_label
 _atom_site_symmetry_multiplicity
 _atom_site_fract_x
 _atom_site_fract_y
 _atom_site_fract_z
 _atom_site_occupancy
  Ca  Ca0  1  0.949138  0.949138  0.152586  1
  Ca  Ca1  1  0.050862  0.050862  0.847414  1
  Ca  Ca2  1  0.851799  0.851799  0.444603  1
  Ca  Ca3  1  0.148201  0.148201  0.555397  1
  Zn  Zn4  1  0.721997  0.721997  0.834008  1
  Zn  Zn5  1  0.278003  0.278003  0.165992  1
  Cu  Cu6  1  0.611725  0.611725  0.164827  1
  Cu  Cu7  1  0.388275  0.388275  0.835173  1
  Ni  Ni8  1  0.500000  0.500000  0.500000  1
  Ni  Ni9  1  0.000000  0.500000  0.000000  1
  Ni  Ni10  1  0.500000  0.000000  0.000000  1
  Ni  Ni11  1  0.500000  0.500000  0.000000  1
  Ni  Ni12  1  0.391203  0.391203  0.330660  1
  Ni  Ni13  1  0.886936  0.391203  0.330660  1
  Ni  Ni14  1  0.391203  0.886936  0.330660  1
  Ni  Ni15  1  0.608797  0.608797  0.669340  1
  Ni  Ni16  1  0.113064  0.608797  0.669340  1
  Ni  Ni17  1  0.608797  0.113064  0.669340  1
