# generated using pymatgen
data_Tm4Ga6Ir7
_symmetry_space_group_name_H-M   'P 1'
_cell_length_a   7.24678923
_cell_length_b   7.24678927
_cell_length_c   7.24678832
_cell_angle_alpha   109.49600357
_cell_angle_beta   109.45882852
_cell_angle_gamma   109.45883168
_symmetry_Int_Tables_number   1
_chemical_formula_structural   Tm4Ga6Ir7
_chemical_formula_sum   'Tm4 Ga6 Ir7'
_cell_volume   292.96442814
_cell_formula_units_Z   1
loop_
 _symmetry_equiv_pos_site_id
 _symmetry_equiv_pos_as_xyz
  1  'x, y, z'
loop_
 _atom_site_type_symbol
 _atom_site_label
 _atom_site_symmetry_multiplicity
 _atom_site_fract_x
 _atom_site_fract_y
 _atom_site_fract_z
 _atom_site_occupancy
  Tm  Tm0  1  0.000000  0.000622  0.501227  1
  Tm  Tm1  1  0.000000  0.501227  0.000622  1
  Tm  Tm2  1  0.499395  0.000622  0.000622  1
  Tm  Tm3  1  0.500605  0.501227  0.501227  1
  Ga  Ga4  1  0.688183  0.688688  0.000504  1
  Ga  Ga5  1  0.311817  0.000504  0.312321  1
  Ga  Ga6  1  0.000000  0.310257  0.310257  1
  Ga  Ga7  1  0.311817  0.312321  0.000504  1
  Ga  Ga8  1  0.688183  0.000504  0.688688  1
  Ga  Ga9  1  0.000000  0.686867  0.686867  1
  Ir  Ir10  1  0.750015  0.249761  0.499746  1
  Ir  Ir11  1  0.750015  0.499746  0.249761  1
  Ir  Ir12  1  0.500000  0.250416  0.750416  1
  Ir  Ir13  1  0.249985  0.499746  0.749731  1
  Ir  Ir14  1  0.249985  0.749731  0.499746  1
  Ir  Ir15  1  0.500000  0.750416  0.250416  1
  Ir  Ir16  1  0.000000  0.997348  0.997348  1
