# generated using pymatgen
data_Na10B16Ir19
_symmetry_space_group_name_H-M   'P 1'
_cell_length_a   9.21741808
_cell_length_b   9.21741893
_cell_length_c   9.21741800
_cell_angle_alpha   109.47122080
_cell_angle_beta   109.47122265
_cell_angle_gamma   109.47121987
_symmetry_Int_Tables_number   1
_chemical_formula_structural   Na10B16Ir19
_chemical_formula_sum   'Na10 B16 Ir19'
_cell_volume   602.84546378
_cell_formula_units_Z   1
loop_
 _symmetry_equiv_pos_site_id
 _symmetry_equiv_pos_as_xyz
  1  'x, y, z'
loop_
 _atom_site_type_symbol
 _atom_site_label
 _atom_site_symmetry_multiplicity
 _atom_site_fract_x
 _atom_site_fract_y
 _atom_site_fract_z
 _atom_site_occupancy
  Na  Na0  1  0.348166  0.348166  0.000000  1
  Na  Na1  1  0.000000  0.000000  0.321143  1
  Na  Na2  1  0.000000  0.348166  0.348166  1
  Na  Na3  1  0.651834  0.651834  0.000000  1
  Na  Na4  1  0.678857  0.678857  0.678857  1
  Na  Na5  1  0.000000  0.321143  0.000000  1
  Na  Na6  1  0.000000  0.651834  0.651834  1
  Na  Na7  1  0.321143  0.000000  0.000000  1
  Na  Na8  1  0.651834  0.000000  0.651834  1
  Na  Na9  1  0.348166  0.000000  0.348166  1
  B  B10  1  0.000000  0.748013  0.420726  1
  B  B11  1  0.327286  0.579274  0.579274  1
  B  B12  1  0.000000  0.420726  0.748013  1
  B  B13  1  0.000000  0.766378  0.000000  1
  B  B14  1  0.233622  0.233622  0.233622  1
  B  B15  1  0.251987  0.672714  0.251987  1
  B  B16  1  0.420726  0.000000  0.748013  1
  B  B17  1  0.420726  0.748013  0.000000  1
  B  B18  1  0.766378  0.000000  0.000000  1
  B  B19  1  0.251987  0.251987  0.672714  1
  B  B20  1  0.579274  0.327286  0.579274  1
  B  B21  1  0.000000  0.000000  0.766378  1
  B  B22  1  0.748013  0.000000  0.420726  1
  B  B23  1  0.579274  0.579274  0.327286  1
  B  B24  1  0.672714  0.251987  0.251987  1
  B  B25  1  0.748013  0.420726  0.000000  1
  Ir  Ir26  1  0.663708  0.000000  0.179068  1
  Ir  Ir27  1  0.000000  0.179068  0.663708  1
  Ir  Ir28  1  0.500000  0.250000  0.750000  1
  Ir  Ir29  1  0.515360  0.336292  0.336292  1
  Ir  Ir30  1  0.663708  0.179068  0.000000  1
  Ir  Ir31  1  0.820932  0.820932  0.484640  1
  Ir  Ir32  1  0.000000  0.663708  0.179068  1
  Ir  Ir33  1  0.484640  0.820932  0.820932  1
  Ir  Ir34  1  0.179068  0.663708  0.000000  1
  Ir  Ir35  1  0.336292  0.515360  0.336292  1
  Ir  Ir36  1  0.500000  0.750000  0.250000  1
  Ir  Ir37  1  0.179068  0.000000  0.663708  1
  Ir  Ir38  1  0.750000  0.500000  0.250000  1
  Ir  Ir39  1  0.336292  0.336292  0.515360  1
  Ir  Ir40  1  0.250000  0.750000  0.500000  1
  Ir  Ir41  1  0.820932  0.484640  0.820932  1
  Ir  Ir42  1  0.750000  0.250000  0.500000  1
  Ir  Ir43  1  0.000000  0.000000  0.000000  1
  Ir  Ir44  1  0.250000  0.500000  0.750000  1
