# generated using pymatgen
data_TaNb(PRu)2
_symmetry_space_group_name_H-M   'P 1'
_cell_length_a   3.74300100
_cell_length_b   6.35763000
_cell_length_c   7.21651500
_cell_angle_alpha   90.00000000
_cell_angle_beta   90.00000000
_cell_angle_gamma   90.00000000
_symmetry_Int_Tables_number   1
_chemical_formula_structural   TaNb(PRu)2
_chemical_formula_sum   'Ta2 Nb2 P4 Ru4'
_cell_volume   171.72863233
_cell_formula_units_Z   2
loop_
 _symmetry_equiv_pos_site_id
 _symmetry_equiv_pos_as_xyz
  1  'x, y, z'
loop_
 _atom_site_type_symbol
 _atom_site_label
 _atom_site_symmetry_multiplicity
 _atom_site_fract_x
 _atom_site_fract_y
 _atom_site_fract_z
 _atom_site_occupancy
  Ta  Ta0  1  0.750000  0.975100  0.171266  1
  Ta  Ta1  1  0.750000  0.475100  0.328734  1
  Nb  Nb2  1  0.250000  0.024535  0.827864  1
  Nb  Nb3  1  0.250000  0.524535  0.672136  1
  P  P4  1  0.250000  0.768807  0.376345  1
  P  P5  1  0.250000  0.268807  0.123655  1
  P  P6  1  0.750000  0.230541  0.625181  1
  P  P7  1  0.750000  0.730541  0.874819  1
  Ru  Ru8  1  0.250000  0.146145  0.434308  1
  Ru  Ru9  1  0.250000  0.646145  0.065692  1
  Ru  Ru10  1  0.750000  0.854873  0.559884  1
  Ru  Ru11  1  0.750000  0.354873  0.940116  1
