# generated using pymatgen
data_Sc4MnCoB12
_symmetry_space_group_name_H-M   'P 1'
_cell_length_a   8.81251400
_cell_length_b   11.11368700
_cell_length_c   3.34765200
_cell_angle_alpha   90.00000000
_cell_angle_beta   90.00000000
_cell_angle_gamma   90.00000000
_symmetry_Int_Tables_number   1
_chemical_formula_structural   Sc4MnCoB12
_chemical_formula_sum   'Sc8 Mn2 Co2 B24'
_cell_volume   327.86743764
_cell_formula_units_Z   2
loop_
 _symmetry_equiv_pos_site_id
 _symmetry_equiv_pos_as_xyz
  1  'x, y, z'
loop_
 _atom_site_type_symbol
 _atom_site_label
 _atom_site_symmetry_multiplicity
 _atom_site_fract_x
 _atom_site_fract_y
 _atom_site_fract_z
 _atom_site_occupancy
  Sc  Sc0  1  0.678836  0.090215  0.000000  1
  Sc  Sc1  1  0.056183  0.129552  0.000000  1
  Sc  Sc2  1  0.556183  0.370447  0.000000  1
  Sc  Sc3  1  0.178836  0.409785  0.000000  1
  Sc  Sc4  1  0.821334  0.581095  0.000000  1
  Sc  Sc5  1  0.442873  0.629754  0.000000  1
  Sc  Sc6  1  0.942872  0.870246  0.000000  1
  Sc  Sc7  1  0.321333  0.918905  0.000000  1
  Mn  Mn8  1  0.360638  0.179604  0.000000  1
  Mn  Mn9  1  0.860638  0.320395  0.000000  1
  Co  Co10  1  0.139902  0.680297  0.000000  1
  Co  Co11  1  0.639902  0.819702  0.000000  1
  B  B12  1  0.897016  0.027079  0.500001  1
  B  B13  1  0.446590  0.066182  0.500001  1
  B  B14  1  0.249906  0.080469  0.500001  1
  B  B15  1  0.869188  0.184255  0.500001  1
  B  B16  1  0.518552  0.212099  0.500001  1
  B  B17  1  0.206751  0.235423  0.500001  1
  B  B18  1  0.706752  0.264578  0.500001  1
  B  B19  1  0.018553  0.287901  0.500001  1
  B  B20  1  0.369189  0.315744  0.500001  1
  B  B21  1  0.749905  0.419531  0.500001  1
  B  B22  1  0.946590  0.433819  0.500001  1
  B  B23  1  0.397016  0.472922  0.500001  1
  B  B24  1  0.601578  0.528294  0.500001  1
  B  B25  1  0.053752  0.565679  0.500001  1
  B  B26  1  0.250131  0.580091  0.500001  1
  B  B27  1  0.631109  0.682401  0.500001  1
  B  B28  1  0.982543  0.711634  0.500001  1
  B  B29  1  0.293118  0.736904  0.500001  1
  B  B30  1  0.793118  0.763096  0.500001  1
  B  B31  1  0.482543  0.788366  0.500001  1
  B  B32  1  0.131109  0.817599  0.500001  1
  B  B33  1  0.750130  0.919908  0.500001  1
  B  B34  1  0.553751  0.934321  0.500001  1
  B  B35  1  0.101578  0.971706  0.500001  1
