# generated using pymatgen
data_NdNpS2
_symmetry_space_group_name_H-M   'P 1'
_cell_length_a   6.84736801
_cell_length_b   6.84736790
_cell_length_c   6.84736835
_cell_angle_alpha   34.21017316
_cell_angle_beta   34.21017531
_cell_angle_gamma   34.21018474
_symmetry_Int_Tables_number   1
_chemical_formula_structural   NdNpS2
_chemical_formula_sum   'Nd1 Np1 S2'
_cell_volume   90.49255247
_cell_formula_units_Z   1
loop_
 _symmetry_equiv_pos_site_id
 _symmetry_equiv_pos_as_xyz
  1  'x, y, z'
loop_
 _atom_site_type_symbol
 _atom_site_label
 _atom_site_symmetry_multiplicity
 _atom_site_fract_x
 _atom_site_fract_y
 _atom_site_fract_z
 _atom_site_occupancy
  Nd  Nd0  1  0.500000  0.500000  0.500000  1
  Np  Np1  1  0.000000  0.000000  0.000000  1
  S  S2  1  0.254731  0.254731  0.254731  1
  S  S3  1  0.745269  0.745269  0.745269  1
