# generated using pymatgen
data_Tm20Ir7Os4Rh
_symmetry_space_group_name_H-M   'P 1'
_cell_length_a   10.71243006
_cell_length_b   10.71243006
_cell_length_c   6.33433702
_cell_angle_alpha   90.00605236
_cell_angle_beta   90.00605236
_cell_angle_gamma   89.98951672
_symmetry_Int_Tables_number   1
_chemical_formula_structural   Tm20Ir7Os4Rh
_chemical_formula_sum   'Tm20 Ir7 Os4 Rh1'
_cell_volume   726.90415799
_cell_formula_units_Z   1
loop_
 _symmetry_equiv_pos_site_id
 _symmetry_equiv_pos_as_xyz
  1  'x, y, z'
loop_
 _atom_site_type_symbol
 _atom_site_label
 _atom_site_symmetry_multiplicity
 _atom_site_fract_x
 _atom_site_fract_y
 _atom_site_fract_z
 _atom_site_occupancy
  Tm  Tm0  1  0.293570  0.086065  0.376390  1
  Tm  Tm1  1  0.293551  0.913848  0.876009  1
  Tm  Tm2  1  0.705871  0.085836  0.875534  1
  Tm  Tm3  1  0.705975  0.912971  0.376473  1
  Tm  Tm4  1  0.586148  0.793584  0.876274  1
  Tm  Tm5  1  0.585352  0.206463  0.376507  1
  Tm  Tm6  1  0.413832  0.793611  0.376323  1
  Tm  Tm7  1  0.413784  0.206397  0.876090  1
  Tm  Tm8  1  0.206416  0.413852  0.623726  1
  Tm  Tm9  1  0.206389  0.586168  0.123677  1
  Tm  Tm10  1  0.793537  0.414648  0.123493  1
  Tm  Tm11  1  0.793603  0.586216  0.623910  1
  Tm  Tm12  1  0.913935  0.706430  0.123610  1
  Tm  Tm13  1  0.914164  0.294129  0.624466  1
  Tm  Tm14  1  0.086152  0.706449  0.623991  1
  Tm  Tm15  1  0.087029  0.294025  0.123527  1
  Tm  Tm16  1  0.000202  0.999844  0.500215  1
  Tm  Tm17  1  0.000156  0.999798  0.999785  1
  Tm  Tm18  1  0.500012  0.500016  0.999969  1
  Tm  Tm19  1  0.499984  0.499988  0.500031  1
  Ir  Ir20  1  0.847575  0.847895  0.749876  1
  Ir  Ir21  1  0.152105  0.152425  0.750124  1
  Ir  Ir22  1  0.152388  0.847612  0.250000  1
  Ir  Ir23  1  0.652765  0.347235  0.750000  1
  Ir  Ir24  1  0.652546  0.652502  0.250089  1
  Ir  Ir25  1  0.347498  0.347454  0.249911  1
  Ir  Ir26  1  0.347522  0.652478  0.750000  1
  Os  Os27  1  0.500428  0.000216  0.123117  1
  Os  Os28  1  0.500329  0.000193  0.622927  1
  Os  Os29  1  0.999807  0.499671  0.877073  1
  Os  Os30  1  0.999784  0.499572  0.376883  1
  Rh  Rh31  1  0.847591  0.152409  0.250000  1
