# generated using pymatgen
data_Y14Ho6Cd3Ru2Au3
_symmetry_space_group_name_H-M   'P 1'
_cell_length_a   9.60552215
_cell_length_b   9.60552135
_cell_length_c   9.64863051
_cell_angle_alpha   90.05569303
_cell_angle_beta   89.94430618
_cell_angle_gamma   119.99467534
_symmetry_Int_Tables_number   1
_chemical_formula_structural   Y14Ho6Cd3Ru2Au3
_chemical_formula_sum   'Y14 Ho6 Cd3 Ru2 Au3'
_cell_volume   771.01220456
_cell_formula_units_Z   1
loop_
 _symmetry_equiv_pos_site_id
 _symmetry_equiv_pos_as_xyz
  1  'x, y, z'
loop_
 _atom_site_type_symbol
 _atom_site_label
 _atom_site_symmetry_multiplicity
 _atom_site_fract_x
 _atom_site_fract_y
 _atom_site_fract_z
 _atom_site_occupancy
  Y  Y0  1  0.208984  0.418316  0.440474  1
  Y  Y1  1  0.581684  0.791016  0.440474  1
  Y  Y2  1  0.791879  0.208121  0.557970  1
  Y  Y3  1  0.792368  0.583894  0.557863  1
  Y  Y4  1  0.416106  0.207632  0.557863  1
  Y  Y5  1  0.791785  0.208215  0.942018  1
  Y  Y6  1  0.792035  0.583731  0.941865  1
  Y  Y7  1  0.416269  0.207965  0.941865  1
  Y  Y8  1  0.209045  0.790955  0.060053  1
  Y  Y9  1  0.209259  0.418544  0.059886  1
  Y  Y10  1  0.581456  0.790741  0.059886  1
  Y  Y11  1  0.458955  0.541045  0.749888  1
  Y  Y12  1  0.458382  0.917260  0.749547  1
  Y  Y13  1  0.082740  0.541618  0.749547  1
  Ho  Ho14  1  0.000494  0.999506  0.459108  1
  Ho  Ho15  1  0.999989  0.000011  0.040554  1
  Ho  Ho16  1  0.209684  0.790316  0.439563  1
  Ho  Ho17  1  0.540819  0.459181  0.250137  1
  Ho  Ho18  1  0.540378  0.080966  0.250304  1
  Ho  Ho19  1  0.919034  0.459622  0.250304  1
  Cd  Cd20  1  0.109691  0.890309  0.749918  1
  Cd  Cd21  1  0.109540  0.219323  0.749953  1
  Cd  Cd22  1  0.780677  0.890460  0.749953  1
  Ru  Ru23  1  0.332236  0.667764  0.251105  1
  Ru  Ru24  1  0.666463  0.333537  0.749861  1
  Au  Au25  1  0.869306  0.130694  0.250124  1
  Au  Au26  1  0.869244  0.738498  0.249958  1
  Au  Au27  1  0.261502  0.130756  0.249958  1
