# generated using pymatgen
data_Er16Cd3AgIr3Rh
_symmetry_space_group_name_H-M   'P 1'
_cell_length_a   9.55491676
_cell_length_b   9.55491648
_cell_length_c   9.55491788
_cell_angle_alpha   59.73263264
_cell_angle_beta   59.73262377
_cell_angle_gamma   59.73263063
_symmetry_Int_Tables_number   1
_chemical_formula_structural   Er16Cd3AgIr3Rh
_chemical_formula_sum   'Er16 Cd3 Ag1 Ir3 Rh1'
_cell_volume   613.08494760
_cell_formula_units_Z   1
loop_
 _symmetry_equiv_pos_site_id
 _symmetry_equiv_pos_as_xyz
  1  'x, y, z'
loop_
 _atom_site_type_symbol
 _atom_site_label
 _atom_site_symmetry_multiplicity
 _atom_site_fract_x
 _atom_site_fract_y
 _atom_site_fract_z
 _atom_site_occupancy
  Er  Er0  1  0.599829  0.599829  0.599829  1
  Er  Er1  1  0.600159  0.600159  0.202657  1
  Er  Er2  1  0.600159  0.202657  0.600159  1
  Er  Er3  1  0.202657  0.600159  0.600159  1
  Er  Er4  1  0.060181  0.439188  0.439188  1
  Er  Er5  1  0.437295  0.059756  0.059756  1
  Er  Er6  1  0.439188  0.060181  0.439188  1
  Er  Er7  1  0.059756  0.437295  0.059756  1
  Er  Er8  1  0.439188  0.439188  0.060181  1
  Er  Er9  1  0.059756  0.059756  0.437295  1
  Er  Er10  1  0.186436  0.811428  0.811428  1
  Er  Er11  1  0.812533  0.185818  0.185818  1
  Er  Er12  1  0.811428  0.186436  0.811428  1
  Er  Er13  1  0.185818  0.812533  0.185818  1
  Er  Er14  1  0.811428  0.811428  0.186436  1
  Er  Er15  1  0.185818  0.185818  0.812533  1
  Cd  Cd16  1  0.831237  0.831237  0.508157  1
  Cd  Cd17  1  0.831237  0.508157  0.831237  1
  Cd  Cd18  1  0.508157  0.831237  0.831237  1
  Ag  Ag19  1  0.833451  0.833451  0.833451  1
  Ir  Ir20  1  0.393490  0.393490  0.825136  1
  Ir  Ir21  1  0.393490  0.825136  0.393490  1
  Ir  Ir22  1  0.825136  0.393490  0.393490  1
  Rh  Rh23  1  0.392167  0.392167  0.392167  1
