# generated using pymatgen
data_NaPaF6
_symmetry_space_group_name_H-M   'P 1'
_cell_length_a   6.22632949
_cell_length_b   6.22632909
_cell_length_c   6.22632885
_cell_angle_alpha   53.05443526
_cell_angle_beta   53.05444068
_cell_angle_gamma   53.05444657
_symmetry_Int_Tables_number   1
_chemical_formula_structural   NaPaF6
_chemical_formula_sum   'Na1 Pa1 F6'
_cell_volume   142.89859043
_cell_formula_units_Z   1
loop_
 _symmetry_equiv_pos_site_id
 _symmetry_equiv_pos_as_xyz
  1  'x, y, z'
loop_
 _atom_site_type_symbol
 _atom_site_label
 _atom_site_symmetry_multiplicity
 _atom_site_fract_x
 _atom_site_fract_y
 _atom_site_fract_z
 _atom_site_occupancy
  Na  Na0  1  0.500000  0.500000  0.500000  1
  Pa  Pa1  1  0.000000  0.000000  0.000000  1
  F  F2  1  0.370108  0.757446  0.106202  1
  F  F3  1  0.757446  0.106202  0.370108  1
  F  F4  1  0.893798  0.629892  0.242554  1
  F  F5  1  0.242554  0.893798  0.629892  1
  F  F6  1  0.629892  0.242554  0.893798  1
  F  F7  1  0.106202  0.370108  0.757446  1
