# generated using pymatgen
data_Ho17(ErBi4)3
_symmetry_space_group_name_H-M   'P 1'
_cell_length_a   8.21823203
_cell_length_b   9.49267401
_cell_length_c   11.99351803
_cell_angle_alpha   90.00048044
_cell_angle_beta   90.00812521
_cell_angle_gamma   89.99582703
_symmetry_Int_Tables_number   1
_chemical_formula_structural   Ho17(ErBi4)3
_chemical_formula_sum   'Ho17 Er3 Bi12'
_cell_volume   935.65028058
_cell_formula_units_Z   1
loop_
 _symmetry_equiv_pos_site_id
 _symmetry_equiv_pos_as_xyz
  1  'x, y, z'
loop_
 _atom_site_type_symbol
 _atom_site_label
 _atom_site_symmetry_multiplicity
 _atom_site_fract_x
 _atom_site_fract_y
 _atom_site_fract_z
 _atom_site_occupancy
  Ho  Ho0  1  0.353629  0.749996  0.216324  1
  Ho  Ho1  1  0.853607  0.749966  0.283699  1
  Ho  Ho2  1  0.646308  0.249942  0.783730  1
  Ho  Ho3  1  0.146425  0.249946  0.716339  1
  Ho  Ho4  1  0.808077  0.435837  0.558976  1
  Ho  Ho5  1  0.308018  0.435745  0.941017  1
  Ho  Ho6  1  0.808058  0.064157  0.559001  1
  Ho  Ho7  1  0.691982  0.935743  0.058988  1
  Ho  Ho8  1  0.191963  0.564276  0.441006  1
  Ho  Ho9  1  0.476481  0.249964  0.488883  1
  Ho  Ho10  1  0.976609  0.249983  0.011098  1
  Ho  Ho11  1  0.523340  0.750038  0.511089  1
  Ho  Ho12  1  0.023377  0.749971  0.988906  1
  Ho  Ho13  1  0.314438  0.249959  0.218098  1
  Ho  Ho14  1  0.814424  0.250001  0.281877  1
  Ho  Ho15  1  0.685555  0.749957  0.781894  1
  Ho  Ho16  1  0.185530  0.750036  0.718081  1
  Er  Er17  1  0.691993  0.564342  0.058936  1
  Er  Er18  1  0.192038  0.935700  0.441048  1
  Er  Er19  1  0.308016  0.064330  0.941059  1
  Bi  Bi20  1  0.405463  0.750196  0.957489  1
  Bi  Bi21  1  0.905544  0.750106  0.542479  1
  Bi  Bi22  1  0.594516  0.250202  0.042513  1
  Bi  Bi23  1  0.094634  0.249692  0.457449  1
  Bi  Bi24  1  0.566023  0.996191  0.325723  1
  Bi  Bi25  1  0.066061  0.503784  0.174254  1
  Bi  Bi26  1  0.433901  0.496199  0.674296  1
  Bi  Bi27  1  0.933968  0.003776  0.825743  1
  Bi  Bi28  1  0.433877  0.003795  0.674287  1
  Bi  Bi29  1  0.933905  0.496188  0.825766  1
  Bi  Bi30  1  0.566121  0.503794  0.325683  1
  Bi  Bi31  1  0.066122  0.996187  0.174267  1
