# generated using pymatgen
data_NaSr2As6(IrRu)3
_symmetry_space_group_name_H-M   'P 1'
_cell_length_a   8.84717582
_cell_length_b   8.84717585
_cell_length_c   6.63657646
_cell_angle_alpha   71.83941741
_cell_angle_beta   71.83941779
_cell_angle_gamma   38.59905448
_symmetry_Int_Tables_number   1
_chemical_formula_structural   NaSr2As6(IrRu)3
_chemical_formula_sum   'Na1 Sr2 As6 Ir3 Ru3'
_cell_volume   305.89325673
_cell_formula_units_Z   1
loop_
 _symmetry_equiv_pos_site_id
 _symmetry_equiv_pos_as_xyz
  1  'x, y, z'
loop_
 _atom_site_type_symbol
 _atom_site_label
 _atom_site_symmetry_multiplicity
 _atom_site_fract_x
 _atom_site_fract_y
 _atom_site_fract_z
 _atom_site_occupancy
  Na  Na0  1  0.000042  0.999958  0.000000  1
  Sr  Sr1  1  0.663820  0.664199  0.672254  1
  Sr  Sr2  1  0.335801  0.336180  0.327746  1
  As  As3  1  0.879524  0.879628  0.515159  1
  As  As4  1  0.213048  0.212353  0.852164  1
  As  As5  1  0.546277  0.546426  0.186158  1
  As  As6  1  0.453574  0.453723  0.813842  1
  As  As7  1  0.787647  0.786952  0.147836  1
  As  As8  1  0.120372  0.120476  0.484841  1
  Ir  Ir9  1  0.082381  0.583590  0.831064  1
  Ir  Ir10  1  0.416410  0.917619  0.168936  1
  Ir  Ir11  1  0.751304  0.248696  0.500000  1
  Ru  Ru12  1  0.248485  0.751515  0.500000  1
  Ru  Ru13  1  0.583794  0.082478  0.831654  1
  Ru  Ru14  1  0.917522  0.416206  0.168346  1
