# generated using pymatgen
data_TaNb(GaBr8)2
_symmetry_space_group_name_H-M   'P 1'
_cell_length_a   10.53367590
_cell_length_b   10.53367544
_cell_length_c   9.26587900
_cell_angle_alpha   90.00000000
_cell_angle_beta   90.00000000
_cell_angle_gamma   128.57121010
_symmetry_Int_Tables_number   1
_chemical_formula_structural   TaNb(GaBr8)2
_chemical_formula_sum   'Ta1 Nb1 Ga2 Br16'
_cell_volume   803.82402838
_cell_formula_units_Z   1
loop_
 _symmetry_equiv_pos_site_id
 _symmetry_equiv_pos_as_xyz
  1  'x, y, z'
loop_
 _atom_site_type_symbol
 _atom_site_label
 _atom_site_symmetry_multiplicity
 _atom_site_fract_x
 _atom_site_fract_y
 _atom_site_fract_z
 _atom_site_occupancy
  Ta  Ta0  1  0.885346  0.114654  0.250000  1
  Nb  Nb1  1  0.113562  0.886438  0.750000  1
  Ga  Ga2  1  0.314487  0.685513  0.750000  1
  Ga  Ga3  1  0.685298  0.314702  0.250000  1
  Br  Br4  1  0.378936  0.621064  0.538487  1
  Br  Br5  1  0.621120  0.378880  0.461547  1
  Br  Br6  1  0.427945  0.970476  0.750000  1
  Br  Br7  1  0.970299  0.426466  0.250000  1
  Br  Br8  1  0.573534  0.029701  0.250000  1
  Br  Br9  1  0.029524  0.572055  0.750000  1
  Br  Br10  1  0.241207  0.173493  0.750000  1
  Br  Br11  1  0.171331  0.239888  0.250000  1
  Br  Br12  1  0.760112  0.828669  0.250000  1
  Br  Br13  1  0.826507  0.758793  0.750000  1
  Br  Br14  1  0.133864  0.866136  0.485198  1
  Br  Br15  1  0.866504  0.133496  0.514288  1
  Br  Br16  1  0.866504  0.133496  0.985712  1
  Br  Br17  1  0.133864  0.866136  0.014802  1
  Br  Br18  1  0.378936  0.621064  0.961513  1
  Br  Br19  1  0.621120  0.378880  0.038453  1
