# generated using pymatgen
data_YHo2Lu5Au4
_symmetry_space_group_name_H-M   'P 1'
_cell_length_a   4.86063000
_cell_length_b   7.06117157
_cell_length_c   8.80420441
_cell_angle_alpha   89.93375560
_cell_angle_beta   90.00000000
_cell_angle_gamma   90.00000000
_symmetry_Int_Tables_number   1
_chemical_formula_structural   YHo2Lu5Au4
_chemical_formula_sum   'Y1 Ho2 Lu5 Au4'
_cell_volume   302.17543327
_cell_formula_units_Z   1
loop_
 _symmetry_equiv_pos_site_id
 _symmetry_equiv_pos_as_xyz
  1  'x, y, z'
loop_
 _atom_site_type_symbol
 _atom_site_label
 _atom_site_symmetry_multiplicity
 _atom_site_fract_x
 _atom_site_fract_y
 _atom_site_fract_z
 _atom_site_occupancy
  Y  Y0  1  0.250000  0.512700  0.324268  1
  Ho  Ho1  1  0.250000  0.016313  0.175224  1
  Ho  Ho2  1  0.750000  0.851886  0.420671  1
  Lu  Lu3  1  0.250000  0.148723  0.581341  1
  Lu  Lu4  1  0.750000  0.484698  0.678601  1
  Lu  Lu5  1  0.750000  0.983093  0.822457  1
  Lu  Lu6  1  0.250000  0.648054  0.921291  1
  Lu  Lu7  1  0.750000  0.349895  0.075690  1
  Au  Au8  1  0.250000  0.746494  0.606146  1
  Au  Au9  1  0.250000  0.246439  0.897720  1
  Au  Au10  1  0.750000  0.753460  0.095200  1
  Au  Au11  1  0.750000  0.258244  0.401392  1
