# generated using pymatgen
data_Yb3(SiPt)2
_symmetry_space_group_name_H-M   'P 1'
_cell_length_a   5.62915800
_cell_length_b   7.99454500
_cell_length_c   13.11642000
_cell_angle_alpha   90.00000000
_cell_angle_beta   90.00000000
_cell_angle_gamma   90.00000000
_symmetry_Int_Tables_number   1
_chemical_formula_structural   Yb3(SiPt)2
_chemical_formula_sum   'Yb12 Si8 Pt8'
_cell_volume   590.27243794
_cell_formula_units_Z   4
loop_
 _symmetry_equiv_pos_site_id
 _symmetry_equiv_pos_as_xyz
  1  'x, y, z'
loop_
 _atom_site_type_symbol
 _atom_site_label
 _atom_site_symmetry_multiplicity
 _atom_site_fract_x
 _atom_site_fract_y
 _atom_site_fract_z
 _atom_site_occupancy
  Yb  Yb0  1  0.642465  0.244226  0.250000  1
  Yb  Yb1  1  0.357535  0.755774  0.750000  1
  Yb  Yb2  1  0.357535  0.744226  0.250000  1
  Yb  Yb3  1  0.642465  0.255774  0.750000  1
  Yb  Yb4  1  0.138721  0.388338  0.102870  1
  Yb  Yb5  1  0.861279  0.611662  0.897130  1
  Yb  Yb6  1  0.861279  0.611662  0.602870  1
  Yb  Yb7  1  0.861279  0.888338  0.397130  1
  Yb  Yb8  1  0.138721  0.388338  0.397130  1
  Yb  Yb9  1  0.138721  0.111662  0.602870  1
  Yb  Yb10  1  0.138721  0.111662  0.897130  1
  Yb  Yb11  1  0.861279  0.888338  0.102870  1
  Si  Si12  1  0.154756  0.095933  0.250000  1
  Si  Si13  1  0.845244  0.904067  0.750000  1
  Si  Si14  1  0.845244  0.595933  0.250000  1
  Si  Si15  1  0.154756  0.404067  0.750000  1
  Si  Si16  1  0.606660  0.250000  0.000000  1
  Si  Si17  1  0.393340  0.750000  0.000000  1
  Si  Si18  1  0.393340  0.750000  0.500000  1
  Si  Si19  1  0.606660  0.250000  0.500000  1
  Pt  Pt20  1  0.366685  0.027482  0.091047  1
  Pt  Pt21  1  0.633315  0.972518  0.908953  1
  Pt  Pt22  1  0.633315  0.972518  0.591047  1
  Pt  Pt23  1  0.633315  0.527482  0.408953  1
  Pt  Pt24  1  0.366685  0.027482  0.408953  1
  Pt  Pt25  1  0.366685  0.472518  0.591047  1
  Pt  Pt26  1  0.366685  0.472518  0.908953  1
  Pt  Pt27  1  0.633315  0.527482  0.091047  1
