# generated using pymatgen
data_CaDy4U2O12
_symmetry_space_group_name_H-M   'P 1'
_cell_length_a   6.59307575
_cell_length_b   6.71061973
_cell_length_c   6.53855000
_cell_angle_alpha   100.10553818
_cell_angle_beta   98.24500594
_cell_angle_gamma   99.35067173
_symmetry_Int_Tables_number   1
_chemical_formula_structural   CaDy4U2O12
_chemical_formula_sum   'Ca1 Dy4 U2 O12'
_cell_volume   276.58108473
_cell_formula_units_Z   1
loop_
 _symmetry_equiv_pos_site_id
 _symmetry_equiv_pos_as_xyz
  1  'x, y, z'
loop_
 _atom_site_type_symbol
 _atom_site_label
 _atom_site_symmetry_multiplicity
 _atom_site_fract_x
 _atom_site_fract_y
 _atom_site_fract_z
 _atom_site_occupancy
  Ca  Ca0  1  0.859092  0.692295  0.399752  1
  Dy  Dy1  1  0.390472  0.854895  0.683396  1
  Dy  Dy2  1  0.306893  0.612717  0.148195  1
  Dy  Dy3  1  0.144045  0.313075  0.605648  1
  Dy  Dy4  1  0.607805  0.127724  0.309997  1
  U  U5  1  0.688659  0.399309  0.864097  1
  U  U6  1  0.002791  0.004631  0.996772  1
  O  O7  1  0.437833  0.181967  0.604329  1
  O  O8  1  0.577503  0.411222  0.153790  1
  O  O9  1  0.180403  0.577903  0.438178  1
  O  O10  1  0.559282  0.822918  0.405543  1
  O  O11  1  0.437471  0.573012  0.823626  1
  O  O12  1  0.808456  0.404692  0.587450  1
  O  O13  1  0.071510  0.320689  0.941884  1
  O  O14  1  0.689256  0.056698  0.922934  1
  O  O15  1  0.062208  0.935245  0.688937  1
  O  O16  1  0.915578  0.679758  0.038939  1
  O  O17  1  0.311770  0.941406  0.075289  1
  O  O18  1  0.948972  0.089843  0.311246  1
