# generated using pymatgen
data_Rb5V3F11
_symmetry_space_group_name_H-M   'P 1'
_cell_length_a   4.31337813
_cell_length_b   4.31338020
_cell_length_c   18.03520300
_cell_angle_alpha   90.09594508
_cell_angle_beta   90.09658272
_cell_angle_gamma   90.01500774
_symmetry_Int_Tables_number   1
_chemical_formula_structural   Rb5V3F11
_chemical_formula_sum   'Rb5 V3 F11'
_cell_volume   335.54831785
_cell_formula_units_Z   1
loop_
 _symmetry_equiv_pos_site_id
 _symmetry_equiv_pos_as_xyz
  1  'x, y, z'
loop_
 _atom_site_type_symbol
 _atom_site_label
 _atom_site_symmetry_multiplicity
 _atom_site_fract_x
 _atom_site_fract_y
 _atom_site_fract_z
 _atom_site_occupancy
  Rb  Rb0  1  0.008461  0.001201  0.730112  1
  Rb  Rb1  1  0.998785  0.991529  0.269888  1
  Rb  Rb2  1  0.509440  0.492805  0.888430  1
  Rb  Rb3  1  0.507224  0.490577  0.111573  1
  Rb  Rb4  1  0.002326  0.997652  0.499999  1
  V  V5  1  0.008423  0.991620  0.000003  1
  V  V6  1  0.506557  0.500675  0.619005  1
  V  V7  1  0.499309  0.493414  0.380993  1
  F  F8  1  0.502422  0.497552  0.499999  1
  F  F9  1  0.008744  0.992716  0.883068  1
  F  F10  1  0.007321  0.991280  0.116933  1
  F  F11  1  0.509293  0.501677  0.735376  1
  F  F12  1  0.498325  0.490688  0.264624  1
  F  F13  1  0.008750  0.491600  0.000003  1
  F  F14  1  0.508447  0.991291  0.999999  1
  F  F15  1  0.006611  0.501431  0.618464  1
  F  F16  1  0.507029  0.000692  0.618480  1
  F  F17  1  0.999290  0.492943  0.381518  1
  F  F18  1  0.498546  0.993356  0.381536  1
