# generated using pymatgen
data_Li4YbY2ErSi8
_symmetry_space_group_name_H-M   'P 1'
_cell_length_a   3.78800900
_cell_length_b   7.69266516
_cell_length_c   10.21375944
_cell_angle_alpha   90.37573512
_cell_angle_beta   90.00000000
_cell_angle_gamma   90.00000000
_symmetry_Int_Tables_number   1
_chemical_formula_structural   Li4YbY2ErSi8
_chemical_formula_sum   'Li4 Yb1 Y2 Er1 Si8'
_cell_volume   297.62137420
_cell_formula_units_Z   1
loop_
 _symmetry_equiv_pos_site_id
 _symmetry_equiv_pos_as_xyz
  1  'x, y, z'
loop_
 _atom_site_type_symbol
 _atom_site_label
 _atom_site_symmetry_multiplicity
 _atom_site_fract_x
 _atom_site_fract_y
 _atom_site_fract_z
 _atom_site_occupancy
  Li  Li0  1  0.250000  0.989320  0.393096  1
  Li  Li1  1  0.750000  0.011958  0.609303  1
  Li  Li2  1  0.250000  0.488333  0.108189  1
  Li  Li3  1  0.750000  0.504726  0.893163  1
  Yb  Yb4  1  0.250000  0.138794  0.864007  1
  Y  Y5  1  0.750000  0.865118  0.135936  1
  Y  Y6  1  0.250000  0.635245  0.633863  1
  Er  Er7  1  0.750000  0.368651  0.363384  1
  Si  Si8  1  0.750000  0.263763  0.072295  1
  Si  Si9  1  0.250000  0.728181  0.931733  1
  Si  Si10  1  0.750000  0.764686  0.432264  1
  Si  Si11  1  0.250000  0.238971  0.562349  1
  Si  Si12  1  0.750000  0.840253  0.821950  1
  Si  Si13  1  0.250000  0.159338  0.185416  1
  Si  Si14  1  0.750000  0.344895  0.675238  1
  Si  Si15  1  0.250000  0.657767  0.317811  1
