# generated using pymatgen
data_Sm2Co3Sb2PbO12
_symmetry_space_group_name_H-M   'P 1'
_cell_length_a   11.26091723
_cell_length_b   11.27152312
_cell_length_c   11.29244100
_cell_angle_alpha   109.38956208
_cell_angle_beta   109.35148008
_cell_angle_gamma   109.57903529
_symmetry_Int_Tables_number   1
_chemical_formula_structural   Sm2Co3Sb2PbO12
_chemical_formula_sum   'Sm8 Co12 Sb8 Pb4 O48'
_cell_volume   1104.64165655
_cell_formula_units_Z   4
loop_
 _symmetry_equiv_pos_site_id
 _symmetry_equiv_pos_as_xyz
  1  'x, y, z'
loop_
 _atom_site_type_symbol
 _atom_site_label
 _atom_site_symmetry_multiplicity
 _atom_site_fract_x
 _atom_site_fract_y
 _atom_site_fract_z
 _atom_site_occupancy
  Sm  Sm0  1  0.375463  0.749257  0.124619  1
  Sm  Sm1  1  0.249166  0.375368  0.124618  1
  Sm  Sm2  1  0.375001  0.125016  0.250031  1
  Sm  Sm3  1  0.873667  0.623668  0.247331  1
  Sm  Sm4  1  0.749790  0.123867  0.375357  1
  Sm  Sm5  1  0.125542  0.251508  0.375392  1
  Sm  Sm6  1  0.873255  0.749758  0.626354  1
  Sm  Sm7  1  0.253143  0.876631  0.626388  1
  Co  Co8  1  0.874815  0.249422  0.124298  1
  Co  Co9  1  0.749491  0.874828  0.124249  1
  Co  Co10  1  0.624716  0.374932  0.251839  1
  Co  Co11  1  0.127172  0.876902  0.251870  1
  Co  Co12  1  0.248039  0.622246  0.373223  1
  Co  Co13  1  0.625175  0.751019  0.373227  1
  Co  Co14  1  0.375336  0.249914  0.626119  1
  Co  Co15  1  0.750787  0.376221  0.626096  1
  Co  Co16  1  0.876271  0.126804  0.749420  1
  Co  Co17  1  0.373127  0.622623  0.749403  1
  Co  Co18  1  0.248191  0.124652  0.875307  1
  Co  Co19  1  0.127116  0.750656  0.875293  1
  Sb  Sb20  1  0.003938  0.003092  0.001040  1
  Sb  Sb21  1  0.497112  0.997914  0.001049  1
  Sb  Sb22  1  0.004121  0.501263  0.005520  1
  Sb  Sb23  1  0.501399  0.504251  0.005502  1
  Sb  Sb24  1  0.997675  0.997718  0.496909  1
  Sb  Sb25  1  0.497188  0.999464  0.496157  1
  Sb  Sb26  1  0.999211  0.499199  0.496898  1
  Sb  Sb27  1  0.498921  0.496692  0.496096  1
  Pb  Pb28  1  0.125784  0.375825  0.751609  1
  Pb  Pb29  1  0.627216  0.877096  0.754308  1
  Pb  Pb30  1  0.627915  0.250640  0.873241  1
  Pb  Pb31  1  0.745332  0.622528  0.873139  1
  O  O32  1  0.203529  0.126593  0.032882  1
  O  O33  1  0.329361  0.906303  0.032884  1
  O  O34  1  0.893432  0.417296  0.094862  1
  O  O35  1  0.701450  0.677544  0.094838  1
  O  O36  1  0.983806  0.672077  0.108240  1
  O  O37  1  0.624439  0.436147  0.108238  1
  O  O38  1  0.031583  0.200727  0.126093  1
  O  O39  1  0.594468  0.925286  0.126024  1
  O  O40  1  0.204734  0.578052  0.173137  1
  O  O41  1  0.468420  0.595105  0.173122  1
  O  O42  1  0.126024  0.028850  0.198744  1
  O  O43  1  0.572736  0.169845  0.198800  1
  O  O44  1  0.468266  0.372783  0.298089  1
  O  O45  1  0.329844  0.925373  0.298127  1
  O  O46  1  0.903628  0.027643  0.327948  1
  O  O47  1  0.924262  0.300273  0.327940  1
  O  O48  1  0.300331  0.469268  0.372934  1
  O  O49  1  0.572590  0.903686  0.372940  1
  O  O50  1  0.830508  0.526315  0.400240  1
  O  O51  1  0.069737  0.873959  0.400288  1
  O  O52  1  0.097389  0.626326  0.427540  1
  O  O53  1  0.830148  0.801223  0.427535  1
  O  O54  1  0.592579  0.171005  0.469147  1
  O  O55  1  0.376543  0.298142  0.469089  1
  O  O56  1  0.392405  0.827631  0.515163  1
  O  O57  1  0.622720  0.687577  0.515176  1
  O  O58  1  0.167776  0.188053  0.562044  1
  O  O59  1  0.894260  0.373991  0.562080  1
  O  O60  1  0.172465  0.474543  0.581804  1
  O  O61  1  0.909318  0.107244  0.581790  1
  O  O62  1  0.407698  0.083345  0.605861  1
  O  O63  1  0.698105  0.522494  0.605767  1
  O  O64  1  0.098750  0.974844  0.668352  1
  O  O65  1  0.069584  0.693515  0.668354  1
  O  O66  1  0.671814  0.078573  0.684640  1
  O  O67  1  0.512779  0.605985  0.684610  1
  O  O68  1  0.895687  0.979886  0.803279  1
  O  O69  1  0.407595  0.823404  0.803273  1
  O  O70  1  0.512770  0.407287  0.828491  1
  O  O71  1  0.815766  0.421224  0.828498  1
  O  O72  1  0.984163  0.812934  0.876422  1
  O  O73  1  0.392307  0.063536  0.876477  1
  O  O74  1  0.392979  0.594379  0.920258  1
  O  O75  1  0.027270  0.325869  0.920287  1
  O  O76  1  0.309715  0.331255  0.937218  1
  O  O77  1  0.127528  0.605952  0.937198  1
  O  O78  1  0.672005  0.093058  0.985711  1
  O  O79  1  0.813661  0.892622  0.985652  1
