# generated using pymatgen
data_LuMn2Nb5B14
_symmetry_space_group_name_H-M   'P 1'
_cell_length_a   3.21468400
_cell_length_b   7.39804394
_cell_length_c   8.92961200
_cell_angle_alpha   90.00000000
_cell_angle_beta   90.00000000
_cell_angle_gamma   77.45150864
_symmetry_Int_Tables_number   1
_chemical_formula_structural   LuMn2Nb5B14
_chemical_formula_sum   'Lu1 Mn2 Nb5 B14'
_cell_volume   207.29443742
_cell_formula_units_Z   1
loop_
 _symmetry_equiv_pos_site_id
 _symmetry_equiv_pos_as_xyz
  1  'x, y, z'
loop_
 _atom_site_type_symbol
 _atom_site_label
 _atom_site_symmetry_multiplicity
 _atom_site_fract_x
 _atom_site_fract_y
 _atom_site_fract_z
 _atom_site_occupancy
  Lu  Lu0  1  0.749929  0.500146  0.250000  1
  Mn  Mn1  1  0.953380  0.093242  0.250000  1
  Mn  Mn2  1  0.047966  0.904069  0.750000  1
  Nb  Nb3  1  0.104463  0.791073  0.048813  1
  Nb  Nb4  1  0.104463  0.791073  0.451186  1
  Nb  Nb5  1  0.894203  0.211596  0.554568  1
  Nb  Nb6  1  0.247005  0.505989  0.750000  1
  Nb  Nb7  1  0.894203  0.211596  0.945433  1
  B  B8  1  0.273905  0.452192  0.029000  1
  B  B9  1  0.484758  0.030485  0.094945  1
  B  B10  1  0.368976  0.262051  0.150983  1
  B  B11  1  0.562818  0.874368  0.250000  1
  B  B12  1  0.368976  0.262051  0.349018  1
  B  B13  1  0.484758  0.030485  0.405055  1
  B  B14  1  0.273905  0.452192  0.471000  1
  B  B15  1  0.727671  0.544661  0.536969  1
  B  B16  1  0.515364  0.969275  0.594210  1
  B  B17  1  0.632013  0.735976  0.652966  1
  B  B18  1  0.436218  0.127563  0.750000  1
  B  B19  1  0.632013  0.735976  0.847033  1
  B  B20  1  0.515364  0.969275  0.905790  1
  B  B21  1  0.727671  0.544661  0.963031  1
