# generated using pymatgen
data_CaNdAl19SiOs4
_symmetry_space_group_name_H-M   'P 1'
_cell_length_a   6.90002096
_cell_length_b   6.88455471
_cell_length_c   9.13974000
_cell_angle_alpha   90.00000000
_cell_angle_beta   90.00000000
_cell_angle_gamma   95.94222801
_symmetry_Int_Tables_number   1
_chemical_formula_structural   CaNdAl19SiOs4
_chemical_formula_sum   'Ca1 Nd1 Al19 Si1 Os4'
_cell_volume   431.83740595
_cell_formula_units_Z   1
loop_
 _symmetry_equiv_pos_site_id
 _symmetry_equiv_pos_as_xyz
  1  'x, y, z'
loop_
 _atom_site_type_symbol
 _atom_site_label
 _atom_site_symmetry_multiplicity
 _atom_site_fract_x
 _atom_site_fract_y
 _atom_site_fract_z
 _atom_site_occupancy
  Ca  Ca0  1  0.872428  0.130361  0.750000  1
  Nd  Nd1  1  0.126839  0.876002  0.250000  1
  Al  Al2  1  0.621947  0.377186  0.550600  1
  Al  Al3  1  0.377986  0.622184  0.451638  1
  Al  Al4  1  0.377986  0.622184  0.048362  1
  Al  Al5  1  0.621947  0.377186  0.949400  1
  Al  Al6  1  0.223900  0.225923  0.501368  1
  Al  Al7  1  0.777045  0.777387  0.502602  1
  Al  Al8  1  0.777045  0.777387  0.997398  1
  Al  Al9  1  0.223900  0.225923  0.998632  1
  Al  Al10  1  0.842066  0.160499  0.099623  1
  Al  Al11  1  0.161182  0.841305  0.896463  1
  Al  Al12  1  0.161182  0.841305  0.603537  1
  Al  Al13  1  0.842066  0.160499  0.400377  1
  Al  Al14  1  0.141676  0.413299  0.250000  1
  Al  Al15  1  0.414569  0.141557  0.750000  1
  Al  Al16  1  0.588722  0.857848  0.250000  1
  Al  Al17  1  0.216536  0.482145  0.750000  1
  Al  Al18  1  0.780551  0.518195  0.250000  1
  Al  Al19  1  0.521836  0.777284  0.750000  1
  Al  Al20  1  0.482231  0.220236  0.250000  1
  Si  Si21  1  0.845975  0.567613  0.750000  1
  Os  Os22  1  0.997749  0.502773  0.504596  1
  Os  Os23  1  0.997749  0.502773  0.995404  1
  Os  Os24  1  0.502441  0.000474  0.998499  1
  Os  Os25  1  0.502441  0.000474  0.501501  1
