# generated using pymatgen
data_Th2Re2Ge2C
_symmetry_space_group_name_H-M   'P 1'
_cell_length_a   4.29507447
_cell_length_b   6.05974255
_cell_length_c   6.06254022
_cell_angle_alpha   94.26685940
_cell_angle_beta   110.74630439
_cell_angle_gamma   110.75630452
_symmetry_Int_Tables_number   1
_chemical_formula_structural   Th2Re2Ge2C
_chemical_formula_sum   'Th2 Re2 Ge2 C1'
_cell_volume   134.32642965
_cell_formula_units_Z   1
loop_
 _symmetry_equiv_pos_site_id
 _symmetry_equiv_pos_as_xyz
  1  'x, y, z'
loop_
 _atom_site_type_symbol
 _atom_site_label
 _atom_site_symmetry_multiplicity
 _atom_site_fract_x
 _atom_site_fract_y
 _atom_site_fract_z
 _atom_site_occupancy
  Th  Th0  1  0.730226  0.168819  0.291636  1
  Th  Th1  1  0.269773  0.831182  0.708363  1
  Re  Re2  1  0.899945  0.695610  0.104280  1
  Re  Re3  1  0.100055  0.304390  0.895720  1
  Ge  Ge4  1  0.456129  0.611494  0.300762  1
  Ge  Ge5  1  0.543871  0.388506  0.699238  1
  C  C6  1  0.000000  0.000000  0.000000  1
