# generated using pymatgen
data_Li2Nd3TmPt3
_symmetry_space_group_name_H-M   'P 1'
_cell_length_a   7.64399800
_cell_length_b   7.56838187
_cell_length_c   4.14522800
_cell_angle_alpha   90.00000000
_cell_angle_beta   90.00000000
_cell_angle_gamma   120.33106430
_symmetry_Int_Tables_number   1
_chemical_formula_structural   Li2Nd3TmPt3
_chemical_formula_sum   'Li2 Nd3 Tm1 Pt3'
_cell_volume   206.98751533
_cell_formula_units_Z   1
loop_
 _symmetry_equiv_pos_site_id
 _symmetry_equiv_pos_as_xyz
  1  'x, y, z'
loop_
 _atom_site_type_symbol
 _atom_site_label
 _atom_site_symmetry_multiplicity
 _atom_site_fract_x
 _atom_site_fract_y
 _atom_site_fract_z
 _atom_site_occupancy
  Li  Li0  1  0.003300  0.242263  0.500000  1
  Li  Li1  1  0.761036  0.757737  0.500000  1
  Nd  Nd2  1  0.415651  0.438760  0.000000  1
  Nd  Nd3  1  0.614270  0.000000  0.000000  1
  Nd  Nd4  1  0.976891  0.561240  0.000000  1
  Tm  Tm5  1  0.242209  0.000000  0.500000  1
  Pt  Pt6  1  0.652433  0.322641  0.500000  1
  Pt  Pt7  1  0.004416  0.000000  0.000000  1
  Pt  Pt8  1  0.329792  0.677359  0.500000  1
