# generated using pymatgen
data_Sc2GaPt3Rh2
_symmetry_space_group_name_H-M   'P 1'
_cell_length_a   5.54169264
_cell_length_b   5.54169286
_cell_length_c   4.12537700
_cell_angle_alpha   90.00000000
_cell_angle_beta   90.00000000
_cell_angle_gamma   95.82453875
_symmetry_Int_Tables_number   1
_chemical_formula_structural   Sc2GaPt3Rh2
_chemical_formula_sum   'Sc2 Ga1 Pt3 Rh2'
_cell_volume   126.03773956
_cell_formula_units_Z   1
loop_
 _symmetry_equiv_pos_site_id
 _symmetry_equiv_pos_as_xyz
  1  'x, y, z'
loop_
 _atom_site_type_symbol
 _atom_site_label
 _atom_site_symmetry_multiplicity
 _atom_site_fract_x
 _atom_site_fract_y
 _atom_site_fract_z
 _atom_site_occupancy
  Sc  Sc0  1  0.725250  0.274750  0.500000  1
  Sc  Sc1  1  0.274750  0.725250  0.500000  1
  Ga  Ga2  1  0.000000  0.000000  0.000000  1
  Pt  Pt3  1  0.500000  0.500000  0.000000  1
  Pt  Pt4  1  0.000000  0.500000  0.000000  1
  Pt  Pt5  1  0.500000  0.000000  0.000000  1
  Rh  Rh6  1  0.218169  0.218169  0.500000  1
  Rh  Rh7  1  0.781831  0.781831  0.500000  1
