# generated using pymatgen
data_KCaSc2CuSe5
_symmetry_space_group_name_H-M   'P 1'
_cell_length_a   7.29880632
_cell_length_b   7.29880591
_cell_length_c   17.28563200
_cell_angle_alpha   90.00000000
_cell_angle_beta   90.00000000
_cell_angle_gamma   148.37462840
_symmetry_Int_Tables_number   1
_chemical_formula_structural   KCaSc2CuSe5
_chemical_formula_sum   'K2 Ca2 Sc4 Cu2 Se10'
_cell_volume   482.85971011
_cell_formula_units_Z   2
loop_
 _symmetry_equiv_pos_site_id
 _symmetry_equiv_pos_as_xyz
  1  'x, y, z'
loop_
 _atom_site_type_symbol
 _atom_site_label
 _atom_site_symmetry_multiplicity
 _atom_site_fract_x
 _atom_site_fract_y
 _atom_site_fract_z
 _atom_site_occupancy
  K  K0  1  0.520152  0.479848  0.250000  1
  K  K1  1  0.479848  0.520152  0.750000  1
  Ca  Ca2  1  0.000000  0.000000  0.000000  1
  Ca  Ca3  1  0.000000  0.000000  0.500000  1
  Sc  Sc4  1  0.729729  0.270271  0.603432  1
  Sc  Sc5  1  0.270271  0.729729  0.396568  1
  Sc  Sc6  1  0.270271  0.729729  0.103432  1
  Sc  Sc7  1  0.729729  0.270271  0.896568  1
  Cu  Cu8  1  0.793812  0.206188  0.250000  1
  Cu  Cu9  1  0.206188  0.793812  0.750000  1
  Se  Se10  1  0.648269  0.351731  0.048547  1
  Se  Se11  1  0.351731  0.648269  0.951453  1
  Se  Se12  1  0.351731  0.648269  0.548547  1
  Se  Se13  1  0.648269  0.351731  0.451453  1
  Se  Se14  1  0.893277  0.106723  0.137114  1
  Se  Se15  1  0.106723  0.893277  0.862886  1
  Se  Se16  1  0.106723  0.893277  0.637114  1
  Se  Se17  1  0.893277  0.106723  0.362886  1
  Se  Se18  1  0.195626  0.804374  0.250000  1
  Se  Se19  1  0.804374  0.195626  0.750000  1
