# generated using pymatgen
data_PrDyNp8O20
_symmetry_space_group_name_H-M   'P 1'
_cell_length_a   6.61046442
_cell_length_b   7.64909274
_cell_length_c   8.54587902
_cell_angle_alpha   103.02715062
_cell_angle_beta   97.32538761
_cell_angle_gamma   106.81511671
_symmetry_Int_Tables_number   1
_chemical_formula_structural   PrDyNp8O20
_chemical_formula_sum   'Pr1 Dy1 Np8 O20'
_cell_volume   394.29516622
_cell_formula_units_Z   1
loop_
 _symmetry_equiv_pos_site_id
 _symmetry_equiv_pos_as_xyz
  1  'x, y, z'
loop_
 _atom_site_type_symbol
 _atom_site_label
 _atom_site_symmetry_multiplicity
 _atom_site_fract_x
 _atom_site_fract_y
 _atom_site_fract_z
 _atom_site_occupancy
  Pr  Pr0  1  0.800753  0.601467  0.601763  1
  Dy  Dy1  1  0.000209  0.000107  0.000307  1
  Np  Np2  1  0.001767  0.500408  0.001353  1
  Np  Np3  1  0.599493  0.198988  0.198297  1
  Np  Np4  1  0.799138  0.099689  0.601042  1
  Np  Np5  1  0.600846  0.700309  0.198593  1
  Np  Np6  1  0.199391  0.398024  0.398559  1
  Np  Np7  1  0.398028  0.298684  0.800636  1
  Np  Np8  1  0.200155  0.901138  0.398615  1
  Np  Np9  1  0.400216  0.801360  0.801042  1
  O  O10  1  0.851960  0.311697  0.444652  1
  O  O11  1  0.644162  0.923365  0.054426  1
  O  O12  1  0.948123  0.768786  0.152004  1
  O  O13  1  0.851993  0.836126  0.444267  1
  O  O14  1  0.433832  0.518838  0.653273  1
  O  O15  1  0.650406  0.426332  0.049920  1
  O  O16  1  0.745709  0.364019  0.756854  1
  O  O17  1  0.252419  0.124908  0.254095  1
  O  O18  1  0.444459  0.026493  0.646980  1
  O  O19  1  0.949410  0.281126  0.150546  1
  O  O20  1  0.545871  0.973149  0.351018  1
  O  O21  1  0.065151  0.724993  0.858408  1
  O  O22  1  0.250878  0.626464  0.246884  1
  O  O23  1  0.740779  0.886026  0.752801  1
  O  O24  1  0.355123  0.573747  0.953484  1
  O  O25  1  0.055933  0.231189  0.847733  1
  O  O26  1  0.540420  0.470466  0.338821  1
  O  O27  1  0.151371  0.173499  0.550775  1
  O  O28  1  0.357852  0.079415  0.948790  1
  O  O29  1  0.164155  0.679190  0.544061  1
