# generated using pymatgen
data_Li4Nd3SmSi8
_symmetry_space_group_name_H-M   'P 1'
_cell_length_a   3.86458200
_cell_length_b   7.69518867
_cell_length_c   10.47646235
_cell_angle_alpha   89.99555138
_cell_angle_beta   90.00000000
_cell_angle_gamma   90.00000000
_symmetry_Int_Tables_number   1
_chemical_formula_structural   Li4Nd3SmSi8
_chemical_formula_sum   'Li4 Nd3 Sm1 Si8'
_cell_volume   311.55624042
_cell_formula_units_Z   1
loop_
 _symmetry_equiv_pos_site_id
 _symmetry_equiv_pos_as_xyz
  1  'x, y, z'
loop_
 _atom_site_type_symbol
 _atom_site_label
 _atom_site_symmetry_multiplicity
 _atom_site_fract_x
 _atom_site_fract_y
 _atom_site_fract_z
 _atom_site_occupancy
  Li  Li0  1  0.250000  0.992244  0.390304  1
  Li  Li1  1  0.250000  0.496566  0.109795  1
  Li  Li2  1  0.750000  0.004159  0.608580  1
  Li  Li3  1  0.750000  0.504892  0.889527  1
  Nd  Nd4  1  0.250000  0.140255  0.866507  1
  Nd  Nd5  1  0.250000  0.637883  0.633729  1
  Nd  Nd6  1  0.750000  0.862504  0.134501  1
  Sm  Sm7  1  0.750000  0.362191  0.366375  1
  Si  Si8  1  0.250000  0.226081  0.569822  1
  Si  Si9  1  0.250000  0.726796  0.928086  1
  Si  Si10  1  0.750000  0.770697  0.428014  1
  Si  Si11  1  0.750000  0.276154  0.073985  1
  Si  Si12  1  0.250000  0.660344  0.321370  1
  Si  Si13  1  0.250000  0.165205  0.180837  1
  Si  Si14  1  0.750000  0.336140  0.676935  1
  Si  Si15  1  0.750000  0.837892  0.821632  1
