# generated using pymatgen
data_Tb4HoEr5Ru4
_symmetry_space_group_name_H-M   'P 1'
_cell_length_a   6.32619778
_cell_length_b   7.25445304
_cell_length_c   8.44496015
_cell_angle_alpha   96.76158809
_cell_angle_beta   112.05551675
_cell_angle_gamma   89.89694976
_symmetry_Int_Tables_number   1
_chemical_formula_structural   Tb4HoEr5Ru4
_chemical_formula_sum   'Tb4 Ho1 Er5 Ru4'
_cell_volume   356.32624947
_cell_formula_units_Z   1
loop_
 _symmetry_equiv_pos_site_id
 _symmetry_equiv_pos_as_xyz
  1  'x, y, z'
loop_
 _atom_site_type_symbol
 _atom_site_label
 _atom_site_symmetry_multiplicity
 _atom_site_fract_x
 _atom_site_fract_y
 _atom_site_fract_z
 _atom_site_occupancy
  Tb  Tb0  1  0.790077  0.583695  0.812345  1
  Tb  Tb1  1  0.977119  0.916175  0.187558  1
  Tb  Tb2  1  0.210155  0.416109  0.187631  1
  Tb  Tb3  1  0.022652  0.083987  0.812438  1
  Ho  Ho4  1  0.205409  0.685243  0.565727  1
  Er  Er5  1  0.639871  0.815242  0.434364  1
  Er  Er6  1  0.794488  0.314856  0.434194  1
  Er  Er7  1  0.360156  0.184851  0.565458  1
  Er  Er8  1  0.420131  0.749741  0.000092  1
  Er  Er9  1  0.580110  0.250256  0.000157  1
  Ru  Ru10  1  0.601125  0.924789  0.778892  1
  Ru  Ru11  1  0.821626  0.575997  0.220829  1
  Ru  Ru12  1  0.399141  0.075351  0.221255  1
  Ru  Ru13  1  0.177940  0.423709  0.779062  1
