# generated using pymatgen
data_ScPa(AlPt)2
_symmetry_space_group_name_H-M   'P 1'
_cell_length_a   7.05092444
_cell_length_b   7.03443627
_cell_length_c   7.96348000
_cell_angle_alpha   90.00000000
_cell_angle_beta   90.00000000
_cell_angle_gamma   119.98246725
_symmetry_Int_Tables_number   1
_chemical_formula_structural   ScPa(AlPt)2
_chemical_formula_sum   'Sc3 Pa3 Al6 Pt6'
_cell_volume   342.12561074
_cell_formula_units_Z   3
loop_
 _symmetry_equiv_pos_site_id
 _symmetry_equiv_pos_as_xyz
  1  'x, y, z'
loop_
 _atom_site_type_symbol
 _atom_site_label
 _atom_site_symmetry_multiplicity
 _atom_site_fract_x
 _atom_site_fract_y
 _atom_site_fract_z
 _atom_site_occupancy
  Sc  Sc0  1  0.592652  0.998250  0.250000  1
  Sc  Sc1  1  0.414890  0.411631  0.250000  1
  Sc  Sc2  1  0.407022  0.408580  0.750000  1
  Pa  Pa3  1  0.999231  0.581678  0.750000  1
  Pa  Pa4  1  0.000995  0.577316  0.250000  1
  Pa  Pa5  1  0.575841  0.999979  0.750000  1
  Al  Al6  1  0.005939  0.238666  0.498286  1
  Al  Al7  1  0.746676  0.753146  0.003139  1
  Al  Al8  1  0.005939  0.238666  0.001714  1
  Al  Al9  1  0.249963  0.012608  0.492818  1
  Al  Al10  1  0.249963  0.012608  0.007182  1
  Al  Al11  1  0.746676  0.753146  0.496861  1
  Pt  Pt12  1  0.330425  0.671885  0.496742  1
  Pt  Pt13  1  0.672048  0.336859  0.498323  1
  Pt  Pt14  1  0.672048  0.336859  0.001677  1
  Pt  Pt15  1  0.999942  0.998514  0.250000  1
  Pt  Pt16  1  0.999322  0.997722  0.750000  1
  Pt  Pt17  1  0.330425  0.671885  0.003258  1
