# generated using pymatgen
data_MgSc2AlAu2
_symmetry_space_group_name_H-M   'P 1'
_cell_length_a   7.32301100
_cell_length_b   7.32301163
_cell_length_c   7.58023900
_cell_angle_alpha   90.00000000
_cell_angle_beta   90.00000000
_cell_angle_gamma   120.00000166
_symmetry_Int_Tables_number   1
_chemical_formula_structural   MgSc2AlAu2
_chemical_formula_sum   'Mg3 Sc6 Al3 Au6'
_cell_volume   352.04074697
_cell_formula_units_Z   3
loop_
 _symmetry_equiv_pos_site_id
 _symmetry_equiv_pos_as_xyz
  1  'x, y, z'
loop_
 _atom_site_type_symbol
 _atom_site_label
 _atom_site_symmetry_multiplicity
 _atom_site_fract_x
 _atom_site_fract_y
 _atom_site_fract_z
 _atom_site_occupancy
  Mg  Mg0  1  0.748941  0.748941  0.000000  1
  Mg  Mg1  1  0.251059  0.000000  0.000000  1
  Mg  Mg2  1  0.000000  0.251059  0.000000  1
  Sc  Sc3  1  0.588743  0.986446  0.740771  1
  Sc  Sc4  1  0.013554  0.602297  0.740771  1
  Sc  Sc5  1  0.397703  0.411257  0.740771  1
  Sc  Sc6  1  0.986446  0.588743  0.259229  1
  Sc  Sc7  1  0.602297  0.013554  0.259229  1
  Sc  Sc8  1  0.411257  0.397703  0.259229  1
  Al  Al9  1  0.728753  0.728753  0.500000  1
  Al  Al10  1  0.271247  0.000000  0.500000  1
  Al  Al11  1  0.000000  0.271247  0.500000  1
  Au  Au12  1  0.000000  0.000000  0.726728  1
  Au  Au13  1  0.000000  0.000000  0.273272  1
  Au  Au14  1  0.666667  0.333333  0.982582  1
  Au  Au15  1  0.666667  0.333333  0.519581  1
  Au  Au16  1  0.333333  0.666667  0.480419  1
  Au  Au17  1  0.333333  0.666667  0.017418  1
