# generated using pymatgen
data_Ta9Nb(SiB2)2
_symmetry_space_group_name_H-M   'P 1'
_cell_length_a   7.30611020
_cell_length_b   7.30328773
_cell_length_c   7.30288120
_cell_angle_alpha   129.37886877
_cell_angle_beta   129.38931424
_cell_angle_gamma   74.41215978
_symmetry_Int_Tables_number   1
_chemical_formula_structural   Ta9Nb(SiB2)2
_chemical_formula_sum   'Ta9 Nb1 Si2 B4'
_cell_volume   226.86335308
_cell_formula_units_Z   1
loop_
 _symmetry_equiv_pos_site_id
 _symmetry_equiv_pos_as_xyz
  1  'x, y, z'
loop_
 _atom_site_type_symbol
 _atom_site_label
 _atom_site_symmetry_multiplicity
 _atom_site_fract_x
 _atom_site_fract_y
 _atom_site_fract_z
 _atom_site_occupancy
  Ta  Ta0  1  0.000120  0.999848  0.999558  1
  Ta  Ta1  1  0.500561  0.500290  0.000441  1
  Ta  Ta2  1  0.805659  0.305806  0.834377  1
  Ta  Ta3  1  0.194559  0.694125  0.164799  1
  Ta  Ta4  1  0.471280  0.971429  0.165621  1
  Ta  Ta5  1  0.305314  0.471532  0.499997  1
  Ta  Ta6  1  0.029000  0.193992  0.500001  1
  Ta  Ta7  1  0.529758  0.029327  0.835201  1
  Ta  Ta8  1  0.694318  0.528581  0.500002  1
  Nb  Nb9  1  0.970804  0.806088  0.499999  1
  Si  Si10  1  0.250167  0.250016  0.000046  1
  Si  Si11  1  0.750122  0.749970  0.999955  1
  B  B12  1  0.117191  0.616032  0.734244  1
  B  B13  1  0.882948  0.381787  0.265758  1
  B  B14  1  0.615107  0.884132  0.500001  1
  B  B15  1  0.383091  0.117044  0.500000  1
