# generated using pymatgen
data_Zr4In2CuNi2Ir
_symmetry_space_group_name_H-M   'P 1'
_cell_length_a   7.35636300
_cell_length_b   7.35636263
_cell_length_c   6.72946330
_cell_angle_alpha   90.11314749
_cell_angle_beta   89.88685183
_cell_angle_gamma   90.38919725
_symmetry_Int_Tables_number   1
_chemical_formula_structural   Zr4In2CuNi2Ir
_chemical_formula_sum   'Zr8 In4 Cu2 Ni4 Ir2'
_cell_volume   364.16232075
_cell_formula_units_Z   2
loop_
 _symmetry_equiv_pos_site_id
 _symmetry_equiv_pos_as_xyz
  1  'x, y, z'
loop_
 _atom_site_type_symbol
 _atom_site_label
 _atom_site_symmetry_multiplicity
 _atom_site_fract_x
 _atom_site_fract_y
 _atom_site_fract_z
 _atom_site_occupancy
  Zr  Zr0  1  0.664309  0.664309  0.500000  1
  Zr  Zr1  1  0.826316  0.173684  0.496856  1
  Zr  Zr2  1  0.684219  0.684219  0.000000  1
  Zr  Zr3  1  0.844360  0.155640  0.006579  1
  Zr  Zr4  1  0.173684  0.826316  0.503144  1
  Zr  Zr5  1  0.315781  0.315781  0.000000  1
  Zr  Zr6  1  0.155640  0.844360  0.993421  1
  Zr  Zr7  1  0.335691  0.335691  0.500000  1
  In  In8  1  0.001860  0.502359  0.249554  1
  In  In9  1  0.502359  0.001860  0.750446  1
  In  In10  1  0.497641  0.998140  0.249554  1
  In  In11  1  0.998140  0.497641  0.750446  1
  Cu  Cu12  1  0.631866  0.368134  0.778728  1
  Cu  Cu13  1  0.368134  0.631866  0.221272  1
  Ni  Ni14  1  0.877727  0.876881  0.726769  1
  Ni  Ni15  1  0.122273  0.123119  0.273231  1
  Ni  Ni16  1  0.876881  0.877727  0.273231  1
  Ni  Ni17  1  0.123119  0.122273  0.726769  1
  Ir  Ir18  1  0.621485  0.378515  0.235366  1
  Ir  Ir19  1  0.378515  0.621485  0.764634  1
