# generated using pymatgen
data_Hf2Zr3NiAs3
_symmetry_space_group_name_H-M   'P 1'
_cell_length_a   3.72085600
_cell_length_b   10.51256600
_cell_length_c   17.54384000
_cell_angle_alpha   90.00000000
_cell_angle_beta   90.00000000
_cell_angle_gamma   90.00000000
_symmetry_Int_Tables_number   1
_chemical_formula_structural   Hf2Zr3NiAs3
_chemical_formula_sum   'Hf8 Zr12 Ni4 As12'
_cell_volume   686.24035907
_cell_formula_units_Z   4
loop_
 _symmetry_equiv_pos_site_id
 _symmetry_equiv_pos_as_xyz
  1  'x, y, z'
loop_
 _atom_site_type_symbol
 _atom_site_label
 _atom_site_symmetry_multiplicity
 _atom_site_fract_x
 _atom_site_fract_y
 _atom_site_fract_z
 _atom_site_occupancy
  Hf  Hf0  1  0.250000  0.243449  0.168748  1
  Hf  Hf1  1  0.750000  0.756551  0.831252  1
  Hf  Hf2  1  0.750000  0.743449  0.331252  1
  Hf  Hf3  1  0.250000  0.256551  0.668748  1
  Hf  Hf4  1  0.250000  0.514363  0.275164  1
  Hf  Hf5  1  0.750000  0.485637  0.724836  1
  Hf  Hf6  1  0.750000  0.014363  0.224836  1
  Hf  Hf7  1  0.250000  0.985637  0.775164  1
  Zr  Zr8  1  0.250000  0.185586  0.366935  1
  Zr  Zr9  1  0.750000  0.814414  0.633065  1
  Zr  Zr10  1  0.750000  0.685586  0.133065  1
  Zr  Zr11  1  0.250000  0.314414  0.866935  1
  Zr  Zr12  1  0.250000  0.880278  0.477631  1
  Zr  Zr13  1  0.750000  0.119722  0.522369  1
  Zr  Zr14  1  0.750000  0.380278  0.022369  1
  Zr  Zr15  1  0.250000  0.619722  0.977631  1
  Zr  Zr16  1  0.250000  0.939097  0.077904  1
  Zr  Zr17  1  0.750000  0.060903  0.922096  1
  Zr  Zr18  1  0.750000  0.439097  0.422096  1
  Zr  Zr19  1  0.250000  0.560903  0.577904  1
  Ni  Ni20  1  0.250000  0.631902  0.408880  1
  Ni  Ni21  1  0.750000  0.368098  0.591120  1
  Ni  Ni22  1  0.750000  0.131902  0.091120  1
  Ni  Ni23  1  0.250000  0.868098  0.908880  1
  As  As24  1  0.250000  0.490954  0.119487  1
  As  As25  1  0.750000  0.509046  0.880513  1
  As  As26  1  0.750000  0.990954  0.380513  1
  As  As27  1  0.250000  0.009046  0.619487  1
  As  As28  1  0.250000  0.815367  0.220662  1
  As  As29  1  0.750000  0.184633  0.779338  1
  As  As30  1  0.750000  0.315367  0.279338  1
  As  As31  1  0.250000  0.684633  0.720662  1
  As  As32  1  0.250000  0.188266  0.008954  1
  As  As33  1  0.750000  0.811734  0.991046  1
  As  As34  1  0.750000  0.688266  0.491046  1
  As  As35  1  0.250000  0.311734  0.508954  1
