# generated using pymatgen
data_Sr4Cd4Hg3Pb
_symmetry_space_group_name_H-M   'P 1'
_cell_length_a   5.02553100
_cell_length_b   8.04502338
_cell_length_c   8.98418076
_cell_angle_alpha   90.32097243
_cell_angle_beta   90.00000000
_cell_angle_gamma   90.00000000
_symmetry_Int_Tables_number   1
_chemical_formula_structural   Sr4Cd4Hg3Pb
_chemical_formula_sum   'Sr4 Cd4 Hg3 Pb1'
_cell_volume   363.22935009
_cell_formula_units_Z   1
loop_
 _symmetry_equiv_pos_site_id
 _symmetry_equiv_pos_as_xyz
  1  'x, y, z'
loop_
 _atom_site_type_symbol
 _atom_site_label
 _atom_site_symmetry_multiplicity
 _atom_site_fract_x
 _atom_site_fract_y
 _atom_site_fract_z
 _atom_site_occupancy
  Sr  Sr0  1  0.250000  0.997497  0.298246  1
  Sr  Sr1  1  0.250000  0.509536  0.208885  1
  Sr  Sr2  1  0.750000  0.992494  0.704979  1
  Sr  Sr3  1  0.750000  0.499042  0.789878  1
  Cd  Cd4  1  0.250000  0.192030  0.911968  1
  Cd  Cd5  1  0.250000  0.690187  0.578707  1
  Cd  Cd6  1  0.750000  0.807364  0.076740  1
  Cd  Cd7  1  0.750000  0.312609  0.429012  1
  Hg  Hg8  1  0.250000  0.290536  0.591995  1
  Hg  Hg9  1  0.250000  0.789902  0.904808  1
  Hg  Hg10  1  0.750000  0.712558  0.406901  1
  Pb  Pb11  1  0.750000  0.206245  0.097882  1
