# generated using pymatgen
data_Nd8ReMo(OsC4)2
_symmetry_space_group_name_H-M   'P 1'
_cell_length_a   5.36103200
_cell_length_b   6.71356045
_cell_length_c   10.21864313
_cell_angle_alpha   90.22119334
_cell_angle_beta   90.00000000
_cell_angle_gamma   90.00000000
_symmetry_Int_Tables_number   1
_chemical_formula_structural   Nd8ReMo(OsC4)2
_chemical_formula_sum   'Nd8 Re1 Mo1 Os2 C8'
_cell_volume   367.78270195
_cell_formula_units_Z   1
loop_
 _symmetry_equiv_pos_site_id
 _symmetry_equiv_pos_as_xyz
  1  'x, y, z'
loop_
 _atom_site_type_symbol
 _atom_site_label
 _atom_site_symmetry_multiplicity
 _atom_site_fract_x
 _atom_site_fract_y
 _atom_site_fract_z
 _atom_site_occupancy
  Nd  Nd0  1  0.250000  0.472864  0.786457  1
  Nd  Nd1  1  0.750000  0.029561  0.284811  1
  Nd  Nd2  1  0.250000  0.973140  0.710829  1
  Nd  Nd3  1  0.750000  0.525379  0.211879  1
  Nd  Nd4  1  0.250000  0.813631  0.050478  1
  Nd  Nd5  1  0.750000  0.684852  0.551493  1
  Nd  Nd6  1  0.250000  0.311911  0.448208  1
  Nd  Nd7  1  0.750000  0.188149  0.947892  1
  Re  Re8  1  0.750000  0.730662  0.857425  1
  Mo  Mo9  1  0.250000  0.770815  0.359002  1
  Os  Os10  1  0.250000  0.270039  0.141127  1
  Os  Os11  1  0.750000  0.229835  0.643150  1
  C  C12  1  0.250000  0.684498  0.542082  1
  C  C13  1  0.750000  0.813325  0.037874  1
  C  C14  1  0.250000  0.186513  0.962150  1
  C  C15  1  0.750000  0.312278  0.465196  1
  C  C16  1  0.250000  0.038701  0.256787  1
  C  C17  1  0.750000  0.465674  0.759126  1
  C  C18  1  0.250000  0.530979  0.240788  1
  C  C19  1  0.750000  0.967195  0.743249  1
