# generated using pymatgen
data_Sm2Al2Ru2C
_symmetry_space_group_name_H-M   'P 1'
_cell_length_a   6.08296207
_cell_length_b   6.08296187
_cell_length_c   7.25415602
_cell_angle_alpha   127.32852560
_cell_angle_beta   127.32852286
_cell_angle_gamma   40.47049291
_symmetry_Int_Tables_number   1
_chemical_formula_structural   Sm2Al2Ru2C
_chemical_formula_sum   'Sm2 Al2 Ru2 C1'
_cell_volume   132.94898621
_cell_formula_units_Z   1
loop_
 _symmetry_equiv_pos_site_id
 _symmetry_equiv_pos_as_xyz
  1  'x, y, z'
loop_
 _atom_site_type_symbol
 _atom_site_label
 _atom_site_symmetry_multiplicity
 _atom_site_fract_x
 _atom_site_fract_y
 _atom_site_fract_z
 _atom_site_occupancy
  Sm  Sm0  1  0.558303  0.558303  0.287362  1
  Sm  Sm1  1  0.441698  0.441698  0.712639  1
  Al  Al2  1  0.840802  0.840802  0.286442  1
  Al  Al3  1  0.159198  0.159198  0.713557  1
  Ru  Ru4  1  0.197232  0.197232  0.094662  1
  Ru  Ru5  1  0.802768  0.802768  0.905340  1
  C  C6  1  0.000000  0.000000  0.000000  1
