# generated using pymatgen
data_Yb2DyY3(SiIr2)6
_symmetry_space_group_name_H-M   'P 1'
_cell_length_a   5.57695800
_cell_length_b   5.57695910
_cell_length_c   15.13748500
_cell_angle_alpha   90.00000000
_cell_angle_beta   90.00000000
_cell_angle_gamma   120.00000532
_symmetry_Int_Tables_number   1
_chemical_formula_structural   Yb2DyY3(SiIr2)6
_chemical_formula_sum   'Yb2 Dy1 Y3 Si6 Ir12'
_cell_volume   407.73610300
_cell_formula_units_Z   1
loop_
 _symmetry_equiv_pos_site_id
 _symmetry_equiv_pos_as_xyz
  1  'x, y, z'
loop_
 _atom_site_type_symbol
 _atom_site_label
 _atom_site_symmetry_multiplicity
 _atom_site_fract_x
 _atom_site_fract_y
 _atom_site_fract_z
 _atom_site_occupancy
  Yb  Yb0  1  0.333333  0.666667  0.749975  1
  Yb  Yb1  1  0.666667  0.333333  0.249991  1
  Dy  Dy2  1  0.333333  0.666667  0.542861  1
  Y  Y3  1  0.666667  0.333333  0.457113  1
  Y  Y4  1  0.666667  0.333333  0.042878  1
  Y  Y5  1  0.333333  0.666667  0.957095  1
  Si  Si6  1  0.000000  0.000000  0.250012  1
  Si  Si7  1  0.000000  0.000000  0.750029  1
  Si  Si8  1  0.333333  0.666667  0.249993  1
  Si  Si9  1  0.666667  0.333333  0.750011  1
  Si  Si10  1  0.000000  0.000000  0.999979  1
  Si  Si11  1  0.000000  0.000000  0.500012  1
  Ir  Ir12  1  0.167658  0.335316  0.129667  1
  Ir  Ir13  1  0.832324  0.664648  0.870338  1
  Ir  Ir14  1  0.664684  0.832342  0.129667  1
  Ir  Ir15  1  0.832347  0.664694  0.629610  1
  Ir  Ir16  1  0.335352  0.167676  0.870338  1
  Ir  Ir17  1  0.167695  0.335390  0.370403  1
  Ir  Ir18  1  0.167658  0.832342  0.129667  1
  Ir  Ir19  1  0.335306  0.167653  0.629610  1
  Ir  Ir20  1  0.832324  0.167676  0.870338  1
  Ir  Ir21  1  0.664610  0.832305  0.370403  1
  Ir  Ir22  1  0.832347  0.167653  0.629610  1
  Ir  Ir23  1  0.167695  0.832305  0.370403  1
