# generated using pymatgen
data_Er6AlCuOs
_symmetry_space_group_name_H-M   'P 1'
_cell_length_a   8.35902125
_cell_length_b   8.35902232
_cell_length_c   8.35902235
_cell_angle_alpha   112.92895283
_cell_angle_beta   110.86314393
_cell_angle_gamma   104.73055013
_symmetry_Int_Tables_number   1
_chemical_formula_structural   Er6AlCuOs
_chemical_formula_sum   'Er12 Al2 Cu2 Os2'
_cell_volume   447.17643977
_cell_formula_units_Z   2
loop_
 _symmetry_equiv_pos_site_id
 _symmetry_equiv_pos_as_xyz
  1  'x, y, z'
loop_
 _atom_site_type_symbol
 _atom_site_label
 _atom_site_symmetry_multiplicity
 _atom_site_fract_x
 _atom_site_fract_y
 _atom_site_fract_z
 _atom_site_occupancy
  Er  Er0  1  0.048559  0.741371  0.307189  1
  Er  Er1  1  0.951441  0.258629  0.692811  1
  Er  Er2  1  0.565818  0.258629  0.307189  1
  Er  Er3  1  0.434182  0.741371  0.692811  1
  Er  Er4  1  0.666516  0.856080  0.189563  1
  Er  Er5  1  0.333484  0.523047  0.189563  1
  Er  Er6  1  0.333484  0.143920  0.810437  1
  Er  Er7  1  0.666516  0.476953  0.810437  1
  Er  Er8  1  0.184498  0.225163  0.409661  1
  Er  Er9  1  0.815502  0.225163  0.040665  1
  Er  Er10  1  0.184498  0.774837  0.959335  1
  Er  Er11  1  0.815502  0.774837  0.590339  1
  Al  Al12  1  0.000000  0.500000  0.500000  1
  Al  Al13  1  0.500000  0.000000  0.500000  1
  Cu  Cu14  1  0.880729  0.880729  0.000000  1
  Cu  Cu15  1  0.119271  0.119271  0.000000  1
  Os  Os16  1  0.673179  0.500000  0.173179  1
  Os  Os17  1  0.326821  0.500000  0.826821  1
