# generated using pymatgen
data_Zn3GaP7N12
_symmetry_space_group_name_H-M   'P 1'
_cell_length_a   7.14377234
_cell_length_b   7.12273218
_cell_length_c   7.14377287
_cell_angle_alpha   109.41156798
_cell_angle_beta   109.53080638
_cell_angle_gamma   109.41157747
_symmetry_Int_Tables_number   1
_chemical_formula_structural   Zn3GaP7N12
_chemical_formula_sum   'Zn3 Ga1 P7 N12'
_cell_volume   280.02649071
_cell_formula_units_Z   1
loop_
 _symmetry_equiv_pos_site_id
 _symmetry_equiv_pos_as_xyz
  1  'x, y, z'
loop_
 _atom_site_type_symbol
 _atom_site_label
 _atom_site_symmetry_multiplicity
 _atom_site_fract_x
 _atom_site_fract_y
 _atom_site_fract_z
 _atom_site_occupancy
  Zn  Zn0  1  0.676776  0.678861  0.676776  1
  Zn  Zn1  1  0.323224  0.002085  0.000000  1
  Zn  Zn2  1  0.000000  0.002085  0.323224  1
  Ga  Ga3  1  0.000000  0.332897  0.000000  1
  P  P4  1  0.750886  0.248922  0.498973  1
  P  P5  1  0.251913  0.749949  0.501027  1
  P  P6  1  0.501027  0.749949  0.251913  1
  P  P7  1  0.498973  0.248922  0.750886  1
  P  P8  1  0.748087  0.498037  0.249114  1
  P  P9  1  0.249114  0.498037  0.748087  1
  P  P10  1  0.000000  0.006598  0.000000  1
  N  N11  1  0.555375  0.267912  0.000000  1
  N  N12  1  0.448627  0.448002  0.720366  1
  N  N13  1  0.000000  0.267912  0.555375  1
  N  N14  1  0.271739  0.999376  0.551373  1
  N  N15  1  0.720366  0.448002  0.448627  1
  N  N16  1  0.000000  0.550501  0.266238  1
  N  N17  1  0.551373  0.999376  0.271739  1
  N  N18  1  0.444625  0.712537  0.444625  1
  N  N19  1  0.266238  0.550501  0.000000  1
  N  N20  1  0.733762  0.284263  0.733762  1
  N  N21  1  0.728261  0.727637  0.279634  1
  N  N22  1  0.279634  0.727637  0.728261  1
