# generated using pymatgen
data_Tm16AlHg3Pt4
_symmetry_space_group_name_H-M   'P 1'
_cell_length_a   9.49623673
_cell_length_b   9.49623619
_cell_length_c   9.49623598
_cell_angle_alpha   60.08734438
_cell_angle_beta   60.08734548
_cell_angle_gamma   60.08734437
_symmetry_Int_Tables_number   1
_chemical_formula_structural   Tm16AlHg3Pt4
_chemical_formula_sum   'Tm16 Al1 Hg3 Pt4'
_cell_volume   606.73389859
_cell_formula_units_Z   1
loop_
 _symmetry_equiv_pos_site_id
 _symmetry_equiv_pos_as_xyz
  1  'x, y, z'
loop_
 _atom_site_type_symbol
 _atom_site_label
 _atom_site_symmetry_multiplicity
 _atom_site_fract_x
 _atom_site_fract_y
 _atom_site_fract_z
 _atom_site_occupancy
  Tm  Tm0  1  0.351646  0.351646  0.351646  1
  Tm  Tm1  1  0.358405  0.358405  0.931684  1
  Tm  Tm2  1  0.358405  0.931684  0.358405  1
  Tm  Tm3  1  0.931684  0.358405  0.358405  1
  Tm  Tm4  1  0.810233  0.190236  0.190236  1
  Tm  Tm5  1  0.194522  0.808674  0.808674  1
  Tm  Tm6  1  0.190236  0.810233  0.190236  1
  Tm  Tm7  1  0.808674  0.194522  0.808674  1
  Tm  Tm8  1  0.190236  0.190236  0.810233  1
  Tm  Tm9  1  0.808674  0.808674  0.194522  1
  Tm  Tm10  1  0.933031  0.566573  0.566573  1
  Tm  Tm11  1  0.562845  0.937690  0.937690  1
  Tm  Tm12  1  0.566573  0.933031  0.566573  1
  Tm  Tm13  1  0.937690  0.562845  0.937690  1
  Tm  Tm14  1  0.566573  0.566573  0.933031  1
  Tm  Tm15  1  0.937690  0.937690  0.562845  1
  Al  Al16  1  0.581348  0.581348  0.581348  1
  Hg  Hg17  1  0.585990  0.585990  0.241748  1
  Hg  Hg18  1  0.585990  0.241748  0.585990  1
  Hg  Hg19  1  0.241748  0.585990  0.585990  1
  Pt  Pt20  1  0.145194  0.145194  0.145194  1
  Pt  Pt21  1  0.141480  0.141480  0.569657  1
  Pt  Pt22  1  0.141480  0.569657  0.141480  1
  Pt  Pt23  1  0.569657  0.141480  0.141480  1
