# generated using pymatgen
data_Rb3Ta2Te8Au3
_symmetry_space_group_name_H-M   'P 1'
_cell_length_a   14.03462555
_cell_length_b   14.03462489
_cell_length_c   16.72689940
_cell_angle_alpha   59.81666745
_cell_angle_beta   59.81666836
_cell_angle_gamma   25.81302609
_symmetry_Int_Tables_number   1
_chemical_formula_structural   Rb3Ta2Te8Au3
_chemical_formula_sum   'Rb6 Ta4 Te16 Au6'
_cell_volume   1229.06430868
_cell_formula_units_Z   2
loop_
 _symmetry_equiv_pos_site_id
 _symmetry_equiv_pos_as_xyz
  1  'x, y, z'
loop_
 _atom_site_type_symbol
 _atom_site_label
 _atom_site_symmetry_multiplicity
 _atom_site_fract_x
 _atom_site_fract_y
 _atom_site_fract_z
 _atom_site_occupancy
  Rb  Rb0  1  0.240188  0.368438  0.602272  1
  Rb  Rb1  1  0.759812  0.631562  0.397728  1
  Rb  Rb2  1  0.368438  0.240188  0.102272  1
  Rb  Rb3  1  0.000000  0.000000  0.500000  1
  Rb  Rb4  1  0.631562  0.759812  0.897728  1
  Rb  Rb5  1  0.000000  0.000000  0.000000  1
  Ta  Ta6  1  0.173380  0.581919  0.277519  1
  Ta  Ta7  1  0.581919  0.173380  0.777519  1
  Ta  Ta8  1  0.418081  0.826620  0.222481  1
  Ta  Ta9  1  0.826620  0.418081  0.722481  1
  Te  Te10  1  0.734475  0.689725  0.103565  1
  Te  Te11  1  0.564905  0.505443  0.349439  1
  Te  Te12  1  0.151402  0.038316  0.118536  1
  Te  Te13  1  0.435095  0.494557  0.650561  1
  Te  Te14  1  0.038316  0.151402  0.618536  1
  Te  Te15  1  0.089112  0.223365  0.819140  1
  Te  Te16  1  0.689725  0.734475  0.603565  1
  Te  Te17  1  0.494557  0.435095  0.150561  1
  Te  Te18  1  0.505443  0.564905  0.849439  1
  Te  Te19  1  0.310275  0.265525  0.396435  1
  Te  Te20  1  0.776635  0.910888  0.680860  1
  Te  Te21  1  0.848598  0.961684  0.881464  1
  Te  Te22  1  0.265525  0.310275  0.896435  1
  Te  Te23  1  0.961684  0.848598  0.381464  1
  Te  Te24  1  0.910888  0.776635  0.180860  1
  Te  Te25  1  0.223365  0.089112  0.319140  1
  Au  Au26  1  0.283043  0.716957  0.250000  1
  Au  Au27  1  0.080989  0.671093  0.778123  1
  Au  Au28  1  0.716957  0.283043  0.750000  1
  Au  Au29  1  0.671093  0.080989  0.278123  1
  Au  Au30  1  0.328907  0.919011  0.721877  1
  Au  Au31  1  0.919011  0.328907  0.221877  1
