# generated using pymatgen
data_Zr9Ta3IrO3
_symmetry_space_group_name_H-M   'P 1'
_cell_length_a   8.79410800
_cell_length_b   8.68689437
_cell_length_c   8.68469600
_cell_angle_alpha   90.00000000
_cell_angle_beta   90.00000000
_cell_angle_gamma   120.40912440
_symmetry_Int_Tables_number   1
_chemical_formula_structural   Zr9Ta3IrO3
_chemical_formula_sum   'Zr18 Ta6 Ir2 O6'
_cell_volume   572.18485554
_cell_formula_units_Z   2
loop_
 _symmetry_equiv_pos_site_id
 _symmetry_equiv_pos_as_xyz
  1  'x, y, z'
loop_
 _atom_site_type_symbol
 _atom_site_label
 _atom_site_symmetry_multiplicity
 _atom_site_fract_x
 _atom_site_fract_y
 _atom_site_fract_z
 _atom_site_occupancy
  Zr  Zr0  1  0.454330  0.908661  0.250000  1
  Zr  Zr1  1  0.545670  0.091339  0.750000  1
  Zr  Zr2  1  0.094490  0.546730  0.250000  1
  Zr  Zr3  1  0.905510  0.453270  0.750000  1
  Zr  Zr4  1  0.452239  0.546730  0.250000  1
  Zr  Zr5  1  0.547761  0.453270  0.750000  1
  Zr  Zr6  1  0.206472  0.412945  0.567295  1
  Zr  Zr7  1  0.793528  0.587055  0.432705  1
  Zr  Zr8  1  0.589673  0.794255  0.560257  1
  Zr  Zr9  1  0.793528  0.587055  0.067295  1
  Zr  Zr10  1  0.410327  0.205745  0.439743  1
  Zr  Zr11  1  0.206472  0.412945  0.932705  1
  Zr  Zr12  1  0.204581  0.794255  0.560257  1
  Zr  Zr13  1  0.410327  0.205745  0.060257  1
  Zr  Zr14  1  0.795419  0.205745  0.439743  1
  Zr  Zr15  1  0.589673  0.794255  0.939743  1
  Zr  Zr16  1  0.795419  0.205745  0.060257  1
  Zr  Zr17  1  0.204581  0.794255  0.939743  1
  Ta  Ta18  1  0.778845  0.891857  0.250000  1
  Ta  Ta19  1  0.221155  0.108143  0.750000  1
  Ta  Ta20  1  0.113013  0.891857  0.250000  1
  Ta  Ta21  1  0.886987  0.108143  0.750000  1
  Ta  Ta22  1  0.000000  0.000000  0.000000  1
  Ta  Ta23  1  0.000000  0.000000  0.500000  1
  Ir  Ir24  1  0.112652  0.225303  0.250000  1
  Ir  Ir25  1  0.887348  0.774697  0.750000  1
  O  O26  1  0.500000  0.000000  0.000000  1
  O  O27  1  0.000000  0.500000  0.000000  1
  O  O28  1  0.500000  0.000000  0.500000  1
  O  O29  1  0.500000  0.500000  0.000000  1
  O  O30  1  0.000000  0.500000  0.500000  1
  O  O31  1  0.500000  0.500000  0.500000  1
