# generated using pymatgen
data_Ho20Ru5Rh7
_symmetry_space_group_name_H-M   'P 1'
_cell_length_a   10.71726759
_cell_length_b   10.71726696
_cell_length_c   6.34004400
_cell_angle_alpha   89.98104801
_cell_angle_beta   89.98104801
_cell_angle_gamma   90.11966133
_symmetry_Int_Tables_number   1
_chemical_formula_structural   Ho20Ru5Rh7
_chemical_formula_sum   'Ho20 Ru5 Rh7'
_cell_volume   728.21463084
_cell_formula_units_Z   1
loop_
 _symmetry_equiv_pos_site_id
 _symmetry_equiv_pos_as_xyz
  1  'x, y, z'
loop_
 _atom_site_type_symbol
 _atom_site_label
 _atom_site_symmetry_multiplicity
 _atom_site_fract_x
 _atom_site_fract_y
 _atom_site_fract_z
 _atom_site_occupancy
  Ho  Ho0  1  0.294271  0.086522  0.375407  1
  Ho  Ho1  1  0.293163  0.913485  0.875881  1
  Ho  Ho2  1  0.707664  0.087464  0.876545  1
  Ho  Ho3  1  0.707560  0.915380  0.374109  1
  Ho  Ho4  1  0.586437  0.794064  0.875289  1
  Ho  Ho5  1  0.588550  0.206513  0.375593  1
  Ho  Ho6  1  0.413680  0.793798  0.375340  1
  Ho  Ho7  1  0.413712  0.206308  0.875119  1
  Ho  Ho8  1  0.205936  0.413563  0.624711  1
  Ho  Ho9  1  0.206202  0.586320  0.124660  1
  Ho  Ho10  1  0.793487  0.411450  0.124407  1
  Ho  Ho11  1  0.793692  0.586288  0.624881  1
  Ho  Ho12  1  0.913478  0.705729  0.124593  1
  Ho  Ho13  1  0.912536  0.292336  0.623455  1
  Ho  Ho14  1  0.086515  0.706837  0.624119  1
  Ho  Ho15  1  0.084620  0.292440  0.125891  1
  Ho  Ho16  1  0.999654  0.001205  0.499555  1
  Ho  Ho17  1  0.998795  0.000346  0.000445  1
  Ho  Ho18  1  0.500039  0.500417  0.000199  1
  Ho  Ho19  1  0.499583  0.499961  0.499801  1
  Ru  Ru20  1  0.847801  0.152199  0.250000  1
  Ru  Ru21  1  0.499918  0.000107  0.122662  1
  Ru  Ru22  1  0.499563  0.999844  0.623115  1
  Ru  Ru23  1  0.000156  0.500437  0.876885  1
  Ru  Ru24  1  0.999893  0.500082  0.377338  1
  Rh  Rh25  1  0.846991  0.846044  0.749943  1
  Rh  Rh26  1  0.153956  0.153009  0.750057  1
  Rh  Rh27  1  0.152969  0.847031  0.250000  1
  Rh  Rh28  1  0.651328  0.348672  0.750000  1
  Rh  Rh29  1  0.652715  0.652221  0.249351  1
  Rh  Rh30  1  0.347779  0.347285  0.250649  1
  Rh  Rh31  1  0.347356  0.652644  0.750000  1
