# generated using pymatgen
data_LaYFe6(CoB4)2
_symmetry_space_group_name_H-M   'P 1'
_cell_length_a   7.02570064
_cell_length_b   7.02995861
_cell_length_c   3.80137000
_cell_angle_alpha   90.00000000
_cell_angle_beta   90.00000000
_cell_angle_gamma   90.25663907
_symmetry_Int_Tables_number   1
_chemical_formula_structural   LaYFe6(CoB4)2
_chemical_formula_sum   'La1 Y1 Fe6 Co2 B8'
_cell_volume   187.74924327
_cell_formula_units_Z   1
loop_
 _symmetry_equiv_pos_site_id
 _symmetry_equiv_pos_as_xyz
  1  'x, y, z'
loop_
 _atom_site_type_symbol
 _atom_site_label
 _atom_site_symmetry_multiplicity
 _atom_site_fract_x
 _atom_site_fract_y
 _atom_site_fract_z
 _atom_site_occupancy
  La  La0  1  0.500000  0.500000  0.499977  1
  Y  Y1  1  0.000000  0.000000  0.000527  1
  Fe  Fe2  1  0.385281  0.129317  0.893750  1
  Fe  Fe3  1  0.614719  0.870683  0.893750  1
  Fe  Fe4  1  0.364827  0.887265  0.394720  1
  Fe  Fe5  1  0.635173  0.112735  0.394720  1
  Fe  Fe6  1  0.112794  0.365138  0.605583  1
  Fe  Fe7  1  0.887206  0.634862  0.605583  1
  Co  Co8  1  0.132940  0.614693  0.107453  1
  Co  Co9  1  0.867060  0.385307  0.107453  1
  B  B10  1  0.801670  0.670101  0.102876  1
  B  B11  1  0.198330  0.329899  0.102876  1
  B  B12  1  0.839944  0.290816  0.605995  1
  B  B13  1  0.160056  0.709184  0.605995  1
  B  B14  1  0.707633  0.838051  0.393781  1
  B  B15  1  0.292367  0.161949  0.393781  1
  B  B16  1  0.667542  0.193155  0.895591  1
  B  B17  1  0.332458  0.806845  0.895591  1
