# generated using pymatgen
data_Tb8Al2RuPt
_symmetry_space_group_name_H-M   'P 1'
_cell_length_a   9.60245713
_cell_length_b   9.60245701
_cell_length_c   9.55270800
_cell_angle_alpha   60.17122719
_cell_angle_beta   60.17122762
_cell_angle_gamma   60.33350987
_symmetry_Int_Tables_number   1
_chemical_formula_structural   Tb8Al2RuPt
_chemical_formula_sum   'Tb16 Al4 Ru2 Pt2'
_cell_volume   626.01361278
_cell_formula_units_Z   2
loop_
 _symmetry_equiv_pos_site_id
 _symmetry_equiv_pos_as_xyz
  1  'x, y, z'
loop_
 _atom_site_type_symbol
 _atom_site_label
 _atom_site_symmetry_multiplicity
 _atom_site_fract_x
 _atom_site_fract_y
 _atom_site_fract_z
 _atom_site_occupancy
  Tb  Tb0  1  0.110858  0.685432  0.101855  1
  Tb  Tb1  1  0.944283  0.944283  0.555717  1
  Tb  Tb2  1  0.944942  0.550512  0.944042  1
  Tb  Tb3  1  0.315203  0.690157  0.308005  1
  Tb  Tb4  1  0.944942  0.550512  0.560503  1
  Tb  Tb5  1  0.313239  0.313239  0.686761  1
  Tb  Tb6  1  0.102682  0.102682  0.097786  1
  Tb  Tb7  1  0.557986  0.557986  0.942014  1
  Tb  Tb8  1  0.102682  0.102682  0.696849  1
  Tb  Tb9  1  0.690157  0.315203  0.686635  1
  Tb  Tb10  1  0.688641  0.688641  0.311359  1
  Tb  Tb11  1  0.690157  0.315203  0.308005  1
  Tb  Tb12  1  0.315203  0.690157  0.686635  1
  Tb  Tb13  1  0.550512  0.944942  0.560503  1
  Tb  Tb14  1  0.685432  0.110858  0.101855  1
  Tb  Tb15  1  0.550512  0.944942  0.944042  1
  Al  Al16  1  0.326277  0.326277  0.329206  1
  Al  Al17  1  0.020400  0.324638  0.327481  1
  Al  Al18  1  0.324638  0.020400  0.327481  1
  Al  Al19  1  0.326277  0.326277  0.018238  1
  Ru  Ru20  1  0.324535  0.888906  0.893280  1
  Ru  Ru21  1  0.888906  0.324535  0.893280  1
  Pt  Pt22  1  0.890767  0.890767  0.898135  1
  Pt  Pt23  1  0.890767  0.890767  0.320329  1
