# generated using pymatgen
data_Dy6Ho10Cd4FeNi3
_symmetry_space_group_name_H-M   'P 1'
_cell_length_a   9.50872396
_cell_length_b   9.50872231
_cell_length_c   9.50872258
_cell_angle_alpha   59.82313874
_cell_angle_beta   59.82314510
_cell_angle_gamma   59.82314439
_symmetry_Int_Tables_number   1
_chemical_formula_structural   Dy6Ho10Cd4FeNi3
_chemical_formula_sum   'Dy6 Ho10 Cd4 Fe1 Ni3'
_cell_volume   605.48684914
_cell_formula_units_Z   1
loop_
 _symmetry_equiv_pos_site_id
 _symmetry_equiv_pos_as_xyz
  1  'x, y, z'
loop_
 _atom_site_type_symbol
 _atom_site_label
 _atom_site_symmetry_multiplicity
 _atom_site_fract_x
 _atom_site_fract_y
 _atom_site_fract_z
 _atom_site_occupancy
  Dy  Dy0  1  0.186614  0.814011  0.814011  1
  Dy  Dy1  1  0.808948  0.188419  0.188419  1
  Dy  Dy2  1  0.814011  0.186614  0.814011  1
  Dy  Dy3  1  0.188419  0.808948  0.188419  1
  Dy  Dy4  1  0.814011  0.814011  0.186614  1
  Dy  Dy5  1  0.188419  0.188419  0.808948  1
  Ho  Ho6  1  0.597790  0.597790  0.597790  1
  Ho  Ho7  1  0.597208  0.597208  0.206915  1
  Ho  Ho8  1  0.597208  0.206915  0.597208  1
  Ho  Ho9  1  0.206915  0.597208  0.597208  1
  Ho  Ho10  1  0.065936  0.437789  0.437789  1
  Ho  Ho11  1  0.436601  0.061923  0.061923  1
  Ho  Ho12  1  0.437789  0.065936  0.437789  1
  Ho  Ho13  1  0.061923  0.436601  0.061923  1
  Ho  Ho14  1  0.437789  0.437789  0.065936  1
  Ho  Ho15  1  0.061923  0.061923  0.436601  1
  Cd  Cd16  1  0.829594  0.829594  0.829594  1
  Cd  Cd17  1  0.830300  0.830300  0.506410  1
  Cd  Cd18  1  0.830300  0.506410  0.830300  1
  Cd  Cd19  1  0.506410  0.830300  0.830300  1
  Fe  Fe20  1  0.392842  0.392842  0.392842  1
  Ni  Ni21  1  0.391981  0.391981  0.825087  1
  Ni  Ni22  1  0.391981  0.825087  0.391981  1
  Ni  Ni23  1  0.825087  0.391981  0.391981  1
