# generated using pymatgen
data_Fe6SiTcW5
_symmetry_space_group_name_H-M   'P 1'
_cell_length_a   9.04600592
_cell_length_b   9.04600631
_cell_length_c   9.04600656
_cell_angle_alpha   30.47553312
_cell_angle_beta   30.47553136
_cell_angle_gamma   30.47553521
_symmetry_Int_Tables_number   1
_chemical_formula_structural   Fe6SiTcW5
_chemical_formula_sum   'Fe6 Si1 Tc1 W5'
_cell_volume   168.77715790
_cell_formula_units_Z   1
loop_
 _symmetry_equiv_pos_site_id
 _symmetry_equiv_pos_as_xyz
  1  'x, y, z'
loop_
 _atom_site_type_symbol
 _atom_site_label
 _atom_site_symmetry_multiplicity
 _atom_site_fract_x
 _atom_site_fract_y
 _atom_site_fract_z
 _atom_site_occupancy
  Fe  Fe0  1  0.587808  0.091543  0.091543  1
  Fe  Fe1  1  0.091543  0.091543  0.587808  1
  Fe  Fe2  1  0.091543  0.587808  0.091543  1
  Fe  Fe3  1  0.909132  0.410655  0.909132  1
  Fe  Fe4  1  0.410655  0.909132  0.909132  1
  Fe  Fe5  1  0.909132  0.909132  0.410655  1
  Si  Si6  1  0.999884  0.999884  0.999884  1
  Tc  Tc7  1  0.168744  0.168744  0.168744  1
  W  W8  1  0.831714  0.831714  0.831714  1
  W  W9  1  0.348515  0.348515  0.348515  1
  W  W10  1  0.651614  0.651614  0.651614  1
  W  W11  1  0.450484  0.450484  0.450484  1
  W  W12  1  0.549230  0.549230  0.549230  1
