# generated using pymatgen
data_TbFe3P3Ir2
_symmetry_space_group_name_H-M   'P 1'
_cell_length_a   3.80542100
_cell_length_b   10.27610200
_cell_length_c   12.19788200
_cell_angle_alpha   90.00000000
_cell_angle_beta   90.00000000
_cell_angle_gamma   90.00000000
_symmetry_Int_Tables_number   1
_chemical_formula_structural   TbFe3P3Ir2
_chemical_formula_sum   'Tb4 Fe12 P12 Ir8'
_cell_volume   476.99688689
_cell_formula_units_Z   4
loop_
 _symmetry_equiv_pos_site_id
 _symmetry_equiv_pos_as_xyz
  1  'x, y, z'
loop_
 _atom_site_type_symbol
 _atom_site_label
 _atom_site_symmetry_multiplicity
 _atom_site_fract_x
 _atom_site_fract_y
 _atom_site_fract_z
 _atom_site_occupancy
  Tb  Tb0  1  0.250000  0.581229  0.712508  1
  Tb  Tb1  1  0.250000  0.918771  0.212508  1
  Tb  Tb2  1  0.750000  0.418771  0.287492  1
  Tb  Tb3  1  0.750000  0.081229  0.787492  1
  Fe  Fe4  1  0.250000  0.223322  0.170715  1
  Fe  Fe5  1  0.250000  0.276678  0.670715  1
  Fe  Fe6  1  0.750000  0.776678  0.829285  1
  Fe  Fe7  1  0.750000  0.723322  0.329285  1
  Fe  Fe8  1  0.250000  0.877598  0.695578  1
  Fe  Fe9  1  0.250000  0.622402  0.195578  1
  Fe  Fe10  1  0.750000  0.122402  0.304422  1
  Fe  Fe11  1  0.750000  0.377598  0.804422  1
  Fe  Fe12  1  0.250000  0.458118  0.937417  1
  Fe  Fe13  1  0.250000  0.041882  0.437417  1
  Fe  Fe14  1  0.750000  0.541882  0.062583  1
  Fe  Fe15  1  0.750000  0.958118  0.562583  1
  P  P16  1  0.250000  0.428630  0.113208  1
  P  P17  1  0.250000  0.071370  0.613208  1
  P  P18  1  0.750000  0.571370  0.886792  1
  P  P19  1  0.750000  0.928630  0.386792  1
  P  P20  1  0.250000  0.273774  0.852557  1
  P  P21  1  0.250000  0.226226  0.352557  1
  P  P22  1  0.750000  0.726226  0.147443  1
  P  P23  1  0.750000  0.773774  0.647443  1
  P  P24  1  0.250000  0.604667  0.375679  1
  P  P25  1  0.250000  0.895333  0.875679  1
  P  P26  1  0.750000  0.395333  0.624321  1
  P  P27  1  0.750000  0.104667  0.124321  1
  Ir  Ir28  1  0.250000  0.708969  0.983703  1
  Ir  Ir29  1  0.250000  0.791031  0.483703  1
  Ir  Ir30  1  0.750000  0.291031  0.016297  1
  Ir  Ir31  1  0.750000  0.208969  0.516297  1
  Ir  Ir32  1  0.250000  0.405190  0.477115  1
  Ir  Ir33  1  0.250000  0.094810  0.977115  1
  Ir  Ir34  1  0.750000  0.594810  0.522885  1
  Ir  Ir35  1  0.750000  0.905190  0.022885  1
