# generated using pymatgen
data_HoEr2Lu3ReBi2
_symmetry_space_group_name_H-M   'P 1'
_cell_length_a   8.18360300
_cell_length_b   8.15931752
_cell_length_c   4.31124000
_cell_angle_alpha   90.00000000
_cell_angle_beta   90.00000000
_cell_angle_gamma   120.09850376
_symmetry_Int_Tables_number   1
_chemical_formula_structural   HoEr2Lu3ReBi2
_chemical_formula_sum   'Ho1 Er2 Lu3 Re1 Bi2'
_cell_volume   249.05730609
_cell_formula_units_Z   1
loop_
 _symmetry_equiv_pos_site_id
 _symmetry_equiv_pos_as_xyz
  1  'x, y, z'
loop_
 _atom_site_type_symbol
 _atom_site_label
 _atom_site_symmetry_multiplicity
 _atom_site_fract_x
 _atom_site_fract_y
 _atom_site_fract_z
 _atom_site_occupancy
  Ho  Ho0  1  0.614911  0.000000  0.000000  1
  Er  Er1  1  0.999971  0.614874  0.000000  1
  Er  Er2  1  0.385098  0.385126  0.000000  1
  Lu  Lu3  1  0.229165  0.000000  0.500000  1
  Lu  Lu4  1  0.000657  0.230694  0.500000  1
  Lu  Lu5  1  0.769963  0.769306  0.500000  1
  Re  Re6  1  0.000574  0.000000  0.000000  1
  Bi  Bi7  1  0.333225  0.666791  0.500000  1
  Bi  Bi8  1  0.666437  0.333209  0.500000  1
