# generated using pymatgen
data_Y7Th(Si4Mo3)4
_symmetry_space_group_name_H-M   'P 1'
_cell_length_a   6.81049160
_cell_length_b   6.97717536
_cell_length_c   12.99436687
_cell_angle_alpha   90.10911633
_cell_angle_beta   90.05089842
_cell_angle_gamma   89.89364013
_symmetry_Int_Tables_number   1
_chemical_formula_structural   Y7Th(Si4Mo3)4
_chemical_formula_sum   'Y7 Th1 Si16 Mo12'
_cell_volume   617.46382409
_cell_formula_units_Z   1
loop_
 _symmetry_equiv_pos_site_id
 _symmetry_equiv_pos_as_xyz
  1  'x, y, z'
loop_
 _atom_site_type_symbol
 _atom_site_label
 _atom_site_symmetry_multiplicity
 _atom_site_fract_x
 _atom_site_fract_y
 _atom_site_fract_z
 _atom_site_occupancy
  Y  Y0  1  0.496201  0.333368  0.094054  1
  Y  Y1  1  0.997511  0.166097  0.406172  1
  Y  Y2  1  0.502563  0.666922  0.594709  1
  Y  Y3  1  0.002444  0.834182  0.903573  1
  Y  Y4  1  0.503232  0.666884  0.903726  1
  Y  Y5  1  0.001871  0.833219  0.594518  1
  Y  Y6  1  0.497136  0.334018  0.407834  1
  Th  Th7  1  0.997764  0.165958  0.094118  1
  Si  Si8  1  0.657206  0.042974  0.547942  1
  Si  Si9  1  0.160269  0.461378  0.950686  1
  Si  Si10  1  0.347747  0.952251  0.046431  1
  Si  Si11  1  0.842950  0.541535  0.452235  1
  Si  Si12  1  0.342355  0.956999  0.452730  1
  Si  Si13  1  0.838824  0.549451  0.046063  1
  Si  Si14  1  0.655939  0.043255  0.949925  1
  Si  Si15  1  0.157873  0.457958  0.548074  1
  Si  Si16  1  0.535098  0.363002  0.749477  1
  Si  Si17  1  0.035786  0.136423  0.749299  1
  Si  Si18  1  0.465464  0.636696  0.250040  1
  Si  Si19  1  0.963911  0.858621  0.252875  1
  Si  Si20  1  0.802847  0.627108  0.749105  1
  Si  Si21  1  0.303423  0.872371  0.749257  1
  Si  Si22  1  0.200305  0.376369  0.252963  1
  Si  Si23  1  0.690391  0.127165  0.252998  1
  Mo  Mo24  1  0.832457  0.334656  0.624989  1
  Mo  Mo25  1  0.330243  0.163677  0.874425  1
  Mo  Mo26  1  0.168336  0.663476  0.125941  1
  Mo  Mo27  1  0.668379  0.834355  0.375949  1
  Mo  Mo28  1  0.169552  0.664660  0.376032  1
  Mo  Mo29  1  0.670674  0.837887  0.126415  1
  Mo  Mo30  1  0.832959  0.335630  0.874391  1
  Mo  Mo31  1  0.329737  0.164421  0.624831  1
  Mo  Mo32  1  0.665810  0.999677  0.749244  1
  Mo  Mo33  1  0.165377  0.501260  0.749912  1
  Mo  Mo34  1  0.332733  0.000145  0.249943  1
  Mo  Mo35  1  0.834632  0.495948  0.249125  1
