# generated using pymatgen
data_Ho5RhSeO12
_symmetry_space_group_name_H-M   'P 1'
_cell_length_a   6.83208302
_cell_length_b   6.83208302
_cell_length_c   7.16575707
_cell_angle_alpha   74.54582227
_cell_angle_beta   74.54582791
_cell_angle_gamma   50.72609068
_symmetry_Int_Tables_number   1
_chemical_formula_structural   Ho5RhSeO12
_chemical_formula_sum   'Ho5 Rh1 Se1 O12'
_cell_volume   247.41502951
_cell_formula_units_Z   1
loop_
 _symmetry_equiv_pos_site_id
 _symmetry_equiv_pos_as_xyz
  1  'x, y, z'
loop_
 _atom_site_type_symbol
 _atom_site_label
 _atom_site_symmetry_multiplicity
 _atom_site_fract_x
 _atom_site_fract_y
 _atom_site_fract_z
 _atom_site_occupancy
  Ho  Ho0  1  0.312272  0.287514  0.359444  1
  Ho  Ho1  1  0.712486  0.687728  0.640556  1
  Ho  Ho2  1  0.307999  0.303520  0.833710  1
  Ho  Ho3  1  0.696480  0.692001  0.166290  1
  Ho  Ho4  1  0.015729  0.984271  0.500000  1
  Rh  Rh5  1  0.742260  0.257740  0.000000  1
  Se  Se6  1  0.235014  0.764986  0.000000  1
  O  O7  1  0.906764  0.440865  0.916440  1
  O  O8  1  0.409790  0.898749  0.918740  1
  O  O9  1  0.101251  0.590210  0.081260  1
  O  O10  1  0.559135  0.093236  0.083560  1
  O  O11  1  0.106960  0.592910  0.568182  1
  O  O12  1  0.605765  0.088136  0.577460  1
  O  O13  1  0.911864  0.394235  0.422540  1
  O  O14  1  0.407090  0.893040  0.431818  1
  O  O15  1  0.012161  0.986044  0.823212  1
  O  O16  1  0.013956  0.987839  0.176788  1
  O  O17  1  0.471122  0.528094  0.819818  1
  O  O18  1  0.471906  0.528878  0.180182  1
