# generated using pymatgen
data_PrTh(Si2Pd7)3
_symmetry_space_group_name_H-M   'P 1'
_cell_length_a   8.72135050
_cell_length_b   8.72063284
_cell_length_c   8.72030502
_cell_angle_alpha   60.00703320
_cell_angle_beta   60.00208169
_cell_angle_gamma   59.99530502
_symmetry_Int_Tables_number   1
_chemical_formula_structural   PrTh(Si2Pd7)3
_chemical_formula_sum   'Pr1 Th1 Si6 Pd21'
_cell_volume   468.98928246
_cell_formula_units_Z   1
loop_
 _symmetry_equiv_pos_site_id
 _symmetry_equiv_pos_as_xyz
  1  'x, y, z'
loop_
 _atom_site_type_symbol
 _atom_site_label
 _atom_site_symmetry_multiplicity
 _atom_site_fract_x
 _atom_site_fract_y
 _atom_site_fract_z
 _atom_site_occupancy
  Pr  Pr0  1  0.749999  0.750003  0.750006  1
  Th  Th1  1  0.250001  0.249996  0.249991  1
  Si  Si2  1  0.736256  0.736258  0.263724  1
  Si  Si3  1  0.263728  0.736292  0.263710  1
  Si  Si4  1  0.736305  0.263713  0.263696  1
  Si  Si5  1  0.263744  0.263742  0.736275  1
  Si  Si6  1  0.736273  0.263707  0.736290  1
  Si  Si7  1  0.263694  0.736288  0.736304  1
  Pd  Pd8  1  0.000000  0.000000  0.000000  1
  Pd  Pd9  1  0.613731  0.613719  0.158804  1
  Pd  Pd10  1  0.613754  0.158793  0.613725  1
  Pd  Pd11  1  0.158790  0.613757  0.613739  1
  Pd  Pd12  1  0.613724  0.613741  0.613765  1
  Pd  Pd13  1  0.384047  0.384068  0.847861  1
  Pd  Pd14  1  0.384017  0.847869  0.384063  1
  Pd  Pd15  1  0.847871  0.384015  0.384039  1
  Pd  Pd16  1  0.384066  0.384040  0.384010  1
  Pd  Pd17  1  0.001443  0.001446  0.343170  1
  Pd  Pd18  1  0.653929  0.001425  0.343178  1
  Pd  Pd19  1  0.001445  0.653931  0.343183  1
  Pd  Pd20  1  0.653935  0.343171  0.001448  1
  Pd  Pd21  1  0.001472  0.343173  0.001429  1
  Pd  Pd22  1  0.001447  0.343177  0.653925  1
  Pd  Pd23  1  0.343178  0.653942  0.001439  1
  Pd  Pd24  1  0.343180  0.001466  0.653930  1
  Pd  Pd25  1  0.343173  0.001445  0.001449  1
  Pd  Pd26  1  0.001444  0.001441  0.653942  1
  Pd  Pd27  1  0.001421  0.653933  0.001463  1
  Pd  Pd28  1  0.653934  0.001448  0.001443  1
