# generated using pymatgen
data_Pr2PaSe5
_symmetry_space_group_name_H-M   'P 1'
_cell_length_a   7.89898200
_cell_length_b   8.46183300
_cell_length_c   12.61961700
_cell_angle_alpha   90.00000000
_cell_angle_beta   90.00000000
_cell_angle_gamma   90.00000000
_symmetry_Int_Tables_number   1
_chemical_formula_structural   Pr2PaSe5
_chemical_formula_sum   'Pr8 Pa4 Se20'
_cell_volume   843.49351624
_cell_formula_units_Z   4
loop_
 _symmetry_equiv_pos_site_id
 _symmetry_equiv_pos_as_xyz
  1  'x, y, z'
loop_
 _atom_site_type_symbol
 _atom_site_label
 _atom_site_symmetry_multiplicity
 _atom_site_fract_x
 _atom_site_fract_y
 _atom_site_fract_z
 _atom_site_occupancy
  Pr  Pr0  1  0.527797  0.499296  0.321549  1
  Pr  Pr1  1  0.972203  0.000704  0.821549  1
  Pr  Pr2  1  0.472203  0.999296  0.678451  1
  Pr  Pr3  1  0.027797  0.500704  0.178451  1
  Pr  Pr4  1  0.472203  0.500704  0.678451  1
  Pr  Pr5  1  0.027797  0.999296  0.178451  1
  Pr  Pr6  1  0.527797  0.000704  0.321549  1
  Pr  Pr7  1  0.972203  0.499296  0.821549  1
  Pa  Pa8  1  0.072699  0.750000  0.493639  1
  Pa  Pa9  1  0.427301  0.750000  0.993639  1
  Pa  Pa10  1  0.927301  0.250000  0.506361  1
  Pa  Pa11  1  0.572699  0.250000  0.006361  1
  Se  Se12  1  0.833998  0.957597  0.594554  1
  Se  Se13  1  0.666002  0.542403  0.094554  1
  Se  Se14  1  0.166002  0.457597  0.405446  1
  Se  Se15  1  0.333998  0.042403  0.905446  1
  Se  Se16  1  0.166002  0.042403  0.405446  1
  Se  Se17  1  0.333998  0.457597  0.905446  1
  Se  Se18  1  0.833998  0.542403  0.594554  1
  Se  Se19  1  0.666002  0.957597  0.094554  1
  Se  Se20  1  0.833367  0.750000  0.315519  1
  Se  Se21  1  0.666633  0.750000  0.815519  1
  Se  Se22  1  0.166633  0.250000  0.684481  1
  Se  Se23  1  0.333367  0.250000  0.184481  1
  Se  Se24  1  0.454103  0.750000  0.498914  1
  Se  Se25  1  0.045897  0.750000  0.998914  1
  Se  Se26  1  0.545897  0.250000  0.501086  1
  Se  Se27  1  0.954103  0.250000  0.001086  1
  Se  Se28  1  0.192466  0.750000  0.713364  1
  Se  Se29  1  0.307534  0.750000  0.213364  1
  Se  Se30  1  0.807534  0.250000  0.286636  1
  Se  Se31  1  0.692466  0.250000  0.786636  1
