# generated using pymatgen
data_La4ZnAg3Pd4
_symmetry_space_group_name_H-M   'P 1'
_cell_length_a   7.41213533
_cell_length_b   4.26782500
_cell_length_c   8.68237485
_cell_angle_alpha   90.00000000
_cell_angle_beta   90.41532355
_cell_angle_gamma   90.00000000
_symmetry_Int_Tables_number   1
_chemical_formula_structural   La4ZnAg3Pd4
_chemical_formula_sum   'La4 Zn1 Ag3 Pd4'
_cell_volume   274.64839484
_cell_formula_units_Z   1
loop_
 _symmetry_equiv_pos_site_id
 _symmetry_equiv_pos_as_xyz
  1  'x, y, z'
loop_
 _atom_site_type_symbol
 _atom_site_label
 _atom_site_symmetry_multiplicity
 _atom_site_fract_x
 _atom_site_fract_y
 _atom_site_fract_z
 _atom_site_occupancy
  La  La0  1  0.041458  0.250000  0.304048  1
  La  La1  1  0.540281  0.250000  0.193621  1
  La  La2  1  0.957215  0.750000  0.695943  1
  La  La3  1  0.456382  0.750000  0.806932  1
  Zn  Zn4  1  0.855775  0.750000  0.062049  1
  Ag  Ag5  1  0.646326  0.250000  0.566511  1
  Ag  Ag6  1  0.139136  0.250000  0.933949  1
  Ag  Ag7  1  0.367837  0.750000  0.435775  1
  Pd  Pd8  1  0.243995  0.250000  0.619857  1
  Pd  Pd9  1  0.749671  0.250000  0.896402  1
  Pd  Pd10  1  0.758216  0.750000  0.363432  1
  Pd  Pd11  1  0.243710  0.750000  0.121480  1
