# generated using pymatgen
data_Er12Os3Rh
_symmetry_space_group_name_H-M   'P 1'
_cell_length_a   7.32732536
_cell_length_b   8.99344500
_cell_length_c   6.29356876
_cell_angle_alpha   90.00000000
_cell_angle_beta   90.10851442
_cell_angle_gamma   90.00000000
_symmetry_Int_Tables_number   1
_chemical_formula_structural   Er12Os3Rh
_chemical_formula_sum   'Er12 Os3 Rh1'
_cell_volume   414.73220591
_cell_formula_units_Z   1
loop_
 _symmetry_equiv_pos_site_id
 _symmetry_equiv_pos_as_xyz
  1  'x, y, z'
loop_
 _atom_site_type_symbol
 _atom_site_label
 _atom_site_symmetry_multiplicity
 _atom_site_fract_x
 _atom_site_fract_y
 _atom_site_fract_z
 _atom_site_occupancy
  Er  Er0  1  0.462000  0.750000  0.127544  1
  Er  Er1  1  0.178451  0.061346  0.168073  1
  Er  Er2  1  0.178451  0.438654  0.168073  1
  Er  Er3  1  0.672701  0.060504  0.334424  1
  Er  Er4  1  0.672701  0.439496  0.334424  1
  Er  Er5  1  0.962493  0.750000  0.370204  1
  Er  Er6  1  0.039416  0.250000  0.629715  1
  Er  Er7  1  0.324605  0.562879  0.669218  1
  Er  Er8  1  0.324605  0.937121  0.669218  1
  Er  Er9  1  0.823288  0.566493  0.828236  1
  Er  Er10  1  0.823288  0.933507  0.828236  1
  Er  Er11  1  0.538109  0.250000  0.870882  1
  Os  Os12  1  0.382942  0.250000  0.461320  1
  Os  Os13  1  0.617237  0.750000  0.536963  1
  Os  Os14  1  0.116429  0.750000  0.962034  1
  Rh  Rh15  1  0.883284  0.250000  0.041437  1
