# generated using pymatgen
data_Ac3La6PrC4I15
_symmetry_space_group_name_H-M   'P 1'
_cell_length_a   10.05947957
_cell_length_b   10.87841195
_cell_length_c   12.18306840
_cell_angle_alpha   93.82152846
_cell_angle_beta   114.53663477
_cell_angle_gamma   109.00364048
_symmetry_Int_Tables_number   1
_chemical_formula_structural   Ac3La6PrC4I15
_chemical_formula_sum   'Ac3 La6 Pr1 C4 I15'
_cell_volume   1114.68067540
_cell_formula_units_Z   1
loop_
 _symmetry_equiv_pos_site_id
 _symmetry_equiv_pos_as_xyz
  1  'x, y, z'
loop_
 _atom_site_type_symbol
 _atom_site_label
 _atom_site_symmetry_multiplicity
 _atom_site_fract_x
 _atom_site_fract_y
 _atom_site_fract_z
 _atom_site_occupancy
  Ac  Ac0  1  0.601545  0.533537  0.344568  1
  Ac  Ac1  1  0.335777  0.745385  0.164039  1
  Ac  Ac2  1  0.786318  0.892090  0.261089  1
  La  La3  1  0.223752  0.117856  0.744629  1
  La  La4  1  0.403246  0.460764  0.662586  1
  La  La5  1  0.471735  0.812241  0.899933  1
  La  La6  1  0.701493  0.564977  0.041734  1
  La  La7  1  0.297438  0.432758  0.955009  1
  La  La8  1  0.651820  0.252627  0.835365  1
  Pr  Pr9  1  0.526597  0.187612  0.094895  1
  C  C10  1  0.481398  0.302995  0.935681  1
  C  C11  1  0.518788  0.699911  0.063352  1
  C  C12  1  0.452618  0.363736  0.834748  1
  C  C13  1  0.548350  0.637396  0.164059  1
  I  I14  1  0.209646  0.910317  0.936068  1
  I  I15  1  0.108628  0.190528  0.472900  1
  I  I16  1  0.153552  0.555494  0.708045  1
  I  I17  1  0.404194  0.967607  0.652749  1
  I  I18  1  0.712887  0.732771  0.825749  1
  I  I19  1  0.283843  0.260156  0.169462  1
  I  I20  1  0.849423  0.438096  0.286373  1
  I  I21  1  0.899670  0.815190  0.536885  1
  I  I22  1  0.359955  0.627899  0.416577  1
  I  I23  1  0.056197  0.830059  0.217891  1
  I  I24  1  0.788705  0.095295  0.058713  1
  I  I25  1  0.637157  0.367302  0.591782  1
  I  I26  1  0.950745  0.169690  0.782282  1
  I  I27  1  0.592048  0.041155  0.347380  1
  I  I28  1  0.992479  0.494555  0.995455  1
