# generated using pymatgen
data_Li2Dy3YP4
_symmetry_space_group_name_H-M   'P 1'
_cell_length_a   4.05454100
_cell_length_b   4.05454168
_cell_length_c   13.84169600
_cell_angle_alpha   90.00000000
_cell_angle_beta   90.00000000
_cell_angle_gamma   120.00000263
_symmetry_Int_Tables_number   1
_chemical_formula_structural   Li2Dy3YP4
_chemical_formula_sum   'Li2 Dy3 Y1 P4'
_cell_volume   197.06222966
_cell_formula_units_Z   1
loop_
 _symmetry_equiv_pos_site_id
 _symmetry_equiv_pos_as_xyz
  1  'x, y, z'
loop_
 _atom_site_type_symbol
 _atom_site_label
 _atom_site_symmetry_multiplicity
 _atom_site_fract_x
 _atom_site_fract_y
 _atom_site_fract_z
 _atom_site_occupancy
  Li  Li0  1  0.000000  0.000000  0.249994  1
  Li  Li1  1  0.000000  0.000000  0.750014  1
  Dy  Dy2  1  0.666667  0.333333  0.609863  1
  Dy  Dy3  1  0.666667  0.333333  0.890183  1
  Dy  Dy4  1  0.333333  0.666667  0.109863  1
  Y  Y5  1  0.333333  0.666667  0.389978  1
  P  P6  1  0.000000  0.000000  0.500431  1
  P  P7  1  0.000000  0.000000  0.999981  1
  P  P8  1  0.333333  0.666667  0.749970  1
  P  P9  1  0.666667  0.333333  0.249722  1
