# generated using pymatgen
data_Ho20Fe3NiSb8
_symmetry_space_group_name_H-M   'P 1'
_cell_length_a   7.85880179
_cell_length_b   8.77811100
_cell_length_c   12.14835165
_cell_angle_alpha   90.00000000
_cell_angle_beta   90.18669987
_cell_angle_gamma   90.00000000
_symmetry_Int_Tables_number   1
_chemical_formula_structural   Ho20Fe3NiSb8
_chemical_formula_sum   'Ho20 Fe3 Ni1 Sb8'
_cell_volume   838.05486717
_cell_formula_units_Z   1
loop_
 _symmetry_equiv_pos_site_id
 _symmetry_equiv_pos_as_xyz
  1  'x, y, z'
loop_
 _atom_site_type_symbol
 _atom_site_label
 _atom_site_symmetry_multiplicity
 _atom_site_fract_x
 _atom_site_fract_y
 _atom_site_fract_z
 _atom_site_occupancy
  Ho  Ho0  1  0.158628  0.750000  0.208023  1
  Ho  Ho1  1  0.655101  0.250000  0.295279  1
  Ho  Ho2  1  0.844496  0.250000  0.796481  1
  Ho  Ho3  1  0.345969  0.750000  0.703028  1
  Ho  Ho4  1  0.456086  0.750000  0.996855  1
  Ho  Ho5  1  0.947964  0.250000  0.504292  1
  Ho  Ho6  1  0.547087  0.250000  0.002769  1
  Ho  Ho7  1  0.048340  0.750000  0.497317  1
  Ho  Ho8  1  0.623053  0.750000  0.305045  1
  Ho  Ho9  1  0.122658  0.250000  0.192781  1
  Ho  Ho10  1  0.379542  0.250000  0.693222  1
  Ho  Ho11  1  0.873960  0.750000  0.805017  1
  Ho  Ho12  1  0.822395  0.967939  0.065308  1
  Ho  Ho13  1  0.324642  0.033996  0.436990  1
  Ho  Ho14  1  0.178499  0.459125  0.935103  1
  Ho  Ho15  1  0.676755  0.536528  0.563165  1
  Ho  Ho16  1  0.178499  0.040875  0.935103  1
  Ho  Ho17  1  0.676755  0.963472  0.563165  1
  Ho  Ho18  1  0.822395  0.532061  0.065308  1
  Ho  Ho19  1  0.324642  0.466004  0.436990  1
  Fe  Fe20  1  0.424821  0.750000  0.486115  1
  Fe  Fe21  1  0.929665  0.250000  0.011048  1
  Fe  Fe22  1  0.571729  0.250000  0.510073  1
  Ni  Ni23  1  0.067611  0.750000  0.990072  1
  Sb  Sb24  1  0.929370  0.992918  0.328196  1
  Sb  Sb25  1  0.428002  0.007431  0.171935  1
  Sb  Sb26  1  0.071197  0.492499  0.673116  1
  Sb  Sb27  1  0.570785  0.507658  0.827480  1
  Sb  Sb28  1  0.071197  0.007501  0.673116  1
  Sb  Sb29  1  0.570785  0.992342  0.827480  1
  Sb  Sb30  1  0.929370  0.507082  0.328196  1
  Sb  Sb31  1  0.428002  0.492569  0.171935  1
