# generated using pymatgen
data_Nd2Ga3Si2Pd3
_symmetry_space_group_name_H-M   'P 1'
_cell_length_a   8.47323445
_cell_length_b   8.47323427
_cell_length_c   8.47323400
_cell_angle_alpha   137.89207173
_cell_angle_beta   105.53648967
_cell_angle_gamma   89.44222211
_symmetry_Int_Tables_number   1
_chemical_formula_structural   Nd2Ga3Si2Pd3
_chemical_formula_sum   'Nd4 Ga6 Si4 Pd6'
_cell_volume   375.81490818
_cell_formula_units_Z   2
loop_
 _symmetry_equiv_pos_site_id
 _symmetry_equiv_pos_as_xyz
  1  'x, y, z'
loop_
 _atom_site_type_symbol
 _atom_site_label
 _atom_site_symmetry_multiplicity
 _atom_site_fract_x
 _atom_site_fract_y
 _atom_site_fract_z
 _atom_site_occupancy
  Nd  Nd0  1  0.107757  0.868924  0.238629  1
  Nd  Nd1  1  0.892243  0.131076  0.761371  1
  Nd  Nd2  1  0.630311  0.369015  0.261217  1
  Nd  Nd3  1  0.369689  0.630985  0.738783  1
  Ga  Ga4  1  0.999957  0.750011  0.749998  1
  Ga  Ga5  1  0.000043  0.249989  0.250002  1
  Ga  Ga6  1  0.268995  0.018962  0.750055  1
  Ga  Ga7  1  0.731068  0.481091  0.749992  1
  Ga  Ga8  1  0.731005  0.981038  0.249945  1
  Ga  Ga9  1  0.268932  0.518909  0.250008  1
  Si  Si10  1  0.756200  0.609342  0.146809  1
  Si  Si11  1  0.243800  0.390658  0.853191  1
  Si  Si12  1  0.462519  0.109415  0.353144  1
  Si  Si13  1  0.537481  0.890585  0.646856  1
  Pd  Pd14  1  0.499993  0.750047  0.250094  1
  Pd  Pd15  1  0.500007  0.249953  0.749906  1
  Pd  Pd16  1  0.010432  0.633729  0.376826  1
  Pd  Pd17  1  0.989568  0.366271  0.623174  1
  Pd  Pd18  1  0.256900  0.133697  0.123246  1
  Pd  Pd19  1  0.743100  0.866303  0.876754  1
