# generated using pymatgen
data_SmTl3(VS4)2
_symmetry_space_group_name_H-M   'P 1'
_cell_length_a   8.92334893
_cell_length_b   9.97991000
_cell_length_c   10.68813500
_cell_angle_alpha   107.18209306
_cell_angle_beta   103.02412800
_cell_angle_gamma   114.27233459
_symmetry_Int_Tables_number   1
_chemical_formula_structural   SmTl3(VS4)2
_chemical_formula_sum   'Sm2 Tl6 V4 S16'
_cell_volume   760.40504615
_cell_formula_units_Z   2
loop_
 _symmetry_equiv_pos_site_id
 _symmetry_equiv_pos_as_xyz
  1  'x, y, z'
loop_
 _atom_site_type_symbol
 _atom_site_label
 _atom_site_symmetry_multiplicity
 _atom_site_fract_x
 _atom_site_fract_y
 _atom_site_fract_z
 _atom_site_occupancy
  Sm  Sm0  1  0.991684  0.241726  0.483552  1
  Sm  Sm1  1  0.008317  0.758274  0.516448  1
  Tl  Tl2  1  0.000000  0.500000  0.000000  1
  Tl  Tl3  1  0.500000  0.500000  0.000000  1
  Tl  Tl4  1  0.255508  0.005467  0.011045  1
  Tl  Tl5  1  0.497270  0.746989  0.494257  1
  Tl  Tl6  1  0.502729  0.253009  0.505743  1
  Tl  Tl7  1  0.744492  0.994533  0.988954  1
  V  V8  1  0.742078  0.344318  0.249854  1
  V  V9  1  0.007046  0.905059  0.249514  1
  V  V10  1  0.992954  0.094942  0.750487  1
  V  V11  1  0.257921  0.655682  0.750146  1
  S  S12  1  0.645555  0.274417  0.025372  1
  S  S13  1  0.879218  0.750627  0.025080  1
  S  S14  1  0.141666  0.161291  0.289106  1
  S  S15  1  0.647154  0.127770  0.289446  1
  S  S16  1  0.029974  0.477514  0.340928  1
  S  S17  1  0.810785  0.863315  0.341023  1
  S  S18  1  0.204147  0.856907  0.350407  1
  S  S19  1  0.646310  0.493730  0.350926  1
  S  S20  1  0.353689  0.506269  0.649073  1
  S  S21  1  0.795852  0.143093  0.649592  1
  S  S22  1  0.189215  0.136684  0.658977  1
  S  S23  1  0.970025  0.522485  0.659072  1
  S  S24  1  0.352845  0.872229  0.710553  1
  S  S25  1  0.858334  0.838708  0.710893  1
  S  S26  1  0.120783  0.249373  0.974921  1
  S  S27  1  0.354444  0.725583  0.974629  1
