# generated using pymatgen
data_Sm4Ga4NiRu3
_symmetry_space_group_name_H-M   'P 1'
_cell_length_a   4.56424800
_cell_length_b   7.23583350
_cell_length_c   7.14095310
_cell_angle_alpha   89.24546924
_cell_angle_beta   90.00000000
_cell_angle_gamma   90.00000000
_symmetry_Int_Tables_number   1
_chemical_formula_structural   Sm4Ga4NiRu3
_chemical_formula_sum   'Sm4 Ga4 Ni1 Ru3'
_cell_volume   235.81765691
_cell_formula_units_Z   1
loop_
 _symmetry_equiv_pos_site_id
 _symmetry_equiv_pos_as_xyz
  1  'x, y, z'
loop_
 _atom_site_type_symbol
 _atom_site_label
 _atom_site_symmetry_multiplicity
 _atom_site_fract_x
 _atom_site_fract_y
 _atom_site_fract_z
 _atom_site_occupancy
  Sm  Sm0  1  0.250000  0.023750  0.804908  1
  Sm  Sm1  1  0.250000  0.523629  0.693047  1
  Sm  Sm2  1  0.750000  0.980052  0.196529  1
  Sm  Sm3  1  0.750000  0.477294  0.305586  1
  Ga  Ga4  1  0.250000  0.196112  0.396167  1
  Ga  Ga5  1  0.250000  0.690060  0.107390  1
  Ga  Ga6  1  0.750000  0.799900  0.606382  1
  Ga  Ga7  1  0.750000  0.311800  0.892726  1
  Ni  Ni8  1  0.750000  0.659948  0.935267  1
  Ru  Ru9  1  0.250000  0.841796  0.435781  1
  Ru  Ru10  1  0.250000  0.340048  0.061109  1
  Ru  Ru11  1  0.750000  0.155613  0.565109  1
