# generated using pymatgen
data_Tm16MgCd3NiRu3
_symmetry_space_group_name_H-M   'P 1'
_cell_length_a   9.48640565
_cell_length_b   9.54296427
_cell_length_c   9.54296413
_cell_angle_alpha   59.56617093
_cell_angle_beta   59.25389146
_cell_angle_gamma   59.25390580
_symmetry_Int_Tables_number   1
_chemical_formula_structural   Tm16MgCd3NiRu3
_chemical_formula_sum   'Tm16 Mg1 Cd3 Ni1 Ru3'
_cell_volume   601.93705040
_cell_formula_units_Z   1
loop_
 _symmetry_equiv_pos_site_id
 _symmetry_equiv_pos_as_xyz
  1  'x, y, z'
loop_
 _atom_site_type_symbol
 _atom_site_label
 _atom_site_symmetry_multiplicity
 _atom_site_fract_x
 _atom_site_fract_y
 _atom_site_fract_z
 _atom_site_occupancy
  Tm  Tm0  1  0.351631  0.346751  0.346751  1
  Tm  Tm1  1  0.350627  0.344691  0.961973  1
  Tm  Tm2  1  0.350627  0.961973  0.344691  1
  Tm  Tm3  1  0.963272  0.345044  0.345044  1
  Tm  Tm4  1  0.810760  0.188507  0.188507  1
  Tm  Tm5  1  0.183397  0.812663  0.812663  1
  Tm  Tm6  1  0.187410  0.810715  0.189634  1
  Tm  Tm7  1  0.810421  0.188655  0.812153  1
  Tm  Tm8  1  0.187410  0.189634  0.810715  1
  Tm  Tm9  1  0.810421  0.812153  0.188655  1
  Tm  Tm10  1  0.939814  0.560130  0.560130  1
  Tm  Tm11  1  0.559524  0.936763  0.936763  1
  Tm  Tm12  1  0.558112  0.939352  0.566577  1
  Tm  Tm13  1  0.939230  0.560790  0.938592  1
  Tm  Tm14  1  0.558112  0.566577  0.939352  1
  Tm  Tm15  1  0.939230  0.938592  0.560790  1
  Mg  Mg16  1  0.573065  0.576079  0.576079  1
  Cd  Cd17  1  0.580341  0.581374  0.256215  1
  Cd  Cd18  1  0.580341  0.256215  0.581374  1
  Cd  Cd19  1  0.254326  0.581823  0.581823  1
  Ni  Ni20  1  0.578423  0.142157  0.142157  1
  Ru  Ru21  1  0.143500  0.139090  0.139090  1
  Ru  Ru22  1  0.145005  0.142387  0.577892  1
  Ru  Ru23  1  0.145005  0.577892  0.142387  1
