# generated using pymatgen
data_Th2Al3Cu6Ni
_symmetry_space_group_name_H-M   'P 1'
_cell_length_a   4.19116700
_cell_length_b   5.16558146
_cell_length_c   8.95306333
_cell_angle_alpha   89.48762526
_cell_angle_beta   90.00000000
_cell_angle_gamma   90.00000000
_symmetry_Int_Tables_number   1
_chemical_formula_structural   Th2Al3Cu6Ni
_chemical_formula_sum   'Th2 Al3 Cu6 Ni1'
_cell_volume   193.82441046
_cell_formula_units_Z   1
loop_
 _symmetry_equiv_pos_site_id
 _symmetry_equiv_pos_as_xyz
  1  'x, y, z'
loop_
 _atom_site_type_symbol
 _atom_site_label
 _atom_site_symmetry_multiplicity
 _atom_site_fract_x
 _atom_site_fract_y
 _atom_site_fract_z
 _atom_site_occupancy
  Th  Th0  1  0.000000  0.250270  0.752594  1
  Th  Th1  1  0.000000  0.750737  0.247344  1
  Al  Al2  1  0.500000  0.743199  0.743651  1
  Al  Al3  1  0.500000  0.262223  0.252767  1
  Al  Al4  1  0.500000  0.006884  0.998753  1
  Cu  Cu5  1  0.000000  0.749717  0.582067  1
  Cu  Cu6  1  0.000000  0.748375  0.915398  1
  Cu  Cu7  1  0.000000  0.252046  0.417782  1
  Cu  Cu8  1  0.500000  0.501610  0.499263  1
  Cu  Cu9  1  0.500000  0.501274  0.001177  1
  Cu  Cu10  1  0.500000  0.000240  0.497450  1
  Ni  Ni11  1  0.000000  0.233426  0.091754  1
