# generated using pymatgen
data_La8Ho12Sn11Bi5
_symmetry_space_group_name_H-M   'P 1'
_cell_length_a   8.24827955
_cell_length_b   8.28372941
_cell_length_c   15.65322600
_cell_angle_alpha   90.10191711
_cell_angle_beta   90.13980322
_cell_angle_gamma   89.94858890
_symmetry_Int_Tables_number   1
_chemical_formula_structural   La8Ho12Sn11Bi5
_chemical_formula_sum   'La8 Ho12 Sn11 Bi5'
_cell_volume   1069.52509297
_cell_formula_units_Z   1
loop_
 _symmetry_equiv_pos_site_id
 _symmetry_equiv_pos_as_xyz
  1  'x, y, z'
loop_
 _atom_site_type_symbol
 _atom_site_label
 _atom_site_symmetry_multiplicity
 _atom_site_fract_x
 _atom_site_fract_y
 _atom_site_fract_z
 _atom_site_occupancy
  La  La0  1  0.529626  0.326597  0.899140  1
  La  La1  1  0.029202  0.177253  0.599756  1
  La  La2  1  0.471449  0.677535  0.400108  1
  La  La3  1  0.973398  0.820161  0.102067  1
  La  La4  1  0.478056  0.675103  0.100805  1
  La  La5  1  0.981132  0.822279  0.400598  1
  La  La6  1  0.519072  0.323115  0.599083  1
  La  La7  1  0.025065  0.180399  0.899126  1
  Ho  Ho8  1  0.366265  0.840979  0.873879  1
  Ho  Ho9  1  0.870020  0.659053  0.625941  1
  Ho  Ho10  1  0.629886  0.158864  0.373922  1
  Ho  Ho11  1  0.128133  0.340631  0.126012  1
  Ho  Ho12  1  0.637026  0.163912  0.125556  1
  Ho  Ho13  1  0.139250  0.338052  0.376591  1
  Ho  Ho14  1  0.359594  0.839004  0.623969  1
  Ho  Ho15  1  0.863698  0.656709  0.875106  1
  Ho  Ho16  1  0.198583  0.502338  0.745524  1
  Ho  Ho17  1  0.697677  0.998500  0.748942  1
  Ho  Ho18  1  0.801943  0.497903  0.247375  1
  Ho  Ho19  1  0.302185  0.001761  0.253821  1
  Sn  Sn20  1  0.204939  0.539899  0.543803  1
  Sn  Sn21  1  0.295359  0.039452  0.456290  1
  Sn  Sn22  1  0.793526  0.460794  0.043713  1
  Sn  Sn23  1  0.562780  0.629937  0.749385  1
  Sn  Sn24  1  0.061557  0.872235  0.752129  1
  Sn  Sn25  1  0.436251  0.371910  0.249122  1
  Sn  Sn26  1  0.937082  0.127945  0.251388  1
  Sn  Sn27  1  0.333598  0.142647  0.750759  1
  Sn  Sn28  1  0.832235  0.356820  0.749008  1
  Sn  Sn29  1  0.668112  0.857779  0.250515  1
  Sn  Sn30  1  0.168370  0.640862  0.250189  1
  Bi  Bi31  1  0.293422  0.040277  0.044328  1
  Bi  Bi32  1  0.796014  0.458580  0.456522  1
  Bi  Bi33  1  0.703577  0.958727  0.542995  1
  Bi  Bi34  1  0.204771  0.541274  0.956453  1
  Bi  Bi35  1  0.707146  0.960718  0.956078  1
