# generated using pymatgen
data_Er10Ga3Bi2Ru
_symmetry_space_group_name_H-M   'P 1'
_cell_length_a   8.61105769
_cell_length_b   8.73082221
_cell_length_c   7.91656900
_cell_angle_alpha   62.06991492
_cell_angle_beta   63.61241360
_cell_angle_gamma   54.31765466
_symmetry_Int_Tables_number   1
_chemical_formula_structural   Er10Ga3Bi2Ru
_chemical_formula_sum   'Er10 Ga3 Bi2 Ru1'
_cell_volume   414.79524741
_cell_formula_units_Z   1
loop_
 _symmetry_equiv_pos_site_id
 _symmetry_equiv_pos_as_xyz
  1  'x, y, z'
loop_
 _atom_site_type_symbol
 _atom_site_label
 _atom_site_symmetry_multiplicity
 _atom_site_fract_x
 _atom_site_fract_y
 _atom_site_fract_z
 _atom_site_occupancy
  Er  Er0  1  0.796617  0.481603  0.518397  1
  Er  Er1  1  0.456236  0.809125  0.190875  1
  Er  Er2  1  0.298710  0.982416  0.717345  1
  Er  Er3  1  0.998472  0.282655  0.017584  1
  Er  Er4  1  0.190875  0.543764  0.456236  1
  Er  Er5  1  0.518397  0.203383  0.796617  1
  Er  Er6  1  0.717345  0.001528  0.298710  1
  Er  Er7  1  0.017584  0.701290  0.998472  1
  Er  Er8  1  0.496427  0.503573  0.001980  1
  Er  Er9  1  0.001980  0.998020  0.496427  1
  Ga  Ga10  1  0.866872  0.133128  0.866872  1
  Ga  Ga11  1  0.641305  0.358695  0.362283  1
  Ga  Ga12  1  0.362283  0.637717  0.641305  1
  Bi  Bi13  1  0.756594  0.743406  0.756594  1
  Bi  Bi14  1  0.256594  0.243406  0.256594  1
  Ru  Ru15  1  0.123706  0.876294  0.123706  1
