# generated using pymatgen
data_CaTbOsC2
_symmetry_space_group_name_H-M   'P 1'
_cell_length_a   5.16100900
_cell_length_b   6.46255300
_cell_length_c   10.16911700
_cell_angle_alpha   90.00000000
_cell_angle_beta   90.00000000
_cell_angle_gamma   90.00000000
_symmetry_Int_Tables_number   1
_chemical_formula_structural   CaTbOsC2
_chemical_formula_sum   'Ca4 Tb4 Os4 C8'
_cell_volume   339.17355101
_cell_formula_units_Z   4
loop_
 _symmetry_equiv_pos_site_id
 _symmetry_equiv_pos_as_xyz
  1  'x, y, z'
loop_
 _atom_site_type_symbol
 _atom_site_label
 _atom_site_symmetry_multiplicity
 _atom_site_fract_x
 _atom_site_fract_y
 _atom_site_fract_z
 _atom_site_occupancy
  Ca  Ca0  1  0.250000  0.531818  0.221515  1
  Ca  Ca1  1  0.750000  0.468182  0.778485  1
  Ca  Ca2  1  0.750000  0.968182  0.721515  1
  Ca  Ca3  1  0.250000  0.031818  0.278485  1
  Tb  Tb4  1  0.250000  0.686551  0.558111  1
  Tb  Tb5  1  0.750000  0.313449  0.441889  1
  Tb  Tb6  1  0.750000  0.813449  0.058111  1
  Tb  Tb7  1  0.250000  0.186551  0.941889  1
  Os  Os8  1  0.250000  0.725799  0.859235  1
  Os  Os9  1  0.750000  0.274201  0.140765  1
  Os  Os10  1  0.750000  0.774201  0.359235  1
  Os  Os11  1  0.250000  0.225799  0.640765  1
  C  C12  1  0.250000  0.463319  0.757434  1
  C  C13  1  0.750000  0.536681  0.242566  1
  C  C14  1  0.750000  0.036681  0.257434  1
  C  C15  1  0.250000  0.963319  0.742566  1
  C  C16  1  0.250000  0.815235  0.036118  1
  C  C17  1  0.750000  0.184765  0.963882  1
  C  C18  1  0.750000  0.684765  0.536118  1
  C  C19  1  0.250000  0.315235  0.463882  1
