# generated using pymatgen
data_PmTh(SiPt)2
_symmetry_space_group_name_H-M   'P 1'
_cell_length_a   5.96184351
_cell_length_b   5.96184338
_cell_length_c   5.96184400
_cell_angle_alpha   138.59468556
_cell_angle_beta   105.52525973
_cell_angle_gamma   88.98507209
_symmetry_Int_Tables_number   1
_chemical_formula_structural   PmTh(SiPt)2
_chemical_formula_sum   'Pm1 Th1 Si2 Pt2'
_cell_volume   129.34558944
_cell_formula_units_Z   1
loop_
 _symmetry_equiv_pos_site_id
 _symmetry_equiv_pos_as_xyz
  1  'x, y, z'
loop_
 _atom_site_type_symbol
 _atom_site_label
 _atom_site_symmetry_multiplicity
 _atom_site_fract_x
 _atom_site_fract_y
 _atom_site_fract_z
 _atom_site_occupancy
  Pm  Pm0  1  0.998815  0.000000  0.998815  1
  Th  Th1  1  0.498612  0.500000  0.998612  1
  Si  Si2  1  0.918853  0.250743  0.668110  1
  Si  Si3  1  0.417367  0.749256  0.668109  1
  Pt  Pt4  1  0.582488  0.249313  0.333175  1
  Pt  Pt5  1  0.083862  0.750686  0.333175  1
