# generated using pymatgen
data_TmLu3Tc5Ru3
_symmetry_space_group_name_H-M   'P 1'
_cell_length_a   5.28334604
_cell_length_b   5.28334687
_cell_length_c   9.01389200
_cell_angle_alpha   90.00231353
_cell_angle_beta   89.99768268
_cell_angle_gamma   121.62279002
_symmetry_Int_Tables_number   1
_chemical_formula_structural   TmLu3Tc5Ru3
_chemical_formula_sum   'Tm1 Lu3 Tc5 Ru3'
_cell_volume   214.25185507
_cell_formula_units_Z   1
loop_
 _symmetry_equiv_pos_site_id
 _symmetry_equiv_pos_as_xyz
  1  'x, y, z'
loop_
 _atom_site_type_symbol
 _atom_site_label
 _atom_site_symmetry_multiplicity
 _atom_site_fract_x
 _atom_site_fract_y
 _atom_site_fract_z
 _atom_site_occupancy
  Tm  Tm0  1  0.335399  0.664601  0.435182  1
  Lu  Lu1  1  0.665147  0.334853  0.563274  1
  Lu  Lu2  1  0.665138  0.334862  0.936785  1
  Lu  Lu3  1  0.335428  0.664572  0.064826  1
  Tc  Tc4  1  0.170580  0.343063  0.750080  1
  Tc  Tc5  1  0.172084  0.827916  0.750075  1
  Tc  Tc6  1  0.340564  0.174721  0.249888  1
  Tc  Tc7  1  0.825279  0.659436  0.249888  1
  Tc  Tc8  1  0.656937  0.829420  0.750080  1
  Ru  Ru9  1  0.004274  0.995726  0.001360  1
  Ru  Ru10  1  0.824881  0.175119  0.249875  1
  Ru  Ru11  1  0.004293  0.995707  0.498686  1
