# generated using pymatgen
data_Nb12Al4Pt4CN3
_symmetry_space_group_name_H-M   'P 1'
_cell_length_a   7.07956323
_cell_length_b   7.07956323
_cell_length_c   7.07956323
_cell_angle_alpha   90.09846713
_cell_angle_beta   89.90153287
_cell_angle_gamma   89.90153287
_symmetry_Int_Tables_number   1
_chemical_formula_structural   Nb12Al4Pt4CN3
_chemical_formula_sum   'Nb12 Al4 Pt4 C1 N3'
_cell_volume   354.82766142
_cell_formula_units_Z   1
loop_
 _symmetry_equiv_pos_site_id
 _symmetry_equiv_pos_as_xyz
  1  'x, y, z'
loop_
 _atom_site_type_symbol
 _atom_site_label
 _atom_site_symmetry_multiplicity
 _atom_site_fract_x
 _atom_site_fract_y
 _atom_site_fract_z
 _atom_site_occupancy
  Nb  Nb0  1  0.790678  0.955468  0.375961  1
  Nb  Nb1  1  0.708167  0.044262  0.877381  1
  Nb  Nb2  1  0.210751  0.456049  0.124306  1
  Nb  Nb3  1  0.289740  0.543874  0.622900  1
  Nb  Nb4  1  0.955738  0.377381  0.791833  1
  Nb  Nb5  1  0.044532  0.875961  0.709322  1
  Nb  Nb6  1  0.456126  0.122900  0.210260  1
  Nb  Nb7  1  0.543951  0.624306  0.289249  1
  Nb  Nb8  1  0.375694  0.789249  0.956049  1
  Nb  Nb9  1  0.877100  0.710260  0.043874  1
  Nb  Nb10  1  0.124039  0.209322  0.455468  1
  Nb  Nb11  1  0.622619  0.291833  0.544262  1
  Al  Al12  1  0.571585  0.428415  0.928415  1
  Al  Al13  1  0.429055  0.928252  0.571953  1
  Al  Al14  1  0.928047  0.570945  0.428252  1
  Al  Al15  1  0.071748  0.071953  0.070945  1
  Pt  Pt16  1  0.177526  0.822474  0.322474  1
  Pt  Pt17  1  0.323324  0.178347  0.821879  1
  Pt  Pt18  1  0.821653  0.321879  0.176676  1
  Pt  Pt19  1  0.678121  0.676676  0.678347  1
  C  C20  1  0.874760  0.125240  0.625240  1
  N  N21  1  0.623334  0.874199  0.124090  1
  N  N22  1  0.125801  0.624090  0.876666  1
  N  N23  1  0.375910  0.376666  0.374199  1
