# generated using pymatgen
data_Zr4Si(B7Ir6)2
_symmetry_space_group_name_H-M   'P 1'
_cell_length_a   3.51327676
_cell_length_b   7.70956783
_cell_length_c   13.33852762
_cell_angle_alpha   90.01731875
_cell_angle_beta   90.02992936
_cell_angle_gamma   90.04652427
_symmetry_Int_Tables_number   1
_chemical_formula_structural   Zr4Si(B7Ir6)2
_chemical_formula_sum   'Zr4 Si1 B14 Ir12'
_cell_volume   361.28511388
_cell_formula_units_Z   1
loop_
 _symmetry_equiv_pos_site_id
 _symmetry_equiv_pos_as_xyz
  1  'x, y, z'
loop_
 _atom_site_type_symbol
 _atom_site_label
 _atom_site_symmetry_multiplicity
 _atom_site_fract_x
 _atom_site_fract_y
 _atom_site_fract_z
 _atom_site_occupancy
  Zr  Zr0  1  0.251366  0.498739  0.833654  1
  Zr  Zr1  1  0.252208  0.001159  0.333065  1
  Zr  Zr2  1  0.747792  0.998841  0.666935  1
  Zr  Zr3  1  0.748634  0.501261  0.166346  1
  Si  Si4  1  0.500000  0.500000  0.500000  1
  B  B5  1  0.500000  0.000000  0.000000  1
  B  B6  1  0.000000  0.000000  0.000000  1
  B  B7  1  0.758405  0.326906  0.725609  1
  B  B8  1  0.754103  0.828821  0.221638  1
  B  B9  1  0.751226  0.752623  0.803415  1
  B  B10  1  0.757397  0.248620  0.300561  1
  B  B11  1  0.749826  0.423459  0.974562  1
  B  B12  1  0.764504  0.920175  0.474142  1
  B  B13  1  0.245897  0.171179  0.778362  1
  B  B14  1  0.241595  0.673094  0.274391  1
  B  B15  1  0.242603  0.751380  0.699439  1
  B  B16  1  0.248774  0.247377  0.196585  1
  B  B17  1  0.235496  0.079825  0.525858  1
  B  B18  1  0.250174  0.576541  0.025438  1
  Ir  Ir19  1  0.744054  0.593354  0.669689  1
  Ir  Ir20  1  0.750321  0.091335  0.163571  1
  Ir  Ir21  1  0.751187  0.705224  0.963582  1
  Ir  Ir22  1  0.738599  0.202364  0.462142  1
  Ir  Ir23  1  0.748450  0.201001  0.872928  1
  Ir  Ir24  1  0.743203  0.705943  0.367977  1
  Ir  Ir25  1  0.249679  0.908665  0.836429  1
  Ir  Ir26  1  0.255946  0.406646  0.330311  1
  Ir  Ir27  1  0.261401  0.797636  0.537858  1
  Ir  Ir28  1  0.248813  0.294776  0.036418  1
  Ir  Ir29  1  0.256797  0.294057  0.632023  1
  Ir  Ir30  1  0.251550  0.798999  0.127072  1
