# generated using pymatgen
data_Ce2(AlCu)5
_symmetry_space_group_name_H-M   'P 1'
_cell_length_a   4.13936300
_cell_length_b   5.34768200
_cell_length_c   9.10976000
_cell_angle_alpha   90.00000000
_cell_angle_beta   90.00000000
_cell_angle_gamma   90.00000000
_symmetry_Int_Tables_number   1
_chemical_formula_structural   Ce2(AlCu)5
_chemical_formula_sum   'Ce2 Al5 Cu5'
_cell_volume   201.65362009
_cell_formula_units_Z   1
loop_
 _symmetry_equiv_pos_site_id
 _symmetry_equiv_pos_as_xyz
  1  'x, y, z'
loop_
 _atom_site_type_symbol
 _atom_site_label
 _atom_site_symmetry_multiplicity
 _atom_site_fract_x
 _atom_site_fract_y
 _atom_site_fract_z
 _atom_site_occupancy
  Ce  Ce0  1  0.000000  0.500000  0.000000  1
  Ce  Ce1  1  0.000000  0.000000  0.500000  1
  Al  Al2  1  0.500000  0.500000  0.500000  1
  Al  Al3  1  0.500000  0.749902  0.239633  1
  Al  Al4  1  0.500000  0.250098  0.760367  1
  Al  Al5  1  0.500000  0.250098  0.239633  1
  Al  Al6  1  0.500000  0.749902  0.760367  1
  Cu  Cu7  1  0.000000  0.500000  0.332583  1
  Cu  Cu8  1  0.000000  0.000000  0.838055  1
  Cu  Cu9  1  0.000000  0.000000  0.161945  1
  Cu  Cu10  1  0.000000  0.500000  0.667417  1
  Cu  Cu11  1  0.500000  0.000000  0.000000  1
