# generated using pymatgen
data_Rb4Ba4Sb(AsSe4)3
_symmetry_space_group_name_H-M   'P 1'
_cell_length_a   9.30624748
_cell_length_b   10.05205772
_cell_length_c   9.50898428
_cell_angle_alpha   72.29151319
_cell_angle_beta   90.20300881
_cell_angle_gamma   89.97441780
_symmetry_Int_Tables_number   1
_chemical_formula_structural   Rb4Ba4Sb(AsSe4)3
_chemical_formula_sum   'Rb4 Ba4 Sb1 As3 Se12'
_cell_volume   847.38054569
_cell_formula_units_Z   1
loop_
 _symmetry_equiv_pos_site_id
 _symmetry_equiv_pos_as_xyz
  1  'x, y, z'
loop_
 _atom_site_type_symbol
 _atom_site_label
 _atom_site_symmetry_multiplicity
 _atom_site_fract_x
 _atom_site_fract_y
 _atom_site_fract_z
 _atom_site_occupancy
  Rb  Rb0  1  0.092646  0.583134  0.292810  1
  Rb  Rb1  1  0.585798  0.412811  0.227626  1
  Rb  Rb2  1  0.910477  0.407942  0.728200  1
  Rb  Rb3  1  0.425744  0.589045  0.762929  1
  Ba  Ba4  1  0.713659  0.922602  0.029629  1
  Ba  Ba5  1  0.215190  0.076954  0.468445  1
  Ba  Ba6  1  0.281947  0.080658  0.969739  1
  Ba  Ba7  1  0.784001  0.925193  0.529145  1
  Sb  Sb8  1  0.048366  0.751741  0.861203  1
  As  As9  1  0.461721  0.762348  0.348971  1
  As  As10  1  0.957833  0.240586  0.148275  1
  As  As11  1  0.540045  0.236474  0.651371  1
  Se  Se12  1  0.196057  0.339458  0.101489  1
  Se  Se13  1  0.703308  0.669665  0.391870  1
  Se  Se14  1  0.787588  0.661480  0.895359  1
  Se  Se15  1  0.301503  0.334270  0.603046  1
  Se  Se16  1  0.004925  0.987323  0.220600  1
  Se  Se17  1  0.505097  0.016084  0.277357  1
  Se  Se18  1  0.993190  0.021299  0.776625  1
  Se  Se19  1  0.491423  0.984089  0.723306  1
  Se  Se20  1  0.398938  0.742171  0.109489  1
  Se  Se21  1  0.902096  0.259101  0.390036  1
  Se  Se22  1  0.596164  0.257680  0.892274  1
  Se  Se23  1  0.102284  0.737895  0.600206  1
