# generated using pymatgen
data_Ac5Pa(SnPt)6
_symmetry_space_group_name_H-M   'P 1'
_cell_length_a   7.85067000
_cell_length_b   7.77975582
_cell_length_c   8.52439200
_cell_angle_alpha   90.00000000
_cell_angle_beta   90.00000000
_cell_angle_gamma   119.87293788
_symmetry_Int_Tables_number   1
_chemical_formula_structural   Ac5Pa(SnPt)6
_chemical_formula_sum   'Ac5 Pa1 Sn6 Pt6'
_cell_volume   451.46216999
_cell_formula_units_Z   1
loop_
 _symmetry_equiv_pos_site_id
 _symmetry_equiv_pos_as_xyz
  1  'x, y, z'
loop_
 _atom_site_type_symbol
 _atom_site_label
 _atom_site_symmetry_multiplicity
 _atom_site_fract_x
 _atom_site_fract_y
 _atom_site_fract_z
 _atom_site_occupancy
  Ac  Ac0  1  0.412536  0.999130  0.250000  1
  Ac  Ac1  1  0.587411  0.585038  0.250000  1
  Ac  Ac2  1  0.000067  0.415858  0.250000  1
  Ac  Ac3  1  0.412523  0.000591  0.750000  1
  Ac  Ac4  1  0.586728  0.586959  0.750000  1
  Pa  Pa5  1  0.001053  0.413037  0.750000  1
  Sn  Sn6  1  0.241130  0.244108  0.000419  1
  Sn  Sn7  1  0.000134  0.756831  0.989482  1
  Sn  Sn8  1  0.000134  0.756831  0.510518  1
  Sn  Sn9  1  0.756463  0.001525  0.499342  1
  Sn  Sn10  1  0.241130  0.244108  0.499581  1
  Sn  Sn11  1  0.756463  0.001525  0.000658  1
  Pt  Pt12  1  0.998223  0.027229  0.750000  1
  Pt  Pt13  1  0.999217  0.996524  0.250000  1
  Pt  Pt14  1  0.695094  0.338975  0.983606  1
  Pt  Pt15  1  0.308300  0.646378  0.514828  1
  Pt  Pt16  1  0.308300  0.646378  0.985172  1
  Pt  Pt17  1  0.695094  0.338975  0.516394  1
