# generated using pymatgen
data_La2GaRh3
_symmetry_space_group_name_H-M   'P 1'
_cell_length_a   5.80430338
_cell_length_b   5.80430445
_cell_length_c   5.22824969
_cell_angle_alpha   56.28305518
_cell_angle_beta   56.28304688
_cell_angle_gamma   60.00000371
_symmetry_Int_Tables_number   1
_chemical_formula_structural   La2GaRh3
_chemical_formula_sum   'La2 Ga1 Rh3'
_cell_volume   117.08630555
_cell_formula_units_Z   1
loop_
 _symmetry_equiv_pos_site_id
 _symmetry_equiv_pos_as_xyz
  1  'x, y, z'
loop_
 _atom_site_type_symbol
 _atom_site_label
 _atom_site_symmetry_multiplicity
 _atom_site_fract_x
 _atom_site_fract_y
 _atom_site_fract_z
 _atom_site_occupancy
  La  La0  1  0.491124  0.491124  0.526628  1
  La  La1  1  0.758876  0.758876  0.723372  1
  Ga  Ga2  1  0.125000  0.125000  0.625000  1
  Rh  Rh3  1  0.125000  0.125000  0.125000  1
  Rh  Rh4  1  0.625000  0.125000  0.125000  1
  Rh  Rh5  1  0.125000  0.625000  0.125000  1
