# generated using pymatgen
data_TbMg4Sn18IrRh5
_symmetry_space_group_name_H-M   'P 1'
_cell_length_a   9.78200154
_cell_length_b   9.78200192
_cell_length_c   9.80057600
_cell_angle_alpha   59.93716826
_cell_angle_beta   59.93716696
_cell_angle_gamma   59.96879086
_symmetry_Int_Tables_number   1
_chemical_formula_structural   TbMg4Sn18IrRh5
_chemical_formula_sum   'Tb1 Mg4 Sn18 Ir1 Rh5'
_cell_volume   662.33334809
_cell_formula_units_Z   1
loop_
 _symmetry_equiv_pos_site_id
 _symmetry_equiv_pos_as_xyz
  1  'x, y, z'
loop_
 _atom_site_type_symbol
 _atom_site_label
 _atom_site_symmetry_multiplicity
 _atom_site_fract_x
 _atom_site_fract_y
 _atom_site_fract_z
 _atom_site_occupancy
  Tb  Tb0  1  0.500255  0.500255  0.499745  1
  Mg  Mg1  1  0.871323  0.871323  0.385287  1
  Mg  Mg2  1  0.871555  0.384979  0.871733  1
  Mg  Mg3  1  0.384979  0.871555  0.871733  1
  Mg  Mg4  1  0.871323  0.871323  0.872067  1
  Sn  Sn5  1  0.084377  0.084377  0.747417  1
  Sn  Sn6  1  0.085412  0.746776  0.083906  1
  Sn  Sn7  1  0.746776  0.085412  0.083906  1
  Sn  Sn8  1  0.084377  0.084377  0.083829  1
  Sn  Sn9  1  0.250072  0.250072  0.249928  1
  Sn  Sn10  1  0.492545  0.860350  0.153151  1
  Sn  Sn11  1  0.493001  0.493001  0.153890  1
  Sn  Sn12  1  0.860350  0.492545  0.153151  1
  Sn  Sn13  1  0.492977  0.153721  0.860117  1
  Sn  Sn14  1  0.859786  0.153455  0.493379  1
  Sn  Sn15  1  0.492977  0.153721  0.493184  1
  Sn  Sn16  1  0.153721  0.492977  0.493184  1
  Sn  Sn17  1  0.153455  0.859786  0.493379  1
  Sn  Sn18  1  0.153721  0.492977  0.860117  1
  Sn  Sn19  1  0.860350  0.492545  0.493952  1
  Sn  Sn20  1  0.493001  0.493001  0.860105  1
  Sn  Sn21  1  0.492545  0.860350  0.493952  1
  Sn  Sn22  1  0.750027  0.750027  0.749973  1
  Ir  Ir23  1  0.754939  0.754939  0.245061  1
  Rh  Rh24  1  0.245429  0.755027  0.245451  1
  Rh  Rh25  1  0.755027  0.245429  0.245451  1
  Rh  Rh26  1  0.245239  0.245239  0.754761  1
  Rh  Rh27  1  0.755027  0.245429  0.754093  1
  Rh  Rh28  1  0.245429  0.755027  0.754093  1
