# generated using pymatgen
data_Hf8CoMo3Ir4
_symmetry_space_group_name_H-M   'P 1'
_cell_length_a   6.51927600
_cell_length_b   4.62484100
_cell_length_c   9.24155300
_cell_angle_alpha   90.00000000
_cell_angle_beta   89.99997622
_cell_angle_gamma   90.00000000
_symmetry_Int_Tables_number   1
_chemical_formula_structural   Hf8CoMo3Ir4
_chemical_formula_sum   'Hf8 Co1 Mo3 Ir4'
_cell_volume   278.63850591
_cell_formula_units_Z   1
loop_
 _symmetry_equiv_pos_site_id
 _symmetry_equiv_pos_as_xyz
  1  'x, y, z'
loop_
 _atom_site_type_symbol
 _atom_site_label
 _atom_site_symmetry_multiplicity
 _atom_site_fract_x
 _atom_site_fract_y
 _atom_site_fract_z
 _atom_site_occupancy
  Hf  Hf0  1  0.999315  0.749999  0.123795  1
  Hf  Hf1  1  0.500682  0.749999  0.123796  1
  Hf  Hf2  1  0.999337  0.249999  0.374983  1
  Hf  Hf3  1  0.500664  0.249999  0.374983  1
  Hf  Hf4  1  0.500686  0.749999  0.626230  1
  Hf  Hf5  1  0.999313  0.749999  0.626229  1
  Hf  Hf6  1  0.500577  0.249999  0.874984  1
  Hf  Hf7  1  0.999426  0.249999  0.874984  1
  Co  Co8  1  0.250000  0.749999  0.875055  1
  Mo  Mo9  1  0.750000  0.249999  0.122554  1
  Mo  Mo10  1  0.249999  0.749999  0.375018  1
  Mo  Mo11  1  0.750000  0.249999  0.627411  1
  Ir  Ir12  1  0.250000  0.249999  0.121704  1
  Ir  Ir13  1  0.750000  0.749999  0.374998  1
  Ir  Ir14  1  0.250000  0.249999  0.628286  1
  Ir  Ir15  1  0.750000  0.749999  0.874994  1
