# generated using pymatgen
data_La5Dy2ThSb20
_symmetry_space_group_name_H-M   'P 1'
_cell_length_a   4.29574300
_cell_length_b   13.64999754
_cell_length_c   15.27987600
_cell_angle_alpha   78.82318013
_cell_angle_beta   90.00000000
_cell_angle_gamma   90.00000000
_symmetry_Int_Tables_number   1
_chemical_formula_structural   La5Dy2ThSb20
_chemical_formula_sum   'La5 Dy2 Th1 Sb20'
_cell_volume   878.97111046
_cell_formula_units_Z   1
loop_
 _symmetry_equiv_pos_site_id
 _symmetry_equiv_pos_as_xyz
  1  'x, y, z'
loop_
 _atom_site_type_symbol
 _atom_site_label
 _atom_site_symmetry_multiplicity
 _atom_site_fract_x
 _atom_site_fract_y
 _atom_site_fract_z
 _atom_site_occupancy
  La  La0  1  0.750000  0.331986  0.140164  1
  La  La1  1  0.250000  0.946941  0.364916  1
  La  La2  1  0.250000  0.667025  0.858975  1
  La  La3  1  0.250000  0.666579  0.576903  1
  La  La4  1  0.750000  0.053434  0.636007  1
  Dy  Dy5  1  0.250000  0.397502  0.769674  1
  Dy  Dy6  1  0.750000  0.602316  0.229637  1
  Th  Th7  1  0.750000  0.334265  0.423888  1
  Sb  Sb8  1  0.750000  0.858263  0.817007  1
  Sb  Sb9  1  0.250000  0.863194  0.675851  1
  Sb  Sb10  1  0.250000  0.152500  0.476351  1
  Sb  Sb11  1  0.750000  0.287930  0.928795  1
  Sb  Sb12  1  0.250000  0.150475  0.775140  1
  Sb  Sb13  1  0.750000  0.573610  0.442264  1
  Sb  Sb14  1  0.750000  0.138986  0.323304  1
  Sb  Sb15  1  0.250000  0.702603  0.349709  1
  Sb  Sb16  1  0.750000  0.295894  0.647702  1
  Sb  Sb17  1  0.750000  0.849422  0.224816  1
  Sb  Sb18  1  0.250000  0.420154  0.970958  1
  Sb  Sb19  1  0.250000  0.425321  0.554918  1
  Sb  Sb20  1  0.750000  0.571811  0.737191  1
  Sb  Sb21  1  0.250000  0.423486  0.267625  1
  Sb  Sb22  1  0.750000  0.855330  0.524114  1
  Sb  Sb23  1  0.750000  0.038949  0.885910  1
  Sb  Sb24  1  0.250000  0.710023  0.070766  1
  Sb  Sb25  1  0.250000  0.961898  0.115185  1
  Sb  Sb26  1  0.250000  0.142719  0.183021  1
  Sb  Sb27  1  0.750000  0.577383  0.029207  1
