# generated using pymatgen
data_Al13IrPd12
_symmetry_space_group_name_H-M   'P 1'
_cell_length_a   9.28395401
_cell_length_b   9.28395535
_cell_length_c   9.28395554
_cell_angle_alpha   116.48356452
_cell_angle_beta   116.48357332
_cell_angle_gamma   116.48357766
_symmetry_Int_Tables_number   1
_chemical_formula_structural   Al13IrPd12
_chemical_formula_sum   'Al13 Ir1 Pd12'
_cell_volume   380.45029727
_cell_formula_units_Z   1
loop_
 _symmetry_equiv_pos_site_id
 _symmetry_equiv_pos_as_xyz
  1  'x, y, z'
loop_
 _atom_site_type_symbol
 _atom_site_label
 _atom_site_symmetry_multiplicity
 _atom_site_fract_x
 _atom_site_fract_y
 _atom_site_fract_z
 _atom_site_occupancy
  Al  Al0  1  0.344570  0.098862  0.056516  1
  Al  Al1  1  0.056517  0.344570  0.098861  1
  Al  Al2  1  0.098861  0.056518  0.344569  1
  Al  Al3  1  0.655429  0.901137  0.943482  1
  Al  Al4  1  0.943482  0.655429  0.901137  1
  Al  Al5  1  0.901137  0.943481  0.655429  1
  Al  Al6  1  0.154603  0.597422  0.752717  1
  Al  Al7  1  0.752717  0.154603  0.597422  1
  Al  Al8  1  0.597422  0.752716  0.154603  1
  Al  Al9  1  0.845397  0.402578  0.247284  1
  Al  Al10  1  0.247284  0.845397  0.402578  1
  Al  Al11  1  0.402578  0.247284  0.845397  1
  Al  Al12  1  0.500001  0.500001  0.500001  1
  Ir  Ir13  1  0.000000  0.000000  0.000000  1
  Pd  Pd14  1  0.654079  0.098501  0.250921  1
  Pd  Pd15  1  0.250921  0.654079  0.098501  1
  Pd  Pd16  1  0.098501  0.250921  0.654079  1
  Pd  Pd17  1  0.345923  0.901501  0.749081  1
  Pd  Pd18  1  0.749082  0.345923  0.901501  1
  Pd  Pd19  1  0.901501  0.749082  0.345923  1
  Pd  Pd20  1  0.844510  0.597189  0.554866  1
  Pd  Pd21  1  0.554865  0.844509  0.597190  1
  Pd  Pd22  1  0.597190  0.554866  0.844509  1
  Pd  Pd23  1  0.155492  0.402813  0.445136  1
  Pd  Pd24  1  0.445137  0.155493  0.402812  1
  Pd  Pd25  1  0.402813  0.445136  0.155493  1
