# generated using pymatgen
data_Tb2SmMg3AgSn2
_symmetry_space_group_name_H-M   'P 1'
_cell_length_a   7.57568401
_cell_length_b   7.57568436
_cell_length_c   4.55540000
_cell_angle_alpha   90.00000000
_cell_angle_beta   90.00000000
_cell_angle_gamma   120.19168065
_symmetry_Int_Tables_number   1
_chemical_formula_structural   Tb2SmMg3AgSn2
_chemical_formula_sum   'Tb2 Sm1 Mg3 Ag1 Sn2'
_cell_volume   225.97416342
_cell_formula_units_Z   1
loop_
 _symmetry_equiv_pos_site_id
 _symmetry_equiv_pos_as_xyz
  1  'x, y, z'
loop_
 _atom_site_type_symbol
 _atom_site_label
 _atom_site_symmetry_multiplicity
 _atom_site_fract_x
 _atom_site_fract_y
 _atom_site_fract_z
 _atom_site_occupancy
  Tb  Tb0  1  0.000461  0.584901  0.500000  1
  Tb  Tb1  1  0.584901  0.000461  0.500000  1
  Sm  Sm2  1  0.415566  0.415566  0.500000  1
  Mg  Mg3  1  0.763291  0.763291  0.000000  1
  Mg  Mg4  1  0.236951  0.999614  0.000000  1
  Mg  Mg5  1  0.999614  0.236951  0.000000  1
  Ag  Ag6  1  0.998405  0.998405  0.500000  1
  Sn  Sn7  1  0.668221  0.332589  0.000000  1
  Sn  Sn8  1  0.332589  0.668221  0.000000  1
