# generated using pymatgen
data_Yb31Sn20
_symmetry_space_group_name_H-M   'P 1'
_cell_length_a   21.94182448
_cell_length_b   21.94182427
_cell_length_c   21.94182400
_cell_angle_alpha   146.77776688
_cell_angle_beta   146.77776602
_cell_angle_gamma   47.69294874
_symmetry_Int_Tables_number   1
_chemical_formula_structural   Yb31Sn20
_chemical_formula_sum   'Yb62 Sn40'
_cell_volume   3158.45596285
_cell_formula_units_Z   2
loop_
 _symmetry_equiv_pos_site_id
 _symmetry_equiv_pos_as_xyz
  1  'x, y, z'
loop_
 _atom_site_type_symbol
 _atom_site_label
 _atom_site_symmetry_multiplicity
 _atom_site_fract_x
 _atom_site_fract_y
 _atom_site_fract_z
 _atom_site_occupancy
  Yb  Yb0  1  0.559526  0.850766  0.135453  1
  Yb  Yb1  1  0.202409  0.073676  0.700374  1
  Yb  Yb2  1  0.162572  0.662572  0.500000  1
  Yb  Yb3  1  0.573867  0.073867  0.500000  1
  Yb  Yb4  1  0.662572  0.162572  0.500000  1
  Yb  Yb5  1  0.926133  0.426133  0.500000  1
  Yb  Yb6  1  0.497966  0.797591  0.871267  1
  Yb  Yb7  1  0.158263  0.001807  0.265661  1
  Yb  Yb8  1  0.736146  0.892602  0.734339  1
  Yb  Yb9  1  0.797591  0.926324  0.299626  1
  Yb  Yb10  1  0.998193  0.263854  0.156456  1
  Yb  Yb11  1  0.341737  0.607398  0.843544  1
  Yb  Yb12  1  0.841737  0.998193  0.734339  1
  Yb  Yb13  1  0.573676  0.702409  0.700374  1
  Yb  Yb14  1  0.940474  0.075927  0.291240  1
  Yb  Yb15  1  0.665537  0.165537  0.831074  1
  Yb  Yb16  1  0.426324  0.297591  0.299626  1
  Yb  Yb17  1  0.373302  0.502035  0.299626  1
  Yb  Yb18  1  0.424073  0.559526  0.708760  1
  Yb  Yb19  1  0.075927  0.784688  0.135453  1
  Yb  Yb20  1  0.002035  0.873302  0.299626  1
  Yb  Yb21  1  0.502035  0.202409  0.128733  1
  Yb  Yb22  1  0.337428  0.837428  0.500000  1
  Yb  Yb23  1  0.334463  0.834463  0.168926  1
  Yb  Yb24  1  0.997965  0.126698  0.700374  1
  Yb  Yb25  1  0.236146  0.501807  0.843544  1
  Yb  Yb26  1  0.215312  0.350766  0.291240  1
  Yb  Yb27  1  0.892602  0.158263  0.156456  1
  Yb  Yb28  1  0.926324  0.626698  0.128733  1
  Yb  Yb29  1  0.126698  0.426324  0.128733  1
  Yb  Yb30  1  0.250000  0.750000  0.500000  1
  Yb  Yb31  1  0.715312  0.424073  0.864547  1
  Yb  Yb32  1  0.392602  0.236146  0.734339  1
  Yb  Yb33  1  0.763854  0.498193  0.156456  1
  Yb  Yb34  1  0.073867  0.573867  0.500000  1
  Yb  Yb35  1  0.501807  0.658263  0.265661  1
  Yb  Yb36  1  0.702409  0.002035  0.128733  1
  Yb  Yb37  1  0.784688  0.649234  0.708760  1
  Yb  Yb38  1  0.284688  0.575927  0.135453  1
  Yb  Yb39  1  0.073676  0.373302  0.871267  1
  Yb  Yb40  1  0.837428  0.337428  0.500000  1
  Yb  Yb41  1  0.873302  0.573676  0.871267  1
  Yb  Yb42  1  0.107398  0.841737  0.843544  1
  Yb  Yb43  1  0.850766  0.715312  0.291240  1
  Yb  Yb44  1  0.658263  0.392602  0.156456  1
  Yb  Yb45  1  0.001807  0.736146  0.843544  1
  Yb  Yb46  1  0.750000  0.250000  0.500000  1
  Yb  Yb47  1  0.149234  0.284688  0.708760  1
  Yb  Yb48  1  0.834463  0.665537  0.500000  1
  Yb  Yb49  1  0.350766  0.059526  0.135453  1
  Yb  Yb50  1  0.498193  0.341737  0.734339  1
  Yb  Yb51  1  0.059526  0.924073  0.708760  1
  Yb  Yb52  1  0.649234  0.940474  0.864547  1
  Yb  Yb53  1  0.426133  0.926133  0.500000  1
  Yb  Yb54  1  0.607398  0.763854  0.265661  1
  Yb  Yb55  1  0.575927  0.440474  0.291240  1
  Yb  Yb56  1  0.263854  0.107398  0.265661  1
  Yb  Yb57  1  0.924073  0.215312  0.864547  1
  Yb  Yb58  1  0.440474  0.149234  0.864547  1
  Yb  Yb59  1  0.626698  0.497966  0.700374  1
  Yb  Yb60  1  0.297591  0.997965  0.871267  1
  Yb  Yb61  1  0.165537  0.334463  0.500000  1
  Sn  Sn62  1  0.726536  0.623079  0.500000  1
  Sn  Sn63  1  0.361358  0.556045  0.500000  1
  Sn  Sn64  1  0.326907  0.326907  0.000000  1
  Sn  Sn65  1  0.826907  0.826907  0.000000  1
  Sn  Sn66  1  0.376921  0.876921  0.103457  1
  Sn  Sn67  1  0.463548  0.283712  0.500000  1
  Sn  Sn68  1  0.963548  0.463548  0.179836  1
  Sn  Sn69  1  0.056045  0.861358  0.500000  1
  Sn  Sn70  1  0.914154  0.414154  0.328309  1
  Sn  Sn71  1  0.443955  0.943955  0.805313  1
  Sn  Sn72  1  0.905006  0.905006  0.000000  1
  Sn  Sn73  1  0.585846  0.914154  0.500000  1
  Sn  Sn74  1  0.226536  0.726536  0.103457  1
  Sn  Sn75  1  0.716288  0.216288  0.179836  1
  Sn  Sn76  1  0.138642  0.638642  0.194687  1
  Sn  Sn77  1  0.594994  0.594994  0.000000  1
  Sn  Sn78  1  0.773464  0.273464  0.896543  1
  Sn  Sn79  1  0.861358  0.361358  0.805313  1
  Sn  Sn80  1  0.123079  0.226536  0.500000  1
  Sn  Sn81  1  0.500000  0.500000  0.000000  1
  Sn  Sn82  1  0.943955  0.138642  0.500000  1
  Sn  Sn83  1  0.273464  0.376921  0.500000  1
  Sn  Sn84  1  0.405006  0.405006  0.000000  1
  Sn  Sn85  1  0.094994  0.094994  0.000000  1
  Sn  Sn86  1  0.623079  0.123079  0.896543  1
  Sn  Sn87  1  0.250000  0.250000  0.000000  1
  Sn  Sn88  1  0.036452  0.536452  0.820164  1
  Sn  Sn89  1  0.783712  0.963548  0.500000  1
  Sn  Sn90  1  0.216288  0.036452  0.500000  1
  Sn  Sn91  1  0.876921  0.773464  0.500000  1
  Sn  Sn92  1  0.673093  0.673093  0.000000  1
  Sn  Sn93  1  0.414154  0.085846  0.500000  1
  Sn  Sn94  1  0.556045  0.056045  0.194687  1
  Sn  Sn95  1  0.000000  0.000000  0.000000  1
  Sn  Sn96  1  0.085846  0.585846  0.671691  1
  Sn  Sn97  1  0.283712  0.783712  0.820164  1
  Sn  Sn98  1  0.638642  0.443955  0.500000  1
  Sn  Sn99  1  0.173093  0.173093  0.000000  1
  Sn  Sn100  1  0.750000  0.750000  0.000000  1
  Sn  Sn101  1  0.536452  0.716288  0.500000  1
