# generated using pymatgen
data_YTm4Pa3(ReB6)4
_symmetry_space_group_name_H-M   'P 1'
_cell_length_a   3.69090900
_cell_length_b   9.13354685
_cell_length_c   11.49391403
_cell_angle_alpha   90.13765038
_cell_angle_beta   90.00000000
_cell_angle_gamma   90.00000000
_symmetry_Int_Tables_number   1
_chemical_formula_structural   YTm4Pa3(ReB6)4
_chemical_formula_sum   'Y1 Tm4 Pa3 Re4 B24'
_cell_volume   387.47125499
_cell_formula_units_Z   1
loop_
 _symmetry_equiv_pos_site_id
 _symmetry_equiv_pos_as_xyz
  1  'x, y, z'
loop_
 _atom_site_type_symbol
 _atom_site_label
 _atom_site_symmetry_multiplicity
 _atom_site_fract_x
 _atom_site_fract_y
 _atom_site_fract_z
 _atom_site_occupancy
  Y  Y0  1  0.000000  0.179577  0.912975  1
  Tm  Tm1  1  0.000000  0.945523  0.374559  1
  Tm  Tm2  1  0.000000  0.055372  0.627281  1
  Tm  Tm3  1  0.000000  0.443643  0.125015  1
  Tm  Tm4  1  0.000000  0.553794  0.874011  1
  Pa  Pa5  1  0.000000  0.321054  0.413353  1
  Pa  Pa6  1  0.000000  0.678318  0.587298  1
  Pa  Pa7  1  0.000000  0.823076  0.085982  1
  Re  Re8  1  0.000000  0.638698  0.321510  1
  Re  Re9  1  0.000000  0.363671  0.675746  1
  Re  Re10  1  0.000000  0.138157  0.181185  1
  Re  Re11  1  0.000000  0.859234  0.820943  1
  B  B12  1  0.500000  0.553788  0.432480  1
  B  B13  1  0.500000  0.446702  0.566577  1
  B  B14  1  0.500000  0.053077  0.068073  1
  B  B15  1  0.500000  0.945338  0.933045  1
  B  B16  1  0.500000  0.749558  0.420226  1
  B  B17  1  0.500000  0.250899  0.580494  1
  B  B18  1  0.500000  0.248786  0.079865  1
  B  B19  1  0.500000  0.751222  0.920281  1
  B  B20  1  0.500000  0.792952  0.265511  1
  B  B21  1  0.500000  0.207627  0.733998  1
  B  B22  1  0.500000  0.292811  0.233440  1
  B  B23  1  0.500000  0.706895  0.765913  1
  B  B24  1  0.500000  0.632142  0.184321  1
  B  B25  1  0.500000  0.368259  0.814678  1
  B  B26  1  0.500000  0.132326  0.315430  1
  B  B27  1  0.500000  0.868005  0.685723  1
  B  B28  1  0.500000  0.982488  0.213308  1
  B  B29  1  0.500000  0.017718  0.786556  1
  B  B30  1  0.500000  0.482646  0.285516  1
  B  B31  1  0.500000  0.516950  0.714179  1
  B  B32  1  0.500000  0.607469  0.029780  1
  B  B33  1  0.500000  0.392085  0.969890  1
  B  B34  1  0.500000  0.108311  0.470519  1
  B  B35  1  0.500000  0.891829  0.530340  1
