# generated using pymatgen
data_Dy5Ho11(HgIr)4
_symmetry_space_group_name_H-M   'P 1'
_cell_length_a   9.57509121
_cell_length_b   9.57643471
_cell_length_c   9.57643409
_cell_angle_alpha   60.01463644
_cell_angle_beta   60.00464026
_cell_angle_gamma   60.00464297
_symmetry_Int_Tables_number   1
_chemical_formula_structural   Dy5Ho11(HgIr)4
_chemical_formula_sum   'Dy5 Ho11 Hg4 Ir4'
_cell_volume   621.03215392
_cell_formula_units_Z   1
loop_
 _symmetry_equiv_pos_site_id
 _symmetry_equiv_pos_as_xyz
  1  'x, y, z'
loop_
 _atom_site_type_symbol
 _atom_site_label
 _atom_site_symmetry_multiplicity
 _atom_site_fract_x
 _atom_site_fract_y
 _atom_site_fract_z
 _atom_site_occupancy
  Dy  Dy0  1  0.811547  0.188453  0.188453  1
  Dy  Dy1  1  0.811777  0.188449  0.811515  1
  Dy  Dy2  1  0.188259  0.811515  0.188449  1
  Dy  Dy3  1  0.811777  0.811515  0.188449  1
  Dy  Dy4  1  0.188259  0.188449  0.811515  1
  Ho  Ho5  1  0.600255  0.600633  0.600633  1
  Ho  Ho6  1  0.600550  0.600929  0.197970  1
  Ho  Ho7  1  0.600550  0.197970  0.600929  1
  Ho  Ho8  1  0.198478  0.600633  0.600633  1
  Ho  Ho9  1  0.059926  0.440074  0.440074  1
  Ho  Ho10  1  0.440046  0.059954  0.059954  1
  Ho  Ho11  1  0.440289  0.059691  0.439884  1
  Ho  Ho12  1  0.060136  0.439884  0.059691  1
  Ho  Ho13  1  0.440289  0.439884  0.059691  1
  Ho  Ho14  1  0.060136  0.059691  0.439884  1
  Ho  Ho15  1  0.188458  0.811542  0.811542  1
  Hg  Hg16  1  0.834985  0.834789  0.834789  1
  Hg  Hg17  1  0.834889  0.834918  0.495304  1
  Hg  Hg18  1  0.834889  0.495304  0.834918  1
  Hg  Hg19  1  0.495438  0.834789  0.834789  1
  Ir  Ir20  1  0.391557  0.392151  0.392151  1
  Ir  Ir21  1  0.391684  0.392511  0.824122  1
  Ir  Ir22  1  0.391684  0.824122  0.392511  1
  Ir  Ir23  1  0.824143  0.392151  0.392151  1
