# generated using pymatgen
data_Ag7Pd(SO4)6
_symmetry_space_group_name_H-M   'P 1'
_cell_length_a   8.50393074
_cell_length_b   8.50393195
_cell_length_c   8.50393200
_cell_angle_alpha   107.98581434
_cell_angle_beta   107.98581698
_cell_angle_gamma   107.98581054
_symmetry_Int_Tables_number   1
_chemical_formula_structural   Ag7Pd(SO4)6
_chemical_formula_sum   'Ag7 Pd1 S6 O24'
_cell_volume   497.74437471
_cell_formula_units_Z   1
loop_
 _symmetry_equiv_pos_site_id
 _symmetry_equiv_pos_as_xyz
  1  'x, y, z'
loop_
 _atom_site_type_symbol
 _atom_site_label
 _atom_site_symmetry_multiplicity
 _atom_site_fract_x
 _atom_site_fract_y
 _atom_site_fract_z
 _atom_site_occupancy
  Ag  Ag0  1  0.500000  0.500000  0.500000  1
  Ag  Ag1  1  0.656617  0.164342  0.316114  1
  Ag  Ag2  1  0.316114  0.656617  0.164342  1
  Ag  Ag3  1  0.164342  0.316114  0.656617  1
  Ag  Ag4  1  0.343383  0.835658  0.683886  1
  Ag  Ag5  1  0.683886  0.343383  0.835658  1
  Ag  Ag6  1  0.835658  0.683886  0.343383  1
  Pd  Pd7  1  0.000000  0.000000  0.000000  1
  S  S8  1  0.244087  0.029251  0.397983  1
  S  S9  1  0.397983  0.244087  0.029251  1
  S  S10  1  0.029251  0.397983  0.244087  1
  S  S11  1  0.755913  0.970749  0.602017  1
  S  S12  1  0.602017  0.755913  0.970749  1
  S  S13  1  0.970749  0.602017  0.755913  1
  O  O14  1  0.086489  0.517137  0.827289  1
  O  O15  1  0.827289  0.086489  0.517137  1
  O  O16  1  0.517137  0.827289  0.086489  1
  O  O17  1  0.913511  0.482863  0.172711  1
  O  O18  1  0.172711  0.913511  0.482863  1
  O  O19  1  0.482863  0.172711  0.913511  1
  O  O20  1  0.027820  0.685055  0.642842  1
  O  O21  1  0.642842  0.027820  0.685055  1
  O  O22  1  0.685055  0.642842  0.027820  1
  O  O23  1  0.972180  0.314945  0.357158  1
  O  O24  1  0.357158  0.972180  0.314945  1
  O  O25  1  0.314945  0.357158  0.972180  1
  O  O26  1  0.010490  0.258030  0.068560  1
  O  O27  1  0.068560  0.010490  0.258030  1
  O  O28  1  0.540717  0.354407  0.228144  1
  O  O29  1  0.354407  0.228144  0.540717  1
  O  O30  1  0.228144  0.540717  0.354407  1
  O  O31  1  0.459283  0.645593  0.771856  1
  O  O32  1  0.645593  0.771856  0.459283  1
  O  O33  1  0.771856  0.459283  0.645593  1
  O  O34  1  0.741970  0.931440  0.989510  1
  O  O35  1  0.931440  0.989510  0.741970  1
  O  O36  1  0.989510  0.741970  0.931440  1
  O  O37  1  0.258030  0.068560  0.010490  1
