# generated using pymatgen
data_Sc4Cr2B4Ir7Ru3
_symmetry_space_group_name_H-M   'P 1'
_cell_length_a   9.46454706
_cell_length_b   3.00027800
_cell_length_c   9.45007706
_cell_angle_alpha   90.00000000
_cell_angle_beta   89.98699883
_cell_angle_gamma   90.00000000
_symmetry_Int_Tables_number   1
_chemical_formula_structural   Sc4Cr2B4Ir7Ru3
_chemical_formula_sum   'Sc4 Cr2 B4 Ir7 Ru3'
_cell_volume   268.34695482
_cell_formula_units_Z   1
loop_
 _symmetry_equiv_pos_site_id
 _symmetry_equiv_pos_as_xyz
  1  'x, y, z'
loop_
 _atom_site_type_symbol
 _atom_site_label
 _atom_site_symmetry_multiplicity
 _atom_site_fract_x
 _atom_site_fract_y
 _atom_site_fract_z
 _atom_site_occupancy
  Sc  Sc0  1  0.327237  0.000000  0.174419  1
  Sc  Sc1  1  0.825109  0.000000  0.321713  1
  Sc  Sc2  1  0.174114  0.000000  0.673816  1
  Sc  Sc3  1  0.675782  0.000000  0.829718  1
  Cr  Cr4  1  0.994668  0.000000  0.001492  1
  Cr  Cr5  1  0.501331  0.000000  0.500087  1
  B  B6  1  0.624804  0.000000  0.119929  1
  B  B7  1  0.121993  0.000000  0.377841  1
  B  B8  1  0.878955  0.000000  0.621299  1
  B  B9  1  0.376742  0.000000  0.880123  1
  Ir  Ir10  1  0.073421  0.500001  0.214280  1
  Ir  Ir11  1  0.570884  0.500001  0.284816  1
  Ir  Ir12  1  0.285172  0.500001  0.429082  1
  Ir  Ir13  1  0.715662  0.500001  0.572244  1
  Ir  Ir14  1  0.427904  0.500001  0.715746  1
  Ir  Ir15  1  0.929304  0.500001  0.784304  1
  Ir  Ir16  1  0.213247  0.500001  0.928314  1
  Ru  Ru17  1  0.499108  0.500001  0.000471  1
  Ru  Ru18  1  0.784720  0.500001  0.071522  1
  Ru  Ru19  1  0.999843  0.500001  0.498786  1
