# generated using pymatgen
data_Er15Th(InRu)4
_symmetry_space_group_name_H-M   'P 1'
_cell_length_a   9.63173558
_cell_length_b   9.52062571
_cell_length_c   9.63173600
_cell_angle_alpha   59.61317979
_cell_angle_beta   59.99999170
_cell_angle_gamma   59.61318461
_symmetry_Int_Tables_number   1
_chemical_formula_structural   Er15Th(InRu)4
_chemical_formula_sum   'Er15 Th1 In4 Ru4'
_cell_volume   620.86257046
_cell_formula_units_Z   1
loop_
 _symmetry_equiv_pos_site_id
 _symmetry_equiv_pos_as_xyz
  1  'x, y, z'
loop_
 _atom_site_type_symbol
 _atom_site_label
 _atom_site_symmetry_multiplicity
 _atom_site_fract_x
 _atom_site_fract_y
 _atom_site_fract_z
 _atom_site_occupancy
  Er  Er0  1  0.943100  0.935760  0.560570  1
  Er  Er1  1  0.940199  0.558213  0.940199  1
  Er  Er2  1  0.314714  0.682298  0.314714  1
  Er  Er3  1  0.940199  0.558213  0.561389  1
  Er  Er4  1  0.309297  0.301898  0.694403  1
  Er  Er5  1  0.104424  0.101743  0.104424  1
  Er  Er6  1  0.561389  0.558213  0.940199  1
  Er  Er7  1  0.104424  0.101743  0.689410  1
  Er  Er8  1  0.694403  0.301898  0.694403  1
  Er  Er9  1  0.688273  0.682298  0.314714  1
  Er  Er10  1  0.694403  0.301898  0.309297  1
  Er  Er11  1  0.314714  0.682298  0.688273  1
  Er  Er12  1  0.560570  0.935760  0.560570  1
  Er  Er13  1  0.689410  0.101743  0.104424  1
  Er  Er14  1  0.560570  0.935760  0.943100  1
  Th  Th15  1  0.090550  0.728351  0.090550  1
  In  In16  1  0.332112  0.335591  0.332112  1
  In  In17  1  0.000186  0.335591  0.332112  1
  In  In18  1  0.333042  0.000873  0.333042  1
  In  In19  1  0.332112  0.335591  0.000186  1
  Ru  Ru20  1  0.886690  0.902872  0.886690  1
  Ru  Ru21  1  0.886690  0.902872  0.323747  1
  Ru  Ru22  1  0.323747  0.902872  0.886690  1
  Ru  Ru23  1  0.894784  0.315650  0.894784  1
