# generated using pymatgen
data_Ce3Sm(Si3Au)2
_symmetry_space_group_name_H-M   'P 1'
_cell_length_a   8.34507848
_cell_length_b   8.29693563
_cell_length_c   5.94258930
_cell_angle_alpha   69.51300692
_cell_angle_beta   68.64584697
_cell_angle_gamma   41.84113882
_symmetry_Int_Tables_number   1
_chemical_formula_structural   Ce3Sm(Si3Au)2
_chemical_formula_sum   'Ce3 Sm1 Si6 Au2'
_cell_volume   253.56603306
_cell_formula_units_Z   1
loop_
 _symmetry_equiv_pos_site_id
 _symmetry_equiv_pos_as_xyz
  1  'x, y, z'
loop_
 _atom_site_type_symbol
 _atom_site_label
 _atom_site_symmetry_multiplicity
 _atom_site_fract_x
 _atom_site_fract_y
 _atom_site_fract_z
 _atom_site_occupancy
  Ce  Ce0  1  0.250001  0.250000  0.249999  1
  Ce  Ce1  1  0.257717  0.742283  0.257717  1
  Ce  Ce2  1  0.742283  0.257717  0.742283  1
  Sm  Sm3  1  0.750000  0.749999  0.750000  1
  Si  Si4  1  0.827508  0.335572  0.172517  1
  Si  Si5  1  0.664403  0.172517  0.335571  1
  Si  Si6  1  0.663414  0.663414  0.336587  1
  Si  Si7  1  0.336586  0.336586  0.663414  1
  Si  Si8  1  0.335571  0.827509  0.664403  1
  Si  Si9  1  0.172517  0.664403  0.827508  1
  Au  Au10  1  0.833537  0.833537  0.166463  1
  Au  Au11  1  0.166462  0.166463  0.833538  1
