# generated using pymatgen
data_Ho5Tm5Sn5Sb
_symmetry_space_group_name_H-M   'P 1'
_cell_length_a   8.89269906
_cell_length_b   8.89129583
_cell_length_c   6.43243200
_cell_angle_alpha   90.00000000
_cell_angle_beta   90.00000000
_cell_angle_gamma   120.06126246
_symmetry_Int_Tables_number   1
_chemical_formula_structural   Ho5Tm5Sn5Sb
_chemical_formula_sum   'Ho5 Tm5 Sn5 Sb1'
_cell_volume   440.18583334
_cell_formula_units_Z   1
loop_
 _symmetry_equiv_pos_site_id
 _symmetry_equiv_pos_as_xyz
  1  'x, y, z'
loop_
 _atom_site_type_symbol
 _atom_site_label
 _atom_site_symmetry_multiplicity
 _atom_site_fract_x
 _atom_site_fract_y
 _atom_site_fract_z
 _atom_site_occupancy
  Ho  Ho0  1  0.997971  0.759761  0.750000  1
  Ho  Ho1  1  0.761607  0.761015  0.250000  1
  Ho  Ho2  1  0.761795  0.000089  0.750000  1
  Ho  Ho3  1  0.237973  0.240077  0.750000  1
  Ho  Ho4  1  0.239240  0.000146  0.250000  1
  Tm  Tm5  1  0.000762  0.239269  0.250000  1
  Tm  Tm6  1  0.333091  0.665584  0.499795  1
  Tm  Tm7  1  0.667526  0.334329  0.000194  1
  Tm  Tm8  1  0.667526  0.334329  0.499806  1
  Tm  Tm9  1  0.333091  0.665584  0.000205  1
  Sn  Sn10  1  0.395668  0.395095  0.250000  1
  Sn  Sn11  1  0.000821  0.604412  0.250000  1
  Sn  Sn12  1  0.999721  0.396038  0.750000  1
  Sn  Sn13  1  0.603691  0.603979  0.750000  1
  Sn  Sn14  1  0.605442  0.000266  0.250000  1
  Sb  Sb15  1  0.394075  0.000026  0.750000  1
