# generated using pymatgen
data_LaDyHo4Ta2O14
_symmetry_space_group_name_H-M   'P 1'
_cell_length_a   6.50322956
_cell_length_b   6.50322892
_cell_length_c   7.53961601
_cell_angle_alpha   89.86610337
_cell_angle_beta   90.13389999
_cell_angle_gamma   108.62152434
_symmetry_Int_Tables_number   1
_chemical_formula_structural   LaDyHo4Ta2O14
_chemical_formula_sum   'La1 Dy1 Ho4 Ta2 O14'
_cell_volume   302.17104401
_cell_formula_units_Z   1
loop_
 _symmetry_equiv_pos_site_id
 _symmetry_equiv_pos_as_xyz
  1  'x, y, z'
loop_
 _atom_site_type_symbol
 _atom_site_label
 _atom_site_symmetry_multiplicity
 _atom_site_fract_x
 _atom_site_fract_y
 _atom_site_fract_z
 _atom_site_occupancy
  La  La0  1  0.509604  0.509604  0.500000  1
  Dy  Dy1  1  0.460116  0.460116  0.000000  1
  Ho  Ho2  1  0.000000  0.534606  0.239845  1
  Ho  Ho3  1  0.998028  0.466354  0.746752  1
  Ho  Ho4  1  0.534606  0.000000  0.760155  1
  Ho  Ho5  1  0.466354  0.998028  0.253248  1
  Ta  Ta6  1  0.000723  0.000723  0.500000  1
  Ta  Ta7  1  0.997048  0.997048  0.000000  1
  O  O8  1  0.933058  0.067564  0.749680  1
  O  O9  1  0.067564  0.933058  0.250320  1
  O  O10  1  0.357296  0.643002  0.238113  1
  O  O11  1  0.643002  0.357296  0.761887  1
  O  O12  1  0.365981  0.633203  0.761621  1
  O  O13  1  0.633203  0.365981  0.238379  1
  O  O14  1  0.326849  0.080572  0.974160  1
  O  O15  1  0.676360  0.929032  0.472162  1
  O  O16  1  0.314779  0.060849  0.541672  1
  O  O17  1  0.692650  0.952329  0.042553  1
  O  O18  1  0.060849  0.314779  0.458328  1
  O  O19  1  0.952329  0.692650  0.957447  1
  O  O20  1  0.929032  0.676360  0.527838  1
  O  O21  1  0.080572  0.326849  0.025840  1
