# generated using pymatgen
data_Tb12Th4Mg4ReRh3
_symmetry_space_group_name_H-M   'P 1'
_cell_length_a   9.87826109
_cell_length_b   9.87826138
_cell_length_c   9.87826133
_cell_angle_alpha   59.30848493
_cell_angle_beta   59.30848626
_cell_angle_gamma   59.30848606
_symmetry_Int_Tables_number   1
_chemical_formula_structural   Tb12Th4Mg4ReRh3
_chemical_formula_sum   'Tb12 Th4 Mg4 Re1 Rh3'
_cell_volume   670.86346261
_cell_formula_units_Z   1
loop_
 _symmetry_equiv_pos_site_id
 _symmetry_equiv_pos_as_xyz
  1  'x, y, z'
loop_
 _atom_site_type_symbol
 _atom_site_label
 _atom_site_symmetry_multiplicity
 _atom_site_fract_x
 _atom_site_fract_y
 _atom_site_fract_z
 _atom_site_occupancy
  Tb  Tb0  1  0.813763  0.186987  0.186987  1
  Tb  Tb1  1  0.186065  0.812595  0.812595  1
  Tb  Tb2  1  0.186987  0.813763  0.186987  1
  Tb  Tb3  1  0.812595  0.186065  0.812595  1
  Tb  Tb4  1  0.186987  0.186987  0.813763  1
  Tb  Tb5  1  0.812595  0.812595  0.186065  1
  Tb  Tb6  1  0.934676  0.565630  0.565630  1
  Tb  Tb7  1  0.559200  0.936282  0.936282  1
  Tb  Tb8  1  0.565630  0.934676  0.565630  1
  Tb  Tb9  1  0.936282  0.559200  0.936282  1
  Tb  Tb10  1  0.565630  0.565630  0.934676  1
  Tb  Tb11  1  0.936282  0.936282  0.559200  1
  Th  Th12  1  0.347665  0.347665  0.347665  1
  Th  Th13  1  0.346819  0.346819  0.958744  1
  Th  Th14  1  0.346819  0.958744  0.346819  1
  Th  Th15  1  0.958744  0.346819  0.346819  1
  Mg  Mg16  1  0.579865  0.579865  0.579865  1
  Mg  Mg17  1  0.579166  0.579166  0.259208  1
  Mg  Mg18  1  0.579166  0.259208  0.579166  1
  Mg  Mg19  1  0.259208  0.579166  0.579166  1
  Re  Re20  1  0.145007  0.145007  0.145007  1
  Rh  Rh21  1  0.145688  0.145688  0.569471  1
  Rh  Rh22  1  0.145688  0.569471  0.145688  1
  Rh  Rh23  1  0.569471  0.145688  0.145688  1
