# generated using pymatgen
data_Ca2La17TbIr12
_symmetry_space_group_name_H-M   'P 1'
_cell_length_a   11.40615900
_cell_length_b   11.40615900
_cell_length_c   6.58023700
_cell_angle_alpha   90.00000000
_cell_angle_beta   90.00000000
_cell_angle_gamma   90.00000000
_symmetry_Int_Tables_number   1
_chemical_formula_structural   Ca2La17TbIr12
_chemical_formula_sum   'Ca2 La17 Tb1 Ir12'
_cell_volume   856.09188123
_cell_formula_units_Z   1
loop_
 _symmetry_equiv_pos_site_id
 _symmetry_equiv_pos_as_xyz
  1  'x, y, z'
loop_
 _atom_site_type_symbol
 _atom_site_label
 _atom_site_symmetry_multiplicity
 _atom_site_fract_x
 _atom_site_fract_y
 _atom_site_fract_z
 _atom_site_occupancy
  Ca  Ca0  1  0.000000  0.000000  0.500000  1
  Ca  Ca1  1  0.000000  0.000000  0.000000  1
  La  La2  1  0.287705  0.089674  0.391169  1
  La  La3  1  0.287800  0.909786  0.890911  1
  La  La4  1  0.712200  0.090214  0.890911  1
  La  La5  1  0.712295  0.910326  0.391169  1
  La  La6  1  0.590487  0.790948  0.888786  1
  La  La7  1  0.590241  0.208565  0.387623  1
  La  La8  1  0.409759  0.791435  0.387623  1
  La  La9  1  0.409513  0.209052  0.888786  1
  La  La10  1  0.208565  0.409759  0.612377  1
  La  La11  1  0.209052  0.590487  0.111214  1
  La  La12  1  0.790948  0.409513  0.111214  1
  La  La13  1  0.791435  0.590241  0.612377  1
  La  La14  1  0.909786  0.712200  0.109089  1
  La  La15  1  0.910326  0.287705  0.608831  1
  La  La16  1  0.089674  0.712295  0.608831  1
  La  La17  1  0.090214  0.287800  0.109089  1
  La  La18  1  0.500000  0.500000  0.500000  1
  Tb  Tb19  1  0.500000  0.500000  0.000000  1
  Ir  Ir20  1  0.841298  0.158598  0.250111  1
  Ir  Ir21  1  0.841402  0.841298  0.749889  1
  Ir  Ir22  1  0.158598  0.158702  0.749889  1
  Ir  Ir23  1  0.158702  0.841402  0.250111  1
  Ir  Ir24  1  0.652759  0.347346  0.752181  1
  Ir  Ir25  1  0.652654  0.652759  0.247819  1
  Ir  Ir26  1  0.347346  0.347241  0.247819  1
  Ir  Ir27  1  0.347241  0.652654  0.752181  1
  Ir  Ir28  1  0.500000  0.000000  0.115887  1
  Ir  Ir29  1  0.500000  0.000000  0.615522  1
  Ir  Ir30  1  0.000000  0.500000  0.884113  1
  Ir  Ir31  1  0.000000  0.500000  0.384478  1
