# generated using pymatgen
data_ErSbI6
_symmetry_space_group_name_H-M   'P 1'
_cell_length_a   8.73431453
_cell_length_b   8.73431507
_cell_length_c   8.73431488
_cell_angle_alpha   52.22918032
_cell_angle_beta   52.22917703
_cell_angle_gamma   52.22917761
_symmetry_Int_Tables_number   1
_chemical_formula_structural   ErSbI6
_chemical_formula_sum   'Er1 Sb1 I6'
_cell_volume   385.14033142
_cell_formula_units_Z   1
loop_
 _symmetry_equiv_pos_site_id
 _symmetry_equiv_pos_as_xyz
  1  'x, y, z'
loop_
 _atom_site_type_symbol
 _atom_site_label
 _atom_site_symmetry_multiplicity
 _atom_site_fract_x
 _atom_site_fract_y
 _atom_site_fract_z
 _atom_site_occupancy
  Er  Er0  1  0.833302  0.833302  0.833302  1
  Sb  Sb1  1  0.166644  0.166644  0.166644  1
  I  I2  1  0.220595  0.580545  0.932061  1
  I  I3  1  0.932061  0.220595  0.580545  1
  I  I4  1  0.580545  0.932061  0.220595  1
  I  I5  1  0.775443  0.426351  0.065060  1
  I  I6  1  0.065060  0.775443  0.426351  1
  I  I7  1  0.426351  0.065060  0.775443  1
