# generated using pymatgen
data_Nd5Al5Si4Au
_symmetry_space_group_name_H-M   'P 1'
_cell_length_a   4.16657226
_cell_length_b   4.30988924
_cell_length_c   37.35145496
_cell_angle_alpha   86.69256781
_cell_angle_beta   86.80266447
_cell_angle_gamma   90.00000235
_symmetry_Int_Tables_number   1
_chemical_formula_structural   Nd5Al5Si4Au
_chemical_formula_sum   'Nd10 Al10 Si8 Au2'
_cell_volume   668.57438176
_cell_formula_units_Z   2
loop_
 _symmetry_equiv_pos_site_id
 _symmetry_equiv_pos_as_xyz
  1  'x, y, z'
loop_
 _atom_site_type_symbol
 _atom_site_label
 _atom_site_symmetry_multiplicity
 _atom_site_fract_x
 _atom_site_fract_y
 _atom_site_fract_z
 _atom_site_occupancy
  Nd  Nd0  1  0.948718  0.448718  0.102565  1
  Nd  Nd1  1  0.350669  0.850669  0.298664  1
  Nd  Nd2  1  0.752351  0.252351  0.495298  1
  Nd  Nd3  1  0.148955  0.648955  0.702090  1
  Nd  Nd4  1  0.546466  0.046466  0.907069  1
  Nd  Nd5  1  0.998386  0.998386  0.003229  1
  Nd  Nd6  1  0.399886  0.399886  0.200226  1
  Nd  Nd7  1  0.801743  0.801743  0.396514  1
  Nd  Nd8  1  0.203711  0.203711  0.592578  1
  Nd  Nd9  1  0.601501  0.601501  0.796996  1
  Al  Al10  1  0.465652  0.965652  0.068698  1
  Al  Al11  1  0.867435  0.367435  0.265130  1
  Al  Al12  1  0.268984  0.768984  0.462032  1
  Al  Al13  1  0.667444  0.167444  0.665112  1
  Al  Al14  1  0.065222  0.565222  0.869557  1
  Al  Al15  1  0.915984  0.915984  0.168033  1
  Al  Al16  1  0.317870  0.317870  0.364260  1
  Al  Al17  1  0.718744  0.718744  0.562510  1
  Al  Al18  1  0.116224  0.116224  0.767553  1
  Al  Al19  1  0.514400  0.514400  0.971198  1
  Si  Si20  1  0.432968  0.932968  0.134062  1
  Si  Si21  1  0.834864  0.334864  0.330273  1
  Si  Si22  1  0.236316  0.736316  0.527369  1
  Si  Si23  1  0.633981  0.133981  0.732038  1
  Si  Si24  1  0.031709  0.531709  0.936583  1
  Si  Si25  1  0.481683  0.481683  0.036635  1
  Si  Si26  1  0.883417  0.883417  0.233166  1
  Si  Si27  1  0.285243  0.285243  0.429512  1
  Au  Au28  1  0.684576  0.684576  0.630846  1
  Au  Au29  1  0.082097  0.082097  0.835804  1
