# generated using pymatgen
data_Sr8Ca7Y5Pt16
_symmetry_space_group_name_H-M   'P 1'
_cell_length_a   7.61472357
_cell_length_b   8.02584593
_cell_length_c   15.14160900
_cell_angle_alpha   89.99416751
_cell_angle_beta   90.06275302
_cell_angle_gamma   89.92494793
_symmetry_Int_Tables_number   1
_chemical_formula_structural   Sr8Ca7Y5Pt16
_chemical_formula_sum   'Sr8 Ca7 Y5 Pt16'
_cell_volume   925.37199533
_cell_formula_units_Z   1
loop_
 _symmetry_equiv_pos_site_id
 _symmetry_equiv_pos_as_xyz
  1  'x, y, z'
loop_
 _atom_site_type_symbol
 _atom_site_label
 _atom_site_symmetry_multiplicity
 _atom_site_fract_x
 _atom_site_fract_y
 _atom_site_fract_z
 _atom_site_occupancy
  Sr  Sr0  1  0.492429  0.321670  0.903830  1
  Sr  Sr1  1  0.992819  0.178724  0.595650  1
  Sr  Sr2  1  0.507366  0.678741  0.405055  1
  Sr  Sr3  1  0.007189  0.822108  0.095662  1
  Sr  Sr4  1  0.507446  0.677854  0.095210  1
  Sr  Sr5  1  0.005896  0.822309  0.404636  1
  Sr  Sr6  1  0.493830  0.323557  0.595754  1
  Sr  Sr7  1  0.993101  0.175891  0.903385  1
  Ca  Ca8  1  0.333253  0.828985  0.878477  1
  Ca  Ca9  1  0.832888  0.671634  0.622149  1
  Ca  Ca10  1  0.668061  0.170050  0.377765  1
  Ca  Ca11  1  0.171167  0.493041  0.749527  1
  Ca  Ca12  1  0.670001  0.007131  0.749731  1
  Ca  Ca13  1  0.826184  0.508346  0.250638  1
  Ca  Ca14  1  0.331425  0.990258  0.250937  1
  Y  Y15  1  0.166251  0.328832  0.123545  1
  Y  Y16  1  0.667436  0.169942  0.124049  1
  Y  Y17  1  0.167327  0.329374  0.374841  1
  Y  Y18  1  0.331757  0.830570  0.624869  1
  Y  Y19  1  0.833179  0.669234  0.875547  1
  Pt  Pt20  1  0.346639  0.047769  0.045091  1
  Pt  Pt21  1  0.853088  0.461263  0.455206  1
  Pt  Pt22  1  0.646921  0.961845  0.543950  1
  Pt  Pt23  1  0.152873  0.535382  0.959825  1
  Pt  Pt24  1  0.667825  0.955245  0.961188  1
  Pt  Pt25  1  0.171973  0.544856  0.539085  1
  Pt  Pt26  1  0.328125  0.044128  0.460272  1
  Pt  Pt27  1  0.834468  0.452920  0.041922  1
  Pt  Pt28  1  0.539341  0.630275  0.748873  1
  Pt  Pt29  1  0.039086  0.869696  0.752692  1
  Pt  Pt30  1  0.457286  0.367581  0.246248  1
  Pt  Pt31  1  0.965311  0.132608  0.246910  1
  Pt  Pt32  1  0.288298  0.119725  0.745946  1
  Pt  Pt33  1  0.788966  0.380882  0.754158  1
  Pt  Pt34  1  0.714140  0.882294  0.246753  1
  Pt  Pt35  1  0.206653  0.615274  0.250620  1
