# generated using pymatgen
data_Gd6Dy3Er11Pb16
_symmetry_space_group_name_H-M   'P 1'
_cell_length_a   8.19428253
_cell_length_b   8.27631382
_cell_length_c   15.59370400
_cell_angle_alpha   89.97915526
_cell_angle_beta   90.02059193
_cell_angle_gamma   90.25078203
_symmetry_Int_Tables_number   1
_chemical_formula_structural   Gd6Dy3Er11Pb16
_chemical_formula_sum   'Gd6 Dy3 Er11 Pb16'
_cell_volume   1057.53062575
_cell_formula_units_Z   1
loop_
 _symmetry_equiv_pos_site_id
 _symmetry_equiv_pos_as_xyz
  1  'x, y, z'
loop_
 _atom_site_type_symbol
 _atom_site_label
 _atom_site_symmetry_multiplicity
 _atom_site_fract_x
 _atom_site_fract_y
 _atom_site_fract_z
 _atom_site_occupancy
  Gd  Gd0  1  0.471133  0.678095  0.403397  1
  Gd  Gd1  1  0.971081  0.822713  0.097312  1
  Gd  Gd2  1  0.471639  0.677840  0.096797  1
  Gd  Gd3  1  0.971225  0.822237  0.403158  1
  Gd  Gd4  1  0.527784  0.321511  0.596785  1
  Gd  Gd5  1  0.028038  0.178089  0.902915  1
  Dy  Dy6  1  0.871217  0.657057  0.878035  1
  Dy  Dy7  1  0.530833  0.321461  0.901407  1
  Dy  Dy8  1  0.030613  0.177316  0.598397  1
  Er  Er9  1  0.368944  0.843184  0.877795  1
  Er  Er10  1  0.869334  0.656879  0.621940  1
  Er  Er11  1  0.630050  0.156466  0.378311  1
  Er  Er12  1  0.129672  0.343695  0.121793  1
  Er  Er13  1  0.629368  0.156653  0.122128  1
  Er  Er14  1  0.129594  0.342749  0.378274  1
  Er  Er15  1  0.370517  0.843569  0.622256  1
  Er  Er16  1  0.203329  0.504283  0.749589  1
  Er  Er17  1  0.702922  0.995740  0.749916  1
  Er  Er18  1  0.796468  0.495357  0.249863  1
  Er  Er19  1  0.296208  0.004611  0.250267  1
  Pb  Pb20  1  0.288730  0.039607  0.042889  1
  Pb  Pb21  1  0.789097  0.461308  0.456714  1
  Pb  Pb22  1  0.713062  0.963344  0.543742  1
  Pb  Pb23  1  0.214973  0.535084  0.955988  1
  Pb  Pb24  1  0.709552  0.962615  0.956815  1
  Pb  Pb25  1  0.209953  0.538132  0.543463  1
  Pb  Pb26  1  0.287483  0.039638  0.457818  1
  Pb  Pb27  1  0.787233  0.460366  0.042840  1
  Pb  Pb28  1  0.564504  0.626615  0.750190  1
  Pb  Pb29  1  0.065196  0.874167  0.749134  1
  Pb  Pb30  1  0.435043  0.373269  0.250306  1
  Pb  Pb31  1  0.934763  0.126717  0.249891  1
  Pb  Pb32  1  0.341225  0.154310  0.750446  1
  Pb  Pb33  1  0.841569  0.345321  0.748984  1
  Pb  Pb34  1  0.658923  0.846539  0.250289  1
  Pb  Pb35  1  0.158720  0.653467  0.250154  1
