# generated using pymatgen
data_Rb(Ti3S4)4
_symmetry_space_group_name_H-M   'P 1'
_cell_length_a   10.14403888
_cell_length_b   10.14403912
_cell_length_c   9.55723025
_cell_angle_alpha   61.88259542
_cell_angle_beta   61.88259569
_cell_angle_gamma   39.28769824
_symmetry_Int_Tables_number   1
_chemical_formula_structural   Rb(Ti3S4)4
_chemical_formula_sum   'Rb1 Ti12 S16'
_cell_volume   539.16131362
_cell_formula_units_Z   1
loop_
 _symmetry_equiv_pos_site_id
 _symmetry_equiv_pos_as_xyz
  1  'x, y, z'
loop_
 _atom_site_type_symbol
 _atom_site_label
 _atom_site_symmetry_multiplicity
 _atom_site_fract_x
 _atom_site_fract_y
 _atom_site_fract_z
 _atom_site_occupancy
  Rb  Rb0  1  0.374873  0.374873  0.999713  1
  Ti  Ti1  1  0.942027  0.942027  0.512538  1
  Ti  Ti2  1  0.442237  0.442237  0.513256  1
  Ti  Ti3  1  0.130555  0.130555  0.354754  1
  Ti  Ti4  1  0.632550  0.632550  0.350541  1
  Ti  Ti5  1  0.050147  0.050147  0.134803  1
  Ti  Ti6  1  0.552596  0.552596  0.133757  1
  Ti  Ti7  1  0.057356  0.558745  0.490392  1
  Ti  Ti8  1  0.558745  0.057356  0.490392  1
  Ti  Ti9  1  0.872301  0.367949  0.643756  1
  Ti  Ti10  1  0.367949  0.872301  0.643756  1
  Ti  Ti11  1  0.945220  0.448402  0.866098  1
  Ti  Ti12  1  0.448402  0.945220  0.866098  1
  S  S13  1  0.531835  0.531835  0.636399  1
  S  S14  1  0.029355  0.029355  0.641736  1
  S  S15  1  0.696243  0.696243  0.048581  1
  S  S16  1  0.192814  0.192814  0.050878  1
  S  S17  1  0.400485  0.400485  0.312466  1
  S  S18  1  0.899258  0.899258  0.309958  1
  S  S19  1  0.471190  0.972864  0.356403  1
  S  S20  1  0.972864  0.471190  0.356403  1
  S  S21  1  0.303645  0.802775  0.949658  1
  S  S22  1  0.802775  0.303645  0.949658  1
  S  S23  1  0.600412  0.099153  0.693967  1
  S  S24  1  0.099153  0.600412  0.693967  1
  S  S25  1  0.707999  0.707999  0.666550  1
  S  S26  1  0.208575  0.208575  0.667176  1
  S  S27  1  0.291697  0.791740  0.333172  1
  S  S28  1  0.791740  0.291697  0.333172  1
