# generated using pymatgen
data_TiNbAlRh5
_symmetry_space_group_name_H-M   'P 1'
_cell_length_a   4.02531200
_cell_length_b   5.44549229
_cell_length_c   10.70979488
_cell_angle_alpha   90.86292833
_cell_angle_beta   90.00000000
_cell_angle_gamma   90.00000000
_symmetry_Int_Tables_number   1
_chemical_formula_structural   TiNbAlRh5
_chemical_formula_sum   'Ti2 Nb2 Al2 Rh10'
_cell_volume   234.72999569
_cell_formula_units_Z   2
loop_
 _symmetry_equiv_pos_site_id
 _symmetry_equiv_pos_as_xyz
  1  'x, y, z'
loop_
 _atom_site_type_symbol
 _atom_site_label
 _atom_site_symmetry_multiplicity
 _atom_site_fract_x
 _atom_site_fract_y
 _atom_site_fract_z
 _atom_site_occupancy
  Ti  Ti0  1  0.500000  0.824523  0.362854  1
  Ti  Ti1  1  0.500000  0.175477  0.637146  1
  Nb  Nb2  1  0.500000  0.320186  0.142552  1
  Nb  Nb3  1  0.500000  0.679814  0.857448  1
  Al  Al4  1  0.000000  0.000000  0.000000  1
  Al  Al5  1  0.000000  0.500000  0.500000  1
  Rh  Rh6  1  0.000000  0.000000  0.500000  1
  Rh  Rh7  1  0.000000  0.500000  0.000000  1
  Rh  Rh8  1  0.000000  0.073050  0.245523  1
  Rh  Rh9  1  0.000000  0.926950  0.754477  1
  Rh  Rh10  1  0.000000  0.575092  0.257250  1
  Rh  Rh11  1  0.000000  0.424908  0.742750  1
  Rh  Rh12  1  0.500000  0.310762  0.392579  1
  Rh  Rh13  1  0.500000  0.689238  0.607421  1
  Rh  Rh14  1  0.500000  0.808987  0.109919  1
  Rh  Rh15  1  0.500000  0.191013  0.890081  1
