# generated using pymatgen
data_Tm3Lu7Rh4
_symmetry_space_group_name_H-M   'P 1'
_cell_length_a   6.35153118
_cell_length_b   7.05433229
_cell_length_c   8.39237276
_cell_angle_alpha   96.76056156
_cell_angle_beta   112.19018770
_cell_angle_gamma   89.96159961
_symmetry_Int_Tables_number   1
_chemical_formula_structural   Tm3Lu7Rh4
_chemical_formula_sum   'Tm3 Lu7 Rh4'
_cell_volume   345.36345266
_cell_formula_units_Z   1
loop_
 _symmetry_equiv_pos_site_id
 _symmetry_equiv_pos_as_xyz
  1  'x, y, z'
loop_
 _atom_site_type_symbol
 _atom_site_label
 _atom_site_symmetry_multiplicity
 _atom_site_fract_x
 _atom_site_fract_y
 _atom_site_fract_z
 _atom_site_occupancy
  Tm  Tm0  1  0.523949  0.081737  0.813467  1
  Tm  Tm1  1  0.475887  0.918115  0.186327  1
  Tm  Tm2  1  0.710417  0.418140  0.186405  1
  Lu  Lu3  1  0.289618  0.582182  0.813511  1
  Lu  Lu4  1  0.290059  0.313206  0.440079  1
  Lu  Lu5  1  0.710395  0.686907  0.560337  1
  Lu  Lu6  1  0.850436  0.187192  0.560318  1
  Lu  Lu7  1  0.149636  0.812690  0.439881  1
  Lu  Lu8  1  0.074023  0.250013  0.999852  1
  Lu  Lu9  1  0.926084  0.750016  0.999910  1
  Rh  Rh10  1  0.322743  0.571176  0.219902  1
  Rh  Rh11  1  0.676506  0.429123  0.780000  1
  Rh  Rh12  1  0.102978  0.928414  0.780130  1
  Rh  Rh13  1  0.897270  0.071087  0.219880  1
