# generated using pymatgen
data_Hf5Ge(B2Ru5)2
_symmetry_space_group_name_H-M   'P 1'
_cell_length_a   9.44614500
_cell_length_b   9.44614500
_cell_length_c   3.09126400
_cell_angle_alpha   90.00000000
_cell_angle_beta   90.00000000
_cell_angle_gamma   90.00000000
_symmetry_Int_Tables_number   1
_chemical_formula_structural   Hf5Ge(B2Ru5)2
_chemical_formula_sum   'Hf5 Ge1 B4 Ru10'
_cell_volume   275.83242135
_cell_formula_units_Z   1
loop_
 _symmetry_equiv_pos_site_id
 _symmetry_equiv_pos_as_xyz
  1  'x, y, z'
loop_
 _atom_site_type_symbol
 _atom_site_label
 _atom_site_symmetry_multiplicity
 _atom_site_fract_x
 _atom_site_fract_y
 _atom_site_fract_z
 _atom_site_occupancy
  Hf  Hf0  1  0.825079  0.675289  0.000000  1
  Hf  Hf1  1  0.174921  0.324711  0.000000  1
  Hf  Hf2  1  0.324711  0.825079  0.000000  1
  Hf  Hf3  1  0.675289  0.174921  0.000000  1
  Hf  Hf4  1  0.000000  0.000000  0.000000  1
  Ge  Ge5  1  0.500000  0.500000  0.000000  1
  B  B6  1  0.620040  0.874739  0.000000  1
  B  B7  1  0.379960  0.125261  0.000000  1
  B  B8  1  0.125261  0.620040  0.000000  1
  B  B9  1  0.874739  0.379960  0.000000  1
  Ru  Ru10  1  0.566269  0.712456  0.500000  1
  Ru  Ru11  1  0.433731  0.287544  0.500000  1
  Ru  Ru12  1  0.075400  0.777882  0.500000  1
  Ru  Ru13  1  0.924600  0.222118  0.500000  1
  Ru  Ru14  1  0.287544  0.566269  0.500000  1
  Ru  Ru15  1  0.712456  0.433731  0.500000  1
  Ru  Ru16  1  0.222118  0.075400  0.500000  1
  Ru  Ru17  1  0.777882  0.924600  0.500000  1
  Ru  Ru18  1  0.500000  0.000000  0.500000  1
  Ru  Ru19  1  0.000000  0.500000  0.500000  1
