# generated using pymatgen
data_Er10Ga3Bi2Ir
_symmetry_space_group_name_H-M   'P 1'
_cell_length_a   8.59779636
_cell_length_b   8.59779621
_cell_length_c   8.72993330
_cell_angle_alpha   124.87162836
_cell_angle_beta   124.87162993
_cell_angle_gamma   80.73196506
_symmetry_Int_Tables_number   1
_chemical_formula_structural   Er10Ga3Bi2Ir
_chemical_formula_sum   'Er10 Ga3 Bi2 Ir1'
_cell_volume   420.99466331
_cell_formula_units_Z   1
loop_
 _symmetry_equiv_pos_site_id
 _symmetry_equiv_pos_as_xyz
  1  'x, y, z'
loop_
 _atom_site_type_symbol
 _atom_site_label
 _atom_site_symmetry_multiplicity
 _atom_site_fract_x
 _atom_site_fract_y
 _atom_site_fract_z
 _atom_site_occupancy
  Er  Er0  1  0.997732  0.998737  0.996469  1
  Er  Er1  1  0.501263  0.502268  0.003531  1
  Er  Er2  1  0.780481  0.297888  0.796888  1
  Er  Er3  1  0.202112  0.719519  0.203112  1
  Er  Er4  1  0.483592  0.000999  0.203112  1
  Er  Er5  1  0.305203  0.459604  0.500000  1
  Er  Er6  1  0.040396  0.194797  0.500000  1
  Er  Er7  1  0.499001  0.016408  0.796888  1
  Er  Er8  1  0.708103  0.515388  0.500000  1
  Er  Er9  1  0.984612  0.791897  0.500000  1
  Ga  Ga10  1  0.144377  0.645325  0.789704  1
  Ga  Ga11  1  0.854675  0.355623  0.210296  1
  Ga  Ga12  1  0.636637  0.863363  0.500000  1
  Bi  Bi13  1  0.243978  0.256022  0.000000  1
  Bi  Bi14  1  0.743978  0.756022  0.000000  1
  Ir  Ir15  1  0.373862  0.126138  0.500000  1
