# generated using pymatgen
data_Te12PRhCl6
_symmetry_space_group_name_H-M   'P 1'
_cell_length_a   9.14906541
_cell_length_b   9.14906602
_cell_length_c   9.14906532
_cell_angle_alpha   108.17915888
_cell_angle_beta   108.17916368
_cell_angle_gamma   108.17917324
_symmetry_Int_Tables_number   1
_chemical_formula_structural   Te12PRhCl6
_chemical_formula_sum   'Te12 P1 Rh1 Cl6'
_cell_volume   616.12193247
_cell_formula_units_Z   1
loop_
 _symmetry_equiv_pos_site_id
 _symmetry_equiv_pos_as_xyz
  1  'x, y, z'
loop_
 _atom_site_type_symbol
 _atom_site_label
 _atom_site_symmetry_multiplicity
 _atom_site_fract_x
 _atom_site_fract_y
 _atom_site_fract_z
 _atom_site_occupancy
  Te  Te0  1  0.826582  0.804574  0.092343  1
  Te  Te1  1  0.804574  0.092343  0.826582  1
  Te  Te2  1  0.092343  0.826582  0.804574  1
  Te  Te3  1  0.695426  0.673418  0.407657  1
  Te  Te4  1  0.407657  0.695426  0.673418  1
  Te  Te5  1  0.673418  0.407657  0.695426  1
  Te  Te6  1  0.170374  0.181055  0.917640  1
  Te  Te7  1  0.181055  0.917640  0.170374  1
  Te  Te8  1  0.917640  0.170374  0.181055  1
  Te  Te9  1  0.318945  0.329626  0.582360  1
  Te  Te10  1  0.582360  0.318945  0.329626  1
  Te  Te11  1  0.329626  0.582360  0.318945  1
  P  P12  1  0.750000  0.750000  0.750000  1
  Rh  Rh13  1  0.250000  0.250000  0.250000  1
  Cl  Cl14  1  0.750000  0.017710  0.482290  1
  Cl  Cl15  1  0.482290  0.750000  0.017710  1
  Cl  Cl16  1  0.017710  0.482290  0.750000  1
  Cl  Cl17  1  0.250000  0.984716  0.515284  1
  Cl  Cl18  1  0.515284  0.250000  0.984716  1
  Cl  Cl19  1  0.984716  0.515284  0.250000  1
