# generated using pymatgen
data_Ho4TmMn(Co3P2)6
_symmetry_space_group_name_H-M   'P 1'
_cell_length_a   11.96573169
_cell_length_b   11.96573157
_cell_length_c   3.65285300
_cell_angle_alpha   90.00000000
_cell_angle_beta   90.00000000
_cell_angle_gamma   119.87093577
_symmetry_Int_Tables_number   1
_chemical_formula_structural   Ho4TmMn(Co3P2)6
_chemical_formula_sum   'Ho4 Tm1 Mn1 Co18 P12'
_cell_volume   453.52861263
_cell_formula_units_Z   1
loop_
 _symmetry_equiv_pos_site_id
 _symmetry_equiv_pos_as_xyz
  1  'x, y, z'
loop_
 _atom_site_type_symbol
 _atom_site_label
 _atom_site_symmetry_multiplicity
 _atom_site_fract_x
 _atom_site_fract_y
 _atom_site_fract_z
 _atom_site_occupancy
  Ho  Ho0  1  0.666551  0.333631  0.000000  1
  Ho  Ho1  1  0.333631  0.666551  0.000000  1
  Ho  Ho2  1  0.187677  0.000676  0.500000  1
  Ho  Ho3  1  0.000676  0.187677  0.500000  1
  Tm  Tm4  1  0.813061  0.813061  0.500000  1
  Mn  Mn5  1  0.443190  0.443190  0.000000  1
  Co  Co6  1  0.874693  0.358303  0.500000  1
  Co  Co7  1  0.643446  0.517459  0.500000  1
  Co  Co8  1  0.484319  0.125212  0.500000  1
  Co  Co9  1  0.358303  0.874693  0.500000  1
  Co  Co10  1  0.517459  0.643446  0.500000  1
  Co  Co11  1  0.125212  0.484319  0.500000  1
  Co  Co12  1  0.552317  0.999766  0.000000  1
  Co  Co13  1  0.999766  0.552317  0.000000  1
  Co  Co14  1  0.799650  0.177411  0.000000  1
  Co  Co15  1  0.822923  0.623565  0.000000  1
  Co  Co16  1  0.377639  0.198255  0.000000  1
  Co  Co17  1  0.177411  0.799650  0.000000  1
  Co  Co18  1  0.623565  0.822923  0.000000  1
  Co  Co19  1  0.198255  0.377639  0.000000  1
  Co  Co20  1  0.283470  0.283470  0.500000  1
  Co  Co21  1  0.715362  0.999830  0.500000  1
  Co  Co22  1  0.999830  0.715362  0.500000  1
  Co  Co23  1  0.998809  0.998809  0.000000  1
  P  P24  1  0.685943  0.165986  0.500000  1
  P  P25  1  0.834574  0.520227  0.500000  1
  P  P26  1  0.480427  0.314251  0.500000  1
  P  P27  1  0.165986  0.685943  0.500000  1
  P  P28  1  0.520227  0.834574  0.500000  1
  P  P29  1  0.314251  0.480427  0.500000  1
  P  P30  1  0.179967  0.179967  0.000000  1
  P  P31  1  0.819404  0.999538  0.000000  1
  P  P32  1  0.999538  0.819404  0.000000  1
  P  P33  1  0.635682  0.635682  0.000000  1
  P  P34  1  0.367402  0.999386  0.000000  1
  P  P35  1  0.999386  0.367402  0.000000  1
