# generated using pymatgen
data_Tb2YTm2Si3
_symmetry_space_group_name_H-M   'P 1'
_cell_length_a   8.42846708
_cell_length_b   8.42846612
_cell_length_c   6.30787100
_cell_angle_alpha   90.00000000
_cell_angle_beta   90.00000000
_cell_angle_gamma   120.01627009
_symmetry_Int_Tables_number   1
_chemical_formula_structural   Tb2YTm2Si3
_chemical_formula_sum   'Tb4 Y2 Tm4 Si6'
_cell_volume   388.00681196
_cell_formula_units_Z   2
loop_
 _symmetry_equiv_pos_site_id
 _symmetry_equiv_pos_as_xyz
  1  'x, y, z'
loop_
 _atom_site_type_symbol
 _atom_site_label
 _atom_site_symmetry_multiplicity
 _atom_site_fract_x
 _atom_site_fract_y
 _atom_site_fract_z
 _atom_site_occupancy
  Tb  Tb0  1  0.755729  0.755729  0.250000  1
  Tb  Tb1  1  0.244325  0.999995  0.250000  1
  Tb  Tb2  1  0.999995  0.244325  0.250000  1
  Tb  Tb3  1  0.244347  0.244347  0.750000  1
  Y  Y4  1  0.755636  0.999993  0.750000  1
  Y  Y5  1  0.999993  0.755636  0.750000  1
  Tm  Tm6  1  0.666692  0.333337  0.500020  1
  Tm  Tm7  1  0.333337  0.666692  0.500020  1
  Tm  Tm8  1  0.333337  0.666692  0.999980  1
  Tm  Tm9  1  0.666692  0.333337  0.999980  1
  Si  Si10  1  0.395160  0.395160  0.250000  1
  Si  Si11  1  0.604778  0.999958  0.250000  1
  Si  Si12  1  0.999958  0.604778  0.250000  1
  Si  Si13  1  0.604996  0.604996  0.750000  1
  Si  Si14  1  0.395115  0.999911  0.750000  1
  Si  Si15  1  0.999911  0.395115  0.750000  1
