# generated using pymatgen
data_Sr6YErCr2O12
_symmetry_space_group_name_H-M   'P 1'
_cell_length_a   6.84521582
_cell_length_b   6.84521662
_cell_length_c   6.84521683
_cell_angle_alpha   92.23560240
_cell_angle_beta   92.23559945
_cell_angle_gamma   92.23561005
_symmetry_Int_Tables_number   1
_chemical_formula_structural   Sr6YErCr2O12
_chemical_formula_sum   'Sr6 Y1 Er1 Cr2 O12'
_cell_volume   319.99419138
_cell_formula_units_Z   1
loop_
 _symmetry_equiv_pos_site_id
 _symmetry_equiv_pos_as_xyz
  1  'x, y, z'
loop_
 _atom_site_type_symbol
 _atom_site_label
 _atom_site_symmetry_multiplicity
 _atom_site_fract_x
 _atom_site_fract_y
 _atom_site_fract_z
 _atom_site_occupancy
  Sr  Sr0  1  0.250000  0.884243  0.615757  1
  Sr  Sr1  1  0.884243  0.615757  0.250000  1
  Sr  Sr2  1  0.750000  0.115233  0.384767  1
  Sr  Sr3  1  0.384767  0.750000  0.115233  1
  Sr  Sr4  1  0.115233  0.384767  0.750000  1
  Sr  Sr5  1  0.615757  0.250000  0.884243  1
  Y  Y6  1  0.250000  0.250000  0.250000  1
  Er  Er7  1  0.750000  0.750000  0.750000  1
  Cr  Cr8  1  0.500705  0.500705  0.500705  1
  Cr  Cr9  1  0.999295  0.999295  0.999295  1
  O  O10  1  0.590579  0.785903  0.458491  1
  O  O11  1  0.458491  0.590579  0.785903  1
  O  O12  1  0.785903  0.458491  0.590579  1
  O  O13  1  0.909421  0.041509  0.714097  1
  O  O14  1  0.714097  0.909421  0.041509  1
  O  O15  1  0.041509  0.714097  0.909421  1
  O  O16  1  0.411443  0.214767  0.544254  1
  O  O17  1  0.544254  0.411443  0.214767  1
  O  O18  1  0.214767  0.544254  0.411443  1
  O  O19  1  0.088557  0.955746  0.285233  1
  O  O20  1  0.955746  0.285233  0.088557  1
  O  O21  1  0.285233  0.088557  0.955746  1
