# generated using pymatgen
data_Nd8Tm12RuPt15
_symmetry_space_group_name_H-M   'P 1'
_cell_length_a   7.50344300
_cell_length_b   7.83115705
_cell_length_c   14.58533300
_cell_angle_alpha   90.00000000
_cell_angle_beta   90.00000000
_cell_angle_gamma   89.74418898
_symmetry_Int_Tables_number   1
_chemical_formula_structural   Nd8Tm12RuPt15
_chemical_formula_sum   'Nd8 Tm12 Ru1 Pt15'
_cell_volume   857.03496789
_cell_formula_units_Z   1
loop_
 _symmetry_equiv_pos_site_id
 _symmetry_equiv_pos_as_xyz
  1  'x, y, z'
loop_
 _atom_site_type_symbol
 _atom_site_label
 _atom_site_symmetry_multiplicity
 _atom_site_fract_x
 _atom_site_fract_y
 _atom_site_fract_z
 _atom_site_occupancy
  Nd  Nd0  1  0.501284  0.330846  0.902740  1
  Nd  Nd1  1  0.005927  0.172293  0.598781  1
  Nd  Nd2  1  0.497291  0.675312  0.402961  1
  Nd  Nd3  1  0.996970  0.823943  0.093766  1
  Nd  Nd4  1  0.497291  0.675312  0.097039  1
  Nd  Nd5  1  0.996970  0.823943  0.406234  1
  Nd  Nd6  1  0.501284  0.330846  0.597260  1
  Nd  Nd7  1  0.005927  0.172293  0.901219  1
  Tm  Tm8  1  0.352292  0.826554  0.874494  1
  Tm  Tm9  1  0.833921  0.668726  0.625072  1
  Tm  Tm10  1  0.656137  0.170098  0.377306  1
  Tm  Tm11  1  0.158791  0.330758  0.121880  1
  Tm  Tm12  1  0.656137  0.170098  0.122694  1
  Tm  Tm13  1  0.158791  0.330758  0.378120  1
  Tm  Tm14  1  0.352292  0.826554  0.625506  1
  Tm  Tm15  1  0.833921  0.668726  0.874928  1
  Tm  Tm16  1  0.179918  0.495924  0.750000  1
  Tm  Tm17  1  0.682185  0.006184  0.750000  1
  Tm  Tm18  1  0.822185  0.508123  0.250000  1
  Tm  Tm19  1  0.317488  0.992587  0.250000  1
  Ru  Ru20  1  0.545283  0.613446  0.750000  1
  Pt  Pt21  1  0.322322  0.034293  0.043760  1
  Pt  Pt22  1  0.821126  0.464949  0.456108  1
  Pt  Pt23  1  0.680968  0.966915  0.543387  1
  Pt  Pt24  1  0.174207  0.538942  0.957308  1
  Pt  Pt25  1  0.680968  0.966915  0.956613  1
  Pt  Pt26  1  0.174207  0.538942  0.542692  1
  Pt  Pt27  1  0.322322  0.034293  0.456240  1
  Pt  Pt28  1  0.821126  0.464949  0.043892  1
  Pt  Pt29  1  0.049851  0.870745  0.750000  1
  Pt  Pt30  1  0.453095  0.375672  0.250000  1
  Pt  Pt31  1  0.950943  0.129342  0.250000  1
  Pt  Pt32  1  0.314225  0.136389  0.750000  1
  Pt  Pt33  1  0.809773  0.360853  0.750000  1
  Pt  Pt34  1  0.686272  0.865787  0.250000  1
  Pt  Pt35  1  0.186311  0.637691  0.250000  1
