# generated using pymatgen
data_Pr3Dy2P12Ru14Pt5
_symmetry_space_group_name_H-M   'P 1'
_cell_length_a   12.80356308
_cell_length_b   12.81430122
_cell_length_c   3.98999800
_cell_angle_alpha   90.00000000
_cell_angle_beta   90.00000000
_cell_angle_gamma   120.36937265
_symmetry_Int_Tables_number   1
_chemical_formula_structural   Pr3Dy2P12Ru14Pt5
_chemical_formula_sum   'Pr3 Dy2 P12 Ru14 Pt5'
_cell_volume   564.80763325
_cell_formula_units_Z   1
loop_
 _symmetry_equiv_pos_site_id
 _symmetry_equiv_pos_as_xyz
  1  'x, y, z'
loop_
 _atom_site_type_symbol
 _atom_site_label
 _atom_site_symmetry_multiplicity
 _atom_site_fract_x
 _atom_site_fract_y
 _atom_site_fract_z
 _atom_site_occupancy
  Pr  Pr0  1  0.815337  0.999571  0.500000  1
  Pr  Pr1  1  0.182404  0.183055  0.500000  1
  Pr  Pr2  1  0.998911  0.815141  0.500000  1
  Dy  Dy3  1  0.666055  0.331332  0.000000  1
  Dy  Dy4  1  0.336848  0.671743  0.000000  1
  P  P5  1  0.627311  0.989214  0.000000  1
  P  P6  1  0.361656  0.362623  0.000000  1
  P  P7  1  0.001437  0.637624  0.000000  1
  P  P8  1  0.693008  0.525493  0.500000  1
  P  P9  1  0.831499  0.304681  0.500000  1
  P  P10  1  0.317145  0.838598  0.500000  1
  P  P11  1  0.525551  0.701164  0.500000  1
  P  P12  1  0.183275  0.998047  0.000000  1
  P  P13  1  0.814784  0.813730  0.000000  1
  P  P14  1  0.999209  0.184476  0.000000  1
  P  P15  1  0.472484  0.166229  0.500000  1
  P  P16  1  0.168013  0.475379  0.500000  1
  Ru  Ru17  1  0.618585  0.797860  0.000000  1
  Ru  Ru18  1  0.183981  0.384964  0.000000  1
  Ru  Ru19  1  0.382641  0.183479  0.000000  1
  Ru  Ru20  1  0.200169  0.816662  0.000000  1
  Ru  Ru21  1  0.799405  0.614253  0.000000  1
  Ru  Ru22  1  0.510869  0.875041  0.500000  1
  Ru  Ru23  1  0.999707  0.999984  0.000000  1
  Ru  Ru24  1  0.710759  0.709968  0.500000  1
  Ru  Ru25  1  0.999872  0.288283  0.500000  1
  Ru  Ru26  1  0.451231  0.001201  0.000000  1
  Ru  Ru27  1  0.546272  0.543882  0.000000  1
  Ru  Ru28  1  0.000563  0.454284  0.000000  1
  Ru  Ru29  1  0.814769  0.198053  0.000000  1
  Ru  Ru30  1  0.286096  0.999005  0.500000  1
  Pt  Pt31  1  0.868039  0.501645  0.500000  1
  Pt  Pt32  1  0.496462  0.364236  0.500000  1
  Pt  Pt33  1  0.632985  0.131909  0.500000  1
  Pt  Pt34  1  0.135634  0.637388  0.500000  1
  Pt  Pt35  1  0.367035  0.499804  0.500000  1
