# generated using pymatgen
data_Ti13Zn5(GaIr2)4
_symmetry_space_group_name_H-M   'P 1'
_cell_length_a   8.77185418
_cell_length_b   8.77185313
_cell_length_c   8.77185400
_cell_angle_alpha   59.65553074
_cell_angle_beta   59.65553476
_cell_angle_gamma   59.65553547
_symmetry_Int_Tables_number   1
_chemical_formula_structural   Ti13Zn5(GaIr2)4
_chemical_formula_sum   'Ti13 Zn5 Ga4 Ir8'
_cell_volume   473.52913612
_cell_formula_units_Z   1
loop_
 _symmetry_equiv_pos_site_id
 _symmetry_equiv_pos_as_xyz
  1  'x, y, z'
loop_
 _atom_site_type_symbol
 _atom_site_label
 _atom_site_symmetry_multiplicity
 _atom_site_fract_x
 _atom_site_fract_y
 _atom_site_fract_z
 _atom_site_occupancy
  Ti  Ti0  1  0.218603  0.218603  0.785501  1
  Ti  Ti1  1  0.785501  0.218603  0.218603  1
  Ti  Ti2  1  0.218603  0.785501  0.218603  1
  Ti  Ti3  1  0.796629  0.796629  0.177424  1
  Ti  Ti4  1  0.177424  0.796629  0.796629  1
  Ti  Ti5  1  0.796629  0.177424  0.796629  1
  Ti  Ti6  1  0.378591  0.378591  0.378591  1
  Ti  Ti7  1  0.380983  0.865794  0.380983  1
  Ti  Ti8  1  0.865794  0.380983  0.380983  1
  Ti  Ti9  1  0.380983  0.380983  0.865794  1
  Ti  Ti10  1  0.843741  0.467795  0.843741  1
  Ti  Ti11  1  0.467795  0.843741  0.843741  1
  Ti  Ti12  1  0.843741  0.843741  0.467795  1
  Zn  Zn13  1  0.619598  0.619598  0.619598  1
  Zn  Zn14  1  0.620617  0.140000  0.620617  1
  Zn  Zn15  1  0.140000  0.620617  0.620617  1
  Zn  Zn16  1  0.620617  0.620617  0.140000  1
  Zn  Zn17  1  0.824649  0.824649  0.824649  1
  Ga  Ga18  1  0.150812  0.150812  0.150812  1
  Ga  Ga19  1  0.154925  0.542714  0.154925  1
  Ga  Ga20  1  0.542714  0.154925  0.154925  1
  Ga  Ga21  1  0.154925  0.154925  0.542714  1
  Ir  Ir22  1  0.005851  0.005851  0.495519  1
  Ir  Ir23  1  0.495519  0.005851  0.005851  1
  Ir  Ir24  1  0.005851  0.495519  0.005851  1
  Ir  Ir25  1  0.500390  0.500390  0.002579  1
  Ir  Ir26  1  0.002579  0.500390  0.500390  1
  Ir  Ir27  1  0.500390  0.002579  0.500390  1
  Ir  Ir28  1  0.499978  0.499978  0.499978  1
  Ir  Ir29  1  0.005568  0.005568  0.005568  1
