# generated using pymatgen
data_Tb2HoCu3(Ni5B)2
_symmetry_space_group_name_H-M   'P 1'
_cell_length_a   4.98337900
_cell_length_b   4.98337978
_cell_length_c   10.89280500
_cell_angle_alpha   90.00000000
_cell_angle_beta   90.00000000
_cell_angle_gamma   119.99998818
_symmetry_Int_Tables_number   1
_chemical_formula_structural   Tb2HoCu3(Ni5B)2
_chemical_formula_sum   'Tb2 Ho1 Cu3 Ni10 B2'
_cell_volume   234.27088380
_cell_formula_units_Z   1
loop_
 _symmetry_equiv_pos_site_id
 _symmetry_equiv_pos_as_xyz
  1  'x, y, z'
loop_
 _atom_site_type_symbol
 _atom_site_label
 _atom_site_symmetry_multiplicity
 _atom_site_fract_x
 _atom_site_fract_y
 _atom_site_fract_z
 _atom_site_occupancy
  Tb  Tb0  1  0.000000  0.000000  0.335172  1
  Tb  Tb1  1  0.000000  0.000000  0.671023  1
  Ho  Ho2  1  0.000000  0.000000  0.000181  1
  Cu  Cu3  1  0.333333  0.666667  0.316778  1
  Cu  Cu4  1  0.666667  0.333333  0.316373  1
  Cu  Cu5  1  0.666667  0.333333  0.683135  1
  Ni  Ni6  1  0.499519  0.999039  0.500374  1
  Ni  Ni7  1  0.499519  0.500481  0.500374  1
  Ni  Ni8  1  0.000961  0.500481  0.500374  1
  Ni  Ni9  1  0.333333  0.666667  0.681129  1
  Ni  Ni10  1  0.499902  0.999803  0.129493  1
  Ni  Ni11  1  0.499902  0.500098  0.129493  1
  Ni  Ni12  1  0.000197  0.500098  0.129493  1
  Ni  Ni13  1  0.498878  0.997755  0.869238  1
  Ni  Ni14  1  0.498878  0.501122  0.869238  1
  Ni  Ni15  1  0.002245  0.501122  0.869238  1
  B  B16  1  0.333333  0.666667  0.999883  1
  B  B17  1  0.666667  0.333333  0.999005  1
