# generated using pymatgen
data_NaLi3YNi9As7
_symmetry_space_group_name_H-M   'P 1'
_cell_length_a   9.43882700
_cell_length_b   9.43882592
_cell_length_c   3.85759000
_cell_angle_alpha   90.00000000
_cell_angle_beta   90.00000000
_cell_angle_gamma   120.00000030
_symmetry_Int_Tables_number   1
_chemical_formula_structural   NaLi3YNi9As7
_chemical_formula_sum   'Na1 Li3 Y1 Ni9 As7'
_cell_volume   297.63410899
_cell_formula_units_Z   1
loop_
 _symmetry_equiv_pos_site_id
 _symmetry_equiv_pos_as_xyz
  1  'x, y, z'
loop_
 _atom_site_type_symbol
 _atom_site_label
 _atom_site_symmetry_multiplicity
 _atom_site_fract_x
 _atom_site_fract_y
 _atom_site_fract_z
 _atom_site_occupancy
  Na  Na0  1  0.666667  0.333333  0.500000  1
  Li  Li1  1  0.212108  0.105778  0.500000  1
  Li  Li2  1  0.894222  0.106330  0.500000  1
  Li  Li3  1  0.893670  0.787892  0.500000  1
  Y  Y4  1  0.333333  0.666667  0.000000  1
  Ni  Ni5  1  0.120923  0.288108  0.000000  1
  Ni  Ni6  1  0.711892  0.832815  0.000000  1
  Ni  Ni7  1  0.167185  0.879077  0.000000  1
  Ni  Ni8  1  0.427102  0.378127  0.000000  1
  Ni  Ni9  1  0.621873  0.048977  0.000000  1
  Ni  Ni10  1  0.951023  0.572898  0.000000  1
  Ni  Ni11  1  0.045000  0.433990  0.500000  1
  Ni  Ni12  1  0.566010  0.611010  0.500000  1
  Ni  Ni13  1  0.388990  0.955000  0.500000  1
  As  As14  1  0.287565  0.407038  0.500000  1
  As  As15  1  0.592962  0.880526  0.500000  1
  As  As16  1  0.119474  0.712435  0.500000  1
  As  As17  1  0.417715  0.120017  0.000000  1
  As  As18  1  0.879983  0.297698  0.000000  1
  As  As19  1  0.702302  0.582285  0.000000  1
  As  As20  1  0.000000  0.000000  0.000000  1
