# generated using pymatgen
data_Dy5HoOsRu
_symmetry_space_group_name_H-M   'P 1'
_cell_length_a   6.30630738
_cell_length_b   7.33326200
_cell_length_c   9.13890962
_cell_angle_alpha   90.00000000
_cell_angle_beta   90.14881702
_cell_angle_gamma   90.00000000
_symmetry_Int_Tables_number   1
_chemical_formula_structural   Dy5HoOsRu
_chemical_formula_sum   'Dy10 Ho2 Os2 Ru2'
_cell_volume   422.63479980
_cell_formula_units_Z   2
loop_
 _symmetry_equiv_pos_site_id
 _symmetry_equiv_pos_as_xyz
  1  'x, y, z'
loop_
 _atom_site_type_symbol
 _atom_site_label
 _atom_site_symmetry_multiplicity
 _atom_site_fract_x
 _atom_site_fract_y
 _atom_site_fract_z
 _atom_site_occupancy
  Dy  Dy0  1  0.328885  0.676734  0.064899  1
  Dy  Dy1  1  0.171115  0.176734  0.435101  1
  Dy  Dy2  1  0.667898  0.324743  0.563101  1
  Dy  Dy3  1  0.832102  0.824743  0.936899  1
  Dy  Dy4  1  0.668120  0.324281  0.936912  1
  Dy  Dy5  1  0.831880  0.824281  0.563088  1
  Dy  Dy6  1  0.868436  0.538441  0.250123  1
  Dy  Dy7  1  0.631564  0.038441  0.249877  1
  Dy  Dy8  1  0.133358  0.459329  0.749943  1
  Dy  Dy9  1  0.366642  0.959328  0.750057  1
  Ho  Ho10  1  0.328956  0.676190  0.435099  1
  Ho  Ho11  1  0.171044  0.176190  0.064901  1
  Os  Os12  1  0.040363  0.884861  0.250003  1
  Os  Os13  1  0.459637  0.384861  0.249997  1
  Ru  Ru14  1  0.962873  0.115422  0.750480  1
  Ru  Ru15  1  0.537127  0.615422  0.749520  1
