# generated using pymatgen
data_Pr12TcOsI17
_symmetry_space_group_name_H-M   'P 1'
_cell_length_a   10.14538226
_cell_length_b   12.16675645
_cell_length_c   12.20130328
_cell_angle_alpha   93.37703215
_cell_angle_beta   104.79129308
_cell_angle_gamma   114.38488441
_symmetry_Int_Tables_number   1
_chemical_formula_structural   Pr12TcOsI17
_chemical_formula_sum   'Pr12 Tc1 Os1 I17'
_cell_volume   1302.98356133
_cell_formula_units_Z   1
loop_
 _symmetry_equiv_pos_site_id
 _symmetry_equiv_pos_as_xyz
  1  'x, y, z'
loop_
 _atom_site_type_symbol
 _atom_site_label
 _atom_site_symmetry_multiplicity
 _atom_site_fract_x
 _atom_site_fract_y
 _atom_site_fract_z
 _atom_site_occupancy
  Pr  Pr0  1  0.057762  0.511554  0.323184  1
  Pr  Pr1  1  0.989086  0.810352  0.581296  1
  Pr  Pr2  1  0.643466  0.240292  0.284533  1
  Pr  Pr3  1  0.012085  0.188968  0.418693  1
  Pr  Pr4  1  0.224281  0.670933  0.990251  1
  Pr  Pr5  1  0.263504  0.992861  0.894579  1
  Pr  Pr6  1  0.354840  0.759826  0.716415  1
  Pr  Pr7  1  0.937488  0.483185  0.674968  1
  Pr  Pr8  1  0.740042  0.013124  0.107389  1
  Pr  Pr9  1  0.153612  0.287214  0.150739  1
  Pr  Pr10  1  0.775525  0.330295  0.009544  1
  Pr  Pr11  1  0.849273  0.712092  0.848173  1
  Tc  Tc12  1  0.104632  0.738681  0.785661  1
  Os  Os13  1  0.896388  0.261953  0.214426  1
  I  I14  1  0.785309  0.528539  0.418754  1
  I  I15  1  0.642121  0.419282  0.759228  1
  I  I16  1  0.842644  0.895845  0.323947  1
  I  I17  1  0.325361  0.212116  0.369120  1
  I  I18  1  0.156513  0.104068  0.675220  1
  I  I19  1  0.586641  0.052213  0.843742  1
  I  I20  1  0.753988  0.180866  0.536288  1
  I  I21  1  0.546967  0.708327  0.953322  1
  I  I22  1  0.358275  0.579643  0.242692  1
  I  I23  1  0.213626  0.471707  0.582073  1
  I  I24  1  0.055534  0.369012  0.897288  1
  I  I25  1  0.452977  0.294993  0.048068  1
  I  I26  1  0.999277  0.999037  0.999142  1
  I  I27  1  0.244218  0.815627  0.462986  1
  I  I28  1  0.412570  0.947391  0.155587  1
  I  I29  1  0.676201  0.787275  0.630412  1
  I  I30  1  0.945791  0.632732  0.102285  1
