# generated using pymatgen
data_Yb3Dy4Tm13Pt16
_symmetry_space_group_name_H-M   'P 1'
_cell_length_a   7.43568506
_cell_length_b   7.50834580
_cell_length_c   14.61296700
_cell_angle_alpha   90.00273951
_cell_angle_beta   89.99263353
_cell_angle_gamma   89.96044153
_symmetry_Int_Tables_number   1
_chemical_formula_structural   Yb3Dy4Tm13Pt16
_chemical_formula_sum   'Yb3 Dy4 Tm13 Pt16'
_cell_volume   815.83728396
_cell_formula_units_Z   1
loop_
 _symmetry_equiv_pos_site_id
 _symmetry_equiv_pos_as_xyz
  1  'x, y, z'
loop_
 _atom_site_type_symbol
 _atom_site_label
 _atom_site_symmetry_multiplicity
 _atom_site_fract_x
 _atom_site_fract_y
 _atom_site_fract_z
 _atom_site_occupancy
  Yb  Yb0  1  0.499902  0.320184  0.907436  1
  Yb  Yb1  1  0.500635  0.680168  0.406482  1
  Yb  Yb2  1  0.000284  0.820384  0.093024  1
  Dy  Dy3  1  0.498314  0.680441  0.094058  1
  Dy  Dy4  1  0.501966  0.318761  0.593515  1
  Dy  Dy5  1  0.001667  0.180889  0.906663  1
  Dy  Dy6  1  0.001672  0.180210  0.592922  1
  Tm  Tm7  1  0.681466  0.989744  0.250036  1
  Tm  Tm8  1  0.181429  0.510889  0.250465  1
  Tm  Tm9  1  0.818203  0.490256  0.750593  1
  Tm  Tm10  1  0.319490  0.009874  0.750507  1
  Tm  Tm11  1  0.654530  0.833626  0.621917  1
  Tm  Tm12  1  0.154617  0.666645  0.878385  1
  Tm  Tm13  1  0.844486  0.335207  0.377269  1
  Tm  Tm14  1  0.344940  0.165585  0.122097  1
  Tm  Tm15  1  0.344590  0.165111  0.377191  1
  Tm  Tm16  1  0.845102  0.333744  0.123256  1
  Tm  Tm17  1  0.154613  0.667432  0.622598  1
  Tm  Tm18  1  0.654723  0.833764  0.877040  1
  Tm  Tm19  1  0.998321  0.818745  0.406142  1
  Pt  Pt20  1  0.816155  0.639376  0.252327  1
  Pt  Pt21  1  0.315127  0.861847  0.248639  1
  Pt  Pt22  1  0.685494  0.139098  0.747470  1
  Pt  Pt23  1  0.182731  0.359467  0.748884  1
  Pt  Pt24  1  0.545438  0.381025  0.248197  1
  Pt  Pt25  1  0.045207  0.118666  0.251860  1
  Pt  Pt26  1  0.954312  0.881763  0.750653  1
  Pt  Pt27  1  0.452600  0.618764  0.748635  1
  Pt  Pt28  1  0.821595  0.532934  0.544367  1
  Pt  Pt29  1  0.319904  0.964041  0.955705  1
  Pt  Pt30  1  0.687890  0.035551  0.457447  1
  Pt  Pt31  1  0.180326  0.463939  0.044288  1
  Pt  Pt32  1  0.177451  0.463966  0.457221  1
  Pt  Pt33  1  0.678925  0.034433  0.043376  1
  Pt  Pt34  1  0.315275  0.969011  0.542518  1
  Pt  Pt35  1  0.820627  0.534458  0.956822  1
