# generated using pymatgen
data_La2(As2Pd7)3
_symmetry_space_group_name_H-M   'P 1'
_cell_length_a   8.89331996
_cell_length_b   8.89331988
_cell_length_c   8.89332000
_cell_angle_alpha   59.99999957
_cell_angle_beta   59.99999986
_cell_angle_gamma   59.99999532
_symmetry_Int_Tables_number   1
_chemical_formula_structural   La2(As2Pd7)3
_chemical_formula_sum   'La2 As6 Pd21'
_cell_volume   497.36673532
_cell_formula_units_Z   1
loop_
 _symmetry_equiv_pos_site_id
 _symmetry_equiv_pos_as_xyz
  1  'x, y, z'
loop_
 _atom_site_type_symbol
 _atom_site_label
 _atom_site_symmetry_multiplicity
 _atom_site_fract_x
 _atom_site_fract_y
 _atom_site_fract_z
 _atom_site_occupancy
  La  La0  1  0.750000  0.750000  0.750000  1
  La  La1  1  0.250000  0.250000  0.250000  1
  As  As2  1  0.739437  0.739437  0.260563  1
  As  As3  1  0.260563  0.739437  0.260563  1
  As  As4  1  0.739437  0.260563  0.260563  1
  As  As5  1  0.260563  0.260563  0.739437  1
  As  As6  1  0.739437  0.260563  0.739437  1
  As  As7  1  0.260563  0.739437  0.739437  1
  Pd  Pd8  1  0.000000  0.000000  0.000000  1
  Pd  Pd9  1  0.615212  0.615212  0.154364  1
  Pd  Pd10  1  0.615212  0.154364  0.615212  1
  Pd  Pd11  1  0.154364  0.615212  0.615212  1
  Pd  Pd12  1  0.615212  0.615212  0.615212  1
  Pd  Pd13  1  0.384788  0.384788  0.845636  1
  Pd  Pd14  1  0.384788  0.845636  0.384788  1
  Pd  Pd15  1  0.845636  0.384788  0.384788  1
  Pd  Pd16  1  0.384788  0.384788  0.384788  1
  Pd  Pd17  1  0.000000  0.000000  0.348351  1
  Pd  Pd18  1  0.651649  0.000000  0.348351  1
  Pd  Pd19  1  0.000000  0.651649  0.348351  1
  Pd  Pd20  1  0.651649  0.348351  0.000000  1
  Pd  Pd21  1  0.000000  0.348351  0.000000  1
  Pd  Pd22  1  0.000000  0.348351  0.651649  1
  Pd  Pd23  1  0.348351  0.651649  0.000000  1
  Pd  Pd24  1  0.348351  0.000000  0.651649  1
  Pd  Pd25  1  0.348351  0.000000  0.000000  1
  Pd  Pd26  1  0.000000  0.000000  0.651649  1
  Pd  Pd27  1  0.000000  0.651649  0.000000  1
  Pd  Pd28  1  0.651649  0.000000  0.000000  1
