# generated using pymatgen
data_Tm16In6ReAu
_symmetry_space_group_name_H-M   'P 1'
_cell_length_a   10.35791000
_cell_length_b   10.35791070
_cell_length_c   6.90031000
_cell_angle_alpha   90.00000000
_cell_angle_beta   90.00000000
_cell_angle_gamma   119.99999776
_symmetry_Int_Tables_number   1
_chemical_formula_structural   Tm16In6ReAu
_chemical_formula_sum   'Tm16 In6 Re1 Au1'
_cell_volume   641.12622105
_cell_formula_units_Z   1
loop_
 _symmetry_equiv_pos_site_id
 _symmetry_equiv_pos_as_xyz
  1  'x, y, z'
loop_
 _atom_site_type_symbol
 _atom_site_label
 _atom_site_symmetry_multiplicity
 _atom_site_fract_x
 _atom_site_fract_y
 _atom_site_fract_z
 _atom_site_occupancy
  Tm  Tm0  1  0.532336  0.064673  0.514685  1
  Tm  Tm1  1  0.935327  0.467664  0.514685  1
  Tm  Tm2  1  0.532336  0.467664  0.514685  1
  Tm  Tm3  1  0.478012  0.956023  0.020835  1
  Tm  Tm4  1  0.043977  0.521988  0.020835  1
  Tm  Tm5  1  0.478012  0.521988  0.020835  1
  Tm  Tm6  1  0.174017  0.348034  0.726496  1
  Tm  Tm7  1  0.651966  0.825983  0.726496  1
  Tm  Tm8  1  0.174017  0.825983  0.726496  1
  Tm  Tm9  1  0.824917  0.649833  0.227030  1
  Tm  Tm10  1  0.350167  0.175083  0.227030  1
  Tm  Tm11  1  0.824917  0.175083  0.227030  1
  Tm  Tm12  1  0.666667  0.333333  0.880305  1
  Tm  Tm13  1  0.333333  0.666667  0.381763  1
  Tm  Tm14  1  0.000000  0.000000  0.503854  1
  Tm  Tm15  1  0.000000  0.000000  0.998622  1
  In  In16  1  0.837858  0.675717  0.758107  1
  In  In17  1  0.324283  0.162142  0.758107  1
  In  In18  1  0.837858  0.162142  0.758107  1
  In  In19  1  0.164472  0.328944  0.258226  1
  In  In20  1  0.671056  0.835528  0.258226  1
  In  In21  1  0.164472  0.835528  0.258226  1
  Re  Re22  1  0.666667  0.333333  0.282684  1
  Au  Au23  1  0.333333  0.666667  0.794641  1
