# generated using pymatgen
data_Tb8Tc3OsC8
_symmetry_space_group_name_H-M   'P 1'
_cell_length_a   5.14597600
_cell_length_b   6.56937326
_cell_length_c   9.89326704
_cell_angle_alpha   89.83011830
_cell_angle_beta   90.00000000
_cell_angle_gamma   90.00000000
_symmetry_Int_Tables_number   1
_chemical_formula_structural   Tb8Tc3OsC8
_chemical_formula_sum   'Tb8 Tc3 Os1 C8'
_cell_volume   334.44870395
_cell_formula_units_Z   1
loop_
 _symmetry_equiv_pos_site_id
 _symmetry_equiv_pos_as_xyz
  1  'x, y, z'
loop_
 _atom_site_type_symbol
 _atom_site_label
 _atom_site_symmetry_multiplicity
 _atom_site_fract_x
 _atom_site_fract_y
 _atom_site_fract_z
 _atom_site_occupancy
  Tb  Tb0  1  0.250000  0.678514  0.555771  1
  Tb  Tb1  1  0.750000  0.320310  0.444245  1
  Tb  Tb2  1  0.750000  0.820851  0.055975  1
  Tb  Tb3  1  0.250000  0.178490  0.944204  1
  Tb  Tb4  1  0.250000  0.530282  0.215132  1
  Tb  Tb5  1  0.750000  0.467981  0.785607  1
  Tb  Tb6  1  0.750000  0.969905  0.712412  1
  Tb  Tb7  1  0.250000  0.030033  0.285468  1
  Tc  Tc8  1  0.250000  0.721116  0.864411  1
  Tc  Tc9  1  0.750000  0.279555  0.134787  1
  Tc  Tc10  1  0.750000  0.778776  0.365250  1
  Os  Os11  1  0.250000  0.221294  0.635727  1
  C  C12  1  0.250000  0.454207  0.757971  1
  C  C13  1  0.750000  0.546047  0.241885  1
  C  C14  1  0.750000  0.046122  0.258733  1
  C  C15  1  0.250000  0.955867  0.741564  1
  C  C16  1  0.250000  0.820987  0.047311  1
  C  C17  1  0.750000  0.179164  0.951647  1
  C  C18  1  0.750000  0.678859  0.549151  1
  C  C19  1  0.250000  0.321638  0.452751  1
