# generated using pymatgen
data_Ac3PdI3
_symmetry_space_group_name_H-M   'P 1'
_cell_length_a   11.45276713
_cell_length_b   11.45284982
_cell_length_c   11.45969300
_cell_angle_alpha   109.48321243
_cell_angle_beta   109.48412430
_cell_angle_gamma   109.46534153
_symmetry_Int_Tables_number   1
_chemical_formula_structural   Ac3PdI3
_chemical_formula_sum   'Ac12 Pd4 I12'
_cell_volume   1156.83950756
_cell_formula_units_Z   4
loop_
 _symmetry_equiv_pos_site_id
 _symmetry_equiv_pos_as_xyz
  1  'x, y, z'
loop_
 _atom_site_type_symbol
 _atom_site_label
 _atom_site_symmetry_multiplicity
 _atom_site_fract_x
 _atom_site_fract_y
 _atom_site_fract_z
 _atom_site_occupancy
  Ac  Ac0  1  0.037562  0.268776  0.018780  1
  Ac  Ac1  1  0.750003  0.018810  0.481210  1
  Ac  Ac2  1  0.268787  0.749989  0.231200  1
  Ac  Ac3  1  0.481195  0.750000  0.018794  1
  Ac  Ac4  1  0.750005  0.231208  0.268803  1
  Ac  Ac5  1  0.018770  0.481241  0.750009  1
  Ac  Ac6  1  0.231213  0.268780  0.749989  1
  Ac  Ac7  1  0.481211  0.231216  0.462426  1
  Ac  Ac8  1  0.462485  0.481229  0.231233  1
  Ac  Ac9  1  0.268785  0.018789  0.037573  1
  Ac  Ac10  1  0.018770  0.037517  0.268762  1
  Ac  Ac11  1  0.231225  0.462442  0.481224  1
  Pd  Pd12  1  0.499984  0.000007  0.250004  1
  Pd  Pd13  1  0.249995  0.499968  0.999997  1
  Pd  Pd14  1  0.249993  0.250011  0.249999  1
  Pd  Pd15  1  0.000027  0.250021  0.500007  1
  I  I16  1  0.760824  0.739171  0.249996  1
  I  I17  1  0.989192  0.510809  0.250005  1
  I  I18  1  0.249982  0.760808  0.739168  1
  I  I19  1  0.760827  0.521670  0.510834  1
  I  I20  1  0.510819  0.249995  0.989177  1
  I  I21  1  0.739194  0.989178  0.978366  1
  I  I22  1  0.989181  0.978373  0.739178  1
  I  I23  1  0.521628  0.510820  0.760817  1
  I  I24  1  0.249998  0.989176  0.510815  1
  I  I25  1  0.739194  0.250017  0.760836  1
  I  I26  1  0.510819  0.760811  0.521631  1
  I  I27  1  0.978332  0.739172  0.989166  1
