# generated using pymatgen
data_NdDy3Ir3RhO14
_symmetry_space_group_name_H-M   'P 1'
_cell_length_a   7.30853565
_cell_length_b   7.25270315
_cell_length_c   7.25270157
_cell_angle_alpha   59.93575811
_cell_angle_beta   60.26846126
_cell_angle_gamma   60.26846235
_symmetry_Int_Tables_number   1
_chemical_formula_structural   NdDy3Ir3RhO14
_chemical_formula_sum   'Nd1 Dy3 Ir3 Rh1 O14'
_cell_volume   272.80511357
_cell_formula_units_Z   1
loop_
 _symmetry_equiv_pos_site_id
 _symmetry_equiv_pos_as_xyz
  1  'x, y, z'
loop_
 _atom_site_type_symbol
 _atom_site_label
 _atom_site_symmetry_multiplicity
 _atom_site_fract_x
 _atom_site_fract_y
 _atom_site_fract_z
 _atom_site_occupancy
  Nd  Nd0  1  0.625000  0.125000  0.125000  1
  Dy  Dy1  1  0.125000  0.625000  0.125000  1
  Dy  Dy2  1  0.125000  0.125000  0.625000  1
  Dy  Dy3  1  0.125000  0.125000  0.125000  1
  Ir  Ir4  1  0.125000  0.625000  0.625000  1
  Ir  Ir5  1  0.625000  0.125000  0.625000  1
  Ir  Ir6  1  0.625000  0.625000  0.125000  1
  Rh  Rh7  1  0.625000  0.625000  0.625000  1
  O  O8  1  0.720689  0.704421  0.284658  1
  O  O9  1  0.290001  0.290560  0.712897  1
  O  O10  1  0.720689  0.284658  0.704421  1
  O  O11  1  0.290001  0.712897  0.290560  1
  O  O12  1  0.284460  0.712841  0.712841  1
  O  O13  1  0.720188  0.290891  0.290891  1
  O  O14  1  0.529311  0.545579  0.965342  1
  O  O15  1  0.959999  0.959440  0.537103  1
  O  O16  1  0.529311  0.965342  0.545579  1
  O  O17  1  0.959999  0.537103  0.959440  1
  O  O18  1  0.965540  0.537159  0.537159  1
  O  O19  1  0.529812  0.959109  0.959109  1
  O  O20  1  0.240644  0.252436  0.252436  1
  O  O21  1  0.009356  0.997564  0.997564  1
