# generated using pymatgen
data_Tb7Dy(SiO5)4
_symmetry_space_group_name_H-M   'P 1'
_cell_length_a   8.05485390
_cell_length_b   8.04957057
_cell_length_c   10.55787549
_cell_angle_alpha   61.22228752
_cell_angle_beta   61.10260061
_cell_angle_gamma   50.11795296
_symmetry_Int_Tables_number   1
_chemical_formula_structural   Tb7Dy(SiO5)4
_chemical_formula_sum   'Tb7 Dy1 Si4 O20'
_cell_volume   444.64839075
_cell_formula_units_Z   1
loop_
 _symmetry_equiv_pos_site_id
 _symmetry_equiv_pos_as_xyz
  1  'x, y, z'
loop_
 _atom_site_type_symbol
 _atom_site_label
 _atom_site_symmetry_multiplicity
 _atom_site_fract_x
 _atom_site_fract_y
 _atom_site_fract_z
 _atom_site_occupancy
  Tb  Tb0  1  0.717903  0.207968  0.966853  1
  Tb  Tb1  1  0.791932  0.280292  0.534778  1
  Tb  Tb2  1  0.280812  0.793333  0.033115  1
  Tb  Tb3  1  0.208515  0.718269  0.465877  1
  Tb  Tb4  1  0.981359  0.735229  0.835627  1
  Tb  Tb5  1  0.263479  0.022743  0.662692  1
  Tb  Tb6  1  0.018120  0.264723  0.165405  1
  Dy  Dy7  1  0.738818  0.976211  0.336558  1
  Si  Si8  1  0.771925  0.591557  0.693118  1
  Si  Si9  1  0.409255  0.227764  0.807410  1
  Si  Si10  1  0.228697  0.408768  0.305913  1
  Si  Si11  1  0.590442  0.772299  0.193188  1
  O  O12  1  0.769549  0.632691  0.063893  1
  O  O13  1  0.372287  0.229678  0.432529  1
  O  O14  1  0.229468  0.367104  0.936704  1
  O  O15  1  0.631579  0.770509  0.564734  1
  O  O16  1  0.587287  0.591943  0.358548  1
  O  O17  1  0.401588  0.416495  0.137968  1
  O  O18  1  0.412994  0.407523  0.641904  1
  O  O19  1  0.595279  0.585678  0.859933  1
  O  O20  1  0.944118  0.649817  0.674672  1
  O  O21  1  0.351515  0.056164  0.823903  1
  O  O22  1  0.055929  0.349682  0.326444  1
  O  O23  1  0.648909  0.943427  0.176670  1
  O  O24  1  0.887432  0.075619  0.397854  1
  O  O25  1  0.919862  0.112509  0.104738  1
  O  O26  1  0.112978  0.922611  0.602662  1
  O  O27  1  0.077856  0.889019  0.896142  1
  O  O28  1  0.094896  0.665840  0.321157  1
  O  O29  1  0.332746  0.905939  0.179550  1
  O  O30  1  0.905566  0.334420  0.678341  1
  O  O31  1  0.666906  0.094174  0.821120  1
