# generated using pymatgen
data_Tb16CdTc(HgPt)3
_symmetry_space_group_name_H-M   'P 1'
_cell_length_a   9.71182208
_cell_length_b   9.72330181
_cell_length_c   9.72330281
_cell_angle_alpha   59.55163684
_cell_angle_beta   59.55890082
_cell_angle_gamma   59.55889752
_symmetry_Int_Tables_number   1
_chemical_formula_structural   Tb16CdTc(HgPt)3
_chemical_formula_sum   'Tb16 Cd1 Tc1 Hg3 Pt3'
_cell_volume   642.70532139
_cell_formula_units_Z   1
loop_
 _symmetry_equiv_pos_site_id
 _symmetry_equiv_pos_as_xyz
  1  'x, y, z'
loop_
 _atom_site_type_symbol
 _atom_site_label
 _atom_site_symmetry_multiplicity
 _atom_site_fract_x
 _atom_site_fract_y
 _atom_site_fract_z
 _atom_site_occupancy
  Tb  Tb0  1  0.353154  0.352630  0.352630  1
  Tb  Tb1  1  0.351863  0.351136  0.945346  1
  Tb  Tb2  1  0.351863  0.945346  0.351136  1
  Tb  Tb3  1  0.942648  0.352326  0.352326  1
  Tb  Tb4  1  0.814866  0.189142  0.189142  1
  Tb  Tb5  1  0.188601  0.808881  0.808881  1
  Tb  Tb6  1  0.187818  0.815464  0.189231  1
  Tb  Tb7  1  0.807854  0.189735  0.808057  1
  Tb  Tb8  1  0.187818  0.189231  0.815464  1
  Tb  Tb9  1  0.807854  0.808057  0.189735  1
  Tb  Tb10  1  0.935528  0.564518  0.564518  1
  Tb  Tb11  1  0.556082  0.938444  0.938444  1
  Tb  Tb12  1  0.563717  0.937050  0.564458  1
  Tb  Tb13  1  0.937591  0.556718  0.938662  1
  Tb  Tb14  1  0.563717  0.564458  0.937050  1
  Tb  Tb15  1  0.937591  0.938662  0.556718  1
  Cd  Cd16  1  0.255557  0.580420  0.580420  1
  Tc  Tc17  1  0.142834  0.143779  0.143779  1
  Hg  Hg18  1  0.583077  0.584846  0.584846  1
  Hg  Hg19  1  0.584064  0.586107  0.241122  1
  Hg  Hg20  1  0.584064  0.241122  0.586107  1
  Pt  Pt21  1  0.144847  0.145163  0.571817  1
  Pt  Pt22  1  0.144847  0.571817  0.145163  1
  Pt  Pt23  1  0.572149  0.144948  0.144948  1
