# generated using pymatgen
data_LiCo4MoAs3
_symmetry_space_group_name_H-M   'P 1'
_cell_length_a   3.66999900
_cell_length_b   10.65236300
_cell_length_c   12.30011000
_cell_angle_alpha   90.00000000
_cell_angle_beta   90.00000000
_cell_angle_gamma   90.00000000
_symmetry_Int_Tables_number   1
_chemical_formula_structural   LiCo4MoAs3
_chemical_formula_sum   'Li4 Co16 Mo4 As12'
_cell_volume   480.86248752
_cell_formula_units_Z   4
loop_
 _symmetry_equiv_pos_site_id
 _symmetry_equiv_pos_as_xyz
  1  'x, y, z'
loop_
 _atom_site_type_symbol
 _atom_site_label
 _atom_site_symmetry_multiplicity
 _atom_site_fract_x
 _atom_site_fract_y
 _atom_site_fract_z
 _atom_site_occupancy
  Li  Li0  1  0.250000  0.574497  0.701229  1
  Li  Li1  1  0.250000  0.925503  0.201229  1
  Li  Li2  1  0.750000  0.425503  0.298771  1
  Li  Li3  1  0.750000  0.074497  0.798771  1
  Co  Co4  1  0.250000  0.406739  0.489590  1
  Co  Co5  1  0.250000  0.093261  0.989590  1
  Co  Co6  1  0.750000  0.593261  0.510410  1
  Co  Co7  1  0.750000  0.906739  0.010410  1
  Co  Co8  1  0.250000  0.214123  0.176217  1
  Co  Co9  1  0.250000  0.285877  0.676217  1
  Co  Co10  1  0.750000  0.785877  0.823783  1
  Co  Co11  1  0.750000  0.714123  0.323783  1
  Co  Co12  1  0.250000  0.881752  0.696657  1
  Co  Co13  1  0.250000  0.618248  0.196657  1
  Co  Co14  1  0.750000  0.118248  0.303343  1
  Co  Co15  1  0.750000  0.381752  0.803343  1
  Co  Co16  1  0.250000  0.462528  0.937022  1
  Co  Co17  1  0.250000  0.037472  0.437022  1
  Co  Co18  1  0.750000  0.537472  0.062978  1
  Co  Co19  1  0.750000  0.962528  0.562978  1
  Mo  Mo20  1  0.250000  0.704940  0.988587  1
  Mo  Mo21  1  0.250000  0.795060  0.488587  1
  Mo  Mo22  1  0.750000  0.295060  0.011413  1
  Mo  Mo23  1  0.750000  0.204940  0.511413  1
  As  As24  1  0.250000  0.418604  0.125687  1
  As  As25  1  0.250000  0.081396  0.625687  1
  As  As26  1  0.750000  0.581396  0.874313  1
  As  As27  1  0.750000  0.918604  0.374313  1
  As  As28  1  0.250000  0.255885  0.861656  1
  As  As29  1  0.250000  0.244115  0.361656  1
  As  As30  1  0.750000  0.744115  0.138344  1
  As  As31  1  0.750000  0.755885  0.638344  1
  As  As32  1  0.250000  0.587270  0.384948  1
  As  As33  1  0.250000  0.912730  0.884948  1
  As  As34  1  0.750000  0.412730  0.615052  1
  As  As35  1  0.750000  0.087270  0.115052  1
