# generated using pymatgen
data_Tb6Fe3Co14ReP12
_symmetry_space_group_name_H-M   'P 1'
_cell_length_a   3.71701000
_cell_length_b   10.58573700
_cell_length_c   12.15959700
_cell_angle_alpha   90.00000000
_cell_angle_beta   90.00000000
_cell_angle_gamma   90.00000000
_symmetry_Int_Tables_number   1
_chemical_formula_structural   Tb6Fe3Co14ReP12
_chemical_formula_sum   'Tb6 Fe3 Co14 Re1 P12'
_cell_volume   478.44719292
_cell_formula_units_Z   1
loop_
 _symmetry_equiv_pos_site_id
 _symmetry_equiv_pos_as_xyz
  1  'x, y, z'
loop_
 _atom_site_type_symbol
 _atom_site_label
 _atom_site_symmetry_multiplicity
 _atom_site_fract_x
 _atom_site_fract_y
 _atom_site_fract_z
 _atom_site_occupancy
  Tb  Tb0  1  0.000000  0.500000  0.525222  1
  Tb  Tb1  1  0.500000  0.000000  0.477916  1
  Tb  Tb2  1  0.500000  0.818685  0.204432  1
  Tb  Tb3  1  0.500000  0.181315  0.204432  1
  Tb  Tb4  1  0.000000  0.681300  0.796550  1
  Tb  Tb5  1  0.000000  0.318700  0.796550  1
  Fe  Fe6  1  0.000000  0.000000  0.844822  1
  Fe  Fe7  1  0.000000  0.500000  0.987699  1
  Fe  Fe8  1  0.500000  0.000000  0.011973  1
  Co  Co9  1  0.500000  0.500000  0.699525  1
  Co  Co10  1  0.000000  0.000000  0.299186  1
  Co  Co11  1  0.500000  0.331605  0.991409  1
  Co  Co12  1  0.500000  0.668395  0.991409  1
  Co  Co13  1  0.000000  0.168104  0.005985  1
  Co  Co14  1  0.000000  0.831896  0.005985  1
  Co  Co15  1  0.500000  0.296447  0.430309  1
  Co  Co16  1  0.500000  0.703553  0.430309  1
  Co  Co17  1  0.000000  0.203673  0.569262  1
  Co  Co18  1  0.000000  0.796327  0.569262  1
  Co  Co19  1  0.500000  0.879160  0.709006  1
  Co  Co20  1  0.500000  0.120840  0.709006  1
  Co  Co21  1  0.000000  0.620551  0.291125  1
  Co  Co22  1  0.000000  0.379449  0.291125  1
  Re  Re23  1  0.500000  0.500000  0.155612  1
  P  P24  1  0.500000  0.500000  0.882086  1
  P  P25  1  0.000000  0.000000  0.115526  1
  P  P26  1  0.500000  0.500000  0.348174  1
  P  P27  1  0.000000  0.000000  0.659304  1
  P  P28  1  0.500000  0.309006  0.616457  1
  P  P29  1  0.500000  0.690994  0.616457  1
  P  P30  1  0.000000  0.189743  0.384086  1
  P  P31  1  0.000000  0.810257  0.384086  1
  P  P32  1  0.500000  0.848893  0.893196  1
  P  P33  1  0.500000  0.151107  0.893196  1
  P  P34  1  0.000000  0.654057  0.104664  1
  P  P35  1  0.000000  0.345943  0.104664  1
