# generated using pymatgen
data_Pr6Ga4IrPd12
_symmetry_space_group_name_H-M   'P 1'
_cell_length_a   8.43071236
_cell_length_b   8.43071192
_cell_length_c   8.43071200
_cell_angle_alpha   109.47121841
_cell_angle_beta   109.47121737
_cell_angle_gamma   109.47121815
_symmetry_Int_Tables_number   1
_chemical_formula_structural   Pr6Ga4IrPd12
_chemical_formula_sum   'Pr6 Ga4 Ir1 Pd12'
_cell_volume   461.28669438
_cell_formula_units_Z   1
loop_
 _symmetry_equiv_pos_site_id
 _symmetry_equiv_pos_as_xyz
  1  'x, y, z'
loop_
 _atom_site_type_symbol
 _atom_site_label
 _atom_site_symmetry_multiplicity
 _atom_site_fract_x
 _atom_site_fract_y
 _atom_site_fract_z
 _atom_site_occupancy
  Pr  Pr0  1  0.000000  0.297061  0.297061  1
  Pr  Pr1  1  0.000000  0.702939  0.702939  1
  Pr  Pr2  1  0.297061  0.000000  0.297061  1
  Pr  Pr3  1  0.702939  0.702939  0.000000  1
  Pr  Pr4  1  0.702939  0.000000  0.702939  1
  Pr  Pr5  1  0.297061  0.297061  0.000000  1
  Ga  Ga6  1  0.000000  0.000000  0.500000  1
  Ga  Ga7  1  0.500000  0.000000  0.000000  1
  Ga  Ga8  1  0.000000  0.500000  0.000000  1
  Ga  Ga9  1  0.500000  0.500000  0.500000  1
  Ir  Ir10  1  0.000000  0.000000  0.000000  1
  Pd  Pd11  1  0.326471  0.673529  0.000000  1
  Pd  Pd12  1  0.000000  0.326471  0.673529  1
  Pd  Pd13  1  0.673529  0.000000  0.326471  1
  Pd  Pd14  1  0.347057  0.673529  0.673529  1
  Pd  Pd15  1  0.673529  0.347057  0.673529  1
  Pd  Pd16  1  0.652943  0.326471  0.326471  1
  Pd  Pd17  1  0.326471  0.652943  0.326471  1
  Pd  Pd18  1  0.326471  0.326471  0.652943  1
  Pd  Pd19  1  0.000000  0.673529  0.326471  1
  Pd  Pd20  1  0.673529  0.673529  0.347057  1
  Pd  Pd21  1  0.326471  0.000000  0.673529  1
  Pd  Pd22  1  0.673529  0.326471  0.000000  1
