# generated using pymatgen
data_La3Nd2Ir3
_symmetry_space_group_name_H-M   'P 1'
_cell_length_a   11.36378000
_cell_length_b   11.36378000
_cell_length_c   6.63914000
_cell_angle_alpha   90.00000000
_cell_angle_beta   90.00000000
_cell_angle_gamma   90.00000000
_symmetry_Int_Tables_number   1
_chemical_formula_structural   La3Nd2Ir3
_chemical_formula_sum   'La12 Nd8 Ir12'
_cell_volume   857.34863617
_cell_formula_units_Z   4
loop_
 _symmetry_equiv_pos_site_id
 _symmetry_equiv_pos_as_xyz
  1  'x, y, z'
loop_
 _atom_site_type_symbol
 _atom_site_label
 _atom_site_symmetry_multiplicity
 _atom_site_fract_x
 _atom_site_fract_y
 _atom_site_fract_z
 _atom_site_occupancy
  La  La0  1  0.090568  0.291627  0.116094  1
  La  La1  1  0.791627  0.409432  0.116094  1
  La  La2  1  0.208373  0.590568  0.116094  1
  La  La3  1  0.909432  0.708373  0.116094  1
  La  La4  1  0.409054  0.790987  0.384518  1
  La  La5  1  0.590946  0.209013  0.384518  1
  La  La6  1  0.290987  0.090946  0.384518  1
  La  La7  1  0.709013  0.909054  0.384518  1
  La  La8  1  0.409126  0.209319  0.883484  1
  La  La9  1  0.709319  0.090874  0.883484  1
  La  La10  1  0.290681  0.909126  0.883484  1
  La  La11  1  0.590874  0.790681  0.883484  1
  Nd  Nd12  1  0.089502  0.707333  0.616144  1
  Nd  Nd13  1  0.910498  0.292667  0.616144  1
  Nd  Nd14  1  0.207333  0.410498  0.616144  1
  Nd  Nd15  1  0.792667  0.589502  0.616144  1
  Nd  Nd16  1  0.000000  0.000000  0.999114  1
  Nd  Nd17  1  0.500000  0.500000  0.999114  1
  Nd  Nd18  1  0.500000  0.500000  0.500944  1
  Nd  Nd19  1  0.000000  0.000000  0.500944  1
  Ir  Ir20  1  0.153750  0.846623  0.249847  1
  Ir  Ir21  1  0.346623  0.346250  0.249847  1
  Ir  Ir22  1  0.653377  0.653750  0.249847  1
  Ir  Ir23  1  0.846250  0.153377  0.249847  1
  Ir  Ir24  1  0.346177  0.653448  0.749560  1
  Ir  Ir25  1  0.153448  0.153823  0.749560  1
  Ir  Ir26  1  0.846552  0.846177  0.749560  1
  Ir  Ir27  1  0.653823  0.346552  0.749560  1
  Ir  Ir28  1  0.000000  0.500000  0.379968  1
  Ir  Ir29  1  0.500000  0.000000  0.120632  1
  Ir  Ir30  1  0.500000  0.000000  0.620029  1
  Ir  Ir31  1  0.000000  0.500000  0.880667  1
