# generated using pymatgen
data_Er2Sc2TiOs7
_symmetry_space_group_name_H-M   'P 1'
_cell_length_a   5.33093300
_cell_length_b   5.33093203
_cell_length_c   8.55262700
_cell_angle_alpha   90.00000000
_cell_angle_beta   90.00000000
_cell_angle_gamma   120.00001220
_symmetry_Int_Tables_number   1
_chemical_formula_structural   Er2Sc2TiOs7
_chemical_formula_sum   'Er2 Sc2 Ti1 Os7'
_cell_volume   210.49242915
_cell_formula_units_Z   1
loop_
 _symmetry_equiv_pos_site_id
 _symmetry_equiv_pos_as_xyz
  1  'x, y, z'
loop_
 _atom_site_type_symbol
 _atom_site_label
 _atom_site_symmetry_multiplicity
 _atom_site_fract_x
 _atom_site_fract_y
 _atom_site_fract_z
 _atom_site_occupancy
  Er  Er0  1  0.333333  0.666667  0.437477  1
  Er  Er1  1  0.666667  0.333333  0.562523  1
  Sc  Sc2  1  0.666667  0.333333  0.928632  1
  Sc  Sc3  1  0.333333  0.666667  0.071368  1
  Ti  Ti4  1  0.000000  0.000000  0.000000  1
  Os  Os5  1  0.172776  0.345551  0.755122  1
  Os  Os6  1  0.172776  0.827224  0.755122  1
  Os  Os7  1  0.345551  0.172776  0.244878  1
  Os  Os8  1  0.827224  0.654449  0.244878  1
  Os  Os9  1  0.654449  0.827224  0.755122  1
  Os  Os10  1  0.827224  0.172776  0.244878  1
  Os  Os11  1  0.000000  0.000000  0.500000  1
