# generated using pymatgen
data_Ta16Be3NiTe16
_symmetry_space_group_name_H-M   'P 1'
_cell_length_a   4.79652200
_cell_length_b   11.10504045
_cell_length_c   19.32873709
_cell_angle_alpha   90.01077590
_cell_angle_beta   90.00000000
_cell_angle_gamma   90.00000000
_symmetry_Int_Tables_number   1
_chemical_formula_structural   Ta16Be3NiTe16
_chemical_formula_sum   'Ta16 Be3 Ni1 Te16'
_cell_volume   1029.55619570
_cell_formula_units_Z   1
loop_
 _symmetry_equiv_pos_site_id
 _symmetry_equiv_pos_as_xyz
  1  'x, y, z'
loop_
 _atom_site_type_symbol
 _atom_site_label
 _atom_site_symmetry_multiplicity
 _atom_site_fract_x
 _atom_site_fract_y
 _atom_site_fract_z
 _atom_site_occupancy
  Ta  Ta0  1  0.501663  0.559767  0.389071  1
  Ta  Ta1  1  0.501663  0.440233  0.610929  1
  Ta  Ta2  1  0.506896  0.061432  0.112636  1
  Ta  Ta3  1  0.506896  0.938568  0.887364  1
  Ta  Ta4  1  0.498417  0.693286  0.534828  1
  Ta  Ta5  1  0.498417  0.306714  0.465172  1
  Ta  Ta6  1  0.507451  0.196670  0.964785  1
  Ta  Ta7  1  0.507451  0.803330  0.035215  1
  Ta  Ta8  1  0.000402  0.679271  0.445804  1
  Ta  Ta9  1  0.000402  0.320729  0.554196  1
  Ta  Ta10  1  0.991863  0.182632  0.054875  1
  Ta  Ta11  1  0.991863  0.817368  0.945125  1
  Ta  Ta12  1  0.999634  0.406210  0.397128  1
  Ta  Ta13  1  0.999634  0.593790  0.602872  1
  Ta  Ta14  1  0.993796  0.904397  0.104506  1
  Ta  Ta15  1  0.993796  0.095603  0.895494  1
  Be  Be16  1  0.250037  0.500000  0.500000  1
  Be  Be17  1  0.750155  0.000000  0.000000  1
  Be  Be18  1  0.750014  0.500000  0.500000  1
  Ni  Ni19  1  0.250094  0.000000  0.000000  1
  Te  Te20  1  0.999368  0.839896  0.560738  1
  Te  Te21  1  0.999368  0.160104  0.439262  1
  Te  Te22  1  0.009217  0.341573  0.938791  1
  Te  Te23  1  0.009217  0.658427  0.061209  1
  Te  Te24  1  0.499993  0.334630  0.318701  1
  Te  Te25  1  0.499993  0.665370  0.681299  1
  Te  Te26  1  0.492112  0.834709  0.181657  1
  Te  Te27  1  0.492112  0.165291  0.818343  1
  Te  Te28  1  0.500271  0.814886  0.405069  1
  Te  Te29  1  0.500271  0.185114  0.594931  1
  Te  Te30  1  0.490483  0.316679  0.095386  1
  Te  Te31  1  0.490483  0.683321  0.904614  1
  Te  Te32  1  0.000532  0.605925  0.304757  1
  Te  Te33  1  0.000532  0.394075  0.695243  1
  Te  Te34  1  0.007754  0.106308  0.195594  1
  Te  Te35  1  0.007754  0.893692  0.804406  1
