# generated using pymatgen
data_Er16Al4RuRh3
_symmetry_space_group_name_H-M   'P 1'
_cell_length_a   9.43743212
_cell_length_b   9.44913414
_cell_length_c   9.43743100
_cell_angle_alpha   60.04095866
_cell_angle_beta   60.00000043
_cell_angle_gamma   60.04096458
_symmetry_Int_Tables_number   1
_chemical_formula_structural   Er16Al4RuRh3
_chemical_formula_sum   'Er16 Al4 Ru1 Rh3'
_cell_volume   595.46091146
_cell_formula_units_Z   1
loop_
 _symmetry_equiv_pos_site_id
 _symmetry_equiv_pos_as_xyz
  1  'x, y, z'
loop_
 _atom_site_type_symbol
 _atom_site_label
 _atom_site_symmetry_multiplicity
 _atom_site_fract_x
 _atom_site_fract_y
 _atom_site_fract_z
 _atom_site_occupancy
  Er  Er0  1  0.190553  0.194459  0.807494  1
  Er  Er1  1  0.436712  0.062819  0.063758  1
  Er  Er2  1  0.436712  0.062819  0.436712  1
  Er  Er3  1  0.062130  0.435714  0.062130  1
  Er  Er4  1  0.647130  0.058609  0.647130  1
  Er  Er5  1  0.192823  0.806726  0.807628  1
  Er  Er6  1  0.063758  0.062819  0.436712  1
  Er  Er7  1  0.807494  0.194459  0.190553  1
  Er  Er8  1  0.807628  0.806726  0.192823  1
  Er  Er9  1  0.647772  0.647069  0.057386  1
  Er  Er10  1  0.647772  0.647069  0.647772  1
  Er  Er11  1  0.062130  0.435714  0.440026  1
  Er  Er12  1  0.057386  0.647069  0.647772  1
  Er  Er13  1  0.807494  0.194459  0.807494  1
  Er  Er14  1  0.440026  0.435714  0.062130  1
  Er  Er15  1  0.192823  0.806726  0.192823  1
  Al  Al16  1  0.422006  0.733984  0.422006  1
  Al  Al17  1  0.421795  0.421302  0.735109  1
  Al  Al18  1  0.735109  0.421302  0.421795  1
  Al  Al19  1  0.421795  0.421302  0.421795  1
  Ru  Ru20  1  0.857487  0.427537  0.857487  1
  Rh  Rh21  1  0.857449  0.858533  0.426569  1
  Rh  Rh22  1  0.426569  0.858533  0.857449  1
  Rh  Rh23  1  0.857449  0.858533  0.857449  1
