# generated using pymatgen
data_Mn2TeCl2O3
_symmetry_space_group_name_H-M   'P 1'
_cell_length_a   6.94895900
_cell_length_b   5.23994140
_cell_length_c   8.92077983
_cell_angle_alpha   73.56160994
_cell_angle_beta   89.99989901
_cell_angle_gamma   89.99993775
_symmetry_Int_Tables_number   1
_chemical_formula_structural   Mn2TeCl2O3
_chemical_formula_sum   'Mn4 Te2 Cl4 O6'
_cell_volume   311.54732146
_cell_formula_units_Z   2
loop_
 _symmetry_equiv_pos_site_id
 _symmetry_equiv_pos_as_xyz
  1  'x, y, z'
loop_
 _atom_site_type_symbol
 _atom_site_label
 _atom_site_symmetry_multiplicity
 _atom_site_fract_x
 _atom_site_fract_y
 _atom_site_fract_z
 _atom_site_occupancy
  Mn  Mn0  1  0.249999  0.757298  0.766202  1
  Mn  Mn1  1  0.750001  0.242702  0.233798  1
  Mn  Mn2  1  0.500000  0.000000  0.000000  1
  Mn  Mn3  1  0.000000  0.000000  0.000000  1
  Te  Te4  1  0.749999  0.600528  0.760931  1
  Te  Te5  1  0.250001  0.399472  0.239069  1
  Cl  Cl6  1  0.249999  0.842904  0.489232  1
  Cl  Cl7  1  0.250000  0.251219  0.793370  1
  Cl  Cl8  1  0.750000  0.748781  0.206630  1
  Cl  Cl9  1  0.750001  0.157096  0.510768  1
  O  O10  1  0.041351  0.243090  0.158906  1
  O  O11  1  0.541348  0.756907  0.841095  1
  O  O12  1  0.958649  0.756910  0.841094  1
  O  O13  1  0.750001  0.264002  0.925703  1
  O  O14  1  0.249999  0.735998  0.074297  1
  O  O15  1  0.458652  0.243093  0.158905  1
