# generated using pymatgen
data_Pr2Nd18(GaSi3)3
_symmetry_space_group_name_H-M   'P 1'
_cell_length_a   7.75860802
_cell_length_b   7.76240311
_cell_length_c   14.56902317
_cell_angle_alpha   89.98252302
_cell_angle_beta   89.99796360
_cell_angle_gamma   89.99147986
_symmetry_Int_Tables_number   1
_chemical_formula_structural   Pr2Nd18(GaSi3)3
_chemical_formula_sum   'Pr2 Nd18 Ga3 Si9'
_cell_volume   877.42582437
_cell_formula_units_Z   1
loop_
 _symmetry_equiv_pos_site_id
 _symmetry_equiv_pos_as_xyz
  1  'x, y, z'
loop_
 _atom_site_type_symbol
 _atom_site_label
 _atom_site_symmetry_multiplicity
 _atom_site_fract_x
 _atom_site_fract_y
 _atom_site_fract_z
 _atom_site_occupancy
  Pr  Pr0  1  0.327388  0.313794  0.108989  1
  Pr  Pr1  1  0.173575  0.185316  0.891112  1
  Nd  Nd2  1  0.817387  0.822645  0.606934  1
  Nd  Nd3  1  0.185837  0.827470  0.109968  1
  Nd  Nd4  1  0.169239  0.810771  0.392577  1
  Nd  Nd5  1  0.000059  0.500004  0.733887  1
  Nd  Nd6  1  0.830785  0.189171  0.392622  1
  Nd  Nd7  1  0.689542  0.669359  0.392668  1
  Nd  Nd8  1  0.677184  0.317644  0.606924  1
  Nd  Nd9  1  0.322804  0.682427  0.606967  1
  Nd  Nd10  1  0.999891  0.499999  0.229469  1
  Nd  Nd11  1  0.672598  0.686452  0.109984  1
  Nd  Nd12  1  0.685169  0.326909  0.890242  1
  Nd  Nd13  1  0.826423  0.814462  0.890136  1
  Nd  Nd14  1  0.310586  0.330644  0.392598  1
  Nd  Nd15  1  0.182541  0.177386  0.607013  1
  Nd  Nd16  1  0.813974  0.172153  0.109889  1
  Nd  Nd17  1  0.315002  0.673432  0.890176  1
  Nd  Nd18  1  0.499968  0.999971  0.271236  1
  Nd  Nd19  1  0.500021  0.000026  0.765895  1
  Ga  Ga20  1  0.499982  0.000019  0.493458  1
  Ga  Ga21  1  0.501246  0.998863  0.992815  1
  Ga  Ga22  1  0.998751  0.501173  0.005847  1
  Si  Si23  1  0.614611  0.385732  0.251998  1
  Si  Si24  1  0.114658  0.885888  0.747722  1
  Si  Si25  1  0.386959  0.385488  0.747791  1
  Si  Si26  1  0.386250  0.615143  0.251911  1
  Si  Si27  1  0.885249  0.885792  0.251614  1
  Si  Si28  1  0.613658  0.615128  0.748063  1
  Si  Si29  1  0.000017  0.499956  0.509958  1
  Si  Si30  1  0.884473  0.113194  0.747643  1
  Si  Si31  1  0.114173  0.113591  0.251895  1
