# generated using pymatgen
data_CaTa6SnS12
_symmetry_space_group_name_H-M   'P 1'
_cell_length_a   5.80734100
_cell_length_b   5.80734053
_cell_length_c   14.51728900
_cell_angle_alpha   90.00000000
_cell_angle_beta   90.00000000
_cell_angle_gamma   120.00000839
_symmetry_Int_Tables_number   1
_chemical_formula_structural   CaTa6SnS12
_chemical_formula_sum   'Ca1 Ta6 Sn1 S12'
_cell_volume   424.00476596
_cell_formula_units_Z   1
loop_
 _symmetry_equiv_pos_site_id
 _symmetry_equiv_pos_as_xyz
  1  'x, y, z'
loop_
 _atom_site_type_symbol
 _atom_site_label
 _atom_site_symmetry_multiplicity
 _atom_site_fract_x
 _atom_site_fract_y
 _atom_site_fract_z
 _atom_site_occupancy
  Ca  Ca0  1  0.000000  0.000000  0.500000  1
  Ta  Ta1  1  0.333333  0.666667  0.250597  1
  Ta  Ta2  1  0.666667  0.333333  0.749403  1
  Ta  Ta3  1  0.666667  0.333333  0.250597  1
  Ta  Ta4  1  0.333333  0.666667  0.749403  1
  Ta  Ta5  1  0.000000  0.000000  0.251198  1
  Ta  Ta6  1  0.000000  0.000000  0.748802  1
  Sn  Sn7  1  0.000000  0.000000  0.000000  1
  S  S8  1  0.335428  0.000000  0.143586  1
  S  S9  1  0.000000  0.335428  0.143586  1
  S  S10  1  0.664572  0.664572  0.143586  1
  S  S11  1  0.335964  0.335964  0.641252  1
  S  S12  1  0.664036  0.664036  0.358748  1
  S  S13  1  0.664036  0.000000  0.641252  1
  S  S14  1  0.000000  0.664036  0.641252  1
  S  S15  1  0.000000  0.664572  0.856414  1
  S  S16  1  0.335428  0.335428  0.856414  1
  S  S17  1  0.000000  0.335964  0.358748  1
  S  S18  1  0.335964  0.000000  0.358748  1
  S  S19  1  0.664572  0.000000  0.856414  1
