# generated using pymatgen
data_Tb3Ho5(SiBr6)2
_symmetry_space_group_name_H-M   'P 1'
_cell_length_a   4.05583000
_cell_length_b   13.22637921
_cell_length_c   14.01030628
_cell_angle_alpha   90.04904111
_cell_angle_beta   90.00000000
_cell_angle_gamma   90.00000000
_symmetry_Int_Tables_number   1
_chemical_formula_structural   Tb3Ho5(SiBr6)2
_chemical_formula_sum   'Tb3 Ho5 Si2 Br12'
_cell_volume   751.56783273
_cell_formula_units_Z   1
loop_
 _symmetry_equiv_pos_site_id
 _symmetry_equiv_pos_as_xyz
  1  'x, y, z'
loop_
 _atom_site_type_symbol
 _atom_site_label
 _atom_site_symmetry_multiplicity
 _atom_site_fract_x
 _atom_site_fract_y
 _atom_site_fract_z
 _atom_site_occupancy
  Tb  Tb0  1  0.000000  0.881973  0.421566  1
  Tb  Tb1  1  0.000000  0.618669  0.921151  1
  Tb  Tb2  1  0.000000  0.381302  0.078827  1
  Ho  Ho3  1  0.500000  0.117849  0.341616  1
  Ho  Ho4  1  0.500000  0.882348  0.658545  1
  Ho  Ho5  1  0.500000  0.617779  0.158514  1
  Ho  Ho6  1  0.500000  0.382118  0.841419  1
  Ho  Ho7  1  0.000000  0.118136  0.578481  1
  Si  Si8  1  0.500000  0.000938  0.500667  1
  Si  Si9  1  0.500000  0.499968  0.999955  1
  Br  Br10  1  0.500000  0.242454  0.164082  1
  Br  Br11  1  0.500000  0.757616  0.835953  1
  Br  Br12  1  0.500000  0.742853  0.336291  1
  Br  Br13  1  0.500000  0.255435  0.662733  1
  Br  Br14  1  0.000000  0.254749  0.411183  1
  Br  Br15  1  0.000000  0.744889  0.589962  1
  Br  Br16  1  0.000000  0.755231  0.090083  1
  Br  Br17  1  0.000000  0.244727  0.909835  1
  Br  Br18  1  0.000000  0.003196  0.242727  1
  Br  Br19  1  0.000000  0.997932  0.756471  1
  Br  Br20  1  0.000000  0.503243  0.257447  1
  Br  Br21  1  0.000000  0.496594  0.742493  1
