# generated using pymatgen
data_Ta3Ti17Si16
_symmetry_space_group_name_H-M   'P 1'
_cell_length_a   6.72066560
_cell_length_b   6.72066560
_cell_length_c   12.25422698
_cell_angle_alpha   90.03255539
_cell_angle_beta   89.96744461
_cell_angle_gamma   89.96424948
_symmetry_Int_Tables_number   1
_chemical_formula_structural   Ta3Ti17Si16
_chemical_formula_sum   'Ta3 Ti17 Si16'
_cell_volume   553.49062490
_cell_formula_units_Z   1
loop_
 _symmetry_equiv_pos_site_id
 _symmetry_equiv_pos_as_xyz
  1  'x, y, z'
loop_
 _atom_site_type_symbol
 _atom_site_label
 _atom_site_symmetry_multiplicity
 _atom_site_fract_x
 _atom_site_fract_y
 _atom_site_fract_z
 _atom_site_occupancy
  Ta  Ta0  1  0.170603  0.170603  0.000000  1
  Ta  Ta1  1  0.328556  0.670986  0.250658  1
  Ta  Ta2  1  0.670986  0.328556  0.749342  1
  Ti  Ti3  1  0.995219  0.149966  0.621023  1
  Ti  Ti4  1  0.350978  0.494681  0.871623  1
  Ti  Ti5  1  0.648859  0.504577  0.371734  1
  Ti  Ti6  1  0.494681  0.350978  0.128377  1
  Ti  Ti7  1  0.504577  0.648859  0.628266  1
  Ti  Ti8  1  0.005077  0.850064  0.122100  1
  Ti  Ti9  1  0.149966  0.995219  0.378977  1
  Ti  Ti10  1  0.850064  0.005077  0.877900  1
  Ti  Ti11  1  0.003741  0.345836  0.219160  1
  Ti  Ti12  1  0.156315  0.504110  0.468607  1
  Ti  Ti13  1  0.843498  0.495534  0.969044  1
  Ti  Ti14  1  0.504110  0.156315  0.531393  1
  Ti  Ti15  1  0.495534  0.843498  0.030956  1
  Ti  Ti16  1  0.996050  0.656055  0.718897  1
  Ti  Ti17  1  0.345836  0.003741  0.780840  1
  Ti  Ti18  1  0.656055  0.996050  0.281103  1
  Ti  Ti19  1  0.829579  0.829579  0.500000  1
  Si  Si20  1  0.045922  0.301191  0.811773  1
  Si  Si21  1  0.198223  0.545975  0.062151  1
  Si  Si22  1  0.802733  0.457146  0.561317  1
  Si  Si23  1  0.545975  0.198223  0.937849  1
  Si  Si24  1  0.457146  0.802733  0.438683  1
  Si  Si25  1  0.952567  0.700131  0.314231  1
  Si  Si26  1  0.301191  0.045922  0.188227  1
  Si  Si27  1  0.700131  0.952567  0.685769  1
  Si  Si28  1  0.293201  0.358424  0.671537  1
  Si  Si29  1  0.141143  0.793477  0.921581  1
  Si  Si30  1  0.857185  0.204376  0.422882  1
  Si  Si31  1  0.793477  0.141143  0.078419  1
  Si  Si32  1  0.204376  0.857185  0.577118  1
  Si  Si33  1  0.707027  0.640991  0.172282  1
  Si  Si34  1  0.358424  0.293201  0.328463  1
  Si  Si35  1  0.640991  0.707027  0.827718  1
