# generated using pymatgen
data_CeDyCo8(P3Ru)2
_symmetry_space_group_name_H-M   'P 1'
_cell_length_a   3.70307000
_cell_length_b   10.46615800
_cell_length_c   11.82172900
_cell_angle_alpha   90.00000000
_cell_angle_beta   90.00000000
_cell_angle_gamma   90.00000000
_symmetry_Int_Tables_number   1
_chemical_formula_structural   CeDyCo8(P3Ru)2
_chemical_formula_sum   'Ce2 Dy2 Co16 P12 Ru4'
_cell_volume   458.17375434
_cell_formula_units_Z   2
loop_
 _symmetry_equiv_pos_site_id
 _symmetry_equiv_pos_as_xyz
  1  'x, y, z'
loop_
 _atom_site_type_symbol
 _atom_site_label
 _atom_site_symmetry_multiplicity
 _atom_site_fract_x
 _atom_site_fract_y
 _atom_site_fract_z
 _atom_site_occupancy
  Ce  Ce0  1  0.750000  0.413434  0.296088  1
  Ce  Ce1  1  0.750000  0.086566  0.796088  1
  Dy  Dy2  1  0.250000  0.586529  0.703862  1
  Dy  Dy3  1  0.250000  0.913471  0.203862  1
  Co  Co4  1  0.250000  0.408984  0.489122  1
  Co  Co5  1  0.250000  0.091016  0.989122  1
  Co  Co6  1  0.750000  0.591352  0.511320  1
  Co  Co7  1  0.750000  0.908648  0.011320  1
  Co  Co8  1  0.250000  0.218953  0.175429  1
  Co  Co9  1  0.250000  0.281047  0.675429  1
  Co  Co10  1  0.750000  0.779415  0.823739  1
  Co  Co11  1  0.750000  0.720585  0.323739  1
  Co  Co12  1  0.250000  0.888222  0.702281  1
  Co  Co13  1  0.250000  0.611778  0.202281  1
  Co  Co14  1  0.750000  0.111324  0.297568  1
  Co  Co15  1  0.750000  0.388676  0.797568  1
  Co  Co16  1  0.250000  0.467549  0.930598  1
  Co  Co17  1  0.250000  0.032451  0.430598  1
  Co  Co18  1  0.750000  0.535264  0.068924  1
  Co  Co19  1  0.750000  0.964736  0.568924  1
  P  P20  1  0.250000  0.418167  0.109607  1
  P  P21  1  0.250000  0.081833  0.609607  1
  P  P22  1  0.750000  0.581585  0.887220  1
  P  P23  1  0.750000  0.918415  0.387220  1
  P  P24  1  0.250000  0.276411  0.866551  1
  P  P25  1  0.250000  0.223589  0.366551  1
  P  P26  1  0.750000  0.728068  0.133644  1
  P  P27  1  0.750000  0.771932  0.633644  1
  P  P28  1  0.250000  0.599205  0.391827  1
  P  P29  1  0.250000  0.900795  0.891827  1
  P  P30  1  0.750000  0.404830  0.609837  1
  P  P31  1  0.750000  0.095170  0.109837  1
  Ru  Ru32  1  0.250000  0.715106  0.993633  1
  Ru  Ru33  1  0.250000  0.784894  0.493633  1
  Ru  Ru34  1  0.750000  0.283196  0.008750  1
  Ru  Ru35  1  0.750000  0.216804  0.508750  1
