# generated using pymatgen
data_Nb4CrCo6Si
_symmetry_space_group_name_H-M   'P 1'
_cell_length_a   4.84967600
_cell_length_b   4.84967633
_cell_length_c   7.65144000
_cell_angle_alpha   90.00000000
_cell_angle_beta   90.00000000
_cell_angle_gamma   119.99999773
_symmetry_Int_Tables_number   1
_chemical_formula_structural   Nb4CrCo6Si
_chemical_formula_sum   'Nb4 Cr1 Co6 Si1'
_cell_volume   155.84730562
_cell_formula_units_Z   1
loop_
 _symmetry_equiv_pos_site_id
 _symmetry_equiv_pos_as_xyz
  1  'x, y, z'
loop_
 _atom_site_type_symbol
 _atom_site_label
 _atom_site_symmetry_multiplicity
 _atom_site_fract_x
 _atom_site_fract_y
 _atom_site_fract_z
 _atom_site_occupancy
  Nb  Nb0  1  0.666667  0.333333  0.922791  1
  Nb  Nb1  1  0.333333  0.666667  0.453164  1
  Nb  Nb2  1  0.666667  0.333333  0.546836  1
  Nb  Nb3  1  0.333333  0.666667  0.077209  1
  Cr  Cr4  1  0.000000  0.000000  0.500000  1
  Co  Co5  1  0.170002  0.829998  0.753087  1
  Co  Co6  1  0.659995  0.829998  0.753087  1
  Co  Co7  1  0.829998  0.170002  0.246913  1
  Co  Co8  1  0.170002  0.340005  0.753087  1
  Co  Co9  1  0.829998  0.659995  0.246913  1
  Co  Co10  1  0.340005  0.170002  0.246913  1
  Si  Si11  1  0.000000  0.000000  0.000000  1
