# generated using pymatgen
data_Tb5MnRuO12
_symmetry_space_group_name_H-M   'P 1'
_cell_length_a   6.87680180
_cell_length_b   6.87680200
_cell_length_c   7.29841621
_cell_angle_alpha   74.54412100
_cell_angle_beta   74.54411776
_cell_angle_gamma   50.51233846
_symmetry_Int_Tables_number   1
_chemical_formula_structural   Tb5MnRuO12
_chemical_formula_sum   'Tb5 Mn1 Ru1 O12'
_cell_volume   254.54316285
_cell_formula_units_Z   1
loop_
 _symmetry_equiv_pos_site_id
 _symmetry_equiv_pos_as_xyz
  1  'x, y, z'
loop_
 _atom_site_type_symbol
 _atom_site_label
 _atom_site_symmetry_multiplicity
 _atom_site_fract_x
 _atom_site_fract_y
 _atom_site_fract_z
 _atom_site_occupancy
  Tb  Tb0  1  0.693383  0.693955  0.666305  1
  Tb  Tb1  1  0.692347  0.703376  0.140927  1
  Tb  Tb2  1  0.002361  0.997639  0.000000  1
  Tb  Tb3  1  0.296624  0.307653  0.859073  1
  Tb  Tb4  1  0.306045  0.306617  0.333695  1
  Mn  Mn5  1  0.251104  0.748896  0.500000  1
  Ru  Ru6  1  0.759952  0.240048  0.500000  1
  O  O7  1  0.402007  0.905208  0.924380  1
  O  O8  1  0.575187  0.096681  0.582683  1
  O  O9  1  0.903319  0.424813  0.417317  1
  O  O10  1  0.094792  0.597993  0.075620  1
  O  O11  1  0.004513  0.995470  0.320676  1
  O  O12  1  0.496719  0.503511  0.681182  1
  O  O13  1  0.901111  0.402145  0.925583  1
  O  O14  1  0.100311  0.578648  0.580931  1
  O  O15  1  0.421352  0.899689  0.419069  1
  O  O16  1  0.597855  0.098889  0.074417  1
  O  O17  1  0.496489  0.503281  0.318818  1
  O  O18  1  0.004530  0.995487  0.679324  1
