# generated using pymatgen
data_Dy2Tm3Ni19
_symmetry_space_group_name_H-M   'P 1'
_cell_length_a   4.88640613
_cell_length_b   4.88640687
_cell_length_c   16.37511801
_cell_angle_alpha   81.41929647
_cell_angle_beta   81.41929702
_cell_angle_gamma   60.00000537
_symmetry_Int_Tables_number   1
_chemical_formula_structural   Dy2Tm3Ni19
_chemical_formula_sum   'Dy2 Tm3 Ni19'
_cell_volume   333.54264853
_cell_formula_units_Z   1
loop_
 _symmetry_equiv_pos_site_id
 _symmetry_equiv_pos_as_xyz
  1  'x, y, z'
loop_
 _atom_site_type_symbol
 _atom_site_label
 _atom_site_symmetry_multiplicity
 _atom_site_fract_x
 _atom_site_fract_y
 _atom_site_fract_z
 _atom_site_occupancy
  Dy  Dy0  1  0.921697  0.921697  0.234911  1
  Dy  Dy1  1  0.078303  0.078303  0.765089  1
  Tm  Tm2  1  0.000000  0.000000  0.000000  1
  Tm  Tm3  1  0.848115  0.848115  0.455656  1
  Tm  Tm4  1  0.151885  0.151885  0.544344  1
  Ni  Ni5  1  0.500000  0.500000  0.500000  1
  Ni  Ni6  1  0.749598  0.749599  0.751204  1
  Ni  Ni7  1  0.250401  0.250401  0.248797  1
  Ni  Ni8  1  0.666735  0.666735  0.999798  1
  Ni  Ni9  1  0.333265  0.333265  0.000202  1
  Ni  Ni10  1  0.583878  0.583878  0.248368  1
  Ni  Ni11  1  0.416122  0.416122  0.751632  1
  Ni  Ni12  1  0.375505  0.375505  0.372305  1
  Ni  Ni13  1  0.876686  0.375505  0.372305  1
  Ni  Ni14  1  0.375505  0.876686  0.372305  1
  Ni  Ni15  1  0.624495  0.624495  0.627695  1
  Ni  Ni16  1  0.123314  0.624495  0.627695  1
  Ni  Ni17  1  0.624495  0.123314  0.627695  1
  Ni  Ni18  1  0.459122  0.459122  0.122845  1
  Ni  Ni19  1  0.958910  0.459122  0.122845  1
  Ni  Ni20  1  0.459122  0.958910  0.122845  1
  Ni  Ni21  1  0.540878  0.540878  0.877155  1
  Ni  Ni22  1  0.041090  0.540878  0.877155  1
  Ni  Ni23  1  0.540878  0.041090  0.877155  1
