# generated using pymatgen
data_Dy2RuRhF14
_symmetry_space_group_name_H-M   'P 1'
_cell_length_a   5.55780400
_cell_length_b   8.88723122
_cell_length_c   11.95815619
_cell_angle_alpha   62.78702948
_cell_angle_beta   90.00000000
_cell_angle_gamma   90.00000000
_symmetry_Int_Tables_number   1
_chemical_formula_structural   Dy2RuRhF14
_chemical_formula_sum   'Dy4 Ru2 Rh2 F28'
_cell_volume   525.27714762
_cell_formula_units_Z   2
loop_
 _symmetry_equiv_pos_site_id
 _symmetry_equiv_pos_as_xyz
  1  'x, y, z'
loop_
 _atom_site_type_symbol
 _atom_site_label
 _atom_site_symmetry_multiplicity
 _atom_site_fract_x
 _atom_site_fract_y
 _atom_site_fract_z
 _atom_site_occupancy
  Dy  Dy0  1  0.756587  0.818547  0.767519  1
  Dy  Dy1  1  0.256587  0.181453  0.732481  1
  Dy  Dy2  1  0.237074  0.192991  0.236383  1
  Dy  Dy3  1  0.737074  0.807009  0.263617  1
  Ru  Ru4  1  0.756351  0.276255  0.953589  1
  Ru  Ru5  1  0.256351  0.723745  0.546411  1
  Rh  Rh6  1  0.241525  0.729672  0.040818  1
  Rh  Rh7  1  0.741525  0.270328  0.459182  1
  F  F8  1  0.443415  0.708167  0.912919  1
  F  F9  1  0.943415  0.291833  0.587081  1
  F  F10  1  0.558848  0.297018  0.077568  1
  F  F11  1  0.058848  0.702982  0.422432  1
  F  F12  1  0.444521  0.279538  0.547275  1
  F  F13  1  0.944521  0.720462  0.952725  1
  F  F14  1  0.547607  0.718809  0.458326  1
  F  F15  1  0.047607  0.281191  0.041674  1
  F  F16  1  0.771359  0.517079  0.857882  1
  F  F17  1  0.271359  0.482921  0.642118  1
  F  F18  1  0.230563  0.481235  0.138807  1
  F  F19  1  0.730563  0.518765  0.361193  1
  F  F20  1  0.751409  0.036723  0.044460  1
  F  F21  1  0.251409  0.963277  0.455540  1
  F  F22  1  0.238923  0.977341  0.944196  1
  F  F23  1  0.738923  0.022659  0.555804  1
  F  F24  1  0.971907  0.723923  0.639538  1
  F  F25  1  0.471907  0.276077  0.860462  1
  F  F26  1  0.030922  0.265129  0.365295  1
  F  F27  1  0.530922  0.734871  0.134705  1
  F  F28  1  0.046802  0.752339  0.170990  1
  F  F29  1  0.546802  0.247661  0.329010  1
  F  F30  1  0.953012  0.259005  0.825989  1
  F  F31  1  0.453012  0.740995  0.674011  1
  F  F32  1  0.427031  0.976782  0.235022  1
  F  F33  1  0.927031  0.023218  0.264978  1
  F  F34  1  0.592142  0.035240  0.771381  1
  F  F35  1  0.092142  0.964760  0.728619  1
