# generated using pymatgen
data_Na2Mo(OF2)2
_symmetry_space_group_name_H-M   'P 1'
_cell_length_a   5.12069300
_cell_length_b   5.53882500
_cell_length_c   18.60992200
_cell_angle_alpha   90.00000000
_cell_angle_beta   90.00000000
_cell_angle_gamma   90.00000000
_symmetry_Int_Tables_number   1
_chemical_formula_structural   Na2Mo(OF2)2
_chemical_formula_sum   'Na8 Mo4 O8 F16'
_cell_volume   527.82619069
_cell_formula_units_Z   4
loop_
 _symmetry_equiv_pos_site_id
 _symmetry_equiv_pos_as_xyz
  1  'x, y, z'
loop_
 _atom_site_type_symbol
 _atom_site_label
 _atom_site_symmetry_multiplicity
 _atom_site_fract_x
 _atom_site_fract_y
 _atom_site_fract_z
 _atom_site_occupancy
  Na  Na0  1  0.000000  0.750000  0.771057  1
  Na  Na1  1  0.500000  0.250000  0.728943  1
  Na  Na2  1  0.000000  0.250000  0.228943  1
  Na  Na3  1  0.500000  0.750000  0.271057  1
  Na  Na4  1  0.000000  0.750000  0.446405  1
  Na  Na5  1  0.500000  0.250000  0.053595  1
  Na  Na6  1  0.000000  0.250000  0.553595  1
  Na  Na7  1  0.500000  0.750000  0.946405  1
  Mo  Mo8  1  0.000000  0.750000  0.107298  1
  Mo  Mo9  1  0.500000  0.250000  0.392702  1
  Mo  Mo10  1  0.000000  0.250000  0.892702  1
  Mo  Mo11  1  0.500000  0.750000  0.607298  1
  O  O12  1  0.774076  0.881816  0.048501  1
  O  O13  1  0.274076  0.118184  0.451499  1
  O  O14  1  0.725924  0.381816  0.451499  1
  O  O15  1  0.225924  0.618184  0.048501  1
  O  O16  1  0.225924  0.118184  0.951499  1
  O  O17  1  0.725924  0.881816  0.548501  1
  O  O18  1  0.274076  0.618184  0.548501  1
  O  O19  1  0.774076  0.381816  0.951499  1
  F  F20  1  0.711934  0.958393  0.375057  1
  F  F21  1  0.211934  0.041607  0.124943  1
  F  F22  1  0.788066  0.458393  0.124943  1
  F  F23  1  0.288066  0.541607  0.375057  1
  F  F24  1  0.288066  0.041607  0.624943  1
  F  F25  1  0.788066  0.958393  0.875057  1
  F  F26  1  0.211934  0.541607  0.875057  1
  F  F27  1  0.711934  0.458393  0.624943  1
  F  F28  1  0.800343  0.896140  0.194003  1
  F  F29  1  0.300343  0.103860  0.305997  1
  F  F30  1  0.699657  0.396140  0.305997  1
  F  F31  1  0.199657  0.603860  0.194003  1
  F  F32  1  0.199657  0.103860  0.805997  1
  F  F33  1  0.699657  0.896140  0.694003  1
  F  F34  1  0.300343  0.603860  0.694003  1
  F  F35  1  0.800343  0.396140  0.805997  1
