# generated using pymatgen
data_CsPaF5
_symmetry_space_group_name_H-M   'P 1'
_cell_length_a   8.46294164
_cell_length_b   8.46294181
_cell_length_c   8.78573900
_cell_angle_alpha   90.00000000
_cell_angle_beta   90.00000000
_cell_angle_gamma   117.53894931
_symmetry_Int_Tables_number   1
_chemical_formula_structural   CsPaF5
_chemical_formula_sum   'Cs4 Pa4 F20'
_cell_volume   557.95106026
_cell_formula_units_Z   4
loop_
 _symmetry_equiv_pos_site_id
 _symmetry_equiv_pos_as_xyz
  1  'x, y, z'
loop_
 _atom_site_type_symbol
 _atom_site_label
 _atom_site_symmetry_multiplicity
 _atom_site_fract_x
 _atom_site_fract_y
 _atom_site_fract_z
 _atom_site_occupancy
  Cs  Cs0  1  0.704332  0.295668  0.500000  1
  Cs  Cs1  1  0.204332  0.795668  0.000000  1
  Cs  Cs2  1  0.295668  0.704332  0.500000  1
  Cs  Cs3  1  0.795668  0.204332  0.000000  1
  Pa  Pa4  1  0.337013  0.337013  0.838016  1
  Pa  Pa5  1  0.662987  0.662987  0.161984  1
  Pa  Pa6  1  0.162987  0.162987  0.338016  1
  Pa  Pa7  1  0.837013  0.837013  0.661984  1
  F  F8  1  0.292125  0.292125  0.566751  1
  F  F9  1  0.707875  0.707875  0.433249  1
  F  F10  1  0.207875  0.207875  0.066751  1
  F  F11  1  0.792125  0.792125  0.933249  1
  F  F12  1  0.065859  0.065859  0.792186  1
  F  F13  1  0.934141  0.934141  0.207814  1
  F  F14  1  0.434141  0.434141  0.292186  1
  F  F15  1  0.565859  0.565859  0.707814  1
  F  F16  1  0.587764  0.412236  0.000000  1
  F  F17  1  0.087764  0.912236  0.500000  1
  F  F18  1  0.412236  0.587764  0.000000  1
  F  F19  1  0.912236  0.087764  0.500000  1
  F  F20  1  0.440942  0.146053  0.797908  1
  F  F21  1  0.853947  0.559058  0.202092  1
  F  F22  1  0.353947  0.059058  0.297908  1
  F  F23  1  0.940942  0.646053  0.702092  1
  F  F24  1  0.559058  0.853947  0.202092  1
  F  F25  1  0.146053  0.440942  0.797908  1
  F  F26  1  0.646053  0.940942  0.702092  1
  F  F27  1  0.059058  0.353947  0.297908  1
