# generated using pymatgen
data_LiHoP3Ir4
_symmetry_space_group_name_H-M   'P 1'
_cell_length_a   3.97799500
_cell_length_b   10.71592900
_cell_length_c   12.71757400
_cell_angle_alpha   90.00000000
_cell_angle_beta   90.00000000
_cell_angle_gamma   90.00000000
_symmetry_Int_Tables_number   1
_chemical_formula_structural   LiHoP3Ir4
_chemical_formula_sum   'Li4 Ho4 P12 Ir16'
_cell_volume   542.12362510
_cell_formula_units_Z   4
loop_
 _symmetry_equiv_pos_site_id
 _symmetry_equiv_pos_as_xyz
  1  'x, y, z'
loop_
 _atom_site_type_symbol
 _atom_site_label
 _atom_site_symmetry_multiplicity
 _atom_site_fract_x
 _atom_site_fract_y
 _atom_site_fract_z
 _atom_site_occupancy
  Li  Li0  1  0.250000  0.708792  0.993541  1
  Li  Li1  1  0.250000  0.791208  0.493541  1
  Li  Li2  1  0.750000  0.291208  0.006459  1
  Li  Li3  1  0.750000  0.208792  0.506459  1
  Ho  Ho4  1  0.250000  0.576692  0.702527  1
  Ho  Ho5  1  0.250000  0.923308  0.202527  1
  Ho  Ho6  1  0.750000  0.423308  0.297473  1
  Ho  Ho7  1  0.750000  0.076692  0.797473  1
  P  P8  1  0.250000  0.425900  0.115931  1
  P  P9  1  0.250000  0.074100  0.615931  1
  P  P10  1  0.750000  0.574100  0.884069  1
  P  P11  1  0.750000  0.925900  0.384069  1
  P  P12  1  0.250000  0.261188  0.858324  1
  P  P13  1  0.250000  0.238812  0.358324  1
  P  P14  1  0.750000  0.738812  0.141676  1
  P  P15  1  0.750000  0.761188  0.641676  1
  P  P16  1  0.250000  0.603030  0.390345  1
  P  P17  1  0.250000  0.896970  0.890345  1
  P  P18  1  0.750000  0.396970  0.609655  1
  P  P19  1  0.750000  0.103030  0.109655  1
  Ir  Ir20  1  0.250000  0.406633  0.473178  1
  Ir  Ir21  1  0.250000  0.093367  0.973178  1
  Ir  Ir22  1  0.750000  0.593367  0.526822  1
  Ir  Ir23  1  0.750000  0.906633  0.026822  1
  Ir  Ir24  1  0.250000  0.227085  0.172269  1
  Ir  Ir25  1  0.250000  0.272915  0.672269  1
  Ir  Ir26  1  0.750000  0.772915  0.827731  1
  Ir  Ir27  1  0.750000  0.727085  0.327731  1
  Ir  Ir28  1  0.250000  0.880724  0.702827  1
  Ir  Ir29  1  0.250000  0.619276  0.202827  1
  Ir  Ir30  1  0.750000  0.119276  0.297173  1
  Ir  Ir31  1  0.750000  0.380724  0.797173  1
  Ir  Ir32  1  0.250000  0.462160  0.932147  1
  Ir  Ir33  1  0.250000  0.037840  0.432147  1
  Ir  Ir34  1  0.750000  0.537840  0.067853  1
  Ir  Ir35  1  0.750000  0.962160  0.567853  1
