# generated using pymatgen
data_Pr8Er8Lu3ScSi15Au
_symmetry_space_group_name_H-M   'P 1'
_cell_length_a   7.41961800
_cell_length_b   7.76386200
_cell_length_c   14.73743100
_cell_angle_alpha   90.00000000
_cell_angle_beta   90.00000000
_cell_angle_gamma   90.00159404
_symmetry_Int_Tables_number   1
_chemical_formula_structural   Pr8Er8Lu3ScSi15Au
_chemical_formula_sum   'Pr8 Er8 Lu3 Sc1 Si15 Au1'
_cell_volume   848.94809524
_cell_formula_units_Z   1
loop_
 _symmetry_equiv_pos_site_id
 _symmetry_equiv_pos_as_xyz
  1  'x, y, z'
loop_
 _atom_site_type_symbol
 _atom_site_label
 _atom_site_symmetry_multiplicity
 _atom_site_fract_x
 _atom_site_fract_y
 _atom_site_fract_z
 _atom_site_occupancy
  Pr  Pr0  1  0.018001  0.177915  0.404680  1
  Pr  Pr1  1  0.517229  0.318145  0.406141  1
  Pr  Pr2  1  0.479429  0.676946  0.901693  1
  Pr  Pr3  1  0.479429  0.676946  0.598307  1
  Pr  Pr4  1  0.982718  0.820343  0.599004  1
  Pr  Pr5  1  0.982718  0.820343  0.900996  1
  Pr  Pr6  1  0.517229  0.318145  0.093859  1
  Pr  Pr7  1  0.018001  0.177915  0.095320  1
  Er  Er8  1  0.320047  0.178091  0.625682  1
  Er  Er9  1  0.682730  0.826182  0.378162  1
  Er  Er10  1  0.179133  0.675832  0.377897  1
  Er  Er11  1  0.820939  0.325679  0.873956  1
  Er  Er12  1  0.820939  0.325679  0.626044  1
  Er  Er13  1  0.320047  0.178091  0.874318  1
  Er  Er14  1  0.179133  0.675832  0.122103  1
  Er  Er15  1  0.682730  0.826182  0.121838  1
  Lu  Lu16  1  0.654418  0.990962  0.750000  1
  Lu  Lu17  1  0.843676  0.492346  0.250000  1
  Lu  Lu18  1  0.349158  0.012583  0.250000  1
  Sc  Sc19  1  0.154368  0.508797  0.750000  1
  Si  Si20  1  0.278360  0.871460  0.750000  1
  Si  Si21  1  0.024168  0.113105  0.750000  1
  Si  Si22  1  0.519564  0.390395  0.750000  1
  Si  Si23  1  0.145855  0.466571  0.540633  1
  Si  Si24  1  0.976192  0.889715  0.250000  1
  Si  Si25  1  0.728665  0.122507  0.250000  1
  Si  Si26  1  0.850411  0.531771  0.038690  1
  Si  Si27  1  0.351669  0.968719  0.037689  1
  Si  Si28  1  0.145855  0.466571  0.959367  1
  Si  Si29  1  0.648250  0.032213  0.541109  1
  Si  Si30  1  0.351669  0.968719  0.462311  1
  Si  Si31  1  0.850411  0.531771  0.461310  1
  Si  Si32  1  0.781371  0.624361  0.750000  1
  Si  Si33  1  0.219838  0.372367  0.250000  1
  Si  Si34  1  0.648250  0.032213  0.958891  1
  Au  Au35  1  0.477401  0.614583  0.250000  1
