# generated using pymatgen
data_La5SmTl8HgGe
_symmetry_space_group_name_H-M   'P 1'
_cell_length_a   8.77841506
_cell_length_b   8.77807413
_cell_length_c   8.77903985
_cell_angle_alpha   120.23122501
_cell_angle_beta   120.24020352
_cell_angle_gamma   89.58647611
_symmetry_Int_Tables_number   1
_chemical_formula_structural   La5SmTl8HgGe
_chemical_formula_sum   'La5 Sm1 Tl8 Hg1 Ge1'
_cell_volume   476.65808438
_cell_formula_units_Z   1
loop_
 _symmetry_equiv_pos_site_id
 _symmetry_equiv_pos_as_xyz
  1  'x, y, z'
loop_
 _atom_site_type_symbol
 _atom_site_label
 _atom_site_symmetry_multiplicity
 _atom_site_fract_x
 _atom_site_fract_y
 _atom_site_fract_z
 _atom_site_occupancy
  La  La0  1  0.236221  0.236219  0.000040  1
  La  La1  1  0.321348  0.853241  0.176205  1
  La  La2  1  0.677087  0.145186  0.823799  1
  La  La3  1  0.853248  0.677055  0.531917  1
  La  La4  1  0.145166  0.321362  0.468089  1
  Sm  Sm5  1  0.766245  0.766243  0.999970  1
  Tl  Tl6  1  0.974287  0.458113  0.787241  1
  Tl  Tl7  1  0.670844  0.187049  0.212741  1
  Tl  Tl8  1  0.458079  0.670831  0.483744  1
  Tl  Tl9  1  0.187094  0.974317  0.516227  1
  Tl  Tl10  1  0.020617  0.543014  0.210686  1
  Tl  Tl11  1  0.332350  0.809930  0.789328  1
  Tl  Tl12  1  0.543038  0.332353  0.522456  1
  Tl  Tl13  1  0.809883  0.020596  0.477566  1
  Hg  Hg14  1  0.506594  0.506592  0.999999  1
  Ge  Ge15  1  0.997898  0.997900  0.999994  1
