# generated using pymatgen
data_Yb(CoO2)3
_symmetry_space_group_name_H-M   'P 1'
_cell_length_a   4.89918499
_cell_length_b   5.59152126
_cell_length_c   8.48116000
_cell_angle_alpha   89.99899940
_cell_angle_beta   90.00056557
_cell_angle_gamma   72.43680190
_symmetry_Int_Tables_number   1
_chemical_formula_structural   Yb(CoO2)3
_chemical_formula_sum   'Yb2 Co6 O12'
_cell_volume   221.50179358
_cell_formula_units_Z   2
loop_
 _symmetry_equiv_pos_site_id
 _symmetry_equiv_pos_as_xyz
  1  'x, y, z'
loop_
 _atom_site_type_symbol
 _atom_site_label
 _atom_site_symmetry_multiplicity
 _atom_site_fract_x
 _atom_site_fract_y
 _atom_site_fract_z
 _atom_site_occupancy
  Yb  Yb0  1  0.000000  0.499999  0.169810  1
  Yb  Yb1  1  0.500000  0.499999  0.669799  1
  Co  Co2  1  0.499999  0.000001  0.166333  1
  Co  Co3  1  0.499999  0.000000  0.834100  1
  Co  Co4  1  0.500001  0.000000  0.498249  1
  Co  Co5  1  0.999998  0.000001  0.666259  1
  Co  Co6  1  0.000000  0.000000  0.334104  1
  Co  Co7  1  0.000002  0.000001  0.998347  1
  O  O8  1  0.774723  0.185534  0.164421  1
  O  O9  1  0.274715  0.185554  0.664417  1
  O  O10  1  0.225276  0.814467  0.164429  1
  O  O11  1  0.725285  0.814446  0.664425  1
  O  O12  1  0.264343  0.186903  0.001095  1
  O  O13  1  0.764376  0.186904  0.501080  1
  O  O14  1  0.270294  0.186417  0.333565  1
  O  O15  1  0.770297  0.186426  0.833568  1
  O  O16  1  0.729710  0.813580  0.333571  1
  O  O17  1  0.229707  0.813571  0.833574  1
  O  O18  1  0.735654  0.813100  0.001101  1
  O  O19  1  0.235621  0.813098  0.501087  1
