# generated using pymatgen
data_Hf3ScTa2(NbP2)2
_symmetry_space_group_name_H-M   'P 1'
_cell_length_a   3.53428900
_cell_length_b   6.90806533
_cell_length_c   8.32147159
_cell_angle_alpha   89.53481538
_cell_angle_beta   90.00000000
_cell_angle_gamma   90.00000000
_symmetry_Int_Tables_number   1
_chemical_formula_structural   Hf3ScTa2(NbP2)2
_chemical_formula_sum   'Hf3 Sc1 Ta2 Nb2 P4'
_cell_volume   203.16285889
_cell_formula_units_Z   1
loop_
 _symmetry_equiv_pos_site_id
 _symmetry_equiv_pos_as_xyz
  1  'x, y, z'
loop_
 _atom_site_type_symbol
 _atom_site_label
 _atom_site_symmetry_multiplicity
 _atom_site_fract_x
 _atom_site_fract_y
 _atom_site_fract_z
 _atom_site_occupancy
  Hf  Hf0  1  0.250000  0.532367  0.834084  1
  Hf  Hf1  1  0.750000  0.467583  0.168333  1
  Hf  Hf2  1  0.750000  0.967246  0.331611  1
  Sc  Sc3  1  0.250000  0.031981  0.665366  1
  Ta  Ta4  1  0.250000  0.639962  0.439859  1
  Ta  Ta5  1  0.250000  0.142101  0.060799  1
  Nb  Nb6  1  0.750000  0.859061  0.941161  1
  Nb  Nb7  1  0.750000  0.360756  0.558863  1
  P  P8  1  0.250000  0.262639  0.356848  1
  P  P9  1  0.250000  0.763448  0.144250  1
  P  P10  1  0.750000  0.736872  0.643947  1
  P  P11  1  0.750000  0.235988  0.854880  1
