# generated using pymatgen
data_Ho8Sc11Si16W
_symmetry_space_group_name_H-M   'P 1'
_cell_length_a   7.02658098
_cell_length_b   7.34152310
_cell_length_c   13.87837200
_cell_angle_alpha   90.00000000
_cell_angle_beta   90.00000000
_cell_angle_gamma   90.19871886
_symmetry_Int_Tables_number   1
_chemical_formula_structural   Ho8Sc11Si16W
_chemical_formula_sum   'Ho8 Sc11 Si16 W1'
_cell_volume   715.92270796
_cell_formula_units_Z   1
loop_
 _symmetry_equiv_pos_site_id
 _symmetry_equiv_pos_as_xyz
  1  'x, y, z'
loop_
 _atom_site_type_symbol
 _atom_site_label
 _atom_site_symmetry_multiplicity
 _atom_site_fract_x
 _atom_site_fract_y
 _atom_site_fract_z
 _atom_site_occupancy
  Ho  Ho0  1  0.013013  0.177487  0.093701  1
  Ho  Ho1  1  0.991550  0.819368  0.900584  1
  Ho  Ho2  1  0.485764  0.673310  0.901804  1
  Ho  Ho3  1  0.991550  0.819368  0.599416  1
  Ho  Ho4  1  0.512251  0.323231  0.095321  1
  Ho  Ho5  1  0.013013  0.177487  0.406299  1
  Ho  Ho6  1  0.512251  0.323231  0.404679  1
  Ho  Ho7  1  0.485764  0.673310  0.598196  1
  Sc  Sc8  1  0.843902  0.496854  0.250000  1
  Sc  Sc9  1  0.343624  0.003705  0.250000  1
  Sc  Sc10  1  0.655902  0.994916  0.750000  1
  Sc  Sc11  1  0.326453  0.177906  0.627863  1
  Sc  Sc12  1  0.672737  0.824303  0.374605  1
  Sc  Sc13  1  0.174009  0.673797  0.376881  1
  Sc  Sc14  1  0.672737  0.824303  0.125395  1
  Sc  Sc15  1  0.826113  0.329680  0.628382  1
  Sc  Sc16  1  0.326453  0.177906  0.872137  1
  Sc  Sc17  1  0.826113  0.329680  0.871618  1
  Sc  Sc18  1  0.174009  0.673797  0.123119  1
  Si  Si19  1  0.029049  0.122940  0.750000  1
  Si  Si20  1  0.973423  0.885592  0.250000  1
  Si  Si21  1  0.470183  0.615110  0.250000  1
  Si  Si22  1  0.518912  0.395200  0.750000  1
  Si  Si23  1  0.282470  0.859171  0.750000  1
  Si  Si24  1  0.718608  0.129920  0.250000  1
  Si  Si25  1  0.215799  0.370604  0.250000  1
  Si  Si26  1  0.792806  0.628761  0.750000  1
  Si  Si27  1  0.154014  0.466704  0.548894  1
  Si  Si28  1  0.843347  0.535376  0.462799  1
  Si  Si29  1  0.345900  0.965066  0.462614  1
  Si  Si30  1  0.843347  0.535376  0.037201  1
  Si  Si31  1  0.657648  0.034291  0.539789  1
  Si  Si32  1  0.154014  0.466704  0.951106  1
  Si  Si33  1  0.657648  0.034291  0.960211  1
  Si  Si34  1  0.345900  0.965066  0.037386  1
  W  W35  1  0.149719  0.496192  0.750000  1
