# generated using pymatgen
data_Nd2YTh(Ga3Ir)6
_symmetry_space_group_name_H-M   'P 1'
_cell_length_a   7.64314194
_cell_length_b   7.65850548
_cell_length_c   9.57237600
_cell_angle_alpha   90.00000000
_cell_angle_beta   90.00000000
_cell_angle_gamma   119.70018585
_symmetry_Int_Tables_number   1
_chemical_formula_structural   Nd2YTh(Ga3Ir)6
_chemical_formula_sum   'Nd2 Y1 Th1 Ga18 Ir6'
_cell_volume   486.71023564
_cell_formula_units_Z   1
loop_
 _symmetry_equiv_pos_site_id
 _symmetry_equiv_pos_as_xyz
  1  'x, y, z'
loop_
 _atom_site_type_symbol
 _atom_site_label
 _atom_site_symmetry_multiplicity
 _atom_site_fract_x
 _atom_site_fract_y
 _atom_site_fract_z
 _atom_site_occupancy
  Nd  Nd0  1  0.003385  0.330780  0.750000  1
  Nd  Nd1  1  0.670044  0.996118  0.250000  1
  Y  Y2  1  0.330090  0.003178  0.750000  1
  Th  Th3  1  0.996469  0.669032  0.250000  1
  Ga  Ga4  1  0.132147  0.132182  0.250000  1
  Ga  Ga5  1  0.871818  0.872337  0.750000  1
  Ga  Ga6  1  0.001755  0.331455  0.077417  1
  Ga  Ga7  1  0.000319  0.667076  0.917003  1
  Ga  Ga8  1  0.000319  0.667076  0.582997  1
  Ga  Ga9  1  0.338559  0.004266  0.424073  1
  Ga  Ga10  1  0.001755  0.331455  0.422583  1
  Ga  Ga11  1  0.662994  0.999391  0.579985  1
  Ga  Ga12  1  0.662994  0.999391  0.920015  1
  Ga  Ga13  1  0.338559  0.004266  0.075927  1
  Ga  Ga14  1  0.332906  0.331338  0.564891  1
  Ga  Ga15  1  0.663304  0.666226  0.439910  1
  Ga  Ga16  1  0.663304  0.666226  0.060090  1
  Ga  Ga17  1  0.332906  0.331338  0.935109  1
  Ga  Ga18  1  0.341256  0.544442  0.250000  1
  Ga  Ga19  1  0.658218  0.452607  0.750000  1
  Ga  Ga20  1  0.541894  0.338158  0.250000  1
  Ga  Ga21  1  0.454338  0.661839  0.750000  1
  Ir  Ir22  1  0.672993  0.331606  0.000879  1
  Ir  Ir23  1  0.326916  0.670744  0.000694  1
  Ir  Ir24  1  0.326916  0.670744  0.499306  1
  Ir  Ir25  1  0.672993  0.331606  0.499121  1
  Ir  Ir26  1  0.000424  0.997561  0.000970  1
  Ir  Ir27  1  0.000424  0.997561  0.499030  1
