# generated using pymatgen
data_Y4Al24Pd8Rh
_symmetry_space_group_name_H-M   'P 1'
_cell_length_a   7.53748113
_cell_length_b   7.56478942
_cell_length_c   13.21077193
_cell_angle_alpha   84.57493435
_cell_angle_beta   79.11196778
_cell_angle_gamma   59.92727520
_symmetry_Int_Tables_number   1
_chemical_formula_structural   Y4Al24Pd8Rh
_chemical_formula_sum   'Y4 Al24 Pd8 Rh1'
_cell_volume   640.13837526
_cell_formula_units_Z   1
loop_
 _symmetry_equiv_pos_site_id
 _symmetry_equiv_pos_as_xyz
  1  'x, y, z'
loop_
 _atom_site_type_symbol
 _atom_site_label
 _atom_site_symmetry_multiplicity
 _atom_site_fract_x
 _atom_site_fract_y
 _atom_site_fract_z
 _atom_site_occupancy
  Y  Y0  1  0.393687  0.168221  0.809404  1
  Y  Y1  1  0.606313  0.831779  0.190596  1
  Y  Y2  1  0.733326  0.497944  0.809343  1
  Y  Y3  1  0.266674  0.502056  0.190657  1
  Al  Al4  1  0.687778  0.830404  0.945707  1
  Al  Al5  1  0.312222  0.169596  0.054293  1
  Al  Al6  1  0.146292  0.832566  0.561681  1
  Al  Al7  1  0.853708  0.167434  0.438319  1
  Al  Al8  1  0.479616  0.166693  0.559270  1
  Al  Al9  1  0.520384  0.833307  0.440730  1
  Al  Al10  1  0.216627  0.165224  0.328821  1
  Al  Al11  1  0.783373  0.834776  0.671179  1
  Al  Al12  1  0.435856  0.507604  0.671158  1
  Al  Al13  1  0.564144  0.492396  0.328842  1
  Al  Al14  1  0.109071  0.159430  0.669663  1
  Al  Al15  1  0.890929  0.840570  0.330337  1
  Al  Al16  1  0.348885  0.499888  0.945907  1
  Al  Al17  1  0.651115  0.500112  0.054093  1
  Al  Al18  1  0.015099  0.171329  0.955213  1
  Al  Al19  1  0.984901  0.828671  0.044787  1
  Al  Al20  1  0.186643  0.499575  0.440907  1
  Al  Al21  1  0.813357  0.500425  0.559093  1
  Al  Al22  1  0.734180  0.163533  0.183304  1
  Al  Al23  1  0.265820  0.836467  0.816696  1
  Al  Al24  1  0.061079  0.629424  0.817567  1
  Al  Al25  1  0.938921  0.370576  0.182433  1
  Al  Al26  1  0.855621  0.041886  0.816498  1
  Al  Al27  1  0.144379  0.958114  0.183502  1
  Pd  Pd28  1  0.119930  0.492821  0.638475  1
  Pd  Pd29  1  0.880070  0.507179  0.361525  1
  Pd  Pd30  1  0.656940  0.171446  0.999772  1
  Pd  Pd31  1  0.343060  0.828554  0.000228  1
  Pd  Pd32  1  0.537833  0.166856  0.362146  1
  Pd  Pd33  1  0.462167  0.833144  0.637854  1
  Pd  Pd34  1  0.778611  0.174649  0.637199  1
  Pd  Pd35  1  0.221389  0.825351  0.362801  1
  Rh  Rh36  1  0.000000  0.500000  0.000000  1
