# generated using pymatgen
data_LiZnNi3TeO8
_symmetry_space_group_name_H-M   'P 1'
_cell_length_a   6.09348163
_cell_length_b   6.09279782
_cell_length_c   6.09265517
_cell_angle_alpha   58.44358626
_cell_angle_beta   58.42199263
_cell_angle_gamma   58.42451418
_symmetry_Int_Tables_number   1
_chemical_formula_structural   LiZnNi3TeO8
_chemical_formula_sum   'Li1 Zn1 Ni3 Te1 O8'
_cell_volume   154.19954786
_cell_formula_units_Z   1
loop_
 _symmetry_equiv_pos_site_id
 _symmetry_equiv_pos_as_xyz
  1  'x, y, z'
loop_
 _atom_site_type_symbol
 _atom_site_label
 _atom_site_symmetry_multiplicity
 _atom_site_fract_x
 _atom_site_fract_y
 _atom_site_fract_z
 _atom_site_occupancy
  Li  Li0  1  0.138601  0.138477  0.138469  1
  Zn  Zn1  1  0.860154  0.860254  0.860274  1
  Ni  Ni2  1  0.003440  0.498716  0.498720  1
  Ni  Ni3  1  0.498726  0.003513  0.498651  1
  Ni  Ni4  1  0.498731  0.498654  0.003503  1
  Te  Te5  1  0.497383  0.497342  0.497339  1
  O  O6  1  0.268094  0.267916  0.267893  1
  O  O7  1  0.268963  0.269073  0.726370  1
  O  O8  1  0.268962  0.726394  0.269071  1
  O  O9  1  0.726467  0.268934  0.268935  1
  O  O10  1  0.276150  0.731396  0.731396  1
  O  O11  1  0.731354  0.276213  0.731268  1
  O  O12  1  0.731359  0.731265  0.276237  1
  O  O13  1  0.731614  0.731850  0.731873  1
