# generated using pymatgen
data_Li4InSb3Rh8
_symmetry_space_group_name_H-M   'P 1'
_cell_length_a   6.19346600
_cell_length_b   6.20313400
_cell_length_c   6.19349200
_cell_angle_alpha   89.99815129
_cell_angle_beta   90.00033303
_cell_angle_gamma   89.99927899
_symmetry_Int_Tables_number   1
_chemical_formula_structural   Li4InSb3Rh8
_chemical_formula_sum   'Li4 In1 Sb3 Rh8'
_cell_volume   237.94714677
_cell_formula_units_Z   1
loop_
 _symmetry_equiv_pos_site_id
 _symmetry_equiv_pos_as_xyz
  1  'x, y, z'
loop_
 _atom_site_type_symbol
 _atom_site_label
 _atom_site_symmetry_multiplicity
 _atom_site_fract_x
 _atom_site_fract_y
 _atom_site_fract_z
 _atom_site_occupancy
  Li  Li0  1  0.500033  0.750029  0.249911  1
  Li  Li1  1  0.999979  0.249983  0.249911  1
  Li  Li2  1  0.999974  0.750031  0.750088  1
  Li  Li3  1  0.500011  0.249979  0.750087  1
  In  In4  1  0.500007  0.249989  0.250001  1
  Sb  Sb5  1  0.999998  0.750008  0.250014  1
  Sb  Sb6  1  0.000002  0.250003  0.749985  1
  Sb  Sb7  1  0.500003  0.750009  0.749981  1
  Rh  Rh8  1  0.246429  0.995953  0.996429  1
  Rh  Rh9  1  0.753573  0.995954  0.996429  1
  Rh  Rh10  1  0.753563  0.504028  0.996438  1
  Rh  Rh11  1  0.246439  0.504036  0.996438  1
  Rh  Rh12  1  0.246433  0.504057  0.503569  1
  Rh  Rh13  1  0.246422  0.995941  0.503581  1
  Rh  Rh14  1  0.753566  0.504040  0.503569  1
  Rh  Rh15  1  0.753567  0.995961  0.503569  1
