# generated using pymatgen
data_Tb3Y13(ZrIr3)4
_symmetry_space_group_name_H-M   'P 1'
_cell_length_a   10.90182137
_cell_length_b   10.88954501
_cell_length_c   6.28438821
_cell_angle_alpha   89.99831493
_cell_angle_beta   89.97072724
_cell_angle_gamma   89.99535120
_symmetry_Int_Tables_number   1
_chemical_formula_structural   Tb3Y13(ZrIr3)4
_chemical_formula_sum   'Tb3 Y13 Zr4 Ir12'
_cell_volume   746.05654104
_cell_formula_units_Z   1
loop_
 _symmetry_equiv_pos_site_id
 _symmetry_equiv_pos_as_xyz
  1  'x, y, z'
loop_
 _atom_site_type_symbol
 _atom_site_label
 _atom_site_symmetry_multiplicity
 _atom_site_fract_x
 _atom_site_fract_y
 _atom_site_fract_z
 _atom_site_occupancy
  Tb  Tb0  1  0.290116  0.086812  0.374109  1
  Tb  Tb1  1  0.289846  0.913077  0.873960  1
  Tb  Tb2  1  0.709942  0.086744  0.874317  1
  Y  Y3  1  0.710286  0.913176  0.373814  1
  Y  Y4  1  0.586935  0.789431  0.874071  1
  Y  Y5  1  0.586880  0.210456  0.373789  1
  Y  Y6  1  0.413402  0.789474  0.373930  1
  Y  Y7  1  0.413117  0.210755  0.873913  1
  Y  Y8  1  0.210429  0.413338  0.626151  1
  Y  Y9  1  0.210416  0.586719  0.126099  1
  Y  Y10  1  0.789638  0.413275  0.126003  1
  Y  Y11  1  0.789548  0.586679  0.626004  1
  Y  Y12  1  0.913234  0.710318  0.126145  1
  Y  Y13  1  0.913308  0.289515  0.625976  1
  Y  Y14  1  0.086600  0.710423  0.625893  1
  Y  Y15  1  0.086742  0.289592  0.125828  1
  Zr  Zr16  1  0.999811  0.999860  0.499771  1
  Zr  Zr17  1  0.999909  0.000080  0.999986  1
  Zr  Zr18  1  0.499997  0.499949  0.000525  1
  Zr  Zr19  1  0.500072  0.499998  0.500535  1
  Ir  Ir20  1  0.855905  0.144226  0.249461  1
  Ir  Ir21  1  0.855823  0.855981  0.750038  1
  Ir  Ir22  1  0.144247  0.144010  0.749354  1
  Ir  Ir23  1  0.144260  0.856005  0.249445  1
  Ir  Ir24  1  0.644053  0.355748  0.750159  1
  Ir  Ir25  1  0.644120  0.644082  0.250075  1
  Ir  Ir26  1  0.355876  0.355808  0.250290  1
  Ir  Ir27  1  0.355976  0.644314  0.750281  1
  Ir  Ir28  1  0.499730  0.000071  0.120161  1
  Ir  Ir29  1  0.499724  0.000070  0.621077  1
  Ir  Ir30  1  0.000032  0.499992  0.879372  1
  Ir  Ir31  1  0.000026  0.500022  0.379470  1
