# generated using pymatgen
data_Hf3Sn3Ir2Rh
_symmetry_space_group_name_H-M   'P 1'
_cell_length_a   7.40268500
_cell_length_b   7.40268452
_cell_length_c   7.23942300
_cell_angle_alpha   90.00000000
_cell_angle_beta   90.00000000
_cell_angle_gamma   119.99999768
_symmetry_Int_Tables_number   1
_chemical_formula_structural   Hf3Sn3Ir2Rh
_chemical_formula_sum   'Hf6 Sn6 Ir4 Rh2'
_cell_volume   343.56831594
_cell_formula_units_Z   2
loop_
 _symmetry_equiv_pos_site_id
 _symmetry_equiv_pos_as_xyz
  1  'x, y, z'
loop_
 _atom_site_type_symbol
 _atom_site_label
 _atom_site_symmetry_multiplicity
 _atom_site_fract_x
 _atom_site_fract_y
 _atom_site_fract_z
 _atom_site_occupancy
  Hf  Hf0  1  0.021523  0.409022  0.750000  1
  Hf  Hf1  1  0.590978  0.612501  0.750000  1
  Hf  Hf2  1  0.387499  0.978477  0.750000  1
  Hf  Hf3  1  0.978477  0.387499  0.250000  1
  Hf  Hf4  1  0.612501  0.590978  0.250000  1
  Hf  Hf5  1  0.409022  0.021523  0.250000  1
  Sn  Sn6  1  0.269452  0.269452  0.500000  1
  Sn  Sn7  1  0.000000  0.730548  0.500000  1
  Sn  Sn8  1  0.000000  0.730548  0.000000  1
  Sn  Sn9  1  0.730548  0.000000  0.500000  1
  Sn  Sn10  1  0.730548  0.000000  0.000000  1
  Sn  Sn11  1  0.269452  0.269452  0.000000  1
  Ir  Ir12  1  0.333333  0.666667  0.460728  1
  Ir  Ir13  1  0.666667  0.333333  0.539272  1
  Ir  Ir14  1  0.333333  0.666667  0.039272  1
  Ir  Ir15  1  0.666667  0.333333  0.960728  1
  Rh  Rh16  1  0.000000  0.000000  0.750000  1
  Rh  Rh17  1  0.000000  0.000000  0.250000  1
