# generated using pymatgen
data_Nd8DyHoIr6
_symmetry_space_group_name_H-M   'P 1'
_cell_length_a   11.20035600
_cell_length_b   11.20035600
_cell_length_c   6.52546100
_cell_angle_alpha   90.00000000
_cell_angle_beta   90.00000000
_cell_angle_gamma   90.00000000
_symmetry_Int_Tables_number   1
_chemical_formula_structural   Nd8DyHoIr6
_chemical_formula_sum   'Nd16 Dy2 Ho2 Ir12'
_cell_volume   818.60586530
_cell_formula_units_Z   2
loop_
 _symmetry_equiv_pos_site_id
 _symmetry_equiv_pos_as_xyz
  1  'x, y, z'
loop_
 _atom_site_type_symbol
 _atom_site_label
 _atom_site_symmetry_multiplicity
 _atom_site_fract_x
 _atom_site_fract_y
 _atom_site_fract_z
 _atom_site_occupancy
  Nd  Nd0  1  0.289259  0.087781  0.380300  1
  Nd  Nd1  1  0.289259  0.912219  0.880300  1
  Nd  Nd2  1  0.710741  0.087781  0.880300  1
  Nd  Nd3  1  0.710741  0.912219  0.380300  1
  Nd  Nd4  1  0.587764  0.789197  0.880282  1
  Nd  Nd5  1  0.587764  0.210803  0.380282  1
  Nd  Nd6  1  0.412236  0.789197  0.380282  1
  Nd  Nd7  1  0.412236  0.210803  0.880282  1
  Nd  Nd8  1  0.210803  0.412236  0.619718  1
  Nd  Nd9  1  0.210803  0.587764  0.119718  1
  Nd  Nd10  1  0.789197  0.412236  0.119718  1
  Nd  Nd11  1  0.789197  0.587764  0.619718  1
  Nd  Nd12  1  0.912219  0.710741  0.119700  1
  Nd  Nd13  1  0.912219  0.289259  0.619700  1
  Nd  Nd14  1  0.087781  0.710741  0.619700  1
  Nd  Nd15  1  0.087781  0.289259  0.119700  1
  Dy  Dy16  1  0.000000  0.000000  0.500000  1
  Dy  Dy17  1  0.000000  0.000000  0.000000  1
  Ho  Ho18  1  0.500000  0.500000  0.000000  1
  Ho  Ho19  1  0.500000  0.500000  0.500000  1
  Ir  Ir20  1  0.851067  0.148933  0.250000  1
  Ir  Ir21  1  0.851067  0.851067  0.750000  1
  Ir  Ir22  1  0.148933  0.148933  0.750000  1
  Ir  Ir23  1  0.148933  0.851067  0.250000  1
  Ir  Ir24  1  0.648734  0.351266  0.750000  1
  Ir  Ir25  1  0.648734  0.648734  0.250000  1
  Ir  Ir26  1  0.351266  0.351266  0.250000  1
  Ir  Ir27  1  0.351266  0.648734  0.750000  1
  Ir  Ir28  1  0.500000  0.000000  0.119129  1
  Ir  Ir29  1  0.500000  0.000000  0.619129  1
  Ir  Ir30  1  0.000000  0.500000  0.880871  1
  Ir  Ir31  1  0.000000  0.500000  0.380871  1
