# generated using pymatgen
data_Rb3Er(IO3)6
_symmetry_space_group_name_H-M   'P 1'
_cell_length_a   7.25295764
_cell_length_b   7.25081134
_cell_length_c   11.02671771
_cell_angle_alpha   87.66361252
_cell_angle_beta   107.57821910
_cell_angle_gamma   107.61177815
_symmetry_Int_Tables_number   1
_chemical_formula_structural   Rb3Er(IO3)6
_chemical_formula_sum   'Rb3 Er1 I6 O18'
_cell_volume   526.08608488
_cell_formula_units_Z   1
loop_
 _symmetry_equiv_pos_site_id
 _symmetry_equiv_pos_as_xyz
  1  'x, y, z'
loop_
 _atom_site_type_symbol
 _atom_site_label
 _atom_site_symmetry_multiplicity
 _atom_site_fract_x
 _atom_site_fract_y
 _atom_site_fract_z
 _atom_site_occupancy
  Rb  Rb0  1  0.000000  0.000000  0.000000  1
  Rb  Rb1  1  0.831379  0.027153  0.601222  1
  Rb  Rb2  1  0.168621  0.972847  0.398778  1
  Er  Er3  1  0.500000  0.500000  0.000000  1
  I  I4  1  0.030431  0.474222  0.191386  1
  I  I5  1  0.969569  0.525778  0.808614  1
  I  I6  1  0.559577  0.960306  0.192826  1
  I  I7  1  0.440423  0.039694  0.807174  1
  I  I8  1  0.414581  0.553638  0.635579  1
  I  I9  1  0.585419  0.446362  0.364421  1
  O  O10  1  0.836446  0.539081  0.055191  1
  O  O11  1  0.163554  0.460919  0.944809  1
  O  O12  1  0.956908  0.549295  0.320882  1
  O  O13  1  0.043092  0.450705  0.679118  1
  O  O14  1  0.922361  0.209993  0.184285  1
  O  O15  1  0.077639  0.790007  0.815715  1
  O  O16  1  0.571814  0.816836  0.059844  1
  O  O17  1  0.428186  0.183164  0.940156  1
  O  O18  1  0.294172  0.849897  0.187585  1
  O  O19  1  0.705828  0.150103  0.812415  1
  O  O20  1  0.691786  0.844409  0.326651  1
  O  O21  1  0.308214  0.155591  0.673349  1
  O  O22  1  0.519857  0.596645  0.811296  1
  O  O23  1  0.480143  0.403355  0.188704  1
  O  O24  1  0.662207  0.571423  0.613451  1
  O  O25  1  0.337793  0.428577  0.386549  1
  O  O26  1  0.408776  0.800483  0.601483  1
  O  O27  1  0.591224  0.199517  0.398517  1
