# generated using pymatgen
data_Pa4Ge6Os4Rh3
_symmetry_space_group_name_H-M   'P 1'
_cell_length_a   7.30625800
_cell_length_b   7.30788609
_cell_length_c   7.30788640
_cell_angle_alpha   109.08088982
_cell_angle_beta   109.67130341
_cell_angle_gamma   109.67128691
_symmetry_Int_Tables_number   1
_chemical_formula_structural   Pa4Ge6Os4Rh3
_chemical_formula_sum   'Pa4 Ge6 Os4 Rh3'
_cell_volume   300.32571923
_cell_formula_units_Z   1
loop_
 _symmetry_equiv_pos_site_id
 _symmetry_equiv_pos_as_xyz
  1  'x, y, z'
loop_
 _atom_site_type_symbol
 _atom_site_label
 _atom_site_symmetry_multiplicity
 _atom_site_fract_x
 _atom_site_fract_y
 _atom_site_fract_z
 _atom_site_occupancy
  Pa  Pa0  1  0.004704  0.002352  0.502352  1
  Pa  Pa1  1  0.004704  0.502352  0.002352  1
  Pa  Pa2  1  0.495368  0.992925  0.992925  1
  Pa  Pa3  1  0.495368  0.502443  0.502443  1
  Ge  Ge4  1  0.685942  0.685764  0.000178  1
  Ge  Ge5  1  0.314773  0.000248  0.314525  1
  Ge  Ge6  1  0.998984  0.315247  0.315247  1
  Ge  Ge7  1  0.314773  0.314525  0.000248  1
  Ge  Ge8  1  0.685942  0.000178  0.685764  1
  Ge  Ge9  1  0.998984  0.683737  0.683737  1
  Os  Os10  1  0.500039  0.250019  0.750019  1
  Os  Os11  1  0.250054  0.500189  0.749865  1
  Os  Os12  1  0.250054  0.749865  0.500189  1
  Os  Os13  1  0.500039  0.750019  0.250019  1
  Rh  Rh14  1  0.750104  0.249891  0.500213  1
  Rh  Rh15  1  0.750104  0.500213  0.249891  1
  Rh  Rh16  1  0.000063  0.000031  0.000031  1
