# generated using pymatgen
data_La8Y12Si13Os3
_symmetry_space_group_name_H-M   'P 1'
_cell_length_a   7.52407402
_cell_length_b   7.99711300
_cell_length_c   14.94403400
_cell_angle_alpha   90.00000000
_cell_angle_beta   90.00000000
_cell_angle_gamma   89.99647999
_symmetry_Int_Tables_number   1
_chemical_formula_structural   La8Y12Si13Os3
_chemical_formula_sum   'La8 Y12 Si13 Os3'
_cell_volume   899.19552735
_cell_formula_units_Z   1
loop_
 _symmetry_equiv_pos_site_id
 _symmetry_equiv_pos_as_xyz
  1  'x, y, z'
loop_
 _atom_site_type_symbol
 _atom_site_label
 _atom_site_symmetry_multiplicity
 _atom_site_fract_x
 _atom_site_fract_y
 _atom_site_fract_z
 _atom_site_occupancy
  La  La0  1  0.018962  0.177232  0.405220  1
  La  La1  1  0.518241  0.328883  0.401870  1
  La  La2  1  0.470198  0.690871  0.897341  1
  La  La3  1  0.470198  0.690871  0.602659  1
  La  La4  1  0.984362  0.822624  0.596256  1
  La  La5  1  0.984362  0.822624  0.903744  1
  La  La6  1  0.518241  0.328883  0.098130  1
  La  La7  1  0.018962  0.177232  0.094780  1
  Y  Y8  1  0.312325  0.179672  0.625041  1
  Y  Y9  1  0.671870  0.814339  0.375773  1
  Y  Y10  1  0.653210  0.987095  0.750000  1
  Y  Y11  1  0.189722  0.674926  0.372407  1
  Y  Y12  1  0.830503  0.316204  0.873855  1
  Y  Y13  1  0.830503  0.316204  0.626145  1
  Y  Y14  1  0.835246  0.491758  0.250000  1
  Y  Y15  1  0.354807  0.008847  0.250000  1
  Y  Y16  1  0.312325  0.179672  0.874959  1
  Y  Y17  1  0.189722  0.674926  0.127593  1
  Y  Y18  1  0.671870  0.814339  0.124227  1
  Y  Y19  1  0.151516  0.511218  0.750000  1
  Si  Si20  1  0.529325  0.392233  0.750000  1
  Si  Si21  1  0.149272  0.472872  0.536797  1
  Si  Si22  1  0.975819  0.894949  0.250000  1
  Si  Si23  1  0.736077  0.117342  0.250000  1
  Si  Si24  1  0.859721  0.528152  0.039023  1
  Si  Si25  1  0.352594  0.976649  0.038965  1
  Si  Si26  1  0.149272  0.472872  0.963203  1
  Si  Si27  1  0.643259  0.034756  0.537580  1
  Si  Si28  1  0.352594  0.976649  0.461035  1
  Si  Si29  1  0.859721  0.528152  0.460977  1
  Si  Si30  1  0.766287  0.614501  0.750000  1
  Si  Si31  1  0.227782  0.371697  0.250000  1
  Si  Si32  1  0.643259  0.034756  0.962420  1
  Os  Os33  1  0.261618  0.871679  0.750000  1
  Os  Os34  1  0.476133  0.605441  0.250000  1
  Os  Os35  1  0.030120  0.098879  0.750000  1
