# generated using pymatgen
data_Ba18Sr2Si11Ge
_symmetry_space_group_name_H-M   'P 1'
_cell_length_a   8.38322900
_cell_length_b   8.38322900
_cell_length_c   17.00665800
_cell_angle_alpha   90.00000000
_cell_angle_beta   90.00000000
_cell_angle_gamma   90.00000000
_symmetry_Int_Tables_number   1
_chemical_formula_structural   Ba18Sr2Si11Ge
_chemical_formula_sum   'Ba18 Sr2 Si11 Ge1'
_cell_volume   1195.20289837
_cell_formula_units_Z   1
loop_
 _symmetry_equiv_pos_site_id
 _symmetry_equiv_pos_as_xyz
  1  'x, y, z'
loop_
 _atom_site_type_symbol
 _atom_site_label
 _atom_site_symmetry_multiplicity
 _atom_site_fract_x
 _atom_site_fract_y
 _atom_site_fract_z
 _atom_site_occupancy
  Ba  Ba0  1  0.309771  0.674351  0.108417  1
  Ba  Ba1  1  0.174351  0.190229  0.108417  1
  Ba  Ba2  1  0.330273  0.695503  0.392044  1
  Ba  Ba3  1  0.668533  0.696216  0.891219  1
  Ba  Ba4  1  0.195503  0.169727  0.392044  1
  Ba  Ba5  1  0.669727  0.304497  0.392044  1
  Ba  Ba6  1  0.173636  0.808447  0.607713  1
  Ba  Ba7  1  0.331467  0.303784  0.891219  1
  Ba  Ba8  1  0.196216  0.831467  0.891219  1
  Ba  Ba9  1  0.826364  0.191553  0.607713  1
  Ba  Ba10  1  0.308447  0.326364  0.607713  1
  Ba  Ba11  1  0.804497  0.830273  0.392044  1
  Ba  Ba12  1  0.803784  0.168533  0.891219  1
  Ba  Ba13  1  0.825649  0.809771  0.108417  1
  Ba  Ba14  1  0.000000  0.500000  0.273523  1
  Ba  Ba15  1  0.000000  0.500000  0.772831  1
  Ba  Ba16  1  0.690229  0.325649  0.108417  1
  Ba  Ba17  1  0.691553  0.673636  0.607713  1
  Sr  Sr18  1  0.500000  0.000000  0.726468  1
  Sr  Sr19  1  0.500000  0.000000  0.228379  1
  Si  Si20  1  0.105057  0.100456  0.749303  1
  Si  Si21  1  0.399544  0.605057  0.749303  1
  Si  Si22  1  0.600260  0.605158  0.250024  1
  Si  Si23  1  0.500000  0.000000  0.016322  1
  Si  Si24  1  0.105158  0.899740  0.250024  1
  Si  Si25  1  0.600456  0.394943  0.749303  1
  Si  Si26  1  0.894943  0.899544  0.749303  1
  Si  Si27  1  0.399740  0.394842  0.250024  1
  Si  Si28  1  0.894842  0.100260  0.250024  1
  Si  Si29  1  0.500000  0.000000  0.516087  1
  Si  Si30  1  0.000000  0.500000  0.485445  1
  Ge  Ge31  1  0.000000  0.500000  0.986065  1
