# generated using pymatgen
data_Ca3TmAl18IrPd5
_symmetry_space_group_name_H-M   'P 1'
_cell_length_a   7.64081046
_cell_length_b   7.64121105
_cell_length_c   9.50622518
_cell_angle_alpha   89.96730638
_cell_angle_beta   90.00940123
_cell_angle_gamma   119.53441615
_symmetry_Int_Tables_number   1
_chemical_formula_structural   Ca3TmAl18IrPd5
_chemical_formula_sum   'Ca3 Tm1 Al18 Ir1 Pd5'
_cell_volume   482.90168791
_cell_formula_units_Z   1
loop_
 _symmetry_equiv_pos_site_id
 _symmetry_equiv_pos_as_xyz
  1  'x, y, z'
loop_
 _atom_site_type_symbol
 _atom_site_label
 _atom_site_symmetry_multiplicity
 _atom_site_fract_x
 _atom_site_fract_y
 _atom_site_fract_z
 _atom_site_occupancy
  Ca  Ca0  1  0.995014  0.670136  0.250934  1
  Ca  Ca1  1  0.004171  0.329365  0.749211  1
  Ca  Ca2  1  0.671261  0.995452  0.250742  1
  Tm  Tm3  1  0.328740  0.003104  0.749055  1
  Al  Al4  1  0.129416  0.129475  0.252337  1
  Al  Al5  1  0.873062  0.870677  0.748062  1
  Al  Al6  1  0.000826  0.335034  0.077201  1
  Al  Al7  1  0.000209  0.665918  0.920881  1
  Al  Al8  1  0.001005  0.669039  0.576278  1
  Al  Al9  1  0.330958  0.999251  0.425140  1
  Al  Al10  1  0.999146  0.330612  0.425471  1
  Al  Al11  1  0.668798  0.000979  0.576082  1
  Al  Al12  1  0.664141  0.999482  0.921285  1
  Al  Al13  1  0.335007  0.000553  0.076906  1
  Al  Al14  1  0.329375  0.328940  0.553019  1
  Al  Al15  1  0.671463  0.671678  0.448910  1
  Al  Al16  1  0.666555  0.666551  0.053158  1
  Al  Al17  1  0.333156  0.332352  0.944599  1
  Al  Al18  1  0.340775  0.546039  0.250705  1
  Al  Al19  1  0.655545  0.451577  0.749277  1
  Al  Al20  1  0.544763  0.340662  0.250628  1
  Al  Al21  1  0.455182  0.662333  0.749424  1
  Ir  Ir22  1  0.002025  0.000444  0.501696  1
  Pd  Pd23  1  0.670761  0.327928  0.999230  1
  Pd  Pd24  1  0.328498  0.672117  0.998941  1
  Pd  Pd25  1  0.328828  0.672039  0.501102  1
  Pd  Pd26  1  0.670211  0.328030  0.500843  1
  Pd  Pd27  1  0.001109  0.000234  0.998885  1
