# generated using pymatgen
data_ZrPaSe3
_symmetry_space_group_name_H-M   'P 1'
_cell_length_a   6.71529710
_cell_length_b   6.71529665
_cell_length_c   7.04099221
_cell_angle_alpha   80.77341589
_cell_angle_beta   80.77342064
_cell_angle_gamma   121.29950765
_symmetry_Int_Tables_number   1
_chemical_formula_structural   ZrPaSe3
_chemical_formula_sum   'Zr2 Pa2 Se6'
_cell_volume   256.37807818
_cell_formula_units_Z   2
loop_
 _symmetry_equiv_pos_site_id
 _symmetry_equiv_pos_as_xyz
  1  'x, y, z'
loop_
 _atom_site_type_symbol
 _atom_site_label
 _atom_site_symmetry_multiplicity
 _atom_site_fract_x
 _atom_site_fract_y
 _atom_site_fract_z
 _atom_site_occupancy
  Zr  Zr0  1  0.492862  0.507138  0.500000  1
  Zr  Zr1  1  0.836053  0.163947  0.500000  1
  Pa  Pa2  1  0.170764  0.829236  0.500000  1
  Pa  Pa3  1  0.001600  0.998400  0.000000  1
  Se  Se4  1  0.262127  0.266687  0.246485  1
  Se  Se5  1  0.584618  0.921337  0.242788  1
  Se  Se6  1  0.906485  0.566486  0.247843  1
  Se  Se7  1  0.078663  0.415382  0.757212  1
  Se  Se8  1  0.433514  0.093515  0.752157  1
  Se  Se9  1  0.733313  0.737873  0.753515  1
