# generated using pymatgen
data_Th4Ta5NbSi8
_symmetry_space_group_name_H-M   'P 1'
_cell_length_a   7.17370501
_cell_length_b   7.17189701
_cell_length_c   13.38008800
_cell_angle_alpha   90.00000000
_cell_angle_beta   90.00000000
_cell_angle_gamma   89.99426467
_symmetry_Int_Tables_number   1
_chemical_formula_structural   Th4Ta5NbSi8
_chemical_formula_sum   'Th8 Ta10 Nb2 Si16'
_cell_volume   688.39312746
_cell_formula_units_Z   2
loop_
 _symmetry_equiv_pos_site_id
 _symmetry_equiv_pos_as_xyz
  1  'x, y, z'
loop_
 _atom_site_type_symbol
 _atom_site_label
 _atom_site_symmetry_multiplicity
 _atom_site_fract_x
 _atom_site_fract_y
 _atom_site_fract_z
 _atom_site_occupancy
  Th  Th0  1  0.999101  0.337148  0.218197  1
  Th  Th1  1  0.000899  0.662852  0.718197  1
  Th  Th2  1  0.162846  0.499309  0.468277  1
  Th  Th3  1  0.501178  0.837199  0.031836  1
  Th  Th4  1  0.837154  0.500691  0.968277  1
  Th  Th5  1  0.498822  0.162801  0.531836  1
  Th  Th6  1  0.337432  0.998986  0.781725  1
  Th  Th7  1  0.662568  0.001014  0.281725  1
  Ta  Ta8  1  0.168587  0.168325  0.000133  1
  Ta  Ta9  1  0.831413  0.831675  0.500133  1
  Ta  Ta10  1  0.332428  0.667527  0.249665  1
  Ta  Ta11  1  0.667572  0.332473  0.749665  1
  Ta  Ta12  1  0.504745  0.660351  0.624056  1
  Ta  Ta13  1  0.339411  0.495027  0.876049  1
  Ta  Ta14  1  0.495255  0.339649  0.124056  1
  Ta  Ta15  1  0.660589  0.504973  0.376049  1
  Ta  Ta16  1  0.994984  0.160731  0.625882  1
  Ta  Ta17  1  0.005016  0.839269  0.125882  1
  Nb  Nb18  1  0.160871  0.995558  0.374145  1
  Nb  Nb19  1  0.839129  0.004442  0.874145  1
  Si  Si20  1  0.288881  0.039103  0.185965  1
  Si  Si21  1  0.711119  0.960897  0.685965  1
  Si  Si22  1  0.461268  0.788668  0.436316  1
  Si  Si23  1  0.211164  0.539193  0.063678  1
  Si  Si24  1  0.538732  0.211332  0.936316  1
  Si  Si25  1  0.788836  0.460807  0.563678  1
  Si  Si26  1  0.039291  0.288865  0.813685  1
  Si  Si27  1  0.960709  0.711135  0.313685  1
  Si  Si28  1  0.376242  0.299593  0.313721  1
  Si  Si29  1  0.623758  0.700407  0.813721  1
  Si  Si30  1  0.200872  0.875862  0.564151  1
  Si  Si31  1  0.124278  0.798831  0.936387  1
  Si  Si32  1  0.799128  0.124138  0.064151  1
  Si  Si33  1  0.875722  0.201169  0.436387  1
  Si  Si34  1  0.298925  0.375972  0.686130  1
  Si  Si35  1  0.701075  0.624028  0.186130  1
