# generated using pymatgen
data_Na4TmRuO6
_symmetry_space_group_name_H-M   'P 1'
_cell_length_a   5.61626188
_cell_length_b   5.61627091
_cell_length_c   5.80247563
_cell_angle_alpha   99.45843007
_cell_angle_beta   99.45837732
_cell_angle_gamma   119.93452275
_symmetry_Int_Tables_number   1
_chemical_formula_structural   Na4TmRuO6
_chemical_formula_sum   'Na4 Tm1 Ru1 O6'
_cell_volume   149.81496081
_cell_formula_units_Z   1
loop_
 _symmetry_equiv_pos_site_id
 _symmetry_equiv_pos_as_xyz
  1  'x, y, z'
loop_
 _atom_site_type_symbol
 _atom_site_label
 _atom_site_symmetry_multiplicity
 _atom_site_fract_x
 _atom_site_fract_y
 _atom_site_fract_z
 _atom_site_occupancy
  Na  Na0  1  0.500288  0.499711  0.000000  1
  Na  Na1  1  0.992470  0.007529  0.499999  1
  Na  Na2  1  0.662735  0.337264  0.500001  1
  Na  Na3  1  0.342306  0.657694  0.500001  1
  Tm  Tm4  1  0.166668  0.833336  0.000000  1
  Ru  Ru5  1  0.832764  0.167236  0.000000  1
  O  O6  1  0.599384  0.951700  0.207522  1
  O  O7  1  0.923965  0.542079  0.212783  1
  O  O8  1  0.191540  0.218340  0.213077  1
  O  O9  1  0.781660  0.808460  0.786922  1
  O  O10  1  0.457920  0.076035  0.787218  1
  O  O11  1  0.048300  0.400616  0.792479  1
