# generated using pymatgen
data_Mn3TlF9
_symmetry_space_group_name_H-M   'P 1'
_cell_length_a   7.64230409
_cell_length_b   7.67249730
_cell_length_c   7.88165800
_cell_angle_alpha   90.21815396
_cell_angle_beta   89.78444038
_cell_angle_gamma   60.07240325
_symmetry_Int_Tables_number   1
_chemical_formula_structural   Mn3TlF9
_chemical_formula_sum   'Mn6 Tl2 F18'
_cell_volume   400.50989676
_cell_formula_units_Z   2
loop_
 _symmetry_equiv_pos_site_id
 _symmetry_equiv_pos_as_xyz
  1  'x, y, z'
loop_
 _atom_site_type_symbol
 _atom_site_label
 _atom_site_symmetry_multiplicity
 _atom_site_fract_x
 _atom_site_fract_y
 _atom_site_fract_z
 _atom_site_occupancy
  Mn  Mn0  1  0.499404  0.000180  0.999382  1
  Mn  Mn1  1  0.499370  0.500039  0.999558  1
  Mn  Mn2  1  0.999416  0.000078  0.499772  1
  Mn  Mn3  1  0.999408  0.000084  0.999747  1
  Mn  Mn4  1  0.499249  0.499998  0.499500  1
  Mn  Mn5  1  0.499189  0.000098  0.499570  1
  Tl  Tl6  1  0.947608  0.540829  0.254294  1
  Tl  Tl7  1  0.049668  0.462980  0.744021  1
  F  F8  1  0.552802  0.513505  0.766975  1
  F  F9  1  0.453404  0.055588  0.235142  1
  F  F10  1  0.776427  0.303609  0.467239  1
  F  F11  1  0.191552  0.116566  0.530971  1
  F  F12  1  0.811012  0.279664  0.035124  1
  F  F13  1  0.218262  0.095774  0.965324  1
  F  F14  1  0.427214  0.299001  0.542461  1
  F  F15  1  0.571316  0.700947  0.456876  1
  F  F16  1  0.051467  0.969682  0.236003  1
  F  F17  1  0.946961  0.030150  0.763388  1
  F  F18  1  0.417910  0.307948  0.948832  1
  F  F19  1  0.580777  0.692273  0.050317  1
  F  F20  1  0.807080  0.883404  0.468555  1
  F  F21  1  0.221938  0.696348  0.532304  1
  F  F22  1  0.780749  0.903723  0.033660  1
  F  F23  1  0.187513  0.720392  0.964342  1
  F  F24  1  0.545816  0.944037  0.763695  1
  F  F25  1  0.445622  0.486883  0.232339  1
