# generated using pymatgen
data_NaNd6ZnBr12
_symmetry_space_group_name_H-M   'P 1'
_cell_length_a   9.55435843
_cell_length_b   9.54502771
_cell_length_c   9.54860966
_cell_angle_alpha   107.02380981
_cell_angle_beta   107.08798501
_cell_angle_gamma   107.07291791
_symmetry_Int_Tables_number   1
_chemical_formula_structural   NaNd6ZnBr12
_chemical_formula_sum   'Na1 Nd6 Zn1 Br12'
_cell_volume   723.98961487
_cell_formula_units_Z   1
loop_
 _symmetry_equiv_pos_site_id
 _symmetry_equiv_pos_as_xyz
  1  'x, y, z'
loop_
 _atom_site_type_symbol
 _atom_site_label
 _atom_site_symmetry_multiplicity
 _atom_site_fract_x
 _atom_site_fract_y
 _atom_site_fract_z
 _atom_site_occupancy
  Na  Na0  1  0.500000  0.500000  0.500000  1
  Nd  Nd1  1  0.114840  0.329151  0.032459  1
  Nd  Nd2  1  0.328632  0.031915  0.114245  1
  Nd  Nd3  1  0.032274  0.114301  0.328892  1
  Nd  Nd4  1  0.967726  0.885700  0.671108  1
  Nd  Nd5  1  0.671368  0.968086  0.885755  1
  Nd  Nd6  1  0.885160  0.670849  0.967541  1
  Zn  Zn7  1  0.000000  0.000000  0.000000  1
  Br  Br8  1  0.217849  0.684841  0.071339  1
  Br  Br9  1  0.453382  0.372053  0.154406  1
  Br  Br10  1  0.685326  0.071778  0.218283  1
  Br  Br11  1  0.929230  0.781306  0.315173  1
  Br  Br12  1  0.154256  0.453305  0.372007  1
  Br  Br13  1  0.371882  0.153963  0.453096  1
  Br  Br14  1  0.628118  0.846037  0.546905  1
  Br  Br15  1  0.845744  0.546695  0.627993  1
  Br  Br16  1  0.070770  0.218694  0.684828  1
  Br  Br17  1  0.314674  0.928222  0.781717  1
  Br  Br18  1  0.546618  0.627947  0.845595  1
  Br  Br19  1  0.782151  0.315160  0.928661  1
