# generated using pymatgen
data_TmCrP3Rh4
_symmetry_space_group_name_H-M   'P 1'
_cell_length_a   3.88795600
_cell_length_b   10.88998300
_cell_length_c   12.42039200
_cell_angle_alpha   90.00000000
_cell_angle_beta   90.00000000
_cell_angle_gamma   90.00000000
_symmetry_Int_Tables_number   1
_chemical_formula_structural   TmCrP3Rh4
_chemical_formula_sum   'Tm4 Cr4 P12 Rh16'
_cell_volume   525.87659952
_cell_formula_units_Z   4
loop_
 _symmetry_equiv_pos_site_id
 _symmetry_equiv_pos_as_xyz
  1  'x, y, z'
loop_
 _atom_site_type_symbol
 _atom_site_label
 _atom_site_symmetry_multiplicity
 _atom_site_fract_x
 _atom_site_fract_y
 _atom_site_fract_z
 _atom_site_occupancy
  Tm  Tm0  1  0.250000  0.580734  0.703728  1
  Tm  Tm1  1  0.250000  0.919266  0.203728  1
  Tm  Tm2  1  0.750000  0.419266  0.296272  1
  Tm  Tm3  1  0.750000  0.080734  0.796272  1
  Cr  Cr4  1  0.250000  0.718708  0.992611  1
  Cr  Cr5  1  0.250000  0.781292  0.492611  1
  Cr  Cr6  1  0.750000  0.281292  0.007389  1
  Cr  Cr7  1  0.750000  0.218708  0.507389  1
  P  P8  1  0.250000  0.420902  0.115120  1
  P  P9  1  0.250000  0.079098  0.615120  1
  P  P10  1  0.750000  0.579098  0.884880  1
  P  P11  1  0.750000  0.920902  0.384880  1
  P  P12  1  0.250000  0.262211  0.870469  1
  P  P13  1  0.250000  0.237789  0.370469  1
  P  P14  1  0.750000  0.737789  0.129531  1
  P  P15  1  0.750000  0.762211  0.629531  1
  P  P16  1  0.250000  0.600791  0.391933  1
  P  P17  1  0.250000  0.899209  0.891933  1
  P  P18  1  0.750000  0.399209  0.608067  1
  P  P19  1  0.750000  0.100791  0.108067  1
  Rh  Rh20  1  0.250000  0.407518  0.486146  1
  Rh  Rh21  1  0.250000  0.092482  0.986146  1
  Rh  Rh22  1  0.750000  0.592482  0.513854  1
  Rh  Rh23  1  0.750000  0.907518  0.013854  1
  Rh  Rh24  1  0.250000  0.230338  0.179036  1
  Rh  Rh25  1  0.250000  0.269662  0.679036  1
  Rh  Rh26  1  0.750000  0.769662  0.820964  1
  Rh  Rh27  1  0.750000  0.730338  0.320964  1
  Rh  Rh28  1  0.250000  0.887972  0.704485  1
  Rh  Rh29  1  0.250000  0.612028  0.204485  1
  Rh  Rh30  1  0.750000  0.112028  0.295515  1
  Rh  Rh31  1  0.750000  0.387972  0.795515  1
  Rh  Rh32  1  0.250000  0.463297  0.931540  1
  Rh  Rh33  1  0.250000  0.036703  0.431540  1
  Rh  Rh34  1  0.750000  0.536703  0.068460  1
  Rh  Rh35  1  0.750000  0.963297  0.568460  1
