# generated using pymatgen
data_Ba2TiSe4
_symmetry_space_group_name_H-M   'P 1'
_cell_length_a   7.29516738
_cell_length_b   7.12668200
_cell_length_c   9.25463314
_cell_angle_alpha   90.00000000
_cell_angle_beta   108.32353776
_cell_angle_gamma   90.00000000
_symmetry_Int_Tables_number   1
_chemical_formula_structural   Ba2TiSe4
_chemical_formula_sum   'Ba4 Ti2 Se8'
_cell_volume   456.75539459
_cell_formula_units_Z   2
loop_
 _symmetry_equiv_pos_site_id
 _symmetry_equiv_pos_as_xyz
  1  'x, y, z'
loop_
 _atom_site_type_symbol
 _atom_site_label
 _atom_site_symmetry_multiplicity
 _atom_site_fract_x
 _atom_site_fract_y
 _atom_site_fract_z
 _atom_site_occupancy
  Ba  Ba0  1  0.218775  0.250000  0.046346  1
  Ba  Ba1  1  0.721587  0.750001  0.429514  1
  Ba  Ba2  1  0.278412  0.250000  0.570486  1
  Ba  Ba3  1  0.781225  0.750001  0.953654  1
  Ti  Ti4  1  0.784612  0.250000  0.205214  1
  Ti  Ti5  1  0.215387  0.750001  0.794786  1
  Se  Se6  1  0.004842  0.992710  0.267801  1
  Se  Se7  1  0.004842  0.507289  0.267801  1
  Se  Se8  1  0.995159  0.492711  0.732199  1
  Se  Se9  1  0.995159  0.007289  0.732199  1
  Se  Se10  1  0.379266  0.750001  0.062766  1
  Se  Se11  1  0.581784  0.250000  0.366013  1
  Se  Se12  1  0.418216  0.750001  0.633988  1
  Se  Se13  1  0.620734  0.250000  0.937234  1
