# generated using pymatgen
data_TbEu3(NiB4)4
_symmetry_space_group_name_H-M   'P 1'
_cell_length_a   6.88921681
_cell_length_b   6.88921740
_cell_length_c   6.88921729
_cell_angle_alpha   112.87758194
_cell_angle_beta   112.87758919
_cell_angle_gamma   102.85432088
_symmetry_Int_Tables_number   1
_chemical_formula_structural   TbEu3(NiB4)4
_chemical_formula_sum   'Tb1 Eu3 Ni4 B16'
_cell_volume   249.22501592
_cell_formula_units_Z   1
loop_
 _symmetry_equiv_pos_site_id
 _symmetry_equiv_pos_as_xyz
  1  'x, y, z'
loop_
 _atom_site_type_symbol
 _atom_site_label
 _atom_site_symmetry_multiplicity
 _atom_site_fract_x
 _atom_site_fract_y
 _atom_site_fract_z
 _atom_site_occupancy
  Tb  Tb0  1  0.250000  0.750000  0.500000  1
  Eu  Eu1  1  0.200966  0.200966  0.000000  1
  Eu  Eu2  1  0.799034  0.799034  0.000000  1
  Eu  Eu3  1  0.750000  0.250000  0.500000  1
  Ni  Ni4  1  0.498177  0.271026  0.772849  1
  Ni  Ni5  1  0.498177  0.725328  0.227151  1
  Ni  Ni6  1  0.728974  0.501823  0.227151  1
  Ni  Ni7  1  0.274672  0.501823  0.772849  1
  B  B8  1  0.112119  0.276446  0.389488  1
  B  B9  1  0.886958  0.722631  0.610512  1
  B  B10  1  0.886958  0.276446  0.164329  1
  B  B11  1  0.112119  0.722631  0.835671  1
  B  B12  1  0.723554  0.887881  0.610512  1
  B  B13  1  0.277369  0.113042  0.389488  1
  B  B14  1  0.723554  0.113042  0.835671  1
  B  B15  1  0.277369  0.887881  0.164329  1
  B  B16  1  0.415657  0.417331  0.529516  1
  B  B17  1  0.887816  0.886143  0.470484  1
  B  B18  1  0.582669  0.112184  0.998327  1
  B  B19  1  0.113857  0.584343  0.001673  1
  B  B20  1  0.582669  0.584343  0.470484  1
  B  B21  1  0.113857  0.112184  0.529516  1
  B  B22  1  0.887816  0.417331  0.001673  1
  B  B23  1  0.415657  0.886143  0.998327  1
