# generated using pymatgen
data_La4Ho12Cd4Ni3Ru
_symmetry_space_group_name_H-M   'P 1'
_cell_length_a   9.70345894
_cell_length_b   9.70345977
_cell_length_c   9.70345940
_cell_angle_alpha   59.47738462
_cell_angle_beta   59.47737929
_cell_angle_gamma   59.47738171
_symmetry_Int_Tables_number   1
_chemical_formula_structural   La4Ho12Cd4Ni3Ru
_chemical_formula_sum   'La4 Ho12 Cd4 Ni3 Ru1'
_cell_volume   638.36817668
_cell_formula_units_Z   1
loop_
 _symmetry_equiv_pos_site_id
 _symmetry_equiv_pos_as_xyz
  1  'x, y, z'
loop_
 _atom_site_type_symbol
 _atom_site_label
 _atom_site_symmetry_multiplicity
 _atom_site_fract_x
 _atom_site_fract_y
 _atom_site_fract_z
 _atom_site_occupancy
  La  La0  1  0.599803  0.599803  0.599803  1
  La  La1  1  0.600363  0.600363  0.200519  1
  La  La2  1  0.600363  0.200519  0.600363  1
  La  La3  1  0.200519  0.600363  0.600363  1
  Ho  Ho4  1  0.063970  0.435597  0.435597  1
  Ho  Ho5  1  0.434613  0.063898  0.063898  1
  Ho  Ho6  1  0.435597  0.063970  0.435597  1
  Ho  Ho7  1  0.063898  0.434613  0.063898  1
  Ho  Ho8  1  0.435597  0.435597  0.063970  1
  Ho  Ho9  1  0.063898  0.063898  0.434613  1
  Ho  Ho10  1  0.183513  0.817792  0.817792  1
  Ho  Ho11  1  0.812464  0.184576  0.184576  1
  Ho  Ho12  1  0.817792  0.183513  0.817792  1
  Ho  Ho13  1  0.184576  0.812464  0.184576  1
  Ho  Ho14  1  0.817792  0.817792  0.183513  1
  Ho  Ho15  1  0.184576  0.184576  0.812464  1
  Cd  Cd16  1  0.831583  0.831583  0.831583  1
  Cd  Cd17  1  0.831079  0.831079  0.502436  1
  Cd  Cd18  1  0.831079  0.502436  0.831079  1
  Cd  Cd19  1  0.502436  0.831079  0.831079  1
  Ni  Ni20  1  0.390527  0.390527  0.830946  1
  Ni  Ni21  1  0.390527  0.830946  0.390527  1
  Ni  Ni22  1  0.830946  0.390527  0.390527  1
  Ru  Ru23  1  0.392490  0.392490  0.392490  1
