# generated using pymatgen
data_Ce4Al24RuPt8
_symmetry_space_group_name_H-M   'P 1'
_cell_length_a   7.56818828
_cell_length_b   7.59290979
_cell_length_c   13.18627391
_cell_angle_alpha   84.58272890
_cell_angle_beta   79.01692477
_cell_angle_gamma   59.88270818
_symmetry_Int_Tables_number   1
_chemical_formula_structural   Ce4Al24RuPt8
_chemical_formula_sum   'Ce4 Al24 Ru1 Pt8'
_cell_volume   643.44206437
_cell_formula_units_Z   1
loop_
 _symmetry_equiv_pos_site_id
 _symmetry_equiv_pos_as_xyz
  1  'x, y, z'
loop_
 _atom_site_type_symbol
 _atom_site_label
 _atom_site_symmetry_multiplicity
 _atom_site_fract_x
 _atom_site_fract_y
 _atom_site_fract_z
 _atom_site_occupancy
  Ce  Ce0  1  0.393567  0.168739  0.808649  1
  Ce  Ce1  1  0.606433  0.831261  0.191351  1
  Ce  Ce2  1  0.733792  0.498580  0.808725  1
  Ce  Ce3  1  0.266208  0.501420  0.191275  1
  Al  Al4  1  0.689021  0.829340  0.946475  1
  Al  Al5  1  0.310979  0.170660  0.053525  1
  Al  Al6  1  0.146005  0.832853  0.560715  1
  Al  Al7  1  0.853995  0.167147  0.439285  1
  Al  Al8  1  0.481381  0.166524  0.558549  1
  Al  Al9  1  0.518619  0.833476  0.441451  1
  Al  Al10  1  0.215807  0.165109  0.330010  1
  Al  Al11  1  0.784193  0.834891  0.669990  1
  Al  Al12  1  0.435969  0.508417  0.670337  1
  Al  Al13  1  0.564031  0.491583  0.329663  1
  Al  Al14  1  0.110486  0.158925  0.667634  1
  Al  Al15  1  0.889514  0.841075  0.332366  1
  Al  Al16  1  0.346716  0.500389  0.946208  1
  Al  Al17  1  0.653284  0.499611  0.053792  1
  Al  Al18  1  0.014205  0.172113  0.957160  1
  Al  Al19  1  0.985795  0.827887  0.042840  1
  Al  Al20  1  0.186731  0.499739  0.441636  1
  Al  Al21  1  0.813269  0.500261  0.558364  1
  Al  Al22  1  0.737854  0.161869  0.182577  1
  Al  Al23  1  0.262146  0.838131  0.817423  1
  Al  Al24  1  0.060264  0.630280  0.818815  1
  Al  Al25  1  0.939736  0.369720  0.181185  1
  Al  Al26  1  0.858037  0.039998  0.817256  1
  Al  Al27  1  0.141963  0.960002  0.182744  1
  Ru  Ru28  1  0.000000  0.500000  0.000000  1
  Pt  Pt29  1  0.120456  0.493419  0.638278  1
  Pt  Pt30  1  0.879544  0.506581  0.361722  1
  Pt  Pt31  1  0.656949  0.171581  0.000092  1
  Pt  Pt32  1  0.343051  0.828419  0.999908  1
  Pt  Pt33  1  0.538289  0.166886  0.362184  1
  Pt  Pt34  1  0.461711  0.833114  0.637816  1
  Pt  Pt35  1  0.780013  0.174022  0.637253  1
  Pt  Pt36  1  0.219987  0.825978  0.362747  1
