# generated using pymatgen
data_K3Rb6AlBi3Sb
_symmetry_space_group_name_H-M   'P 1'
_cell_length_a   11.08775400
_cell_length_b   11.10595571
_cell_length_c   11.49474000
_cell_angle_alpha   90.00000000
_cell_angle_beta   90.00000000
_cell_angle_gamma   119.94579398
_symmetry_Int_Tables_number   1
_chemical_formula_structural   K3Rb6AlBi3Sb
_chemical_formula_sum   'K6 Rb12 Al2 Bi6 Sb2'
_cell_volume   1226.49635721
_cell_formula_units_Z   2
loop_
 _symmetry_equiv_pos_site_id
 _symmetry_equiv_pos_as_xyz
  1  'x, y, z'
loop_
 _atom_site_type_symbol
 _atom_site_label
 _atom_site_symmetry_multiplicity
 _atom_site_fract_x
 _atom_site_fract_y
 _atom_site_fract_z
 _atom_site_occupancy
  K  K0  1  0.237839  0.118938  0.750000  1
  K  K1  1  0.881269  0.119657  0.750000  1
  K  K2  1  0.761611  0.880343  0.250000  1
  K  K3  1  0.119640  0.238370  0.250000  1
  K  K4  1  0.118901  0.881062  0.250000  1
  K  K5  1  0.881270  0.761630  0.750000  1
  Rb  Rb6  1  0.208162  0.791138  0.956540  1
  Rb  Rb7  1  0.208337  0.417098  0.956724  1
  Rb  Rb8  1  0.583010  0.791366  0.956972  1
  Rb  Rb9  1  0.417023  0.208862  0.456540  1
  Rb  Rb10  1  0.791238  0.582902  0.043276  1
  Rb  Rb11  1  0.791643  0.208634  0.456972  1
  Rb  Rb12  1  0.791238  0.582902  0.456724  1
  Rb  Rb13  1  0.208162  0.791138  0.543460  1
  Rb  Rb14  1  0.583010  0.791366  0.543028  1
  Rb  Rb15  1  0.417023  0.208862  0.043460  1
  Rb  Rb16  1  0.791643  0.208634  0.043028  1
  Rb  Rb17  1  0.208337  0.417098  0.543276  1
  Al  Al18  1  0.335399  0.664766  0.250000  1
  Al  Al19  1  0.670634  0.335234  0.750000  1
  Bi  Bi20  1  0.000003  0.000000  0.000000  1
  Bi  Bi21  1  0.045487  0.522685  0.250000  1
  Bi  Bi22  1  0.477263  0.954415  0.250000  1
  Bi  Bi23  1  0.522849  0.045585  0.750000  1
  Bi  Bi24  1  0.522804  0.477315  0.750000  1
  Bi  Bi25  1  0.000003  0.000000  0.500000  1
  Sb  Sb26  1  0.475396  0.524590  0.250000  1
  Sb  Sb27  1  0.950807  0.475410  0.750000  1
