# generated using pymatgen
data_La3Dy2Er11(CdNi)4
_symmetry_space_group_name_H-M   'P 1'
_cell_length_a   9.58849659
_cell_length_b   9.59404804
_cell_length_c   9.62180000
_cell_angle_alpha   59.90427351
_cell_angle_beta   59.88504549
_cell_angle_gamma   59.91291647
_symmetry_Int_Tables_number   1
_chemical_formula_structural   La3Dy2Er11(CdNi)4
_chemical_formula_sum   'La3 Dy2 Er11 Cd4 Ni4'
_cell_volume   624.47441882
_cell_formula_units_Z   1
loop_
 _symmetry_equiv_pos_site_id
 _symmetry_equiv_pos_as_xyz
  1  'x, y, z'
loop_
 _atom_site_type_symbol
 _atom_site_label
 _atom_site_symmetry_multiplicity
 _atom_site_fract_x
 _atom_site_fract_y
 _atom_site_fract_z
 _atom_site_occupancy
  La  La0  1  0.596196  0.600277  0.601307  1
  La  La1  1  0.596196  0.600277  0.202221  1
  La  La2  1  0.596945  0.200772  0.601141  1
  Dy  Dy3  1  0.817026  0.817718  0.182628  1
  Dy  Dy4  1  0.184442  0.184083  0.815737  1
  Er  Er5  1  0.195415  0.602737  0.600924  1
  Er  Er6  1  0.065077  0.436312  0.437149  1
  Er  Er7  1  0.436502  0.065252  0.063970  1
  Er  Er8  1  0.436502  0.065252  0.434275  1
  Er  Er9  1  0.065077  0.436312  0.061462  1
  Er  Er10  1  0.437214  0.435060  0.063863  1
  Er  Er11  1  0.065843  0.062117  0.436020  1
  Er  Er12  1  0.185919  0.815010  0.815629  1
  Er  Er13  1  0.815567  0.184758  0.183245  1
  Er  Er14  1  0.815567  0.184758  0.816429  1
  Er  Er15  1  0.185919  0.815010  0.183442  1
  Cd  Cd16  1  0.836737  0.829497  0.829532  1
  Cd  Cd17  1  0.836737  0.829497  0.504234  1
  Cd  Cd18  1  0.836239  0.502231  0.830765  1
  Cd  Cd19  1  0.502501  0.831660  0.832919  1
  Ni  Ni20  1  0.387816  0.392377  0.392602  1
  Ni  Ni21  1  0.387816  0.392377  0.827204  1
  Ni  Ni22  1  0.386395  0.827636  0.392984  1
  Ni  Ni23  1  0.830349  0.389020  0.390316  1
