# generated using pymatgen
data_Dy3YTlRh
_symmetry_space_group_name_H-M   'P 1'
_cell_length_a   9.77129609
_cell_length_b   9.76593069
_cell_length_c   9.76831000
_cell_angle_alpha   60.02583021
_cell_angle_beta   59.97512806
_cell_angle_gamma   59.99851753
_symmetry_Int_Tables_number   1
_chemical_formula_structural   Dy3YTlRh
_chemical_formula_sum   'Dy12 Y4 Tl4 Rh4'
_cell_volume   659.12586792
_cell_formula_units_Z   4
loop_
 _symmetry_equiv_pos_site_id
 _symmetry_equiv_pos_as_xyz
  1  'x, y, z'
loop_
 _atom_site_type_symbol
 _atom_site_label
 _atom_site_symmetry_multiplicity
 _atom_site_fract_x
 _atom_site_fract_y
 _atom_site_fract_z
 _atom_site_occupancy
  Dy  Dy0  1  0.599027  0.599306  0.599383  1
  Dy  Dy1  1  0.599284  0.599010  0.202345  1
  Dy  Dy2  1  0.599392  0.202320  0.599008  1
  Dy  Dy3  1  0.202298  0.599391  0.599277  1
  Dy  Dy4  1  0.061874  0.438129  0.438123  1
  Dy  Dy5  1  0.438129  0.061873  0.061875  1
  Dy  Dy6  1  0.438033  0.061987  0.438018  1
  Dy  Dy7  1  0.061968  0.438024  0.062007  1
  Dy  Dy8  1  0.438056  0.438067  0.061952  1
  Dy  Dy9  1  0.061927  0.061959  0.438059  1
  Dy  Dy10  1  0.190527  0.809477  0.809463  1
  Dy  Dy11  1  0.809469  0.190523  0.190524  1
  Y  Y12  1  0.810077  0.189944  0.810031  1
  Y  Y13  1  0.189935  0.810000  0.189968  1
  Y  Y14  1  0.809950  0.809907  0.190076  1
  Y  Y15  1  0.190072  0.190091  0.809882  1
  Tl  Tl16  1  0.836232  0.836012  0.836011  1
  Tl  Tl17  1  0.835996  0.836231  0.491768  1
  Tl  Tl18  1  0.835999  0.491766  0.836236  1
  Tl  Tl19  1  0.491761  0.836005  0.836011  1
  Rh  Rh20  1  0.392930  0.392325  0.392415  1
  Rh  Rh21  1  0.392331  0.392926  0.822307  1
  Rh  Rh22  1  0.392411  0.822307  0.392931  1
  Rh  Rh23  1  0.822322  0.392422  0.392332  1
