# generated using pymatgen
data_Tm5TiRhO12
_symmetry_space_group_name_H-M   'P 1'
_cell_length_a   6.72287184
_cell_length_b   6.72287111
_cell_length_c   7.24929410
_cell_angle_alpha   74.24375316
_cell_angle_beta   74.24375789
_cell_angle_gamma   50.81567183
_symmetry_Int_Tables_number   1
_chemical_formula_structural   Tm5TiRhO12
_chemical_formula_sum   'Tm5 Ti1 Rh1 O12'
_cell_volume   242.21678501
_cell_formula_units_Z   1
loop_
 _symmetry_equiv_pos_site_id
 _symmetry_equiv_pos_as_xyz
  1  'x, y, z'
loop_
 _atom_site_type_symbol
 _atom_site_label
 _atom_site_symmetry_multiplicity
 _atom_site_fract_x
 _atom_site_fract_y
 _atom_site_fract_z
 _atom_site_occupancy
  Tm  Tm0  1  0.807501  0.798738  0.360412  1
  Tm  Tm1  1  0.201262  0.192499  0.639588  1
  Tm  Tm2  1  0.184475  0.193028  0.173662  1
  Tm  Tm3  1  0.806972  0.815525  0.826338  1
  Tm  Tm4  1  0.504655  0.495345  0.500000  1
  Ti  Ti5  1  0.270530  0.729470  0.000000  1
  Rh  Rh6  1  0.744624  0.255376  0.000000  1
  O  O7  1  0.400129  0.932633  0.916217  1
  O  O8  1  0.067367  0.599871  0.083783  1
  O  O9  1  0.593357  0.075835  0.085478  1
  O  O10  1  0.924165  0.406643  0.914522  1
  O  O11  1  0.598040  0.096317  0.571779  1
  O  O12  1  0.903683  0.401960  0.428221  1
  O  O13  1  0.403645  0.904186  0.424023  1
  O  O14  1  0.001189  0.999072  0.809525  1
  O  O15  1  0.000928  0.998811  0.190475  1
  O  O16  1  0.495185  0.503521  0.806797  1
  O  O17  1  0.496479  0.504815  0.193203  1
  O  O18  1  0.095814  0.596355  0.575977  1
