# generated using pymatgen
data_Zr10CuSn5BiP
_symmetry_space_group_name_H-M   'P 1'
_cell_length_a   8.69209926
_cell_length_b   8.69209975
_cell_length_c   5.89234806
_cell_angle_alpha   89.94160474
_cell_angle_beta   89.94161187
_cell_angle_gamma   119.91977134
_symmetry_Int_Tables_number   1
_chemical_formula_structural   Zr10CuSn5BiP
_chemical_formula_sum   'Zr10 Cu1 Sn5 Bi1 P1'
_cell_volume   385.84958285
_cell_formula_units_Z   1
loop_
 _symmetry_equiv_pos_site_id
 _symmetry_equiv_pos_as_xyz
  1  'x, y, z'
loop_
 _atom_site_type_symbol
 _atom_site_label
 _atom_site_symmetry_multiplicity
 _atom_site_fract_x
 _atom_site_fract_y
 _atom_site_fract_z
 _atom_site_occupancy
  Zr  Zr0  1  0.742882  0.000672  0.256838  1
  Zr  Zr1  1  0.000672  0.742882  0.256838  1
  Zr  Zr2  1  0.256076  0.256076  0.257106  1
  Zr  Zr3  1  0.254832  0.994968  0.743028  1
  Zr  Zr4  1  0.994968  0.254832  0.743028  1
  Zr  Zr5  1  0.746212  0.746212  0.742384  1
  Zr  Zr6  1  0.332794  0.668722  0.498674  1
  Zr  Zr7  1  0.668722  0.332794  0.498674  1
  Zr  Zr8  1  0.668872  0.332698  0.001282  1
  Zr  Zr9  1  0.332698  0.668872  0.001282  1
  Cu  Cu10  1  0.999661  0.999661  0.001395  1
  Sn  Sn11  1  0.392279  0.000600  0.244848  1
  Sn  Sn12  1  0.000600  0.392279  0.244848  1
  Sn  Sn13  1  0.609517  0.609517  0.245645  1
  Sn  Sn14  1  0.606977  0.999481  0.754913  1
  Sn  Sn15  1  0.999481  0.606977  0.754913  1
  Bi  Bi16  1  0.392173  0.392173  0.755352  1
  P  P17  1  0.000583  0.000583  0.498950  1
