# generated using pymatgen
data_LiCeB6Os
_symmetry_space_group_name_H-M   'P 1'
_cell_length_a   3.59359700
_cell_length_b   8.86480300
_cell_length_c   11.31078400
_cell_angle_alpha   90.00000000
_cell_angle_beta   90.00000000
_cell_angle_gamma   90.00000000
_symmetry_Int_Tables_number   1
_chemical_formula_structural   LiCeB6Os
_chemical_formula_sum   'Li4 Ce4 B24 Os4'
_cell_volume   360.32232378
_cell_formula_units_Z   4
loop_
 _symmetry_equiv_pos_site_id
 _symmetry_equiv_pos_as_xyz
  1  'x, y, z'
loop_
 _atom_site_type_symbol
 _atom_site_label
 _atom_site_symmetry_multiplicity
 _atom_site_fract_x
 _atom_site_fract_y
 _atom_site_fract_z
 _atom_site_occupancy
  Li  Li0  1  0.000000  0.944657  0.373882  1
  Li  Li1  1  0.000000  0.055343  0.626119  1
  Li  Li2  1  0.000000  0.444657  0.126118  1
  Li  Li3  1  0.000000  0.555343  0.873881  1
  Ce  Ce4  1  0.000000  0.316219  0.414057  1
  Ce  Ce5  1  0.000000  0.683781  0.585943  1
  Ce  Ce6  1  0.000000  0.816219  0.085943  1
  Ce  Ce7  1  0.000000  0.183781  0.914057  1
  B  B8  1  0.500000  0.555639  0.431433  1
  B  B9  1  0.500000  0.444361  0.568567  1
  B  B10  1  0.500000  0.055639  0.068567  1
  B  B11  1  0.500000  0.944361  0.931433  1
  B  B12  1  0.500000  0.757574  0.416498  1
  B  B13  1  0.500000  0.242426  0.583502  1
  B  B14  1  0.500000  0.257574  0.083502  1
  B  B15  1  0.500000  0.742426  0.916498  1
  B  B16  1  0.500000  0.792142  0.264331  1
  B  B17  1  0.500000  0.207858  0.735669  1
  B  B18  1  0.500000  0.292141  0.235669  1
  B  B19  1  0.500000  0.707858  0.764331  1
  B  B20  1  0.500000  0.624162  0.182813  1
  B  B21  1  0.500000  0.375838  0.817187  1
  B  B22  1  0.500000  0.124162  0.317187  1
  B  B23  1  0.500000  0.875838  0.682813  1
  B  B24  1  0.500000  0.979706  0.213702  1
  B  B25  1  0.500000  0.020294  0.786298  1
  B  B26  1  0.500000  0.479706  0.286298  1
  B  B27  1  0.500000  0.520294  0.713702  1
  B  B28  1  0.500000  0.590324  0.025287  1
  B  B29  1  0.500000  0.409676  0.974713  1
  B  B30  1  0.500000  0.090324  0.474713  1
  B  B31  1  0.500000  0.909676  0.525287  1
  Os  Os32  1  0.000000  0.640062  0.318465  1
  Os  Os33  1  0.000000  0.359938  0.681535  1
  Os  Os34  1  0.000000  0.140062  0.181535  1
  Os  Os35  1  0.000000  0.859938  0.818465  1
