# generated using pymatgen
data_DyY5InSi2
_symmetry_space_group_name_H-M   'P 1'
_cell_length_a   8.55157630
_cell_length_b   8.55193606
_cell_length_c   8.55157630
_cell_angle_alpha   112.42408813
_cell_angle_beta   110.90451612
_cell_angle_gamma   105.17109156
_symmetry_Int_Tables_number   1
_chemical_formula_structural   DyY5InSi2
_chemical_formula_sum   'Dy2 Y10 In2 Si4'
_cell_volume   479.33692814
_cell_formula_units_Z   2
loop_
 _symmetry_equiv_pos_site_id
 _symmetry_equiv_pos_as_xyz
  1  'x, y, z'
loop_
 _atom_site_type_symbol
 _atom_site_label
 _atom_site_symmetry_multiplicity
 _atom_site_fract_x
 _atom_site_fract_y
 _atom_site_fract_z
 _atom_site_occupancy
  Dy  Dy0  1  0.319926  0.022471  0.702544  1
  Dy  Dy1  1  0.680074  0.977529  0.297456  1
  Y  Y2  1  0.442788  0.238308  0.204097  1
  Y  Y3  1  0.557212  0.761692  0.795903  1
  Y  Y4  1  0.034210  0.238308  0.795519  1
  Y  Y5  1  0.965790  0.761692  0.204481  1
  Y  Y6  1  0.185568  0.277850  0.463593  1
  Y  Y7  1  0.814432  0.722150  0.536407  1
  Y  Y8  1  0.185743  0.722150  0.907718  1
  Y  Y9  1  0.814257  0.277850  0.092282  1
  Y  Y10  1  0.319873  0.617295  0.297422  1
  Y  Y11  1  0.680127  0.382705  0.702578  1
  In  In12  1  0.500000  0.500000  0.000000  1
  In  In13  1  0.000000  0.000000  0.000000  1
  Si  Si14  1  0.369257  0.000000  0.369257  1
  Si  Si15  1  0.630743  0.000000  0.630743  1
  Si  Si16  1  0.115571  0.615631  0.500060  1
  Si  Si17  1  0.884429  0.384369  0.499940  1
