# generated using pymatgen
data_NaLaTb2(CuSe3)2
_symmetry_space_group_name_H-M   'P 1'
_cell_length_a   6.95315322
_cell_length_b   6.95315277
_cell_length_c   10.65226500
_cell_angle_alpha   90.00000000
_cell_angle_beta   90.00000000
_cell_angle_gamma   145.90256167
_symmetry_Int_Tables_number   1
_chemical_formula_structural   NaLaTb2(CuSe3)2
_chemical_formula_sum   'Na1 La1 Tb2 Cu2 Se6'
_cell_volume   288.70888811
_cell_formula_units_Z   1
loop_
 _symmetry_equiv_pos_site_id
 _symmetry_equiv_pos_as_xyz
  1  'x, y, z'
loop_
 _atom_site_type_symbol
 _atom_site_label
 _atom_site_symmetry_multiplicity
 _atom_site_fract_x
 _atom_site_fract_y
 _atom_site_fract_z
 _atom_site_occupancy
  Na  Na0  1  0.255383  0.744616  0.750000  1
  La  La1  1  0.747816  0.252183  0.250000  1
  Tb  Tb2  1  0.496411  0.503587  0.990112  1
  Tb  Tb3  1  0.496411  0.503587  0.509888  1
  Cu  Cu4  1  0.026487  0.973512  0.250000  1
  Cu  Cu5  1  0.971845  0.028154  0.750000  1
  Se  Se6  1  0.144594  0.855405  0.074686  1
  Se  Se7  1  0.417266  0.582733  0.250000  1
  Se  Se8  1  0.144594  0.855405  0.425314  1
  Se  Se9  1  0.858238  0.141761  0.563151  1
  Se  Se10  1  0.582708  0.417291  0.750000  1
  Se  Se11  1  0.858238  0.141761  0.936849  1
