# generated using pymatgen
data_CeTh3(VN3)4
_symmetry_space_group_name_H-M   'P 1'
_cell_length_a   5.40979000
_cell_length_b   5.66108915
_cell_length_c   7.57207700
_cell_angle_alpha   90.00000000
_cell_angle_beta   90.00000000
_cell_angle_gamma   89.75173154
_symmetry_Int_Tables_number   1
_chemical_formula_structural   CeTh3(VN3)4
_chemical_formula_sum   'Ce1 Th3 V4 N12'
_cell_volume   231.89497884
_cell_formula_units_Z   1
loop_
 _symmetry_equiv_pos_site_id
 _symmetry_equiv_pos_as_xyz
  1  'x, y, z'
loop_
 _atom_site_type_symbol
 _atom_site_label
 _atom_site_symmetry_multiplicity
 _atom_site_fract_x
 _atom_site_fract_y
 _atom_site_fract_z
 _atom_site_occupancy
  Ce  Ce0  1  0.501748  0.539955  0.250000  1
  Th  Th1  1  0.995499  0.034930  0.250000  1
  Th  Th2  1  0.497637  0.445039  0.750000  1
  Th  Th3  1  0.000845  0.944121  0.750000  1
  V  V4  1  0.000069  0.470552  0.999045  1
  V  V5  1  0.498721  0.967845  0.501316  1
  V  V6  1  0.000069  0.470552  0.500955  1
  V  V7  1  0.498721  0.967845  0.998684  1
  N  N8  1  0.433381  0.994614  0.250000  1
  N  N9  1  0.078526  0.503628  0.250000  1
  N  N10  1  0.567354  0.027001  0.750000  1
  N  N11  1  0.933202  0.521674  0.750000  1
  N  N12  1  0.787733  0.808045  0.031741  1
  N  N13  1  0.711584  0.312987  0.460843  1
  N  N14  1  0.202771  0.216914  0.536607  1
  N  N15  1  0.295025  0.718175  0.962063  1
  N  N16  1  0.202771  0.216914  0.963393  1
  N  N17  1  0.295025  0.718175  0.537937  1
  N  N18  1  0.787733  0.808045  0.468259  1
  N  N19  1  0.711584  0.312987  0.039157  1
