# generated using pymatgen
data_Ba2CrIO4
_symmetry_space_group_name_H-M   'P 1'
_cell_length_a   9.65521700
_cell_length_b   9.11111429
_cell_length_c   9.79155697
_cell_angle_alpha   66.87652293
_cell_angle_beta   90.00000000
_cell_angle_gamma   90.00000000
_symmetry_Int_Tables_number   1
_chemical_formula_structural   Ba2CrIO4
_chemical_formula_sum   'Ba8 Cr4 I4 O16'
_cell_volume   792.15997851
_cell_formula_units_Z   4
loop_
 _symmetry_equiv_pos_site_id
 _symmetry_equiv_pos_as_xyz
  1  'x, y, z'
loop_
 _atom_site_type_symbol
 _atom_site_label
 _atom_site_symmetry_multiplicity
 _atom_site_fract_x
 _atom_site_fract_y
 _atom_site_fract_z
 _atom_site_occupancy
  Ba  Ba0  1  0.308214  0.457423  0.152256  1
  Ba  Ba1  1  0.808214  0.042577  0.847744  1
  Ba  Ba2  1  0.691786  0.542577  0.847744  1
  Ba  Ba3  1  0.191786  0.957423  0.152256  1
  Ba  Ba4  1  0.328066  0.951489  0.747775  1
  Ba  Ba5  1  0.828066  0.548511  0.252225  1
  Ba  Ba6  1  0.671934  0.048511  0.252225  1
  Ba  Ba7  1  0.171934  0.451489  0.747775  1
  Cr  Cr8  1  0.052902  0.738443  0.956955  1
  Cr  Cr9  1  0.552902  0.761557  0.043045  1
  Cr  Cr10  1  0.947098  0.261557  0.043045  1
  Cr  Cr11  1  0.447098  0.238443  0.956955  1
  I  I12  1  0.902307  0.740806  0.507261  1
  I  I13  1  0.402307  0.759194  0.492739  1
  I  I14  1  0.097693  0.259194  0.492739  1
  I  I15  1  0.597693  0.240806  0.507261  1
  O  O16  1  0.083346  0.655681  0.147151  1
  O  O17  1  0.583346  0.844319  0.852849  1
  O  O18  1  0.916654  0.344319  0.852849  1
  O  O19  1  0.416654  0.155681  0.147151  1
  O  O20  1  0.120842  0.287751  0.061959  1
  O  O21  1  0.620842  0.212249  0.938041  1
  O  O22  1  0.879158  0.712249  0.938041  1
  O  O23  1  0.379158  0.787751  0.061959  1
  O  O24  1  0.675558  0.831976  0.129682  1
  O  O25  1  0.175558  0.668024  0.870318  1
  O  O26  1  0.324442  0.168024  0.870318  1
  O  O27  1  0.824442  0.331976  0.129682  1
  O  O28  1  0.416660  0.441773  0.893596  1
  O  O29  1  0.916660  0.058227  0.106404  1
  O  O30  1  0.583340  0.558227  0.106404  1
  O  O31  1  0.083340  0.941773  0.893596  1
