# generated using pymatgen
data_Dy5Tm5(Tl2Sb)2
_symmetry_space_group_name_H-M   'P 1'
_cell_length_a   8.91933100
_cell_length_b   8.95051838
_cell_length_c   6.53795900
_cell_angle_alpha   90.00000000
_cell_angle_beta   90.00000000
_cell_angle_gamma   119.77370808
_symmetry_Int_Tables_number   1
_chemical_formula_structural   Dy5Tm5(Tl2Sb)2
_chemical_formula_sum   'Dy5 Tm5 Tl4 Sb2'
_cell_volume   453.04265335
_cell_formula_units_Z   1
loop_
 _symmetry_equiv_pos_site_id
 _symmetry_equiv_pos_as_xyz
  1  'x, y, z'
loop_
 _atom_site_type_symbol
 _atom_site_label
 _atom_site_symmetry_multiplicity
 _atom_site_fract_x
 _atom_site_fract_y
 _atom_site_fract_z
 _atom_site_occupancy
  Dy  Dy0  1  0.235507  0.000261  0.250000  1
  Dy  Dy1  1  0.763019  0.999301  0.750000  1
  Dy  Dy2  1  0.999071  0.236479  0.250000  1
  Dy  Dy3  1  0.241787  0.235725  0.750000  1
  Dy  Dy4  1  0.003654  0.764882  0.750000  1
  Tm  Tm5  1  0.331885  0.665763  0.004513  1
  Tm  Tm6  1  0.665932  0.334738  0.496197  1
  Tm  Tm7  1  0.665932  0.334738  0.003803  1
  Tm  Tm8  1  0.331885  0.665763  0.495487  1
  Tm  Tm9  1  0.762477  0.763302  0.250000  1
  Tl  Tl10  1  0.599404  0.998941  0.250000  1
  Tl  Tl11  1  0.403256  0.999865  0.750000  1
  Tl  Tl12  1  0.996875  0.603365  0.250000  1
  Tl  Tl13  1  0.396569  0.398255  0.250000  1
  Sb  Sb14  1  0.604023  0.605129  0.750000  1
  Sb  Sb15  1  0.998725  0.393490  0.750000  1
