# generated using pymatgen
data_Sc3Co9(GeB2)2
_symmetry_space_group_name_H-M   'P 1'
_cell_length_a   5.04780205
_cell_length_b   5.04738839
_cell_length_c   9.33318101
_cell_angle_alpha   90.00158560
_cell_angle_beta   89.99842305
_cell_angle_gamma   119.98172444
_symmetry_Int_Tables_number   1
_chemical_formula_structural   Sc3Co9(GeB2)2
_chemical_formula_sum   'Sc3 Co9 Ge2 B4'
_cell_volume   205.97253296
_cell_formula_units_Z   1
loop_
 _symmetry_equiv_pos_site_id
 _symmetry_equiv_pos_as_xyz
  1  'x, y, z'
loop_
 _atom_site_type_symbol
 _atom_site_label
 _atom_site_symmetry_multiplicity
 _atom_site_fract_x
 _atom_site_fract_y
 _atom_site_fract_z
 _atom_site_occupancy
  Sc  Sc0  1  0.999953  0.999997  0.999999  1
  Sc  Sc1  1  0.000030  0.000007  0.339712  1
  Sc  Sc2  1  0.999976  0.999966  0.660294  1
  Co  Co3  1  0.499984  0.000006  0.499993  1
  Co  Co4  1  0.500009  0.500014  0.500015  1
  Co  Co5  1  0.999996  0.500002  0.500006  1
  Co  Co6  1  0.500037  0.999994  0.203589  1
  Co  Co7  1  0.500009  0.500000  0.203613  1
  Co  Co8  1  0.000005  0.500006  0.203619  1
  Co  Co9  1  0.500002  0.000008  0.796420  1
  Co  Co10  1  0.500004  0.500023  0.796393  1
  Co  Co11  1  0.999993  0.500020  0.796374  1
  Ge  Ge12  1  0.333247  0.666616  0.999980  1
  Ge  Ge13  1  0.666694  0.333375  0.999979  1
  B  B14  1  0.333380  0.666684  0.348362  1
  B  B15  1  0.666610  0.333289  0.348362  1
  B  B16  1  0.666629  0.333289  0.651647  1
  B  B17  1  0.333342  0.666703  0.651643  1
