# generated using pymatgen
data_Tb3Y3Ho2(CdPd)2
_symmetry_space_group_name_H-M   'P 1'
_cell_length_a   9.71459743
_cell_length_b   9.70763431
_cell_length_c   9.70763450
_cell_angle_alpha   60.04746391
_cell_angle_beta   59.97626535
_cell_angle_gamma   59.97626532
_symmetry_Int_Tables_number   1
_chemical_formula_structural   Tb3Y3Ho2(CdPd)2
_chemical_formula_sum   'Tb6 Y6 Ho4 Cd4 Pd4'
_cell_volume   647.34555427
_cell_formula_units_Z   2
loop_
 _symmetry_equiv_pos_site_id
 _symmetry_equiv_pos_as_xyz
  1  'x, y, z'
loop_
 _atom_site_type_symbol
 _atom_site_label
 _atom_site_symmetry_multiplicity
 _atom_site_fract_x
 _atom_site_fract_y
 _atom_site_fract_z
 _atom_site_occupancy
  Tb  Tb0  1  0.353658  0.354037  0.354037  1
  Tb  Tb1  1  0.354037  0.353658  0.938268  1
  Tb  Tb2  1  0.354037  0.938268  0.353658  1
  Tb  Tb3  1  0.938268  0.354037  0.354037  1
  Tb  Tb4  1  0.811119  0.188881  0.188881  1
  Tb  Tb5  1  0.188881  0.811119  0.811119  1
  Y  Y6  1  0.934693  0.565307  0.565307  1
  Y  Y7  1  0.565307  0.934693  0.934693  1
  Y  Y8  1  0.565342  0.934658  0.565342  1
  Y  Y9  1  0.934658  0.565342  0.934658  1
  Y  Y10  1  0.565342  0.565342  0.934658  1
  Y  Y11  1  0.934658  0.934658  0.565342  1
  Ho  Ho12  1  0.189245  0.810755  0.189245  1
  Ho  Ho13  1  0.810755  0.189245  0.810755  1
  Ho  Ho14  1  0.189245  0.189245  0.810755  1
  Ho  Ho15  1  0.810755  0.810755  0.189245  1
  Cd  Cd16  1  0.582353  0.582077  0.582077  1
  Cd  Cd17  1  0.582077  0.582353  0.253496  1
  Cd  Cd18  1  0.582077  0.253496  0.582353  1
  Cd  Cd19  1  0.253496  0.582077  0.582077  1
  Pd  Pd20  1  0.144816  0.144131  0.144131  1
  Pd  Pd21  1  0.144131  0.144816  0.566919  1
  Pd  Pd22  1  0.144131  0.566919  0.144816  1
  Pd  Pd23  1  0.566919  0.144131  0.144131  1
