# generated using pymatgen
data_DyHoGa2(Cu2Si)2
_symmetry_space_group_name_H-M   'P 1'
_cell_length_a   4.02490000
_cell_length_b   4.02490000
_cell_length_c   10.15600800
_cell_angle_alpha   90.00000000
_cell_angle_beta   90.00000000
_cell_angle_gamma   90.00000000
_symmetry_Int_Tables_number   1
_chemical_formula_structural   DyHoGa2(Cu2Si)2
_chemical_formula_sum   'Dy1 Ho1 Ga2 Cu4 Si2'
_cell_volume   164.52550162
_cell_formula_units_Z   1
loop_
 _symmetry_equiv_pos_site_id
 _symmetry_equiv_pos_as_xyz
  1  'x, y, z'
loop_
 _atom_site_type_symbol
 _atom_site_label
 _atom_site_symmetry_multiplicity
 _atom_site_fract_x
 _atom_site_fract_y
 _atom_site_fract_z
 _atom_site_occupancy
  Dy  Dy0  1  0.000000  0.500000  0.761192  1
  Ho  Ho1  1  0.500000  0.000000  0.238629  1
  Ga  Ga2  1  0.500000  0.500000  0.499843  1
  Ga  Ga3  1  0.000000  0.000000  0.499843  1
  Cu  Cu4  1  0.500000  0.000000  0.644591  1
  Cu  Cu5  1  0.000000  0.000000  0.000258  1
  Cu  Cu6  1  0.500000  0.500000  0.000258  1
  Cu  Cu7  1  0.000000  0.500000  0.355191  1
  Si  Si8  1  0.000000  0.500000  0.129553  1
  Si  Si9  1  0.500000  0.000000  0.870644  1
