# generated using pymatgen
data_Dy5(OsO6)2
_symmetry_space_group_name_H-M   'P 1'
_cell_length_a   6.88609871
_cell_length_b   6.88609852
_cell_length_c   7.50469692
_cell_angle_alpha   73.97047998
_cell_angle_beta   73.97047898
_cell_angle_gamma   48.49863359
_symmetry_Int_Tables_number   1
_chemical_formula_structural   Dy5(OsO6)2
_chemical_formula_sum   'Dy5 Os2 O12'
_cell_volume   254.00151410
_cell_formula_units_Z   1
loop_
 _symmetry_equiv_pos_site_id
 _symmetry_equiv_pos_as_xyz
  1  'x, y, z'
loop_
 _atom_site_type_symbol
 _atom_site_label
 _atom_site_symmetry_multiplicity
 _atom_site_fract_x
 _atom_site_fract_y
 _atom_site_fract_z
 _atom_site_occupancy
  Dy  Dy0  1  0.301151  0.301151  0.358167  1
  Dy  Dy1  1  0.698849  0.698849  0.641833  1
  Dy  Dy2  1  0.311855  0.311855  0.829026  1
  Dy  Dy3  1  0.688145  0.688145  0.170974  1
  Dy  Dy4  1  0.000000  0.000000  0.500000  1
  Os  Os5  1  0.780755  0.219245  0.000000  1
  Os  Os6  1  0.219245  0.780755  0.000000  1
  O  O7  1  0.913233  0.418940  0.914666  1
  O  O8  1  0.418940  0.913233  0.914666  1
  O  O9  1  0.086767  0.581060  0.085334  1
  O  O10  1  0.581060  0.086767  0.085334  1
  O  O11  1  0.098413  0.595487  0.573157  1
  O  O12  1  0.595487  0.098413  0.573157  1
  O  O13  1  0.901587  0.404513  0.426843  1
  O  O14  1  0.404513  0.901587  0.426843  1
  O  O15  1  0.999199  0.999199  0.796529  1
  O  O16  1  0.000801  0.000801  0.203471  1
  O  O17  1  0.500898  0.500898  0.825766  1
  O  O18  1  0.499102  0.499102  0.174234  1
