# generated using pymatgen
data_LiEr2Pa(Co4P3)2
_symmetry_space_group_name_H-M   'P 1'
_cell_length_a   3.71099600
_cell_length_b   10.55979600
_cell_length_c   12.11323900
_cell_angle_alpha   90.00000000
_cell_angle_beta   90.00000000
_cell_angle_gamma   90.00000000
_symmetry_Int_Tables_number   1
_chemical_formula_structural   LiEr2Pa(Co4P3)2
_chemical_formula_sum   'Li2 Er4 Pa2 Co16 P12'
_cell_volume   474.68586614
_cell_formula_units_Z   2
loop_
 _symmetry_equiv_pos_site_id
 _symmetry_equiv_pos_as_xyz
  1  'x, y, z'
loop_
 _atom_site_type_symbol
 _atom_site_label
 _atom_site_symmetry_multiplicity
 _atom_site_fract_x
 _atom_site_fract_y
 _atom_site_fract_z
 _atom_site_occupancy
  Li  Li0  1  0.250000  0.250000  0.847999  1
  Li  Li1  1  0.750000  0.750000  0.152001  1
  Er  Er2  1  0.250000  0.933928  0.795390  1
  Er  Er3  1  0.250000  0.566072  0.795390  1
  Er  Er4  1  0.750000  0.066072  0.204610  1
  Er  Er5  1  0.750000  0.433928  0.204610  1
  Pa  Pa6  1  0.750000  0.250000  0.470973  1
  Pa  Pa7  1  0.250000  0.750000  0.529027  1
  Co  Co8  1  0.250000  0.250000  0.302659  1
  Co  Co9  1  0.750000  0.750000  0.697341  1
  Co  Co10  1  0.750000  0.250000  0.015078  1
  Co  Co11  1  0.250000  0.750000  0.984922  1
  Co  Co12  1  0.250000  0.416494  0.004513  1
  Co  Co13  1  0.250000  0.083506  0.004513  1
  Co  Co14  1  0.750000  0.583506  0.995487  1
  Co  Co15  1  0.750000  0.916494  0.995487  1
  Co  Co16  1  0.250000  0.450130  0.567406  1
  Co  Co17  1  0.250000  0.049870  0.567406  1
  Co  Co18  1  0.750000  0.549870  0.432594  1
  Co  Co19  1  0.750000  0.950130  0.432594  1
  Co  Co20  1  0.250000  0.871382  0.291980  1
  Co  Co21  1  0.250000  0.628618  0.291980  1
  Co  Co22  1  0.750000  0.128618  0.708020  1
  Co  Co23  1  0.750000  0.371382  0.708020  1
  P  P24  1  0.250000  0.250000  0.119166  1
  P  P25  1  0.750000  0.750000  0.880834  1
  P  P26  1  0.250000  0.250000  0.655253  1
  P  P27  1  0.750000  0.750000  0.344747  1
  P  P28  1  0.250000  0.443508  0.382639  1
  P  P29  1  0.250000  0.056492  0.382639  1
  P  P30  1  0.750000  0.556492  0.617361  1
  P  P31  1  0.750000  0.943508  0.617361  1
  P  P32  1  0.250000  0.906180  0.105671  1
  P  P33  1  0.250000  0.593820  0.105671  1
  P  P34  1  0.750000  0.093820  0.894329  1
  P  P35  1  0.750000  0.406180  0.894329  1
