# generated using pymatgen
data_Sr4Os6ClO18
_symmetry_space_group_name_H-M   'P 1'
_cell_length_a   8.05702182
_cell_length_b   8.05702226
_cell_length_c   8.05702200
_cell_angle_alpha   109.47121998
_cell_angle_beta   109.47122108
_cell_angle_gamma   109.47122264
_symmetry_Int_Tables_number   1
_chemical_formula_structural   Sr4Os6ClO18
_chemical_formula_sum   'Sr4 Os6 Cl1 O18'
_cell_volume   402.62594067
_cell_formula_units_Z   1
loop_
 _symmetry_equiv_pos_site_id
 _symmetry_equiv_pos_as_xyz
  1  'x, y, z'
loop_
 _atom_site_type_symbol
 _atom_site_label
 _atom_site_symmetry_multiplicity
 _atom_site_fract_x
 _atom_site_fract_y
 _atom_site_fract_z
 _atom_site_occupancy
  Sr  Sr0  1  0.000000  0.364571  0.000000  1
  Sr  Sr1  1  0.000000  0.000000  0.364571  1
  Sr  Sr2  1  0.635429  0.635429  0.635429  1
  Sr  Sr3  1  0.364571  0.000000  0.000000  1
  Os  Os4  1  0.500000  0.365519  0.865519  1
  Os  Os5  1  0.500000  0.634481  0.134481  1
  Os  Os6  1  0.365519  0.865519  0.500000  1
  Os  Os7  1  0.634481  0.134481  0.500000  1
  Os  Os8  1  0.865519  0.500000  0.365519  1
  Os  Os9  1  0.134481  0.500000  0.634481  1
  Cl  Cl10  1  0.000000  0.000000  0.000000  1
  O  O11  1  0.701398  0.342941  0.065372  1
  O  O12  1  0.657059  0.358457  0.722431  1
  O  O13  1  0.277569  0.636026  0.934628  1
  O  O14  1  0.641543  0.298602  0.363974  1
  O  O15  1  0.358457  0.722431  0.657059  1
  O  O16  1  0.934628  0.277569  0.636026  1
  O  O17  1  0.065372  0.701398  0.342941  1
  O  O18  1  0.000000  0.666558  0.666558  1
  O  O19  1  0.666558  0.666558  0.000000  1
  O  O20  1  0.722431  0.657059  0.358457  1
  O  O21  1  0.342941  0.065372  0.701398  1
  O  O22  1  0.666558  0.000000  0.666558  1
  O  O23  1  0.000000  0.333442  0.333442  1
  O  O24  1  0.636026  0.934628  0.277569  1
  O  O25  1  0.363974  0.641543  0.298602  1
  O  O26  1  0.298602  0.363974  0.641543  1
  O  O27  1  0.333442  0.000000  0.333442  1
  O  O28  1  0.333442  0.333442  0.000000  1
