# generated using pymatgen
data_Rb2Zn2CdSiAs4
_symmetry_space_group_name_H-M   'P 1'
_cell_length_a   8.07828957
_cell_length_b   8.07828832
_cell_length_c   5.94187500
_cell_angle_alpha   90.00000000
_cell_angle_beta   90.00000000
_cell_angle_gamma   136.68805791
_symmetry_Int_Tables_number   1
_chemical_formula_structural   Rb2Zn2CdSiAs4
_chemical_formula_sum   'Rb2 Zn2 Cd1 Si1 As4'
_cell_volume   265.99129094
_cell_formula_units_Z   1
loop_
 _symmetry_equiv_pos_site_id
 _symmetry_equiv_pos_as_xyz
  1  'x, y, z'
loop_
 _atom_site_type_symbol
 _atom_site_label
 _atom_site_symmetry_multiplicity
 _atom_site_fract_x
 _atom_site_fract_y
 _atom_site_fract_z
 _atom_site_occupancy
  Rb  Rb0  1  0.500000  0.000000  0.255081  1
  Rb  Rb1  1  0.000000  0.500000  0.744919  1
  Zn  Zn2  1  0.500000  0.500000  0.000000  1
  Zn  Zn3  1  0.000000  0.000000  0.500000  1
  Cd  Cd4  1  0.500000  0.500000  0.500000  1
  Si  Si5  1  0.000000  0.000000  0.000000  1
  As  As6  1  0.675353  0.879634  0.777582  1
  As  As7  1  0.120366  0.324647  0.222418  1
  As  As8  1  0.879634  0.675353  0.222418  1
  As  As9  1  0.324647  0.120366  0.777582  1
