# generated using pymatgen
data_K(In4Rh)2
_symmetry_space_group_name_H-M   'P 1'
_cell_length_a   4.42265800
_cell_length_b   14.07511900
_cell_length_c   16.39822600
_cell_angle_alpha   90.00000000
_cell_angle_beta   90.00000000
_cell_angle_gamma   90.00000000
_symmetry_Int_Tables_number   1
_chemical_formula_structural   K(In4Rh)2
_chemical_formula_sum   'K4 In32 Rh8'
_cell_volume   1020.78034690
_cell_formula_units_Z   4
loop_
 _symmetry_equiv_pos_site_id
 _symmetry_equiv_pos_as_xyz
  1  'x, y, z'
loop_
 _atom_site_type_symbol
 _atom_site_label
 _atom_site_symmetry_multiplicity
 _atom_site_fract_x
 _atom_site_fract_y
 _atom_site_fract_z
 _atom_site_occupancy
  K  K0  1  0.500000  0.657676  0.819321  1
  K  K1  1  0.500000  0.342324  0.180679  1
  K  K2  1  0.500000  0.157676  0.680679  1
  K  K3  1  0.500000  0.842324  0.319321  1
  In  In4  1  0.000000  0.520379  0.134021  1
  In  In5  1  0.000000  0.979621  0.634021  1
  In  In6  1  0.000000  0.020379  0.365979  1
  In  In7  1  0.000000  0.479621  0.865979  1
  In  In8  1  0.000000  0.832769  0.877580  1
  In  In9  1  0.000000  0.167231  0.122420  1
  In  In10  1  0.000000  0.332769  0.622420  1
  In  In11  1  0.000000  0.667231  0.377580  1
  In  In12  1  0.000000  0.551090  0.683815  1
  In  In13  1  0.000000  0.448910  0.316185  1
  In  In14  1  0.000000  0.051090  0.816185  1
  In  In15  1  0.000000  0.948910  0.183815  1
  In  In16  1  0.000000  0.000000  0.000000  1
  In  In17  1  0.000000  0.500000  0.500000  1
  In  In18  1  0.000000  0.759065  0.676743  1
  In  In19  1  0.000000  0.240935  0.323257  1
  In  In20  1  0.000000  0.259065  0.823257  1
  In  In21  1  0.000000  0.740935  0.176743  1
  In  In22  1  0.500000  0.839605  0.043753  1
  In  In23  1  0.500000  0.160395  0.956247  1
  In  In24  1  0.500000  0.339605  0.456247  1
  In  In25  1  0.500000  0.660395  0.543753  1
  In  In26  1  0.000000  0.670432  0.989310  1
  In  In27  1  0.000000  0.329568  0.010690  1
  In  In28  1  0.000000  0.170432  0.510690  1
  In  In29  1  0.000000  0.829568  0.489310  1
  In  In30  1  0.500000  0.599574  0.253164  1
  In  In31  1  0.500000  0.400426  0.746836  1
  In  In32  1  0.500000  0.099574  0.246836  1
  In  In33  1  0.500000  0.900426  0.753164  1
  In  In34  1  0.500000  0.500000  0.000000  1
  In  In35  1  0.500000  0.000000  0.500000  1
  Rh  Rh36  1  0.500000  0.653521  0.096577  1
  Rh  Rh37  1  0.500000  0.964302  0.905366  1
  Rh  Rh38  1  0.500000  0.035698  0.094634  1
  Rh  Rh39  1  0.500000  0.464302  0.594634  1
  Rh  Rh40  1  0.500000  0.535698  0.405366  1
  Rh  Rh41  1  0.500000  0.346479  0.903423  1
  Rh  Rh42  1  0.500000  0.153521  0.403423  1
  Rh  Rh43  1  0.500000  0.846479  0.596577  1
