# generated using pymatgen
data_Ho17Er3(Bi2Rh)4
_symmetry_space_group_name_H-M   'P 1'
_cell_length_a   7.96922501
_cell_length_b   8.96721805
_cell_length_c   12.43032908
_cell_angle_alpha   89.98826847
_cell_angle_beta   90.00566650
_cell_angle_gamma   90.00272088
_symmetry_Int_Tables_number   1
_chemical_formula_structural   Ho17Er3(Bi2Rh)4
_chemical_formula_sum   'Ho17 Er3 Bi8 Rh4'
_cell_volume   888.29339782
_cell_formula_units_Z   1
loop_
 _symmetry_equiv_pos_site_id
 _symmetry_equiv_pos_as_xyz
  1  'x, y, z'
loop_
 _atom_site_type_symbol
 _atom_site_label
 _atom_site_symmetry_multiplicity
 _atom_site_fract_x
 _atom_site_fract_y
 _atom_site_fract_z
 _atom_site_occupancy
  Ho  Ho0  1  0.839488  0.750186  0.793525  1
  Ho  Ho1  1  0.160655  0.249859  0.206413  1
  Ho  Ho2  1  0.339492  0.249777  0.706404  1
  Ho  Ho3  1  0.660487  0.750141  0.293643  1
  Ho  Ho4  1  0.375120  0.750280  0.690945  1
  Ho  Ho5  1  0.624835  0.249749  0.309047  1
  Ho  Ho6  1  0.875291  0.249868  0.808844  1
  Ho  Ho7  1  0.125050  0.750198  0.191098  1
  Ho  Ho8  1  0.952116  0.750356  0.501538  1
  Ho  Ho9  1  0.047963  0.249647  0.498473  1
  Ho  Ho10  1  0.451884  0.249768  0.998493  1
  Ho  Ho11  1  0.547616  0.750212  0.001430  1
  Ho  Ho12  1  0.323058  0.542305  0.433758  1
  Ho  Ho13  1  0.823163  0.042431  0.066296  1
  Ho  Ho14  1  0.676905  0.457778  0.566293  1
  Ho  Ho15  1  0.822989  0.457720  0.066260  1
  Ho  Ho16  1  0.176921  0.542446  0.933703  1
  Er  Er17  1  0.675989  0.042605  0.566211  1
  Er  Er18  1  0.324003  0.957409  0.433863  1
  Er  Er19  1  0.176285  0.957394  0.933782  1
  Bi  Bi20  1  0.567418  0.491779  0.826362  1
  Bi  Bi21  1  0.432658  0.508222  0.173631  1
  Bi  Bi22  1  0.067295  0.508194  0.673613  1
  Bi  Bi23  1  0.432706  0.991715  0.173810  1
  Bi  Bi24  1  0.932735  0.491827  0.326338  1
  Bi  Bi25  1  0.567084  0.008238  0.826301  1
  Bi  Bi26  1  0.933223  0.008173  0.326392  1
  Bi  Bi27  1  0.066889  0.991795  0.673719  1
  Rh  Rh28  1  0.572238  0.750664  0.509210  1
  Rh  Rh29  1  0.427802  0.249311  0.490818  1
  Rh  Rh30  1  0.072589  0.249626  0.990646  1
  Rh  Rh31  1  0.928053  0.750326  0.009145  1
