# generated using pymatgen
data_Y10Si5Bi
_symmetry_space_group_name_H-M   'P 1'
_cell_length_a   8.54262300
_cell_length_b   8.59729948
_cell_length_c   6.40740200
_cell_angle_alpha   90.00000000
_cell_angle_beta   90.00000000
_cell_angle_gamma   119.78984013
_symmetry_Int_Tables_number   1
_chemical_formula_structural   Y10Si5Bi
_chemical_formula_sum   'Y10 Si5 Bi1'
_cell_volume   408.39622594
_cell_formula_units_Z   1
loop_
 _symmetry_equiv_pos_site_id
 _symmetry_equiv_pos_as_xyz
  1  'x, y, z'
loop_
 _atom_site_type_symbol
 _atom_site_label
 _atom_site_symmetry_multiplicity
 _atom_site_fract_x
 _atom_site_fract_y
 _atom_site_fract_z
 _atom_site_occupancy
  Y  Y0  1  0.985796  0.744857  0.750000  1
  Y  Y1  1  0.997860  0.243593  0.250000  1
  Y  Y2  1  0.754267  0.756407  0.250000  1
  Y  Y3  1  0.766762  0.000000  0.750000  1
  Y  Y4  1  0.240938  0.255143  0.750000  1
  Y  Y5  1  0.241383  0.000000  0.250000  1
  Y  Y6  1  0.676424  0.345828  0.004640  1
  Y  Y7  1  0.330595  0.654172  0.495360  1
  Y  Y8  1  0.330595  0.654172  0.004640  1
  Y  Y9  1  0.676424  0.345828  0.495360  1
  Si  Si10  1  0.392543  0.389760  0.250000  1
  Si  Si11  1  0.002783  0.610240  0.250000  1
  Si  Si12  1  0.998499  0.393910  0.750000  1
  Si  Si13  1  0.604589  0.606090  0.750000  1
  Si  Si14  1  0.607248  0.000000  0.250000  1
  Bi  Bi15  1  0.393291  0.000000  0.750000  1
