# generated using pymatgen
data_Ba5(TcO6)2
_symmetry_space_group_name_H-M   'P 1'
_cell_length_a   5.83190000
_cell_length_b   10.51026100
_cell_length_c   19.61376600
_cell_angle_alpha   90.00000000
_cell_angle_beta   90.00000000
_cell_angle_gamma   90.00000000
_symmetry_Int_Tables_number   1
_chemical_formula_structural   Ba5(TcO6)2
_chemical_formula_sum   'Ba20 Tc8 O48'
_cell_volume   1202.22169016
_cell_formula_units_Z   4
loop_
 _symmetry_equiv_pos_site_id
 _symmetry_equiv_pos_as_xyz
  1  'x, y, z'
loop_
 _atom_site_type_symbol
 _atom_site_label
 _atom_site_symmetry_multiplicity
 _atom_site_fract_x
 _atom_site_fract_y
 _atom_site_fract_z
 _atom_site_occupancy
  Ba  Ba0  1  0.250000  0.408118  0.544775  1
  Ba  Ba1  1  0.250000  0.091882  0.044775  1
  Ba  Ba2  1  0.750000  0.591882  0.455225  1
  Ba  Ba3  1  0.750000  0.908118  0.955225  1
  Ba  Ba4  1  0.250000  0.118366  0.640135  1
  Ba  Ba5  1  0.250000  0.381634  0.140135  1
  Ba  Ba6  1  0.750000  0.881634  0.359865  1
  Ba  Ba7  1  0.750000  0.618366  0.859865  1
  Ba  Ba8  1  0.250000  0.756053  0.704535  1
  Ba  Ba9  1  0.250000  0.743947  0.204535  1
  Ba  Ba10  1  0.750000  0.243947  0.295465  1
  Ba  Ba11  1  0.750000  0.256053  0.795465  1
  Ba  Ba12  1  0.250000  0.021178  0.842305  1
  Ba  Ba13  1  0.250000  0.478822  0.342305  1
  Ba  Ba14  1  0.750000  0.978822  0.157695  1
  Ba  Ba15  1  0.750000  0.521178  0.657695  1
  Ba  Ba16  1  0.250000  0.407121  0.924043  1
  Ba  Ba17  1  0.250000  0.092879  0.424043  1
  Ba  Ba18  1  0.750000  0.592879  0.075957  1
  Ba  Ba19  1  0.750000  0.907121  0.575957  1
  Tc  Tc20  1  0.250000  0.753173  0.516379  1
  Tc  Tc21  1  0.250000  0.746827  0.016379  1
  Tc  Tc22  1  0.750000  0.246827  0.483621  1
  Tc  Tc23  1  0.750000  0.253173  0.983621  1
  Tc  Tc24  1  0.250000  0.396810  0.735618  1
  Tc  Tc25  1  0.250000  0.103190  0.235618  1
  Tc  Tc26  1  0.750000  0.603190  0.264382  1
  Tc  Tc27  1  0.750000  0.896810  0.764382  1
  O  O28  1  0.524397  0.157202  0.534100  1
  O  O29  1  0.975603  0.342798  0.034100  1
  O  O30  1  0.024397  0.842798  0.465900  1
  O  O31  1  0.475603  0.657202  0.965900  1
  O  O32  1  0.475603  0.842798  0.465900  1
  O  O33  1  0.024397  0.657202  0.965900  1
  O  O34  1  0.975603  0.157202  0.534100  1
  O  O35  1  0.524397  0.342798  0.034100  1
  O  O36  1  0.016753  0.312260  0.685178  1
  O  O37  1  0.483247  0.187740  0.185178  1
  O  O38  1  0.516753  0.687740  0.314822  1
  O  O39  1  0.983247  0.812260  0.814822  1
  O  O40  1  0.983247  0.687740  0.314822  1
  O  O41  1  0.516753  0.812260  0.814822  1
  O  O42  1  0.483247  0.312260  0.685178  1
  O  O43  1  0.016753  0.187740  0.185178  1
  O  O44  1  0.021971  0.482257  0.786014  1
  O  O45  1  0.478029  0.017743  0.286014  1
  O  O46  1  0.521971  0.517743  0.213986  1
  O  O47  1  0.978029  0.982257  0.713986  1
  O  O48  1  0.978029  0.517743  0.213986  1
  O  O49  1  0.521971  0.982257  0.713986  1
  O  O50  1  0.478029  0.482257  0.786014  1
  O  O51  1  0.021971  0.017743  0.286014  1
  O  O52  1  0.509664  0.170894  0.934641  1
  O  O53  1  0.990336  0.329106  0.434641  1
  O  O54  1  0.009664  0.829106  0.065359  1
  O  O55  1  0.490336  0.670894  0.565359  1
  O  O56  1  0.490336  0.829106  0.065359  1
  O  O57  1  0.009664  0.670894  0.565359  1
  O  O58  1  0.990336  0.170894  0.934641  1
  O  O59  1  0.509664  0.329106  0.434641  1
  O  O60  1  0.250000  0.881905  0.585310  1
  O  O61  1  0.250000  0.618095  0.085310  1
  O  O62  1  0.750000  0.118095  0.414690  1
  O  O63  1  0.750000  0.381905  0.914690  1
  O  O64  1  0.250000  0.259452  0.799529  1
  O  O65  1  0.250000  0.240548  0.299529  1
  O  O66  1  0.750000  0.740548  0.200471  1
  O  O67  1  0.750000  0.759452  0.700471  1
  O  O68  1  0.250000  0.893106  0.957766  1
  O  O69  1  0.250000  0.606894  0.457766  1
  O  O70  1  0.750000  0.106894  0.042234  1
  O  O71  1  0.750000  0.393106  0.542234  1
  O  O72  1  0.250000  0.977639  0.166819  1
  O  O73  1  0.250000  0.522361  0.666819  1
  O  O74  1  0.750000  0.022361  0.833181  1
  O  O75  1  0.750000  0.477639  0.333181  1
