# generated using pymatgen
data_Pr16DyEr3Pb16
_symmetry_space_group_name_H-M   'P 1'
_cell_length_a   8.40871138
_cell_length_b   8.52814739
_cell_length_c   16.25817500
_cell_angle_alpha   90.00000000
_cell_angle_beta   90.00000000
_cell_angle_gamma   89.87708592
_symmetry_Int_Tables_number   1
_chemical_formula_structural   Pr16DyEr3Pb16
_chemical_formula_sum   'Pr16 Dy1 Er3 Pb16'
_cell_volume   1165.88291430
_cell_formula_units_Z   1
loop_
 _symmetry_equiv_pos_site_id
 _symmetry_equiv_pos_as_xyz
  1  'x, y, z'
loop_
 _atom_site_type_symbol
 _atom_site_label
 _atom_site_symmetry_multiplicity
 _atom_site_fract_x
 _atom_site_fract_y
 _atom_site_fract_z
 _atom_site_occupancy
  Pr  Pr0  1  0.376543  0.842897  0.881113  1
  Pr  Pr1  1  0.876115  0.657942  0.619046  1
  Pr  Pr2  1  0.623754  0.157385  0.380835  1
  Pr  Pr3  1  0.123661  0.342475  0.119286  1
  Pr  Pr4  1  0.623754  0.157385  0.119165  1
  Pr  Pr5  1  0.123661  0.342475  0.380714  1
  Pr  Pr6  1  0.376543  0.842897  0.618887  1
  Pr  Pr7  1  0.876115  0.657942  0.880954  1
  Pr  Pr8  1  0.533131  0.321768  0.899670  1
  Pr  Pr9  1  0.033329  0.177943  0.600444  1
  Pr  Pr10  1  0.466983  0.678079  0.399405  1
  Pr  Pr11  1  0.966585  0.821770  0.100567  1
  Pr  Pr12  1  0.466983  0.678079  0.100595  1
  Pr  Pr13  1  0.966585  0.821770  0.399433  1
  Pr  Pr14  1  0.533131  0.321768  0.600330  1
  Pr  Pr15  1  0.033329  0.177943  0.899556  1
  Dy  Dy16  1  0.207922  0.503320  0.750000  1
  Er  Er17  1  0.708669  0.995998  0.750000  1
  Er  Er18  1  0.791324  0.496514  0.250000  1
  Er  Er19  1  0.291484  0.003835  0.250000  1
  Pb  Pb20  1  0.281286  0.030461  0.046850  1
  Pb  Pb21  1  0.781501  0.469404  0.453406  1
  Pb  Pb22  1  0.718835  0.969499  0.546530  1
  Pb  Pb23  1  0.218531  0.530726  0.953771  1
  Pb  Pb24  1  0.718835  0.969499  0.953470  1
  Pb  Pb25  1  0.218531  0.530726  0.546229  1
  Pb  Pb26  1  0.281286  0.030461  0.453150  1
  Pb  Pb27  1  0.781501  0.469404  0.046594  1
  Pb  Pb28  1  0.570585  0.625726  0.750000  1
  Pb  Pb29  1  0.070800  0.875087  0.750000  1
  Pb  Pb30  1  0.429620  0.374179  0.250000  1
  Pb  Pb31  1  0.929631  0.125097  0.250000  1
  Pb  Pb32  1  0.342428  0.152825  0.750000  1
  Pb  Pb33  1  0.841649  0.346233  0.750000  1
  Pb  Pb34  1  0.657521  0.846752  0.250000  1
  Pb  Pb35  1  0.157866  0.653735  0.250000  1
