# generated using pymatgen
data_Li30Si5SnSb2
_symmetry_space_group_name_H-M   'P 1'
_cell_length_a   9.37230301
_cell_length_b   9.35344184
_cell_length_c   9.39031860
_cell_angle_alpha   109.56684147
_cell_angle_beta   109.52973043
_cell_angle_gamma   109.38860906
_symmetry_Int_Tables_number   1
_chemical_formula_structural   Li30Si5SnSb2
_chemical_formula_sum   'Li30 Si5 Sn1 Sb2'
_cell_volume   633.12784206
_cell_formula_units_Z   1
loop_
 _symmetry_equiv_pos_site_id
 _symmetry_equiv_pos_as_xyz
  1  'x, y, z'
loop_
 _atom_site_type_symbol
 _atom_site_label
 _atom_site_symmetry_multiplicity
 _atom_site_fract_x
 _atom_site_fract_y
 _atom_site_fract_z
 _atom_site_occupancy
  Li  Li0  1  0.329603  0.797970  0.718020  1
  Li  Li1  1  0.116063  0.746658  0.868144  1
  Li  Li2  1  0.737635  0.349995  0.813608  1
  Li  Li3  1  0.623558  0.770879  0.586939  1
  Li  Li4  1  0.029464  0.913514  0.692866  1
  Li  Li5  1  0.083971  0.273532  0.112338  1
  Li  Li6  1  0.924878  0.696953  0.030100  1
  Li  Li7  1  0.266206  0.115166  0.087801  1
  Li  Li8  1  0.187678  0.413195  0.523825  1
  Li  Li9  1  0.778682  0.586945  0.614672  1
  Li  Li10  1  0.698352  0.027977  0.916922  1
  Li  Li11  1  0.528559  0.197173  0.412444  1
  Li  Li12  1  0.631647  0.381531  0.261215  1
  Li  Li13  1  0.460825  0.153118  0.878540  1
  Li  Li14  1  0.883612  0.124645  0.754380  1
  Li  Li15  1  0.976447  0.388866  0.662820  1
  Li  Li16  1  0.402849  0.525237  0.192342  1
  Li  Li17  1  0.110962  0.088445  0.274465  1
  Li  Li18  1  0.302436  0.832493  0.215519  1
  Li  Li19  1  0.761211  0.881692  0.128312  1
  Li  Li20  1  0.894124  0.471825  0.166137  1
  Li  Li21  1  0.589923  0.623101  0.771493  1
  Li  Li22  1  0.369661  0.650669  0.964722  1
  Li  Li23  1  0.816187  0.728994  0.352715  1
  Li  Li24  1  0.671186  0.975192  0.385401  1
  Li  Li25  1  0.148847  0.878311  0.468329  1
  Li  Li26  1  0.211499  0.304846  0.834922  1
  Li  Li27  1  0.365924  0.250676  0.616316  1
  Li  Li28  1  0.850890  0.234290  0.319950  1
  Li  Li29  1  0.243622  0.615977  0.372884  1
  Si  Si30  1  0.003421  0.084344  0.501613  1
  Si  Si31  1  0.998692  0.585062  0.499261  1
  Si  Si32  1  0.083672  0.497137  0.999645  1
  Si  Si33  1  0.415928  0.418121  0.418021  1
  Si  Si34  1  0.915343  0.913927  0.913939  1
  Sn  Sn35  1  0.501222  0.000350  0.085833  1
  Sb  Sb36  1  0.500031  0.999472  0.582738  1
  Sb  Sb37  1  0.585191  0.501719  0.000810  1
