# generated using pymatgen
data_Tb5Yb12Tm3Si16
_symmetry_space_group_name_H-M   'P 1'
_cell_length_a   7.39292524
_cell_length_b   7.80080206
_cell_length_c   15.10498283
_cell_angle_alpha   90.01790628
_cell_angle_beta   89.96642771
_cell_angle_gamma   90.05714867
_symmetry_Int_Tables_number   1
_chemical_formula_structural   Tb5Yb12Tm3Si16
_chemical_formula_sum   'Tb5 Yb12 Tm3 Si16'
_cell_volume   871.11500984
_cell_formula_units_Z   1
loop_
 _symmetry_equiv_pos_site_id
 _symmetry_equiv_pos_as_xyz
  1  'x, y, z'
loop_
 _atom_site_type_symbol
 _atom_site_label
 _atom_site_symmetry_multiplicity
 _atom_site_fract_x
 _atom_site_fract_y
 _atom_site_fract_z
 _atom_site_occupancy
  Tb  Tb0  1  0.314847  0.177217  0.120441  1
  Tb  Tb1  1  0.814645  0.323347  0.379051  1
  Tb  Tb2  1  0.185102  0.677271  0.879048  1
  Tb  Tb3  1  0.685688  0.822341  0.621759  1
  Tb  Tb4  1  0.313793  0.177087  0.378717  1
  Yb  Yb5  1  0.973695  0.815785  0.404227  1
  Yb  Yb6  1  0.474331  0.683781  0.095395  1
  Yb  Yb7  1  0.526164  0.316089  0.596226  1
  Yb  Yb8  1  0.025715  0.183772  0.904262  1
  Yb  Yb9  1  0.026927  0.184107  0.596616  1
  Yb  Yb10  1  0.527137  0.315936  0.903647  1
  Yb  Yb11  1  0.473203  0.684040  0.403746  1
  Yb  Yb12  1  0.972326  0.815536  0.095891  1
  Yb  Yb13  1  0.352684  0.020401  0.749822  1
  Yb  Yb14  1  0.852451  0.479441  0.750459  1
  Yb  Yb15  1  0.147425  0.520685  0.249852  1
  Yb  Yb16  1  0.647170  0.979375  0.249391  1
  Tm  Tm17  1  0.814287  0.323746  0.121170  1
  Tm  Tm18  1  0.185904  0.676313  0.621986  1
  Tm  Tm19  1  0.685964  0.823583  0.878484  1
  Si  Si20  1  0.860541  0.533940  0.539308  1
  Si  Si21  1  0.361832  0.966676  0.960910  1
  Si  Si22  1  0.640590  0.032369  0.461998  1
  Si  Si23  1  0.138330  0.466651  0.038639  1
  Si  Si24  1  0.144407  0.467624  0.462955  1
  Si  Si25  1  0.646628  0.033554  0.037585  1
  Si  Si26  1  0.355252  0.965290  0.538842  1
  Si  Si27  1  0.853236  0.533733  0.962216  1
  Si  Si28  1  0.977755  0.882480  0.750889  1
  Si  Si29  1  0.477447  0.617309  0.749604  1
  Si  Si30  1  0.523345  0.383974  0.248746  1
  Si  Si31  1  0.021372  0.116888  0.249411  1
  Si  Si32  1  0.248871  0.395061  0.749357  1
  Si  Si33  1  0.749274  0.104742  0.750946  1
  Si  Si34  1  0.249646  0.894429  0.249496  1
  Si  Si35  1  0.752015  0.605429  0.248910  1
