# generated using pymatgen
data_Tb11Nd9Pb16
_symmetry_space_group_name_H-M   'P 1'
_cell_length_a   8.31102040
_cell_length_b   8.38071927
_cell_length_c   15.87827200
_cell_angle_alpha   90.02099526
_cell_angle_beta   90.12378791
_cell_angle_gamma   90.16246773
_symmetry_Int_Tables_number   1
_chemical_formula_structural   Tb11Nd9Pb16
_chemical_formula_sum   'Tb11 Nd9 Pb16'
_cell_volume   1105.95151843
_cell_formula_units_Z   1
loop_
 _symmetry_equiv_pos_site_id
 _symmetry_equiv_pos_as_xyz
  1  'x, y, z'
loop_
 _atom_site_type_symbol
 _atom_site_label
 _atom_site_symmetry_multiplicity
 _atom_site_fract_x
 _atom_site_fract_y
 _atom_site_fract_z
 _atom_site_occupancy
  Tb  Tb0  1  0.631672  0.159323  0.622373  1
  Tb  Tb1  1  0.131723  0.341589  0.878628  1
  Tb  Tb2  1  0.368028  0.841706  0.121976  1
  Tb  Tb3  1  0.868833  0.657720  0.378041  1
  Tb  Tb4  1  0.370118  0.842187  0.376135  1
  Tb  Tb5  1  0.867972  0.658724  0.122140  1
  Tb  Tb6  1  0.631640  0.158200  0.879464  1
  Tb  Tb7  1  0.797548  0.495220  0.750790  1
  Tb  Tb8  1  0.299001  0.004302  0.750624  1
  Tb  Tb9  1  0.201913  0.505259  0.249048  1
  Tb  Tb10  1  0.702305  0.995646  0.250159  1
  Nd  Nd11  1  0.129314  0.339931  0.619576  1
  Nd  Nd12  1  0.472876  0.679285  0.598367  1
  Nd  Nd13  1  0.974729  0.821839  0.903411  1
  Nd  Nd14  1  0.525956  0.322327  0.097918  1
  Nd  Nd15  1  0.027538  0.176526  0.399973  1
  Nd  Nd16  1  0.525685  0.322743  0.401096  1
  Nd  Nd17  1  0.025776  0.177755  0.098184  1
  Nd  Nd18  1  0.475049  0.678671  0.902667  1
  Nd  Nd19  1  0.973328  0.822367  0.598233  1
  Pb  Pb20  1  0.709181  0.961274  0.456759  1
  Pb  Pb21  1  0.207594  0.538874  0.043184  1
  Pb  Pb22  1  0.292137  0.039176  0.957247  1
  Pb  Pb23  1  0.784399  0.464470  0.542703  1
  Pb  Pb24  1  0.294427  0.033339  0.542315  1
  Pb  Pb25  1  0.792418  0.461363  0.957200  1
  Pb  Pb26  1  0.708411  0.960605  0.043827  1
  Pb  Pb27  1  0.209608  0.541357  0.453839  1
  Pb  Pb28  1  0.436717  0.371796  0.751929  1
  Pb  Pb29  1  0.934305  0.124929  0.751762  1
  Pb  Pb30  1  0.564724  0.627574  0.249567  1
  Pb  Pb31  1  0.063691  0.871654  0.249874  1
  Pb  Pb32  1  0.663695  0.850055  0.750757  1
  Pb  Pb33  1  0.162954  0.651757  0.751291  1
  Pb  Pb34  1  0.337210  0.150706  0.249326  1
  Pb  Pb35  1  0.837526  0.349753  0.249618  1
