# generated using pymatgen
data_Tm20Ir4PtRh7
_symmetry_space_group_name_H-M   'P 1'
_cell_length_a   10.78111534
_cell_length_b   10.78079685
_cell_length_c   6.30148402
_cell_angle_alpha   90.00924934
_cell_angle_beta   90.01234596
_cell_angle_gamma   90.36265369
_symmetry_Int_Tables_number   1
_chemical_formula_structural   Tm20Ir4PtRh7
_chemical_formula_sum   'Tm20 Ir4 Pt1 Rh7'
_cell_volume   732.40057859
_cell_formula_units_Z   1
loop_
 _symmetry_equiv_pos_site_id
 _symmetry_equiv_pos_as_xyz
  1  'x, y, z'
loop_
 _atom_site_type_symbol
 _atom_site_label
 _atom_site_symmetry_multiplicity
 _atom_site_fract_x
 _atom_site_fract_y
 _atom_site_fract_z
 _atom_site_occupancy
  Tm  Tm0  1  0.290977  0.087894  0.377133  1
  Tm  Tm1  1  0.291034  0.910174  0.879031  1
  Tm  Tm2  1  0.708376  0.089960  0.878342  1
  Tm  Tm3  1  0.708350  0.914275  0.377684  1
  Tm  Tm4  1  0.585341  0.792487  0.874296  1
  Tm  Tm5  1  0.586722  0.210118  0.377896  1
  Tm  Tm6  1  0.408082  0.792026  0.379490  1
  Tm  Tm7  1  0.412647  0.209040  0.877254  1
  Tm  Tm8  1  0.209324  0.412855  0.622355  1
  Tm  Tm9  1  0.209832  0.588698  0.121783  1
  Tm  Tm10  1  0.791870  0.409925  0.120749  1
  Tm  Tm11  1  0.792790  0.585563  0.626092  1
  Tm  Tm12  1  0.916226  0.709262  0.122415  1
  Tm  Tm13  1  0.910537  0.291530  0.621383  1
  Tm  Tm14  1  0.090317  0.708921  0.621188  1
  Tm  Tm15  1  0.089909  0.291888  0.122727  1
  Tm  Tm16  1  0.000219  0.999893  0.500354  1
  Tm  Tm17  1  0.000193  0.000284  0.999660  1
  Tm  Tm18  1  0.498497  0.498093  0.999434  1
  Tm  Tm19  1  0.498650  0.498675  0.500570  1
  Ir  Ir20  1  0.153101  0.846480  0.249740  1
  Ir  Ir21  1  0.654821  0.346378  0.750056  1
  Ir  Ir22  1  0.345233  0.344661  0.250254  1
  Ir  Ir23  1  0.347082  0.654088  0.750020  1
  Pt  Pt24  1  0.655471  0.654947  0.249805  1
  Rh  Rh25  1  0.846458  0.153252  0.250150  1
  Rh  Rh26  1  0.844124  0.845205  0.750059  1
  Rh  Rh27  1  0.153725  0.154750  0.749980  1
  Rh  Rh28  1  0.500793  0.999647  0.124596  1
  Rh  Rh29  1  0.500957  0.999504  0.623968  1
  Rh  Rh30  1  0.999035  0.499925  0.876081  1
  Rh  Rh31  1  0.999307  0.499602  0.375453  1
