# generated using pymatgen
data_Dy2Lu2ReB12Rh
_symmetry_space_group_name_H-M   'P 1'
_cell_length_a   3.64442300
_cell_length_b   9.08227112
_cell_length_c   11.48418570
_cell_angle_alpha   90.34676445
_cell_angle_beta   90.00000000
_cell_angle_gamma   90.00000000
_symmetry_Int_Tables_number   1
_chemical_formula_structural   Dy2Lu2ReB12Rh
_chemical_formula_sum   'Dy4 Lu4 Re2 B24 Rh2'
_cell_volume   380.11542498
_cell_formula_units_Z   2
loop_
 _symmetry_equiv_pos_site_id
 _symmetry_equiv_pos_as_xyz
  1  'x, y, z'
loop_
 _atom_site_type_symbol
 _atom_site_label
 _atom_site_symmetry_multiplicity
 _atom_site_fract_x
 _atom_site_fract_y
 _atom_site_fract_z
 _atom_site_occupancy
  Dy  Dy0  1  0.000000  0.318031  0.411245  1
  Dy  Dy1  1  0.000000  0.681969  0.588755  1
  Dy  Dy2  1  0.000000  0.825130  0.083028  1
  Dy  Dy3  1  0.000000  0.174870  0.916972  1
  Lu  Lu4  1  0.000000  0.945829  0.372016  1
  Lu  Lu5  1  0.000000  0.054171  0.627984  1
  Lu  Lu6  1  0.000000  0.442471  0.126559  1
  Lu  Lu7  1  0.000000  0.557529  0.873441  1
  Re  Re8  1  0.000000  0.139491  0.180475  1
  Re  Re9  1  0.000000  0.860509  0.819525  1
  B  B10  1  0.500000  0.554966  0.433993  1
  B  B11  1  0.500000  0.445034  0.566007  1
  B  B12  1  0.500000  0.053374  0.067726  1
  B  B13  1  0.500000  0.946626  0.932274  1
  B  B14  1  0.500000  0.750608  0.420873  1
  B  B15  1  0.500000  0.249392  0.579127  1
  B  B16  1  0.500000  0.250160  0.081616  1
  B  B17  1  0.500000  0.749840  0.918384  1
  B  B18  1  0.500000  0.791905  0.265123  1
  B  B19  1  0.500000  0.208095  0.734877  1
  B  B20  1  0.500000  0.293675  0.235025  1
  B  B21  1  0.500000  0.706325  0.764975  1
  B  B22  1  0.500000  0.631365  0.182849  1
  B  B23  1  0.500000  0.368635  0.817151  1
  B  B24  1  0.500000  0.131103  0.315622  1
  B  B25  1  0.500000  0.868897  0.684378  1
  B  B26  1  0.500000  0.982452  0.213855  1
  B  B27  1  0.500000  0.017548  0.786145  1
  B  B28  1  0.500000  0.483328  0.287106  1
  B  B29  1  0.500000  0.516672  0.712894  1
  B  B30  1  0.500000  0.602676  0.028501  1
  B  B31  1  0.500000  0.397324  0.971499  1
  B  B32  1  0.500000  0.104027  0.472125  1
  B  B33  1  0.500000  0.895973  0.527875  1
  Rh  Rh34  1  0.000000  0.638738  0.320600  1
  Rh  Rh35  1  0.000000  0.361262  0.679400  1
