# generated using pymatgen
data_ErTa5(Be2Co5)2
_symmetry_space_group_name_H-M   'P 1'
_cell_length_a   8.69684010
_cell_length_b   8.69684010
_cell_length_c   3.23889700
_cell_angle_alpha   90.00000000
_cell_angle_beta   90.00000000
_cell_angle_gamma   90.01699734
_symmetry_Int_Tables_number   1
_chemical_formula_structural   ErTa5(Be2Co5)2
_chemical_formula_sum   'Er1 Ta5 Be4 Co10'
_cell_volume   244.97405337
_cell_formula_units_Z   1
loop_
 _symmetry_equiv_pos_site_id
 _symmetry_equiv_pos_as_xyz
  1  'x, y, z'
loop_
 _atom_site_type_symbol
 _atom_site_label
 _atom_site_symmetry_multiplicity
 _atom_site_fract_x
 _atom_site_fract_y
 _atom_site_fract_z
 _atom_site_occupancy
  Er  Er0  1  0.824145  0.324145  0.000000  1
  Ta  Ta1  1  0.497135  0.501876  0.000000  1
  Ta  Ta2  1  0.001876  0.997135  0.000000  1
  Ta  Ta3  1  0.175672  0.675672  0.000000  1
  Ta  Ta4  1  0.324756  0.174568  0.000000  1
  Ta  Ta5  1  0.674568  0.824756  0.000000  1
  Be  Be6  1  0.612050  0.112050  0.000000  1
  Be  Be7  1  0.381248  0.881248  0.000000  1
  Be  Be8  1  0.125845  0.384641  0.000000  1
  Be  Be9  1  0.884641  0.625845  0.000000  1
  Co  Co10  1  0.495433  0.995433  0.500000  1
  Co  Co11  1  0.011329  0.511329  0.500000  1
  Co  Co12  1  0.713561  0.585520  0.500000  1
  Co  Co13  1  0.286714  0.433381  0.500000  1
  Co  Co14  1  0.215614  0.926652  0.500000  1
  Co  Co15  1  0.777735  0.052124  0.500000  1
  Co  Co16  1  0.426652  0.715614  0.500000  1
  Co  Co17  1  0.552124  0.277735  0.500000  1
  Co  Co18  1  0.085520  0.213561  0.500000  1
  Co  Co19  1  0.933381  0.786714  0.500000  1
