# generated using pymatgen
data_Ca3NdPd4
_symmetry_space_group_name_H-M   'P 1'
_cell_length_a   4.44146100
_cell_length_b   5.83810126
_cell_length_c   7.43888510
_cell_angle_alpha   89.94701997
_cell_angle_beta   90.00000000
_cell_angle_gamma   90.00000000
_symmetry_Int_Tables_number   1
_chemical_formula_structural   Ca3NdPd4
_chemical_formula_sum   'Ca3 Nd1 Pd4'
_cell_volume   192.88796950
_cell_formula_units_Z   1
loop_
 _symmetry_equiv_pos_site_id
 _symmetry_equiv_pos_as_xyz
  1  'x, y, z'
loop_
 _atom_site_type_symbol
 _atom_site_label
 _atom_site_symmetry_multiplicity
 _atom_site_fract_x
 _atom_site_fract_y
 _atom_site_fract_z
 _atom_site_occupancy
  Ca  Ca0  1  0.250000  0.364710  0.678788  1
  Ca  Ca1  1  0.250000  0.137359  0.185487  1
  Ca  Ca2  1  0.750000  0.637307  0.318558  1
  Nd  Nd3  1  0.750000  0.865882  0.817233  1
  Pd  Pd4  1  0.250000  0.859936  0.544277  1
  Pd  Pd5  1  0.250000  0.643296  0.029104  1
  Pd  Pd6  1  0.750000  0.139584  0.465166  1
  Pd  Pd7  1  0.750000  0.351925  0.961387  1
