# generated using pymatgen
data_Nd2SiTc8P3
_symmetry_space_group_name_H-M   'P 1'
_cell_length_a   4.07512200
_cell_length_b   7.33444843
_cell_length_c   15.36119165
_cell_angle_alpha   90.11260842
_cell_angle_beta   90.00000000
_cell_angle_gamma   90.00000000
_symmetry_Int_Tables_number   1
_chemical_formula_structural   Nd2SiTc8P3
_chemical_formula_sum   'Nd4 Si2 Tc16 P6'
_cell_volume   459.12627063
_cell_formula_units_Z   2
loop_
 _symmetry_equiv_pos_site_id
 _symmetry_equiv_pos_as_xyz
  1  'x, y, z'
loop_
 _atom_site_type_symbol
 _atom_site_label
 _atom_site_symmetry_multiplicity
 _atom_site_fract_x
 _atom_site_fract_y
 _atom_site_fract_z
 _atom_site_occupancy
  Nd  Nd0  1  0.000000  0.577808  0.116220  1
  Nd  Nd1  1  0.000000  0.422192  0.883780  1
  Nd  Nd2  1  0.500000  0.079494  0.383894  1
  Nd  Nd3  1  0.500000  0.920506  0.616106  1
  Si  Si4  1  0.500000  0.796715  0.227822  1
  Si  Si5  1  0.500000  0.203285  0.772178  1
  Tc  Tc6  1  0.000000  0.140770  0.050655  1
  Tc  Tc7  1  0.000000  0.859230  0.949345  1
  Tc  Tc8  1  0.500000  0.639317  0.448607  1
  Tc  Tc9  1  0.500000  0.360683  0.551393  1
  Tc  Tc10  1  0.000000  0.734399  0.323256  1
  Tc  Tc11  1  0.000000  0.265601  0.676744  1
  Tc  Tc12  1  0.500000  0.232481  0.177683  1
  Tc  Tc13  1  0.500000  0.767519  0.822317  1
  Tc  Tc14  1  0.000000  0.421844  0.418407  1
  Tc  Tc15  1  0.000000  0.578156  0.581593  1
  Tc  Tc16  1  0.500000  0.925450  0.080749  1
  Tc  Tc17  1  0.500000  0.074550  0.919251  1
  Tc  Tc18  1  0.000000  0.999713  0.207875  1
  Tc  Tc19  1  0.000000  0.000287  0.792125  1
  Tc  Tc20  1  0.500000  0.491779  0.293828  1
  Tc  Tc21  1  0.500000  0.508221  0.706172  1
  P  P22  1  0.000000  0.815249  0.473064  1
  P  P23  1  0.000000  0.184751  0.526936  1
  P  P24  1  0.500000  0.314752  0.026594  1
  P  P25  1  0.500000  0.685248  0.973406  1
  P  P26  1  0.000000  0.296780  0.273227  1
  P  P27  1  0.000000  0.703220  0.726773  1
