# generated using pymatgen
data_Ho4CuRu7
_symmetry_space_group_name_H-M   'P 1'
_cell_length_a   5.23812434
_cell_length_b   5.28051710
_cell_length_c   8.85028800
_cell_angle_alpha   90.00000000
_cell_angle_beta   90.00000000
_cell_angle_gamma   119.77592881
_symmetry_Int_Tables_number   1
_chemical_formula_structural   Ho4CuRu7
_chemical_formula_sum   'Ho4 Cu1 Ru7'
_cell_volume   212.47921817
_cell_formula_units_Z   1
loop_
 _symmetry_equiv_pos_site_id
 _symmetry_equiv_pos_as_xyz
  1  'x, y, z'
loop_
 _atom_site_type_symbol
 _atom_site_label
 _atom_site_symmetry_multiplicity
 _atom_site_fract_x
 _atom_site_fract_y
 _atom_site_fract_z
 _atom_site_occupancy
  Ho  Ho0  1  0.664619  0.330004  0.565556  1
  Ho  Ho1  1  0.331446  0.662198  0.434299  1
  Ho  Ho2  1  0.331446  0.662198  0.065701  1
  Ho  Ho3  1  0.664619  0.330004  0.934444  1
  Cu  Cu4  1  0.168460  0.337371  0.750000  1
  Ru  Ru5  1  0.993260  0.985840  0.500186  1
  Ru  Ru6  1  0.993260  0.985840  0.999814  1
  Ru  Ru7  1  0.178783  0.838584  0.750000  1
  Ru  Ru8  1  0.659224  0.838287  0.750000  1
  Ru  Ru9  1  0.840506  0.678758  0.250000  1
  Ru  Ru10  1  0.824742  0.175593  0.250000  1
  Ru  Ru11  1  0.349634  0.175323  0.250000  1
