# generated using pymatgen
data_Yb4Cu13Pd
_symmetry_space_group_name_H-M   'P 1'
_cell_length_a   5.02885537
_cell_length_b   5.02885534
_cell_length_c   12.91313539
_cell_angle_alpha   78.77170274
_cell_angle_beta   78.77170259
_cell_angle_gamma   59.99999278
_symmetry_Int_Tables_number   1
_chemical_formula_structural   Yb4Cu13Pd
_chemical_formula_sum   'Yb4 Cu13 Pd1'
_cell_volume   275.57242317
_cell_formula_units_Z   1
loop_
 _symmetry_equiv_pos_site_id
 _symmetry_equiv_pos_as_xyz
  1  'x, y, z'
loop_
 _atom_site_type_symbol
 _atom_site_label
 _atom_site_symmetry_multiplicity
 _atom_site_fract_x
 _atom_site_fract_y
 _atom_site_fract_z
 _atom_site_occupancy
  Yb  Yb0  1  0.948920  0.948920  0.153241  1
  Yb  Yb1  1  0.051080  0.051080  0.846759  1
  Yb  Yb2  1  0.851691  0.851691  0.444925  1
  Yb  Yb3  1  0.148309  0.148309  0.555075  1
  Cu  Cu4  1  0.721069  0.721069  0.836794  1
  Cu  Cu5  1  0.278931  0.278931  0.163206  1
  Cu  Cu6  1  0.612638  0.612638  0.162086  1
  Cu  Cu7  1  0.387362  0.387362  0.837914  1
  Cu  Cu8  1  0.000000  0.500000  0.000000  1
  Cu  Cu9  1  0.500000  0.000000  0.000000  1
  Cu  Cu10  1  0.500000  0.500000  0.000000  1
  Cu  Cu11  1  0.390602  0.390602  0.325138  1
  Cu  Cu12  1  0.893658  0.390602  0.325138  1
  Cu  Cu13  1  0.390602  0.893658  0.325138  1
  Cu  Cu14  1  0.609398  0.609398  0.674862  1
  Cu  Cu15  1  0.106342  0.609398  0.674862  1
  Cu  Cu16  1  0.609398  0.106342  0.674862  1
  Pd  Pd17  1  0.500000  0.500000  0.500000  1
