# generated using pymatgen
data_Tb2Ho2ErRu2
_symmetry_space_group_name_H-M   'P 1'
_cell_length_a   6.34059554
_cell_length_b   7.27831617
_cell_length_c   8.46608518
_cell_angle_alpha   96.71240050
_cell_angle_beta   111.99157705
_cell_angle_gamma   89.99999380
_symmetry_Int_Tables_number   1
_chemical_formula_structural   Tb2Ho2ErRu2
_chemical_formula_sum   'Tb4 Ho4 Er2 Ru4'
_cell_volume   359.38252232
_cell_formula_units_Z   2
loop_
 _symmetry_equiv_pos_site_id
 _symmetry_equiv_pos_as_xyz
  1  'x, y, z'
loop_
 _atom_site_type_symbol
 _atom_site_label
 _atom_site_symmetry_multiplicity
 _atom_site_fract_x
 _atom_site_fract_y
 _atom_site_fract_z
 _atom_site_occupancy
  Tb  Tb0  1  0.791371  0.584210  0.813594  1
  Tb  Tb1  1  0.977777  0.915790  0.186406  1
  Tb  Tb2  1  0.208629  0.415790  0.186406  1
  Tb  Tb3  1  0.022223  0.084210  0.813594  1
  Ho  Ho4  1  0.206306  0.684843  0.565980  1
  Ho  Ho5  1  0.640328  0.815157  0.434020  1
  Ho  Ho6  1  0.793694  0.315157  0.434020  1
  Ho  Ho7  1  0.359672  0.184843  0.565980  1
  Er  Er8  1  0.420423  0.750000  0.000000  1
  Er  Er9  1  0.579577  0.250000  0.000000  1
  Ru  Ru10  1  0.602842  0.924121  0.779928  1
  Ru  Ru11  1  0.822912  0.575879  0.220072  1
  Ru  Ru12  1  0.397158  0.075879  0.220072  1
  Ru  Ru13  1  0.177088  0.424121  0.779928  1
