# generated using pymatgen
data_La17Pr3Si15Au
_symmetry_space_group_name_H-M   'P 1'
_cell_length_a   8.03561635
_cell_length_b   8.03755217
_cell_length_c   15.51516754
_cell_angle_alpha   89.94115565
_cell_angle_beta   89.55809259
_cell_angle_gamma   90.02385042
_symmetry_Int_Tables_number   1
_chemical_formula_structural   La17Pr3Si15Au
_chemical_formula_sum   'La17 Pr3 Si15 Au1'
_cell_volume   1002.04282528
_cell_formula_units_Z   1
loop_
 _symmetry_equiv_pos_site_id
 _symmetry_equiv_pos_as_xyz
  1  'x, y, z'
loop_
 _atom_site_type_symbol
 _atom_site_label
 _atom_site_symmetry_multiplicity
 _atom_site_fract_x
 _atom_site_fract_y
 _atom_site_fract_z
 _atom_site_occupancy
  La  La0  1  0.307074  0.306992  0.999598  1
  La  La1  1  0.192449  0.808330  0.249931  1
  La  La2  1  0.805376  0.186657  0.751591  1
  La  La3  1  0.693314  0.688092  0.498716  1
  La  La4  1  0.374666  0.011226  0.447949  1
  La  La5  1  0.492097  0.870684  0.699429  1
  La  La6  1  0.510488  0.122893  0.197882  1
  La  La7  1  0.877489  0.488701  0.300748  1
  La  La8  1  0.121697  0.517072  0.801753  1
  La  La9  1  0.626177  0.987774  0.950041  1
  La  La10  1  0.003233  0.380651  0.548916  1
  La  La11  1  0.989518  0.625334  0.052259  1
  La  La12  1  0.131918  0.985010  0.877694  1
  La  La13  1  0.517149  0.630591  0.126753  1
  La  La14  1  0.482059  0.371266  0.626973  1
  La  La15  1  0.628577  0.518601  0.874871  1
  La  La16  1  0.371951  0.483138  0.372570  1
  Pr  Pr17  1  0.872335  0.019160  0.375533  1
  Pr  Pr18  1  0.982295  0.127128  0.124636  1
  Pr  Pr19  1  0.014766  0.867423  0.621789  1
  Si  Si20  1  0.332085  0.697285  0.952116  1
  Si  Si21  1  0.664692  0.300777  0.451377  1
  Si  Si22  1  0.699959  0.333952  0.049309  1
  Si  Si23  1  0.302883  0.669893  0.547440  1
  Si  Si24  1  0.804971  0.833299  0.202938  1
  Si  Si25  1  0.166644  0.197368  0.298168  1
  Si  Si26  1  0.835261  0.802485  0.797538  1
  Si  Si27  1  0.288034  0.921531  0.059642  1
  Si  Si28  1  0.581224  0.789564  0.309253  1
  Si  Si29  1  0.432118  0.208787  0.813530  1
  Si  Si30  1  0.788091  0.580274  0.691164  1
  Si  Si31  1  0.210246  0.419980  0.190796  1
  Si  Si32  1  0.708023  0.077186  0.557809  1
  Si  Si33  1  0.920679  0.289175  0.942214  1
  Si  Si34  1  0.079415  0.713744  0.440840  1
  Au  Au35  1  0.191049  0.167981  0.696233  1
