# generated using pymatgen
data_Ba6Tm2Mn2O13
_symmetry_space_group_name_H-M   'P 1'
_cell_length_a   11.55954500
_cell_length_b   11.55954563
_cell_length_c   5.81769700
_cell_angle_alpha   90.00000000
_cell_angle_beta   90.00000000
_cell_angle_gamma   150.79584914
_symmetry_Int_Tables_number   1
_chemical_formula_structural   Ba6Tm2Mn2O13
_chemical_formula_sum   'Ba6 Tm2 Mn2 O13'
_cell_volume   379.30083745
_cell_formula_units_Z   1
loop_
 _symmetry_equiv_pos_site_id
 _symmetry_equiv_pos_as_xyz
  1  'x, y, z'
loop_
 _atom_site_type_symbol
 _atom_site_label
 _atom_site_symmetry_multiplicity
 _atom_site_fract_x
 _atom_site_fract_y
 _atom_site_fract_z
 _atom_site_occupancy
  Ba  Ba0  1  0.500000  0.500000  0.000000  1
  Ba  Ba1  1  0.000000  0.000000  0.500000  1
  Ba  Ba2  1  0.182328  0.817672  0.500000  1
  Ba  Ba3  1  0.684351  0.315649  0.000000  1
  Ba  Ba4  1  0.315649  0.684351  0.000000  1
  Ba  Ba5  1  0.817672  0.182328  0.500000  1
  Tm  Tm6  1  0.903460  0.096540  0.000000  1
  Tm  Tm7  1  0.096540  0.903460  0.000000  1
  Mn  Mn8  1  0.392881  0.607119  0.500000  1
  Mn  Mn9  1  0.607119  0.392881  0.500000  1
  O  O10  1  0.636143  0.822432  0.727776  1
  O  O11  1  0.177568  0.363857  0.272224  1
  O  O12  1  0.822432  0.636143  0.727776  1
  O  O13  1  0.363857  0.177568  0.272224  1
  O  O14  1  0.177568  0.363857  0.727776  1
  O  O15  1  0.636143  0.822432  0.272224  1
  O  O16  1  0.363857  0.177568  0.727776  1
  O  O17  1  0.822432  0.636143  0.272224  1
  O  O18  1  0.310074  0.689926  0.500000  1
  O  O19  1  0.803879  0.196121  0.000000  1
  O  O20  1  0.196121  0.803879  0.000000  1
  O  O21  1  0.689926  0.310074  0.500000  1
  O  O22  1  0.000000  0.000000  0.000000  1
