# generated using pymatgen
data_Dy9Er(RuPb3)2
_symmetry_space_group_name_H-M   'P 1'
_cell_length_a   9.32172951
_cell_length_b   9.32172857
_cell_length_c   6.56965300
_cell_angle_alpha   90.00000000
_cell_angle_beta   90.00000000
_cell_angle_gamma   120.03777391
_symmetry_Int_Tables_number   1
_chemical_formula_structural   Dy9Er(RuPb3)2
_chemical_formula_sum   'Dy9 Er1 Ru2 Pb6'
_cell_volume   494.19753986
_cell_formula_units_Z   1
loop_
 _symmetry_equiv_pos_site_id
 _symmetry_equiv_pos_as_xyz
  1  'x, y, z'
loop_
 _atom_site_type_symbol
 _atom_site_label
 _atom_site_symmetry_multiplicity
 _atom_site_fract_x
 _atom_site_fract_y
 _atom_site_fract_z
 _atom_site_occupancy
  Dy  Dy0  1  0.999946  0.763616  0.750000  1
  Dy  Dy1  1  0.236674  0.000011  0.250000  1
  Dy  Dy2  1  0.763616  0.999946  0.750000  1
  Dy  Dy3  1  0.333196  0.666469  0.500199  1
  Dy  Dy4  1  0.000011  0.236674  0.250000  1
  Dy  Dy5  1  0.666469  0.333196  0.500199  1
  Dy  Dy6  1  0.763668  0.763668  0.250000  1
  Dy  Dy7  1  0.333196  0.666469  0.999801  1
  Dy  Dy8  1  0.666469  0.333196  0.999801  1
  Er  Er9  1  0.236165  0.236165  0.750000  1
  Ru  Ru10  1  0.000681  0.000681  0.999481  1
  Ru  Ru11  1  0.000681  0.000681  0.500519  1
  Pb  Pb12  1  0.402687  0.402687  0.250000  1
  Pb  Pb13  1  0.000199  0.402344  0.750000  1
  Pb  Pb14  1  0.000115  0.597445  0.250000  1
  Pb  Pb15  1  0.597445  0.000115  0.250000  1
  Pb  Pb16  1  0.402344  0.000199  0.750000  1
  Pb  Pb17  1  0.596441  0.596441  0.750000  1
