# generated using pymatgen
data_Li8Sm8CdPb7
_symmetry_space_group_name_H-M   'P 1'
_cell_length_a   9.62380300
_cell_length_b   9.62380422
_cell_length_c   7.54459000
_cell_angle_alpha   90.00000000
_cell_angle_beta   90.00000000
_cell_angle_gamma   119.99999924
_symmetry_Int_Tables_number   1
_chemical_formula_structural   Li8Sm8CdPb7
_chemical_formula_sum   'Li8 Sm8 Cd1 Pb7'
_cell_volume   605.14546431
_cell_formula_units_Z   1
loop_
 _symmetry_equiv_pos_site_id
 _symmetry_equiv_pos_as_xyz
  1  'x, y, z'
loop_
 _atom_site_type_symbol
 _atom_site_label
 _atom_site_symmetry_multiplicity
 _atom_site_fract_x
 _atom_site_fract_y
 _atom_site_fract_z
 _atom_site_occupancy
  Li  Li0  1  0.833858  0.166142  0.712395  1
  Li  Li1  1  0.833858  0.667719  0.712395  1
  Li  Li2  1  0.332281  0.166142  0.712395  1
  Li  Li3  1  0.167319  0.832681  0.210751  1
  Li  Li4  1  0.167319  0.334637  0.210751  1
  Li  Li5  1  0.665363  0.832681  0.210751  1
  Li  Li6  1  0.666667  0.333333  0.323576  1
  Li  Li7  1  0.333333  0.666667  0.817591  1
  Sm  Sm8  1  0.487902  0.512098  0.504950  1
  Sm  Sm9  1  0.487902  0.975803  0.504950  1
  Sm  Sm10  1  0.024197  0.512098  0.504950  1
  Sm  Sm11  1  0.514414  0.485586  0.005774  1
  Sm  Sm12  1  0.514414  0.028828  0.005774  1
  Sm  Sm13  1  0.971172  0.485586  0.005774  1
  Sm  Sm14  1  0.000000  0.000000  0.498755  1
  Sm  Sm15  1  0.000000  0.000000  0.998284  1
  Cd  Cd16  1  0.333333  0.666667  0.226924  1
  Pb  Pb17  1  0.833382  0.166618  0.275528  1
  Pb  Pb18  1  0.833382  0.666762  0.275528  1
  Pb  Pb19  1  0.333238  0.166618  0.275528  1
  Pb  Pb20  1  0.168124  0.831876  0.777674  1
  Pb  Pb21  1  0.168124  0.336248  0.777674  1
  Pb  Pb22  1  0.663752  0.831876  0.777674  1
  Pb  Pb23  1  0.666667  0.333333  0.731671  1
