# generated using pymatgen
data_YTm3Ga18(PtRh2)2
_symmetry_space_group_name_H-M   'P 1'
_cell_length_a   7.59974401
_cell_length_b   7.60000377
_cell_length_c   9.46964700
_cell_angle_alpha   90.00000000
_cell_angle_beta   90.00000000
_cell_angle_gamma   119.98827922
_symmetry_Int_Tables_number   1
_chemical_formula_structural   YTm3Ga18(PtRh2)2
_chemical_formula_sum   'Y1 Tm3 Ga18 Pt2 Rh4'
_cell_volume   473.72736643
_cell_formula_units_Z   1
loop_
 _symmetry_equiv_pos_site_id
 _symmetry_equiv_pos_as_xyz
  1  'x, y, z'
loop_
 _atom_site_type_symbol
 _atom_site_label
 _atom_site_symmetry_multiplicity
 _atom_site_fract_x
 _atom_site_fract_y
 _atom_site_fract_z
 _atom_site_occupancy
  Y  Y0  1  0.996418  0.671170  0.250000  1
  Tm  Tm1  1  0.003390  0.328982  0.750000  1
  Tm  Tm2  1  0.670938  0.996436  0.250000  1
  Tm  Tm3  1  0.329147  0.003495  0.750000  1
  Ga  Ga4  1  0.133311  0.133901  0.250000  1
  Ga  Ga5  1  0.866675  0.866770  0.750000  1
  Ga  Ga6  1  0.997585  0.337400  0.081101  1
  Ga  Ga7  1  0.002351  0.661507  0.917909  1
  Ga  Ga8  1  0.002351  0.661507  0.582091  1
  Ga  Ga9  1  0.339516  0.998615  0.418865  1
  Ga  Ga10  1  0.997585  0.337400  0.418899  1
  Ga  Ga11  1  0.661537  0.002306  0.581406  1
  Ga  Ga12  1  0.661537  0.002306  0.918594  1
  Ga  Ga13  1  0.339516  0.998615  0.081135  1
  Ga  Ga14  1  0.336333  0.336312  0.569224  1
  Ga  Ga15  1  0.662726  0.663667  0.431270  1
  Ga  Ga16  1  0.662726  0.663667  0.068730  1
  Ga  Ga17  1  0.336333  0.336312  0.930776  1
  Ga  Ga18  1  0.337003  0.548725  0.250000  1
  Ga  Ga19  1  0.663721  0.451324  0.750000  1
  Ga  Ga20  1  0.547811  0.335583  0.250000  1
  Ga  Ga21  1  0.451402  0.663806  0.750000  1
  Pt  Pt22  1  0.000138  0.000301  0.999553  1
  Pt  Pt23  1  0.000138  0.000301  0.500447  1
  Rh  Rh24  1  0.670950  0.328700  0.999565  1
  Rh  Rh25  1  0.328956  0.671096  0.999571  1
  Rh  Rh26  1  0.328956  0.671096  0.500429  1
  Rh  Rh27  1  0.670950  0.328700  0.500435  1
