# generated using pymatgen
data_YbThSi3Ag
_symmetry_space_group_name_H-M   'P 1'
_cell_length_a   4.08125328
_cell_length_b   4.26229379
_cell_length_c   7.90541568
_cell_angle_alpha   74.36070089
_cell_angle_beta   75.04084816
_cell_angle_gamma   90.00000882
_symmetry_Int_Tables_number   1
_chemical_formula_structural   YbThSi3Ag
_chemical_formula_sum   'Yb1 Th1 Si3 Ag1'
_cell_volume   127.58109070
_cell_formula_units_Z   1
loop_
 _symmetry_equiv_pos_site_id
 _symmetry_equiv_pos_as_xyz
  1  'x, y, z'
loop_
 _atom_site_type_symbol
 _atom_site_label
 _atom_site_symmetry_multiplicity
 _atom_site_fract_x
 _atom_site_fract_y
 _atom_site_fract_z
 _atom_site_occupancy
  Yb  Yb0  1  0.130976  0.380976  0.738049  1
  Th  Th1  1  0.866857  0.616857  0.266286  1
  Si  Si2  1  0.294623  0.044623  0.410756  1
  Si  Si3  1  0.452956  0.202956  0.094087  1
  Si  Si4  1  0.711292  0.961292  0.577413  1
  Ag  Ag5  1  0.543296  0.793296  0.913410  1
