# generated using pymatgen
data_TmLu5Co4Si5Ge
_symmetry_space_group_name_H-M   'P 1'
_cell_length_a   5.49342183
_cell_length_b   5.49342206
_cell_length_c   13.38732100
_cell_angle_alpha   90.00000000
_cell_angle_beta   90.00000000
_cell_angle_gamma   136.74993919
_symmetry_Int_Tables_number   1
_chemical_formula_structural   TmLu5Co4Si5Ge
_chemical_formula_sum   'Tm1 Lu5 Co4 Si5 Ge1'
_cell_volume   276.81311106
_cell_formula_units_Z   1
loop_
 _symmetry_equiv_pos_site_id
 _symmetry_equiv_pos_as_xyz
  1  'x, y, z'
loop_
 _atom_site_type_symbol
 _atom_site_label
 _atom_site_symmetry_multiplicity
 _atom_site_fract_x
 _atom_site_fract_y
 _atom_site_fract_z
 _atom_site_occupancy
  Tm  Tm0  1  0.640166  0.359834  0.250000  1
  Lu  Lu1  1  0.360817  0.639183  0.750000  1
  Lu  Lu2  1  0.918850  0.081150  0.109421  1
  Lu  Lu3  1  0.081044  0.918956  0.887105  1
  Lu  Lu4  1  0.081044  0.918956  0.612895  1
  Lu  Lu5  1  0.918850  0.081150  0.390579  1
  Co  Co6  1  0.786183  0.213817  0.583180  1
  Co  Co7  1  0.211537  0.788463  0.422095  1
  Co  Co8  1  0.211537  0.788463  0.077905  1
  Co  Co9  1  0.786183  0.213817  0.916820  1
  Si  Si10  1  0.666977  0.333023  0.750000  1
  Si  Si11  1  0.615821  0.384179  0.038644  1
  Si  Si12  1  0.382711  0.617289  0.959041  1
  Si  Si13  1  0.382711  0.617289  0.540959  1
  Si  Si14  1  0.615821  0.384179  0.461356  1
  Ge  Ge15  1  0.339747  0.660253  0.250000  1
