# generated using pymatgen
data_Li8Pr2Nd6Sn5Bi3
_symmetry_space_group_name_H-M   'P 1'
_cell_length_a   9.65057704
_cell_length_b   9.64911053
_cell_length_c   7.62418001
_cell_angle_alpha   90.00000316
_cell_angle_beta   90.00453481
_cell_angle_gamma   119.99497542
_symmetry_Int_Tables_number   1
_chemical_formula_structural   Li8Pr2Nd6Sn5Bi3
_chemical_formula_sum   'Li8 Pr2 Nd6 Sn5 Bi3'
_cell_volume   614.87427230
_cell_formula_units_Z   1
loop_
 _symmetry_equiv_pos_site_id
 _symmetry_equiv_pos_as_xyz
  1  'x, y, z'
loop_
 _atom_site_type_symbol
 _atom_site_label
 _atom_site_symmetry_multiplicity
 _atom_site_fract_x
 _atom_site_fract_y
 _atom_site_fract_z
 _atom_site_occupancy
  Li  Li0  1  0.166842  0.334213  0.279675  1
  Li  Li1  1  0.166842  0.832629  0.279675  1
  Li  Li2  1  0.665845  0.832922  0.279512  1
  Li  Li3  1  0.831850  0.663348  0.788156  1
  Li  Li4  1  0.831850  0.168502  0.788156  1
  Li  Li5  1  0.336775  0.168387  0.788292  1
  Li  Li6  1  0.333050  0.666526  0.667176  1
  Li  Li7  1  0.666740  0.333369  0.174350  1
  Pr  Pr8  1  0.513695  0.027099  0.489952  1
  Pr  Pr9  1  0.513695  0.486597  0.489952  1
  Nd  Nd10  1  0.972711  0.486356  0.489536  1
  Nd  Nd11  1  0.490655  0.981283  0.999663  1
  Nd  Nd12  1  0.490655  0.509371  0.999663  1
  Nd  Nd13  1  0.018514  0.509256  0.999822  1
  Nd  Nd14  1  0.999874  0.999937  0.492859  1
  Nd  Nd15  1  0.999957  0.999979  0.006731  1
  Sn  Sn16  1  0.834192  0.667189  0.231746  1
  Sn  Sn17  1  0.834192  0.167001  0.231746  1
  Sn  Sn18  1  0.332587  0.166293  0.230837  1
  Sn  Sn19  1  0.332853  0.666427  0.262860  1
  Sn  Sn20  1  0.667539  0.333769  0.765638  1
  Bi  Bi21  1  0.165874  0.333120  0.735085  1
  Bi  Bi22  1  0.165874  0.832755  0.735085  1
  Bi  Bi23  1  0.667341  0.833671  0.735811  1
