# generated using pymatgen
data_Sc20Cd6RuRh
_symmetry_space_group_name_H-M   'P 1'
_cell_length_a   9.01327500
_cell_length_b   9.01327464
_cell_length_c   9.17058000
_cell_angle_alpha   90.00000000
_cell_angle_beta   90.00000000
_cell_angle_gamma   119.99999763
_symmetry_Int_Tables_number   1
_chemical_formula_structural   Sc20Cd6RuRh
_chemical_formula_sum   'Sc20 Cd6 Ru1 Rh1'
_cell_volume   645.19749480
_cell_formula_units_Z   1
loop_
 _symmetry_equiv_pos_site_id
 _symmetry_equiv_pos_as_xyz
  1  'x, y, z'
loop_
 _atom_site_type_symbol
 _atom_site_label
 _atom_site_symmetry_multiplicity
 _atom_site_fract_x
 _atom_site_fract_y
 _atom_site_fract_z
 _atom_site_occupancy
  Sc  Sc0  1  0.000000  0.000000  0.500002  1
  Sc  Sc1  1  0.000000  0.000000  0.999998  1
  Sc  Sc2  1  0.209287  0.790713  0.442245  1
  Sc  Sc3  1  0.209287  0.418574  0.442245  1
  Sc  Sc4  1  0.581426  0.790713  0.442245  1
  Sc  Sc5  1  0.789857  0.210143  0.558487  1
  Sc  Sc6  1  0.789857  0.579711  0.558487  1
  Sc  Sc7  1  0.420289  0.210143  0.558487  1
  Sc  Sc8  1  0.789857  0.210143  0.941513  1
  Sc  Sc9  1  0.789857  0.579711  0.941513  1
  Sc  Sc10  1  0.420289  0.210143  0.941513  1
  Sc  Sc11  1  0.209287  0.790713  0.057755  1
  Sc  Sc12  1  0.209287  0.418574  0.057755  1
  Sc  Sc13  1  0.581426  0.790713  0.057755  1
  Sc  Sc14  1  0.541685  0.458315  0.250000  1
  Sc  Sc15  1  0.541685  0.083371  0.250000  1
  Sc  Sc16  1  0.916629  0.458315  0.250000  1
  Sc  Sc17  1  0.459311  0.540689  0.750000  1
  Sc  Sc18  1  0.459311  0.918623  0.750000  1
  Sc  Sc19  1  0.081377  0.540689  0.750000  1
  Cd  Cd20  1  0.884489  0.115511  0.250000  1
  Cd  Cd21  1  0.884489  0.768980  0.250000  1
  Cd  Cd22  1  0.231020  0.115511  0.250000  1
  Cd  Cd23  1  0.115630  0.884370  0.750000  1
  Cd  Cd24  1  0.115630  0.231259  0.750000  1
  Cd  Cd25  1  0.768741  0.884370  0.750000  1
  Ru  Ru26  1  0.666667  0.333333  0.750000  1
  Rh  Rh27  1  0.333333  0.666667  0.250000  1
