# generated using pymatgen
data_Tb2Y2Co19P12Os
_symmetry_space_group_name_H-M   'P 1'
_cell_length_a   3.67179700
_cell_length_b   10.31990801
_cell_length_c   11.75550106
_cell_angle_alpha   89.88486928
_cell_angle_beta   90.00000000
_cell_angle_gamma   90.00000000
_symmetry_Int_Tables_number   1
_chemical_formula_structural   Tb2Y2Co19P12Os
_chemical_formula_sum   'Tb2 Y2 Co19 P12 Os1'
_cell_volume   445.44568574
_cell_formula_units_Z   1
loop_
 _symmetry_equiv_pos_site_id
 _symmetry_equiv_pos_as_xyz
  1  'x, y, z'
loop_
 _atom_site_type_symbol
 _atom_site_label
 _atom_site_symmetry_multiplicity
 _atom_site_fract_x
 _atom_site_fract_y
 _atom_site_fract_z
 _atom_site_occupancy
  Tb  Tb0  1  0.250000  0.916107  0.202202  1
  Tb  Tb1  1  0.250000  0.581812  0.702270  1
  Y  Y2  1  0.750000  0.083577  0.797513  1
  Y  Y3  1  0.750000  0.414341  0.295599  1
  Co  Co4  1  0.750000  0.215678  0.509318  1
  Co  Co5  1  0.750000  0.283731  0.008575  1
  Co  Co6  1  0.250000  0.716741  0.991669  1
  Co  Co7  1  0.250000  0.093492  0.988577  1
  Co  Co8  1  0.750000  0.906691  0.011217  1
  Co  Co9  1  0.750000  0.592119  0.510274  1
  Co  Co10  1  0.250000  0.406516  0.487907  1
  Co  Co11  1  0.250000  0.279423  0.677046  1
  Co  Co12  1  0.750000  0.721344  0.323455  1
  Co  Co13  1  0.750000  0.777540  0.823614  1
  Co  Co14  1  0.250000  0.221602  0.175958  1
  Co  Co15  1  0.250000  0.616719  0.198449  1
  Co  Co16  1  0.750000  0.383449  0.802050  1
  Co  Co17  1  0.750000  0.117273  0.300922  1
  Co  Co18  1  0.250000  0.886186  0.701266  1
  Co  Co19  1  0.250000  0.035464  0.433026  1
  Co  Co20  1  0.750000  0.966447  0.568068  1
  Co  Co21  1  0.750000  0.531957  0.068476  1
  Co  Co22  1  0.250000  0.467898  0.932295  1
  P  P23  1  0.250000  0.083201  0.612845  1
  P  P24  1  0.750000  0.921231  0.386098  1
  P  P25  1  0.750000  0.580814  0.888658  1
  P  P26  1  0.250000  0.418329  0.111595  1
  P  P27  1  0.250000  0.229822  0.369124  1
  P  P28  1  0.750000  0.771150  0.633471  1
  P  P29  1  0.750000  0.728188  0.129073  1
  P  P30  1  0.250000  0.271601  0.870294  1
  P  P31  1  0.250000  0.898690  0.893018  1
  P  P32  1  0.750000  0.102317  0.108085  1
  P  P33  1  0.750000  0.396893  0.608883  1
  P  P34  1  0.250000  0.595373  0.388761  1
  Os  Os35  1  0.250000  0.786289  0.490349  1
