# generated using pymatgen
data_Tb13Tm3InAg3Rh4
_symmetry_space_group_name_H-M   'P 1'
_cell_length_a   9.53312801
_cell_length_b   9.57875873
_cell_length_c   9.57450938
_cell_angle_alpha   60.23190090
_cell_angle_beta   60.01713436
_cell_angle_gamma   59.94263198
_symmetry_Int_Tables_number   1
_chemical_formula_structural   Tb13Tm3InAg3Rh4
_chemical_formula_sum   'Tb13 Tm3 In1 Ag3 Rh4'
_cell_volume   619.11111788
_cell_formula_units_Z   1
loop_
 _symmetry_equiv_pos_site_id
 _symmetry_equiv_pos_as_xyz
  1  'x, y, z'
loop_
 _atom_site_type_symbol
 _atom_site_label
 _atom_site_symmetry_multiplicity
 _atom_site_fract_x
 _atom_site_fract_y
 _atom_site_fract_z
 _atom_site_occupancy
  Tb  Tb0  1  0.647795  0.054673  0.649457  1
  Tb  Tb1  1  0.066514  0.061662  0.436909  1
  Tb  Tb2  1  0.439672  0.435186  0.061306  1
  Tb  Tb3  1  0.649431  0.647857  0.648539  1
  Tb  Tb4  1  0.811150  0.189434  0.188846  1
  Tb  Tb5  1  0.186566  0.814128  0.812853  1
  Tb  Tb6  1  0.055265  0.646690  0.648169  1
  Tb  Tb7  1  0.439166  0.062781  0.061685  1
  Tb  Tb8  1  0.439325  0.061362  0.436347  1
  Tb  Tb9  1  0.067576  0.436007  0.060872  1
  Tb  Tb10  1  0.649291  0.649012  0.053306  1
  Tb  Tb11  1  0.187114  0.814105  0.188556  1
  Tb  Tb12  1  0.068747  0.434574  0.435673  1
  Tm  Tm13  1  0.811892  0.810055  0.189187  1
  Tm  Tm14  1  0.812619  0.188968  0.810236  1
  Tm  Tm15  1  0.186792  0.188573  0.813448  1
  In  In16  1  0.736771  0.421068  0.420788  1
  Ag  Ag17  1  0.416498  0.417768  0.418089  1
  Ag  Ag18  1  0.416119  0.417059  0.748142  1
  Ag  Ag19  1  0.416380  0.747965  0.417329  1
  Rh  Rh20  1  0.857558  0.426116  0.855957  1
  Rh  Rh21  1  0.855500  0.859573  0.859690  1
  Rh  Rh22  1  0.855009  0.856198  0.427690  1
  Rh  Rh23  1  0.427254  0.859186  0.856924  1
