# generated using pymatgen
data_SmUPd6
_symmetry_space_group_name_H-M   'P 1'
_cell_length_a   5.85693100
_cell_length_b   5.85693072
_cell_length_c   9.66214500
_cell_angle_alpha   90.00000000
_cell_angle_beta   90.00000000
_cell_angle_gamma   119.99999593
_symmetry_Int_Tables_number   1
_chemical_formula_structural   SmUPd6
_chemical_formula_sum   'Sm2 U2 Pd12'
_cell_volume   287.04130430
_cell_formula_units_Z   2
loop_
 _symmetry_equiv_pos_site_id
 _symmetry_equiv_pos_as_xyz
  1  'x, y, z'
loop_
 _atom_site_type_symbol
 _atom_site_label
 _atom_site_symmetry_multiplicity
 _atom_site_fract_x
 _atom_site_fract_y
 _atom_site_fract_z
 _atom_site_occupancy
  Sm  Sm0  1  0.000000  0.000000  0.500000  1
  Sm  Sm1  1  0.000000  0.000000  0.000000  1
  U  U2  1  0.333333  0.666667  0.750000  1
  U  U3  1  0.666667  0.333333  0.250000  1
  Pd  Pd4  1  0.500000  0.500000  0.500000  1
  Pd  Pd5  1  0.500000  0.000000  0.500000  1
  Pd  Pd6  1  0.000000  0.500000  0.500000  1
  Pd  Pd7  1  0.500000  0.500000  0.000000  1
  Pd  Pd8  1  0.500000  0.000000  0.000000  1
  Pd  Pd9  1  0.000000  0.500000  0.000000  1
  Pd  Pd10  1  0.174626  0.825374  0.250000  1
  Pd  Pd11  1  0.174626  0.349253  0.250000  1
  Pd  Pd12  1  0.650747  0.825374  0.250000  1
  Pd  Pd13  1  0.825374  0.174626  0.750000  1
  Pd  Pd14  1  0.825374  0.650747  0.750000  1
  Pd  Pd15  1  0.349253  0.174626  0.750000  1
