# generated using pymatgen
data_Eu5Mo2N7
_symmetry_space_group_name_H-M   'P 1'
_cell_length_a   6.33804332
_cell_length_b   9.13755428
_cell_length_c   9.19618571
_cell_angle_alpha   64.76759713
_cell_angle_beta   82.94736232
_cell_angle_gamma   89.60432838
_symmetry_Int_Tables_number   1
_chemical_formula_structural   Eu5Mo2N7
_chemical_formula_sum   'Eu10 Mo4 N14'
_cell_volume   477.51547163
_cell_formula_units_Z   2
loop_
 _symmetry_equiv_pos_site_id
 _symmetry_equiv_pos_as_xyz
  1  'x, y, z'
loop_
 _atom_site_type_symbol
 _atom_site_label
 _atom_site_symmetry_multiplicity
 _atom_site_fract_x
 _atom_site_fract_y
 _atom_site_fract_z
 _atom_site_occupancy
  Eu  Eu0  1  0.403394  0.791611  0.077348  1
  Eu  Eu1  1  0.703926  0.417650  0.144248  1
  Eu  Eu2  1  0.892125  0.849494  0.241808  1
  Eu  Eu3  1  0.153084  0.404833  0.324180  1
  Eu  Eu4  1  0.260700  0.985365  0.445350  1
  Eu  Eu5  1  0.739300  0.014635  0.554651  1
  Eu  Eu6  1  0.846917  0.595167  0.675820  1
  Eu  Eu7  1  0.107874  0.150506  0.758192  1
  Eu  Eu8  1  0.296075  0.582350  0.855752  1
  Eu  Eu9  1  0.596605  0.208389  0.922652  1
  Mo  Mo10  1  0.119276  0.216141  0.082503  1
  Mo  Mo11  1  0.417484  0.645469  0.474807  1
  Mo  Mo12  1  0.582517  0.354531  0.525194  1
  Mo  Mo13  1  0.880725  0.783859  0.917497  1
  N  N14  1  0.235035  0.049560  0.031788  1
  N  N15  1  0.036680  0.645289  0.084338  1
  N  N16  1  0.362077  0.329407  0.096140  1
  N  N17  1  0.950249  0.132362  0.287705  1
  N  N18  1  0.526727  0.551166  0.319062  1
  N  N19  1  0.141584  0.710256  0.444560  1
  N  N20  1  0.589796  0.816859  0.463448  1
  N  N21  1  0.410203  0.183141  0.536552  1
  N  N22  1  0.858416  0.289744  0.555440  1
  N  N23  1  0.473274  0.448835  0.680938  1
  N  N24  1  0.049752  0.867639  0.712295  1
  N  N25  1  0.637922  0.670593  0.903860  1
  N  N26  1  0.963319  0.354711  0.915662  1
  N  N27  1  0.764966  0.950440  0.968211  1
