# generated using pymatgen
data_ZrNp6NbSb10
_symmetry_space_group_name_H-M   'P 1'
_cell_length_a   9.25675400
_cell_length_b   9.25675476
_cell_length_c   6.15278000
_cell_angle_alpha   90.00000000
_cell_angle_beta   90.00000000
_cell_angle_gamma   119.99999728
_symmetry_Int_Tables_number   1
_chemical_formula_structural   ZrNp6NbSb10
_chemical_formula_sum   'Zr1 Np6 Nb1 Sb10'
_cell_volume   456.58276188
_cell_formula_units_Z   1
loop_
 _symmetry_equiv_pos_site_id
 _symmetry_equiv_pos_as_xyz
  1  'x, y, z'
loop_
 _atom_site_type_symbol
 _atom_site_label
 _atom_site_symmetry_multiplicity
 _atom_site_fract_x
 _atom_site_fract_y
 _atom_site_fract_z
 _atom_site_occupancy
  Zr  Zr0  1  0.000000  0.000000  0.000000  1
  Np  Np1  1  0.612983  0.000000  0.246086  1
  Np  Np2  1  0.387017  0.000000  0.753914  1
  Np  Np3  1  0.000000  0.612983  0.246086  1
  Np  Np4  1  0.000000  0.387017  0.753914  1
  Np  Np5  1  0.387017  0.387017  0.246086  1
  Np  Np6  1  0.612983  0.612983  0.753914  1
  Nb  Nb7  1  0.000000  0.000000  0.500000  1
  Sb  Sb8  1  0.267990  0.000000  0.256216  1
  Sb  Sb9  1  0.732010  0.000000  0.743784  1
  Sb  Sb10  1  0.000000  0.267990  0.256216  1
  Sb  Sb11  1  0.000000  0.732010  0.743784  1
  Sb  Sb12  1  0.732010  0.732010  0.256216  1
  Sb  Sb13  1  0.267990  0.267990  0.743784  1
  Sb  Sb14  1  0.333333  0.666667  0.000000  1
  Sb  Sb15  1  0.666667  0.333333  0.000000  1
  Sb  Sb16  1  0.666667  0.333333  0.500000  1
  Sb  Sb17  1  0.333333  0.666667  0.500000  1
