# generated using pymatgen
data_SrYSi2Ge2N7
_symmetry_space_group_name_H-M   'P 1'
_cell_length_a   6.21161404
_cell_length_b   6.18352457
_cell_length_c   10.03653224
_cell_angle_alpha   90.68856281
_cell_angle_beta   89.65728370
_cell_angle_gamma   119.85051384
_symmetry_Int_Tables_number   1
_chemical_formula_structural   SrYSi2Ge2N7
_chemical_formula_sum   'Sr2 Y2 Si4 Ge4 N14'
_cell_volume   334.33029065
_cell_formula_units_Z   2
loop_
 _symmetry_equiv_pos_site_id
 _symmetry_equiv_pos_as_xyz
  1  'x, y, z'
loop_
 _atom_site_type_symbol
 _atom_site_label
 _atom_site_symmetry_multiplicity
 _atom_site_fract_x
 _atom_site_fract_y
 _atom_site_fract_z
 _atom_site_occupancy
  Sr  Sr0  1  0.666441  0.335052  0.582171  1
  Sr  Sr1  1  0.333559  0.668612  0.082171  1
  Y  Y2  1  0.670146  0.335830  0.952233  1
  Y  Y3  1  0.329854  0.665684  0.452233  1
  Si  Si4  1  0.171537  0.828174  0.760541  1
  Si  Si5  1  0.828463  0.656637  0.260541  1
  Si  Si6  1  0.001813  0.995307  0.027093  1
  Si  Si7  1  0.998187  0.993494  0.527093  1
  Ge  Ge8  1  0.171172  0.343933  0.760373  1
  Ge  Ge9  1  0.828828  0.172762  0.260373  1
  Ge  Ge10  1  0.346209  0.174604  0.260703  1
  Ge  Ge11  1  0.653791  0.828394  0.760703  1
  N  N12  1  0.004666  0.990764  0.840509  1
  N  N13  1  0.995334  0.986098  0.340509  1
  N  N14  1  0.851423  0.698059  0.089955  1
  N  N15  1  0.148577  0.846636  0.589955  1
  N  N16  1  0.694341  0.847143  0.578901  1
  N  N17  1  0.305659  0.152802  0.078901  1
  N  N18  1  0.850963  0.151918  0.077600  1
  N  N19  1  0.149037  0.300955  0.577600  1
  N  N20  1  0.494942  0.503914  0.816492  1
  N  N21  1  0.982733  0.503547  0.313072  1
  N  N22  1  0.505058  0.008972  0.316492  1
  N  N23  1  0.478570  0.984232  0.813178  1
  N  N24  1  0.521430  0.505661  0.313178  1
  N  N25  1  0.017267  0.520815  0.813072  1
