# generated using pymatgen
data_Ta5GaFe2(BRu2)4
_symmetry_space_group_name_H-M   'P 1'
_cell_length_a   9.20921900
_cell_length_b   9.20921900
_cell_length_c   3.02820800
_cell_angle_alpha   90.00000000
_cell_angle_beta   90.00000000
_cell_angle_gamma   90.00000000
_symmetry_Int_Tables_number   1
_chemical_formula_structural   Ta5GaFe2(BRu2)4
_chemical_formula_sum   'Ta5 Ga1 Fe2 B4 Ru8'
_cell_volume   256.82145620
_cell_formula_units_Z   1
loop_
 _symmetry_equiv_pos_site_id
 _symmetry_equiv_pos_as_xyz
  1  'x, y, z'
loop_
 _atom_site_type_symbol
 _atom_site_label
 _atom_site_symmetry_multiplicity
 _atom_site_fract_x
 _atom_site_fract_y
 _atom_site_fract_z
 _atom_site_occupancy
  Ta  Ta0  1  0.824652  0.671336  0.000000  1
  Ta  Ta1  1  0.175348  0.328664  0.000000  1
  Ta  Ta2  1  0.328664  0.824652  0.000000  1
  Ta  Ta3  1  0.671336  0.175348  0.000000  1
  Ta  Ta4  1  0.000000  0.000000  0.000000  1
  Ga  Ga5  1  0.500000  0.500000  0.000000  1
  Fe  Fe6  1  0.500000  0.000000  0.500000  1
  Fe  Fe7  1  0.000000  0.500000  0.500000  1
  B  B8  1  0.607934  0.880915  0.000000  1
  B  B9  1  0.392066  0.119085  0.000000  1
  B  B10  1  0.119085  0.607934  0.000000  1
  B  B11  1  0.880915  0.392066  0.000000  1
  Ru  Ru12  1  0.566583  0.719188  0.500000  1
  Ru  Ru13  1  0.433417  0.280812  0.500000  1
  Ru  Ru14  1  0.067264  0.776459  0.500000  1
  Ru  Ru15  1  0.932736  0.223541  0.500000  1
  Ru  Ru16  1  0.280812  0.566583  0.500000  1
  Ru  Ru17  1  0.719188  0.433417  0.500000  1
  Ru  Ru18  1  0.223541  0.067264  0.500000  1
  Ru  Ru19  1  0.776459  0.932736  0.500000  1
