# generated using pymatgen
data_Ho2Pa(Ni3P2)3
_symmetry_space_group_name_H-M   'P 1'
_cell_length_a   3.78808800
_cell_length_b   10.43507000
_cell_length_c   12.27104500
_cell_angle_alpha   90.00000000
_cell_angle_beta   90.00000000
_cell_angle_gamma   90.00000000
_symmetry_Int_Tables_number   1
_chemical_formula_structural   Ho2Pa(Ni3P2)3
_chemical_formula_sum   'Ho4 Pa2 Ni18 P12'
_cell_volume   485.06168925
_cell_formula_units_Z   2
loop_
 _symmetry_equiv_pos_site_id
 _symmetry_equiv_pos_as_xyz
  1  'x, y, z'
loop_
 _atom_site_type_symbol
 _atom_site_label
 _atom_site_symmetry_multiplicity
 _atom_site_fract_x
 _atom_site_fract_y
 _atom_site_fract_z
 _atom_site_occupancy
  Ho  Ho0  1  0.251895  0.685048  0.794331  1
  Ho  Ho1  1  0.251895  0.314952  0.794331  1
  Ho  Ho2  1  0.751895  0.814952  0.205669  1
  Ho  Ho3  1  0.751895  0.185048  0.205669  1
  Pa  Pa4  1  0.751969  0.000000  0.477185  1
  Pa  Pa5  1  0.251969  0.500000  0.522815  1
  Ni  Ni6  1  0.751457  0.000000  0.017369  1
  Ni  Ni7  1  0.251457  0.500000  0.982631  1
  Ni  Ni8  1  0.251825  0.195608  0.571324  1
  Ni  Ni9  1  0.251825  0.804392  0.571324  1
  Ni  Ni10  1  0.751825  0.304392  0.428676  1
  Ni  Ni11  1  0.751825  0.695608  0.428676  1
  Ni  Ni12  1  0.252290  0.620990  0.288333  1
  Ni  Ni13  1  0.252290  0.379010  0.288333  1
  Ni  Ni14  1  0.752290  0.879010  0.711667  1
  Ni  Ni15  1  0.752290  0.120990  0.711667  1
  Ni  Ni16  1  0.251301  0.167317  0.006228  1
  Ni  Ni17  1  0.251301  0.832683  0.006228  1
  Ni  Ni18  1  0.751301  0.332683  0.993772  1
  Ni  Ni19  1  0.751301  0.667317  0.993772  1
  Ni  Ni20  1  0.251411  0.000000  0.845130  1
  Ni  Ni21  1  0.751411  0.500000  0.154870  1
  Ni  Ni22  1  0.252139  0.000000  0.303739  1
  Ni  Ni23  1  0.752139  0.500000  0.696261  1
  P  P24  1  0.251998  0.190636  0.385328  1
  P  P25  1  0.251998  0.809364  0.385328  1
  P  P26  1  0.751998  0.309364  0.614672  1
  P  P27  1  0.751998  0.690636  0.614672  1
  P  P28  1  0.251722  0.000000  0.124748  1
  P  P29  1  0.751722  0.500000  0.875252  1
  P  P30  1  0.251761  0.651977  0.106346  1
  P  P31  1  0.251761  0.348023  0.106346  1
  P  P32  1  0.751761  0.848023  0.893654  1
  P  P33  1  0.751761  0.151977  0.893654  1
  P  P34  1  0.251968  0.000000  0.660396  1
  P  P35  1  0.751968  0.500000  0.339604  1
