# generated using pymatgen
data_Ho10InSi4Pb
_symmetry_space_group_name_H-M   'P 1'
_cell_length_a   7.55945800
_cell_length_b   8.89489427
_cell_length_c   7.55945800
_cell_angle_alpha   115.14639337
_cell_angle_beta   90.00000000
_cell_angle_gamma   115.14639337
_symmetry_Int_Tables_number   1
_chemical_formula_structural   Ho10InSi4Pb
_chemical_formula_sum   'Ho10 In1 Si4 Pb1'
_cell_volume   406.28103034
_cell_formula_units_Z   1
loop_
 _symmetry_equiv_pos_site_id
 _symmetry_equiv_pos_as_xyz
  1  'x, y, z'
loop_
 _atom_site_type_symbol
 _atom_site_label
 _atom_site_symmetry_multiplicity
 _atom_site_fract_x
 _atom_site_fract_y
 _atom_site_fract_z
 _atom_site_occupancy
  Ho  Ho0  1  0.989367  0.978735  0.989367  1
  Ho  Ho1  1  0.510633  0.021265  0.510633  1
  Ho  Ho2  1  0.529875  0.724496  0.691692  1
  Ho  Ho3  1  0.194623  0.724496  0.032805  1
  Ho  Ho4  1  0.691692  0.724496  0.194623  1
  Ho  Ho5  1  0.032805  0.724496  0.529875  1
  Ho  Ho6  1  0.467195  0.275504  0.305377  1
  Ho  Ho7  1  0.808308  0.275504  0.970125  1
  Ho  Ho8  1  0.305377  0.275504  0.808308  1
  Ho  Ho9  1  0.970125  0.275504  0.467195  1
  In  In10  1  0.750000  0.500000  0.750000  1
  Si  Si11  1  0.872829  0.000000  0.627171  1
  Si  Si12  1  0.127171  0.000000  0.372829  1
  Si  Si13  1  0.627171  0.000000  0.127171  1
  Si  Si14  1  0.372829  0.000000  0.872829  1
  Pb  Pb15  1  0.250000  0.500000  0.250000  1
