# generated using pymatgen
data_Al11Re2TcOs
_symmetry_space_group_name_H-M   'P 1'
_cell_length_a   5.18443154
_cell_length_b   5.17091689
_cell_length_c   9.01980642
_cell_angle_alpha   105.08496804
_cell_angle_beta   90.36708319
_cell_angle_gamma   100.26206740
_symmetry_Int_Tables_number   1
_chemical_formula_structural   Al11Re2TcOs
_chemical_formula_sum   'Al11 Re2 Tc1 Os1'
_cell_volume   229.38350970
_cell_formula_units_Z   1
loop_
 _symmetry_equiv_pos_site_id
 _symmetry_equiv_pos_as_xyz
  1  'x, y, z'
loop_
 _atom_site_type_symbol
 _atom_site_label
 _atom_site_symmetry_multiplicity
 _atom_site_fract_x
 _atom_site_fract_y
 _atom_site_fract_z
 _atom_site_occupancy
  Al  Al0  1  0.802353  0.261678  0.633895  1
  Al  Al1  1  0.200296  0.742673  0.363717  1
  Al  Al2  1  0.146997  0.464642  0.871970  1
  Al  Al3  1  0.853256  0.533767  0.129388  1
  Al  Al4  1  0.999139  0.998791  0.001400  1
  Al  Al5  1  0.500429  0.095989  0.873148  1
  Al  Al6  1  0.499930  0.901710  0.127638  1
  Al  Al7  1  0.569730  0.320753  0.376734  1
  Al  Al8  1  0.430935  0.677881  0.621685  1
  Al  Al9  1  0.938556  0.806190  0.667859  1
  Al  Al10  1  0.056382  0.197352  0.331488  1
  Re  Re11  1  0.662118  0.608963  0.864904  1
  Re  Re12  1  0.338711  0.387303  0.133070  1
  Tc  Tc13  1  0.722220  0.848100  0.400476  1
  Os  Os14  1  0.278947  0.154205  0.602627  1
