# generated using pymatgen
data_Zr16AlFe4Os3
_symmetry_space_group_name_H-M   'P 1'
_cell_length_a   8.71030526
_cell_length_b   8.72994180
_cell_length_c   8.73030500
_cell_angle_alpha   59.99927975
_cell_angle_beta   59.92471801
_cell_angle_gamma   59.92449899
_symmetry_Int_Tables_number   1
_chemical_formula_structural   Zr16AlFe4Os3
_chemical_formula_sum   'Zr16 Al1 Fe4 Os3'
_cell_volume   468.87917700
_cell_formula_units_Z   1
loop_
 _symmetry_equiv_pos_site_id
 _symmetry_equiv_pos_as_xyz
  1  'x, y, z'
loop_
 _atom_site_type_symbol
 _atom_site_label
 _atom_site_symmetry_multiplicity
 _atom_site_fract_x
 _atom_site_fract_y
 _atom_site_fract_z
 _atom_site_occupancy
  Zr  Zr0  1  0.054545  0.648509  0.648464  1
  Zr  Zr1  1  0.646090  0.052598  0.650654  1
  Zr  Zr2  1  0.646049  0.650670  0.052629  1
  Zr  Zr3  1  0.646077  0.650670  0.650645  1
  Zr  Zr4  1  0.801277  0.806958  0.195898  1
  Zr  Zr5  1  0.199366  0.200000  0.800307  1
  Zr  Zr6  1  0.801262  0.195871  0.806941  1
  Zr  Zr7  1  0.199326  0.800323  0.200028  1
  Zr  Zr8  1  0.199338  0.800334  0.800313  1
  Zr  Zr9  1  0.801265  0.195849  0.195939  1
  Zr  Zr10  1  0.439785  0.436836  0.061688  1
  Zr  Zr11  1  0.073894  0.051781  0.437160  1
  Zr  Zr12  1  0.439819  0.061680  0.436825  1
  Zr  Zr13  1  0.073906  0.437155  0.051796  1
  Zr  Zr14  1  0.073904  0.437165  0.437147  1
  Zr  Zr15  1  0.439802  0.061684  0.061681  1
  Al  Al16  1  0.719830  0.426718  0.426733  1
  Fe  Fe17  1  0.419462  0.860171  0.860193  1
  Fe  Fe18  1  0.859477  0.419414  0.860565  1
  Fe  Fe19  1  0.859461  0.860574  0.419387  1
  Fe  Fe20  1  0.859468  0.860559  0.860583  1
  Os  Os21  1  0.415530  0.748067  0.418194  1
  Os  Os22  1  0.415538  0.418211  0.748028  1
  Os  Os23  1  0.415531  0.418206  0.418204  1
