# generated using pymatgen
data_TmLu19Bi11Au
_symmetry_space_group_name_H-M   'P 1'
_cell_length_a   8.07619922
_cell_length_b   9.37022900
_cell_length_c   11.78518550
_cell_angle_alpha   90.00000000
_cell_angle_beta   89.67659267
_cell_angle_gamma   90.00000000
_symmetry_Int_Tables_number   1
_chemical_formula_structural   TmLu19Bi11Au
_chemical_formula_sum   'Tm1 Lu19 Bi11 Au1'
_cell_volume   891.83955909
_cell_formula_units_Z   1
loop_
 _symmetry_equiv_pos_site_id
 _symmetry_equiv_pos_as_xyz
  1  'x, y, z'
loop_
 _atom_site_type_symbol
 _atom_site_label
 _atom_site_symmetry_multiplicity
 _atom_site_fract_x
 _atom_site_fract_y
 _atom_site_fract_z
 _atom_site_occupancy
  Tm  Tm0  1  0.312663  0.750000  0.281779  1
  Lu  Lu1  1  0.039666  0.250000  0.507404  1
  Lu  Lu2  1  0.981623  0.750000  0.491282  1
  Lu  Lu3  1  0.476321  0.750000  0.010457  1
  Lu  Lu4  1  0.525234  0.250000  0.989918  1
  Lu  Lu5  1  0.357219  0.250000  0.295658  1
  Lu  Lu6  1  0.649323  0.750000  0.717797  1
  Lu  Lu7  1  0.149518  0.750000  0.780682  1
  Lu  Lu8  1  0.851597  0.250000  0.216481  1
  Lu  Lu9  1  0.197814  0.250000  0.777989  1
  Lu  Lu10  1  0.808471  0.750000  0.216018  1
  Lu  Lu11  1  0.669716  0.250000  0.707951  1
  Lu  Lu12  1  0.193585  0.067389  0.062083  1
  Lu  Lu13  1  0.805986  0.932863  0.940267  1
  Lu  Lu14  1  0.309615  0.953477  0.559417  1
  Lu  Lu15  1  0.805986  0.567137  0.940267  1
  Lu  Lu16  1  0.684312  0.073025  0.445965  1
  Lu  Lu17  1  0.193585  0.432611  0.062083  1
  Lu  Lu18  1  0.684312  0.426975  0.445965  1
  Lu  Lu19  1  0.309615  0.546523  0.559417  1
  Bi  Bi20  1  0.596390  0.750000  0.457675  1
  Bi  Bi21  1  0.096405  0.750000  0.042045  1
  Bi  Bi22  1  0.905580  0.250000  0.953062  1
  Bi  Bi23  1  0.059074  0.001517  0.322673  1
  Bi  Bi24  1  0.935245  0.999090  0.676279  1
  Bi  Bi25  1  0.435829  0.995741  0.826580  1
  Bi  Bi26  1  0.935245  0.500910  0.676279  1
  Bi  Bi27  1  0.564478  0.004472  0.175070  1
  Bi  Bi28  1  0.059074  0.498483  0.322673  1
  Bi  Bi29  1  0.564478  0.495528  0.175070  1
  Bi  Bi30  1  0.435829  0.504259  0.826580  1
  Au  Au31  1  0.406209  0.250000  0.537130  1
