# generated using pymatgen
data_Ho2PuSn3Pd2Pt
_symmetry_space_group_name_H-M   'P 1'
_cell_length_a   7.58022089
_cell_length_b   7.59422091
_cell_length_c   4.00911300
_cell_angle_alpha   90.00000000
_cell_angle_beta   90.00000000
_cell_angle_gamma   120.07929225
_symmetry_Int_Tables_number   1
_chemical_formula_structural   Ho2PuSn3Pd2Pt
_chemical_formula_sum   'Ho2 Pu1 Sn3 Pd2 Pt1'
_cell_volume   199.70845866
_cell_formula_units_Z   1
loop_
 _symmetry_equiv_pos_site_id
 _symmetry_equiv_pos_as_xyz
  1  'x, y, z'
loop_
 _atom_site_type_symbol
 _atom_site_label
 _atom_site_symmetry_multiplicity
 _atom_site_fract_x
 _atom_site_fract_y
 _atom_site_fract_z
 _atom_site_occupancy
  Ho  Ho0  1  0.589377  0.995170  0.500000  1
  Ho  Ho1  1  0.005130  0.595000  0.500000  1
  Pu  Pu2  1  0.410741  0.415506  0.500000  1
  Sn  Sn3  1  0.995001  0.254196  0.000000  1
  Sn  Sn4  1  0.745179  0.740817  0.000000  1
  Sn  Sn5  1  0.257949  0.002576  0.000000  1
  Pd  Pd6  1  0.669530  0.333041  0.000000  1
  Pd  Pd7  1  0.994071  0.994530  0.500000  1
  Pt  Pt8  1  0.333024  0.669165  0.000000  1
