# generated using pymatgen
data_Y15Ho(In3Ru)2
_symmetry_space_group_name_H-M   'P 1'
_cell_length_a   10.46563400
_cell_length_b   10.47637896
_cell_length_c   7.07912300
_cell_angle_alpha   90.00107740
_cell_angle_beta   90.00000000
_cell_angle_gamma   119.96607800
_symmetry_Int_Tables_number   1
_chemical_formula_structural   Y15Ho(In3Ru)2
_chemical_formula_sum   'Y15 Ho1 In6 Ru2'
_cell_volume   672.41157614
_cell_formula_units_Z   1
loop_
 _symmetry_equiv_pos_site_id
 _symmetry_equiv_pos_as_xyz
  1  'x, y, z'
loop_
 _atom_site_type_symbol
 _atom_site_label
 _atom_site_symmetry_multiplicity
 _atom_site_fract_x
 _atom_site_fract_y
 _atom_site_fract_z
 _atom_site_occupancy
  Y  Y0  1  0.934373  0.467202  0.523889  1
  Y  Y1  1  0.532835  0.467192  0.523860  1
  Y  Y2  1  0.467223  0.934449  0.023995  1
  Y  Y3  1  0.065681  0.532830  0.024572  1
  Y  Y4  1  0.467131  0.532846  0.024556  1
  Y  Y5  1  0.176725  0.353433  0.730538  1
  Y  Y6  1  0.645833  0.823169  0.729504  1
  Y  Y7  1  0.177356  0.823152  0.729489  1
  Y  Y8  1  0.823258  0.646512  0.229750  1
  Y  Y9  1  0.354184  0.176788  0.229505  1
  Y  Y10  1  0.822589  0.176807  0.229489  1
  Y  Y11  1  0.666565  0.333126  0.899670  1
  Y  Y12  1  0.333483  0.666967  0.400836  1
  Y  Y13  1  0.000038  0.000109  0.508292  1
  Y  Y14  1  0.000055  0.000080  0.008255  1
  Ho  Ho15  1  0.533520  0.067031  0.523304  1
  In  In16  1  0.837169  0.674342  0.769101  1
  In  In17  1  0.325640  0.162471  0.768885  1
  In  In18  1  0.836841  0.162478  0.768927  1
  In  In19  1  0.162682  0.325364  0.270326  1
  In  In20  1  0.674555  0.837603  0.269364  1
  In  In21  1  0.163027  0.837584  0.269412  1
  Ru  Ru22  1  0.666110  0.332248  0.300388  1
  Ru  Ru23  1  0.333126  0.666216  0.799776  1
