# generated using pymatgen
data_Dy5ErAl24(Ir3Ru)2
_symmetry_space_group_name_H-M   'P 1'
_cell_length_a   8.82150178
_cell_length_b   8.82150149
_cell_length_c   9.48417200
_cell_angle_alpha   90.00000000
_cell_angle_beta   90.00000000
_cell_angle_gamma   120.04826068
_symmetry_Int_Tables_number   1
_chemical_formula_structural   Dy5ErAl24(Ir3Ru)2
_chemical_formula_sum   'Dy5 Er1 Al24 Ir6 Ru2'
_cell_volume   638.85704054
_cell_formula_units_Z   1
loop_
 _symmetry_equiv_pos_site_id
 _symmetry_equiv_pos_as_xyz
  1  'x, y, z'
loop_
 _atom_site_type_symbol
 _atom_site_label
 _atom_site_symmetry_multiplicity
 _atom_site_fract_x
 _atom_site_fract_y
 _atom_site_fract_z
 _atom_site_occupancy
  Dy  Dy0  1  0.192762  0.385509  0.250000  1
  Dy  Dy1  1  0.614491  0.807238  0.250000  1
  Dy  Dy2  1  0.807375  0.192625  0.750000  1
  Dy  Dy3  1  0.807327  0.614817  0.750000  1
  Dy  Dy4  1  0.385183  0.192673  0.750000  1
  Er  Er5  1  0.193215  0.806785  0.250000  1
  Al  Al6  1  0.562326  0.437674  0.250000  1
  Al  Al7  1  0.561927  0.124318  0.250000  1
  Al  Al8  1  0.875682  0.438073  0.250000  1
  Al  Al9  1  0.437745  0.562255  0.750000  1
  Al  Al10  1  0.437916  0.875597  0.750000  1
  Al  Al11  1  0.124403  0.562084  0.750000  1
  Al  Al12  1  0.325867  0.162755  0.423831  1
  Al  Al13  1  0.837061  0.162939  0.423852  1
  Al  Al14  1  0.837245  0.674133  0.423831  1
  Al  Al15  1  0.674020  0.836953  0.576113  1
  Al  Al16  1  0.162904  0.837096  0.575909  1
  Al  Al17  1  0.163047  0.325980  0.576113  1
  Al  Al18  1  0.674020  0.836953  0.923887  1
  Al  Al19  1  0.162904  0.837096  0.924091  1
  Al  Al20  1  0.163047  0.325980  0.923887  1
  Al  Al21  1  0.325867  0.162755  0.076169  1
  Al  Al22  1  0.837061  0.162939  0.076148  1
  Al  Al23  1  0.837245  0.674133  0.076169  1
  Al  Al24  1  0.666540  0.333460  0.528941  1
  Al  Al25  1  0.333248  0.666752  0.471111  1
  Al  Al26  1  0.333248  0.666752  0.028889  1
  Al  Al27  1  0.666540  0.333460  0.971059  1
  Al  Al28  1  0.000114  0.999886  0.250000  1
  Al  Al29  1  0.999962  0.000038  0.750000  1
  Ir  Ir30  1  0.499885  0.500115  0.499791  1
  Ir  Ir31  1  0.499888  0.999943  0.499968  1
  Ir  Ir32  1  0.000057  0.500112  0.499968  1
  Ir  Ir33  1  0.499885  0.500115  0.000209  1
  Ir  Ir34  1  0.499888  0.999943  0.000032  1
  Ir  Ir35  1  0.000057  0.500112  0.000032  1
  Ru  Ru36  1  0.000025  0.999975  0.499795  1
  Ru  Ru37  1  0.000025  0.999975  0.000205  1
