# generated using pymatgen
data_Sc5In4RuRh
_symmetry_space_group_name_H-M   'P 1'
_cell_length_a   3.37438700
_cell_length_b   7.67032274
_cell_length_c   17.71537797
_cell_angle_alpha   89.92306586
_cell_angle_beta   90.00000000
_cell_angle_gamma   90.00000000
_symmetry_Int_Tables_number   1
_chemical_formula_structural   Sc5In4RuRh
_chemical_formula_sum   'Sc10 In8 Ru2 Rh2'
_cell_volume   458.52028989
_cell_formula_units_Z   2
loop_
 _symmetry_equiv_pos_site_id
 _symmetry_equiv_pos_as_xyz
  1  'x, y, z'
loop_
 _atom_site_type_symbol
 _atom_site_label
 _atom_site_symmetry_multiplicity
 _atom_site_fract_x
 _atom_site_fract_y
 _atom_site_fract_z
 _atom_site_occupancy
  Sc  Sc0  1  0.000000  0.000000  0.000000  1
  Sc  Sc1  1  0.000000  0.500000  0.500000  1
  Sc  Sc2  1  0.000000  0.748804  0.778093  1
  Sc  Sc3  1  0.000000  0.251196  0.221907  1
  Sc  Sc4  1  0.000000  0.239319  0.720449  1
  Sc  Sc5  1  0.000000  0.760681  0.279551  1
  Sc  Sc6  1  0.000000  0.876173  0.587241  1
  Sc  Sc7  1  0.000000  0.123827  0.412759  1
  Sc  Sc8  1  0.000000  0.376316  0.913818  1
  Sc  Sc9  1  0.000000  0.623684  0.086182  1
  In  In10  1  0.500000  0.794900  0.432467  1
  In  In11  1  0.500000  0.205100  0.567533  1
  In  In12  1  0.500000  0.296129  0.066136  1
  In  In13  1  0.500000  0.703871  0.933864  1
  In  In14  1  0.500000  0.933809  0.149400  1
  In  In15  1  0.500000  0.066191  0.850600  1
  In  In16  1  0.500000  0.432660  0.350681  1
  In  In17  1  0.500000  0.567340  0.649319  1
  Ru  Ru18  1  0.500000  0.964160  0.694682  1
  Ru  Ru19  1  0.500000  0.035840  0.305318  1
  Rh  Rh20  1  0.500000  0.462279  0.806111  1
  Rh  Rh21  1  0.500000  0.537721  0.193889  1
