# generated using pymatgen
data_Y5Ho3Re2(B12Os)2
_symmetry_space_group_name_H-M   'P 1'
_cell_length_a   3.67014900
_cell_length_b   9.16933090
_cell_length_c   11.56044302
_cell_angle_alpha   90.13832589
_cell_angle_beta   90.00000000
_cell_angle_gamma   90.00000000
_symmetry_Int_Tables_number   1
_chemical_formula_structural   Y5Ho3Re2(B12Os)2
_chemical_formula_sum   'Y5 Ho3 Re2 B24 Os2'
_cell_volume   389.04026592
_cell_formula_units_Z   1
loop_
 _symmetry_equiv_pos_site_id
 _symmetry_equiv_pos_as_xyz
  1  'x, y, z'
loop_
 _atom_site_type_symbol
 _atom_site_label
 _atom_site_symmetry_multiplicity
 _atom_site_fract_x
 _atom_site_fract_y
 _atom_site_fract_z
 _atom_site_occupancy
  Y  Y0  1  0.000000  0.320793  0.412464  1
  Y  Y1  1  0.000000  0.679249  0.587619  1
  Y  Y2  1  0.000000  0.824505  0.084645  1
  Y  Y3  1  0.000000  0.175472  0.915263  1
  Y  Y4  1  0.000000  0.943502  0.370893  1
  Ho  Ho5  1  0.000000  0.056712  0.629530  1
  Ho  Ho6  1  0.000000  0.442569  0.128852  1
  Ho  Ho7  1  0.000000  0.557435  0.871119  1
  Re  Re8  1  0.000000  0.138701  0.179421  1
  Re  Re9  1  0.000000  0.861536  0.820286  1
  B  B10  1  0.500000  0.553780  0.432873  1
  B  B11  1  0.500000  0.446160  0.567158  1
  B  B12  1  0.500000  0.053275  0.067066  1
  B  B13  1  0.500000  0.946729  0.932871  1
  B  B14  1  0.500000  0.748325  0.418625  1
  B  B15  1  0.500000  0.251331  0.581483  1
  B  B16  1  0.500000  0.248788  0.081256  1
  B  B17  1  0.500000  0.751240  0.918722  1
  B  B18  1  0.500000  0.790326  0.265902  1
  B  B19  1  0.500000  0.209399  0.733919  1
  B  B20  1  0.500000  0.291650  0.234401  1
  B  B21  1  0.500000  0.708428  0.765591  1
  B  B22  1  0.500000  0.630686  0.186192  1
  B  B23  1  0.500000  0.369261  0.813764  1
  B  B24  1  0.500000  0.131558  0.314545  1
  B  B25  1  0.500000  0.868777  0.685387  1
  B  B26  1  0.500000  0.983006  0.212368  1
  B  B27  1  0.500000  0.017085  0.787342  1
  B  B28  1  0.500000  0.483181  0.287834  1
  B  B29  1  0.500000  0.516773  0.712152  1
  B  B30  1  0.500000  0.603038  0.028808  1
  B  B31  1  0.500000  0.396959  0.971177  1
  B  B32  1  0.500000  0.103931  0.471654  1
  B  B33  1  0.500000  0.896307  0.528877  1
  Os  Os34  1  0.000000  0.637134  0.321670  1
  Os  Os35  1  0.000000  0.362399  0.678275  1
