# generated using pymatgen
data_Y3Co7P6RuRh
_symmetry_space_group_name_H-M   'P 1'
_cell_length_a   3.72003700
_cell_length_b   10.65291900
_cell_length_c   12.37757300
_cell_angle_alpha   90.00000000
_cell_angle_beta   90.00000000
_cell_angle_gamma   90.00000000
_symmetry_Int_Tables_number   1
_chemical_formula_structural   Y3Co7P6RuRh
_chemical_formula_sum   'Y6 Co14 P12 Ru2 Rh2'
_cell_volume   490.51396994
_cell_formula_units_Z   2
loop_
 _symmetry_equiv_pos_site_id
 _symmetry_equiv_pos_as_xyz
  1  'x, y, z'
loop_
 _atom_site_type_symbol
 _atom_site_label
 _atom_site_symmetry_multiplicity
 _atom_site_fract_x
 _atom_site_fract_y
 _atom_site_fract_z
 _atom_site_occupancy
  Y  Y0  1  0.000000  0.500000  0.519877  1
  Y  Y1  1  0.500000  0.000000  0.480123  1
  Y  Y2  1  0.500000  0.813519  0.205240  1
  Y  Y3  1  0.500000  0.186481  0.205240  1
  Y  Y4  1  0.000000  0.686481  0.794760  1
  Y  Y5  1  0.000000  0.313519  0.794760  1
  Co  Co6  1  0.000000  0.500000  0.988604  1
  Co  Co7  1  0.500000  0.000000  0.011396  1
  Co  Co8  1  0.500000  0.331746  0.992446  1
  Co  Co9  1  0.500000  0.668254  0.992446  1
  Co  Co10  1  0.000000  0.168254  0.007554  1
  Co  Co11  1  0.000000  0.831746  0.007554  1
  Co  Co12  1  0.500000  0.299708  0.429475  1
  Co  Co13  1  0.500000  0.700292  0.429475  1
  Co  Co14  1  0.000000  0.200292  0.570525  1
  Co  Co15  1  0.000000  0.799708  0.570525  1
  Co  Co16  1  0.500000  0.881051  0.709891  1
  Co  Co17  1  0.500000  0.118949  0.709891  1
  Co  Co18  1  0.000000  0.618949  0.290109  1
  Co  Co19  1  0.000000  0.381051  0.290109  1
  P  P20  1  0.500000  0.500000  0.889997  1
  P  P21  1  0.000000  0.000000  0.110003  1
  P  P22  1  0.500000  0.500000  0.348004  1
  P  P23  1  0.000000  0.000000  0.651996  1
  P  P24  1  0.500000  0.302722  0.613541  1
  P  P25  1  0.500000  0.697278  0.613541  1
  P  P26  1  0.000000  0.197278  0.386459  1
  P  P27  1  0.000000  0.802722  0.386459  1
  P  P28  1  0.500000  0.846777  0.893828  1
  P  P29  1  0.500000  0.153223  0.893828  1
  P  P30  1  0.000000  0.653223  0.106172  1
  P  P31  1  0.000000  0.346777  0.106172  1
  Ru  Ru32  1  0.500000  0.500000  0.158691  1
  Ru  Ru33  1  0.000000  0.000000  0.841309  1
  Rh  Rh34  1  0.500000  0.500000  0.703555  1
  Rh  Rh35  1  0.000000  0.000000  0.296445  1
