# generated using pymatgen
data_Tb4Fe4P12Ir11Rh5
_symmetry_space_group_name_H-M   'P 1'
_cell_length_a   3.91033900
_cell_length_b   10.72270700
_cell_length_c   12.43820000
_cell_angle_alpha   90.00143407
_cell_angle_beta   90.00000000
_cell_angle_gamma   90.00000000
_symmetry_Int_Tables_number   1
_chemical_formula_structural   Tb4Fe4P12Ir11Rh5
_chemical_formula_sum   'Tb4 Fe4 P12 Ir11 Rh5'
_cell_volume   521.52650393
_cell_formula_units_Z   1
loop_
 _symmetry_equiv_pos_site_id
 _symmetry_equiv_pos_as_xyz
  1  'x, y, z'
loop_
 _atom_site_type_symbol
 _atom_site_label
 _atom_site_symmetry_multiplicity
 _atom_site_fract_x
 _atom_site_fract_y
 _atom_site_fract_z
 _atom_site_occupancy
  Tb  Tb0  1  0.250000  0.581151  0.710295  1
  Tb  Tb1  1  0.250000  0.918421  0.210539  1
  Tb  Tb2  1  0.750000  0.418095  0.289878  1
  Tb  Tb3  1  0.750000  0.081527  0.789125  1
  Fe  Fe4  1  0.250000  0.459977  0.932921  1
  Fe  Fe5  1  0.250000  0.041101  0.432966  1
  Fe  Fe6  1  0.750000  0.539853  0.067899  1
  Fe  Fe7  1  0.750000  0.959225  0.567372  1
  P  P8  1  0.250000  0.431611  0.105113  1
  P  P9  1  0.250000  0.068440  0.604901  1
  P  P10  1  0.750000  0.568286  0.895689  1
  P  P11  1  0.750000  0.931895  0.395490  1
  P  P12  1  0.250000  0.269917  0.868763  1
  P  P13  1  0.250000  0.230971  0.368497  1
  P  P14  1  0.750000  0.730237  0.131189  1
  P  P15  1  0.750000  0.769193  0.631555  1
  P  P16  1  0.250000  0.599489  0.388673  1
  P  P17  1  0.250000  0.899626  0.886701  1
  P  P18  1  0.750000  0.400350  0.611661  1
  P  P19  1  0.750000  0.100084  0.113142  1
  Ir  Ir20  1  0.250000  0.090772  0.976385  1
  Ir  Ir21  1  0.750000  0.592357  0.521820  1
  Ir  Ir22  1  0.750000  0.909122  0.023187  1
  Ir  Ir23  1  0.250000  0.232677  0.174629  1
  Ir  Ir24  1  0.250000  0.266719  0.676283  1
  Ir  Ir25  1  0.750000  0.766763  0.824947  1
  Ir  Ir26  1  0.750000  0.734018  0.323820  1
  Ir  Ir27  1  0.250000  0.880395  0.699485  1
  Ir  Ir28  1  0.250000  0.618369  0.200866  1
  Ir  Ir29  1  0.750000  0.119265  0.300284  1
  Ir  Ir30  1  0.750000  0.381887  0.799615  1
  Rh  Rh31  1  0.250000  0.720394  0.988799  1
  Rh  Rh32  1  0.250000  0.782903  0.485799  1
  Rh  Rh33  1  0.750000  0.279126  0.010936  1
  Rh  Rh34  1  0.750000  0.217393  0.512767  1
  Rh  Rh35  1  0.250000  0.408391  0.478006  1
