# generated using pymatgen
data_TcPCl10
_symmetry_space_group_name_H-M   'P 1'
_cell_length_a   9.59130500
_cell_length_b   9.59130500
_cell_length_c   8.05474300
_cell_angle_alpha   90.00000000
_cell_angle_beta   90.00000000
_cell_angle_gamma   90.00000000
_symmetry_Int_Tables_number   1
_chemical_formula_structural   TcPCl10
_chemical_formula_sum   'Tc2 P2 Cl20'
_cell_volume   740.98103283
_cell_formula_units_Z   2
loop_
 _symmetry_equiv_pos_site_id
 _symmetry_equiv_pos_as_xyz
  1  'x, y, z'
loop_
 _atom_site_type_symbol
 _atom_site_label
 _atom_site_symmetry_multiplicity
 _atom_site_fract_x
 _atom_site_fract_y
 _atom_site_fract_z
 _atom_site_occupancy
  Tc  Tc0  1  0.000000  0.500000  0.613814  1
  Tc  Tc1  1  0.500000  0.000000  0.386186  1
  P  P2  1  0.000000  0.000000  0.000000  1
  P  P3  1  0.500000  0.500000  0.000000  1
  Cl  Cl4  1  0.339524  0.544406  0.141073  1
  Cl  Cl5  1  0.044406  0.160476  0.141073  1
  Cl  Cl6  1  0.955594  0.839524  0.141073  1
  Cl  Cl7  1  0.660476  0.455594  0.141073  1
  Cl  Cl8  1  0.160476  0.955594  0.858927  1
  Cl  Cl9  1  0.455594  0.339524  0.858927  1
  Cl  Cl10  1  0.544406  0.660476  0.858927  1
  Cl  Cl11  1  0.839524  0.044406  0.858927  1
  Cl  Cl12  1  0.000000  0.500000  0.903856  1
  Cl  Cl13  1  0.500000  0.000000  0.096144  1
  Cl  Cl14  1  0.000000  0.500000  0.320059  1
  Cl  Cl15  1  0.500000  0.000000  0.679941  1
  Cl  Cl16  1  0.223512  0.594420  0.614582  1
  Cl  Cl17  1  0.094420  0.276488  0.614582  1
  Cl  Cl18  1  0.905580  0.723512  0.614582  1
  Cl  Cl19  1  0.776488  0.405580  0.614582  1
  Cl  Cl20  1  0.276488  0.905580  0.385418  1
  Cl  Cl21  1  0.405580  0.223512  0.385418  1
  Cl  Cl22  1  0.594420  0.776488  0.385418  1
  Cl  Cl23  1  0.723512  0.094420  0.385418  1
