# generated using pymatgen
data_La10Mg4OsRu5
_symmetry_space_group_name_H-M   'P 1'
_cell_length_a   8.75804871
_cell_length_b   8.74759761
_cell_length_c   8.75804962
_cell_angle_alpha   109.54250284
_cell_angle_beta   109.34295562
_cell_angle_gamma   109.57686663
_symmetry_Int_Tables_number   1
_chemical_formula_structural   La10Mg4OsRu5
_chemical_formula_sum   'La10 Mg4 Os1 Ru5'
_cell_volume   516.20116982
_cell_formula_units_Z   1
loop_
 _symmetry_equiv_pos_site_id
 _symmetry_equiv_pos_as_xyz
  1  'x, y, z'
loop_
 _atom_site_type_symbol
 _atom_site_label
 _atom_site_symmetry_multiplicity
 _atom_site_fract_x
 _atom_site_fract_y
 _atom_site_fract_z
 _atom_site_occupancy
  La  La0  1  0.791767  0.000355  0.000272  1
  La  La1  1  0.251346  0.319434  0.067339  1
  La  La2  1  0.710626  0.709331  0.209682  1
  La  La3  1  0.184033  0.932420  0.249277  1
  La  La4  1  0.999917  0.499646  0.291411  1
  La  La5  1  0.747905  0.180566  0.431912  1
  La  La6  1  0.500352  0.790671  0.501296  1
  La  La7  1  0.933533  0.750000  0.683533  1
  La  La8  1  0.316856  0.567580  0.751612  1
  La  La9  1  0.566379  0.250000  0.816378  1
  Mg  Mg10  1  0.410485  0.000111  0.999822  1
  Mg  Mg11  1  0.499819  0.410396  0.500021  1
  Mg  Mg12  1  0.089624  0.089604  0.589423  1
  Mg  Mg13  1  0.999711  0.499889  0.910374  1
  Os  Os14  1  0.380905  0.750000  0.130905  1
  Ru  Ru15  1  0.632511  0.382441  0.250024  1
  Ru  Ru16  1  0.117187  0.250000  0.367187  1
  Ru  Ru17  1  0.249551  0.867947  0.617859  1
  Ru  Ru18  1  0.867582  0.117559  0.750071  1
  Ru  Ru19  1  0.749911  0.632053  0.881605  1
