# generated using pymatgen
data_Tm6Zn15Ag8Ir
_symmetry_space_group_name_H-M   'P 1'
_cell_length_a   9.18321793
_cell_length_b   9.18321801
_cell_length_c   9.18321900
_cell_angle_alpha   60.00000003
_cell_angle_beta   59.99999976
_cell_angle_gamma   59.99999803
_symmetry_Int_Tables_number   1
_chemical_formula_structural   Tm6Zn15Ag8Ir
_chemical_formula_sum   'Tm6 Zn15 Ag8 Ir1'
_cell_volume   547.60792164
_cell_formula_units_Z   1
loop_
 _symmetry_equiv_pos_site_id
 _symmetry_equiv_pos_as_xyz
  1  'x, y, z'
loop_
 _atom_site_type_symbol
 _atom_site_label
 _atom_site_symmetry_multiplicity
 _atom_site_fract_x
 _atom_site_fract_y
 _atom_site_fract_z
 _atom_site_occupancy
  Tm  Tm0  1  0.707884  0.292116  0.292116  1
  Tm  Tm1  1  0.707884  0.292116  0.707884  1
  Tm  Tm2  1  0.707884  0.707884  0.292116  1
  Tm  Tm3  1  0.292116  0.707884  0.707884  1
  Tm  Tm4  1  0.292116  0.707884  0.292116  1
  Tm  Tm5  1  0.292116  0.292116  0.707884  1
  Zn  Zn6  1  0.500000  0.000000  0.000000  1
  Zn  Zn7  1  0.500000  0.000000  0.500000  1
  Zn  Zn8  1  0.500000  0.500000  0.000000  1
  Zn  Zn9  1  0.000000  0.500000  0.500000  1
  Zn  Zn10  1  0.000000  0.500000  0.000000  1
  Zn  Zn11  1  0.000000  0.000000  0.500000  1
  Zn  Zn12  1  0.000000  0.000000  0.000000  1
  Zn  Zn13  1  0.011452  0.329515  0.329515  1
  Zn  Zn14  1  0.329515  0.011452  0.329515  1
  Zn  Zn15  1  0.329515  0.329515  0.011452  1
  Zn  Zn16  1  0.329515  0.329515  0.329515  1
  Zn  Zn17  1  0.988548  0.670485  0.670485  1
  Zn  Zn18  1  0.670485  0.988548  0.670485  1
  Zn  Zn19  1  0.670485  0.670485  0.988548  1
  Zn  Zn20  1  0.670485  0.670485  0.670485  1
  Ag  Ag21  1  0.639242  0.120253  0.120253  1
  Ag  Ag22  1  0.120253  0.639242  0.120253  1
  Ag  Ag23  1  0.120253  0.120253  0.639242  1
  Ag  Ag24  1  0.120253  0.120253  0.120253  1
  Ag  Ag25  1  0.360758  0.879747  0.879747  1
  Ag  Ag26  1  0.879747  0.360758  0.879747  1
  Ag  Ag27  1  0.879747  0.879747  0.360758  1
  Ag  Ag28  1  0.879747  0.879747  0.879747  1
  Ir  Ir29  1  0.500000  0.500000  0.500000  1
