# generated using pymatgen
data_SmCo4MoAs3
_symmetry_space_group_name_H-M   'P 1'
_cell_length_a   3.86782400
_cell_length_b   10.86505000
_cell_length_c   12.34596300
_cell_angle_alpha   90.00000000
_cell_angle_beta   90.00000000
_cell_angle_gamma   90.00000000
_symmetry_Int_Tables_number   1
_chemical_formula_structural   SmCo4MoAs3
_chemical_formula_sum   'Sm4 Co16 Mo4 As12'
_cell_volume   518.82799792
_cell_formula_units_Z   4
loop_
 _symmetry_equiv_pos_site_id
 _symmetry_equiv_pos_as_xyz
  1  'x, y, z'
loop_
 _atom_site_type_symbol
 _atom_site_label
 _atom_site_symmetry_multiplicity
 _atom_site_fract_x
 _atom_site_fract_y
 _atom_site_fract_z
 _atom_site_occupancy
  Sm  Sm0  1  0.250000  0.580678  0.703331  1
  Sm  Sm1  1  0.250000  0.919322  0.203331  1
  Sm  Sm2  1  0.750000  0.419322  0.296669  1
  Sm  Sm3  1  0.750000  0.080678  0.796669  1
  Co  Co4  1  0.250000  0.402752  0.488714  1
  Co  Co5  1  0.250000  0.097248  0.988714  1
  Co  Co6  1  0.750000  0.597248  0.511286  1
  Co  Co7  1  0.750000  0.902752  0.011286  1
  Co  Co8  1  0.250000  0.218429  0.173984  1
  Co  Co9  1  0.250000  0.281571  0.673984  1
  Co  Co10  1  0.750000  0.781571  0.826016  1
  Co  Co11  1  0.750000  0.718429  0.326016  1
  Co  Co12  1  0.250000  0.885263  0.699153  1
  Co  Co13  1  0.250000  0.614737  0.199153  1
  Co  Co14  1  0.750000  0.114737  0.300847  1
  Co  Co15  1  0.750000  0.385263  0.800847  1
  Co  Co16  1  0.250000  0.467217  0.933250  1
  Co  Co17  1  0.250000  0.032783  0.433250  1
  Co  Co18  1  0.750000  0.532783  0.066750  1
  Co  Co19  1  0.750000  0.967217  0.566750  1
  Mo  Mo20  1  0.250000  0.704379  0.990000  1
  Mo  Mo21  1  0.250000  0.795621  0.490000  1
  Mo  Mo22  1  0.750000  0.295621  0.010000  1
  Mo  Mo23  1  0.750000  0.204379  0.510000  1
  As  As24  1  0.250000  0.419092  0.115462  1
  As  As25  1  0.250000  0.080908  0.615462  1
  As  As26  1  0.750000  0.580908  0.884538  1
  As  As27  1  0.750000  0.919092  0.384538  1
  As  As28  1  0.250000  0.269704  0.863360  1
  As  As29  1  0.250000  0.230296  0.363360  1
  As  As30  1  0.750000  0.730296  0.136640  1
  As  As31  1  0.750000  0.769704  0.636640  1
  As  As32  1  0.250000  0.597155  0.393105  1
  As  As33  1  0.250000  0.902845  0.893105  1
  As  As34  1  0.750000  0.402845  0.606895  1
  As  As35  1  0.750000  0.097155  0.106895  1
