# generated using pymatgen
data_Np4Ga18Ir5Pd
_symmetry_space_group_name_H-M   'P 1'
_cell_length_a   7.59097201
_cell_length_b   7.59099614
_cell_length_c   9.47748700
_cell_angle_alpha   89.99743373
_cell_angle_beta   89.99762996
_cell_angle_gamma   119.90546343
_symmetry_Int_Tables_number   1
_chemical_formula_structural   Np4Ga18Ir5Pd
_chemical_formula_sum   'Np4 Ga18 Ir5 Pd1'
_cell_volume   473.40508087
_cell_formula_units_Z   1
loop_
 _symmetry_equiv_pos_site_id
 _symmetry_equiv_pos_as_xyz
  1  'x, y, z'
loop_
 _atom_site_type_symbol
 _atom_site_label
 _atom_site_symmetry_multiplicity
 _atom_site_fract_x
 _atom_site_fract_y
 _atom_site_fract_z
 _atom_site_occupancy
  Np  Np0  1  0.996264  0.667159  0.255726  1
  Np  Np1  1  0.000203  0.330392  0.743948  1
  Np  Np2  1  0.669300  0.998590  0.247689  1
  Np  Np3  1  0.332702  0.004006  0.745045  1
  Ga  Ga4  1  0.129439  0.127525  0.250789  1
  Ga  Ga5  1  0.871782  0.870496  0.751802  1
  Ga  Ga6  1  0.003445  0.337309  0.077960  1
  Ga  Ga7  1  0.005729  0.667670  0.921623  1
  Ga  Ga8  1  0.997777  0.665579  0.580096  1
  Ga  Ga9  1  0.336865  0.001487  0.419649  1
  Ga  Ga10  1  0.999460  0.332011  0.419315  1
  Ga  Ga11  1  0.664907  0.997082  0.577721  1
  Ga  Ga12  1  0.665526  0.999716  0.918922  1
  Ga  Ga13  1  0.329889  0.996012  0.077567  1
  Ga  Ga14  1  0.334840  0.335308  0.566097  1
  Ga  Ga15  1  0.666718  0.669116  0.433029  1
  Ga  Ga16  1  0.669069  0.668815  0.070404  1
  Ga  Ga17  1  0.326239  0.330159  0.928062  1
  Ga  Ga18  1  0.338066  0.544976  0.251321  1
  Ga  Ga19  1  0.661668  0.456101  0.750774  1
  Ga  Ga20  1  0.544529  0.338744  0.251928  1
  Ga  Ga21  1  0.453825  0.660912  0.751255  1
  Ir  Ir22  1  0.333295  0.670472  0.001902  1
  Ir  Ir23  1  0.327421  0.670359  0.501245  1
  Ir  Ir24  1  0.671418  0.329554  0.501540  1
  Ir  Ir25  1  0.998452  0.999231  0.001669  1
  Ir  Ir26  1  0.001881  0.000871  0.501923  1
  Pd  Pd27  1  0.669294  0.330348  0.001001  1
