# generated using pymatgen
data_Sm5Zr3(Co4As3)4
_symmetry_space_group_name_H-M   'P 1'
_cell_length_a   12.80553500
_cell_length_b   12.80553385
_cell_length_c   3.87865600
_cell_angle_alpha   90.00000000
_cell_angle_beta   90.00000000
_cell_angle_gamma   120.00000556
_symmetry_Int_Tables_number   1
_chemical_formula_structural   Sm5Zr3(Co4As3)4
_chemical_formula_sum   'Sm5 Zr3 Co16 As12'
_cell_volume   550.81693817
_cell_formula_units_Z   1
loop_
 _symmetry_equiv_pos_site_id
 _symmetry_equiv_pos_as_xyz
  1  'x, y, z'
loop_
 _atom_site_type_symbol
 _atom_site_label
 _atom_site_symmetry_multiplicity
 _atom_site_fract_x
 _atom_site_fract_y
 _atom_site_fract_z
 _atom_site_occupancy
  Sm  Sm0  1  0.183993  0.183993  0.500000  1
  Sm  Sm1  1  0.816007  0.000000  0.500000  1
  Sm  Sm2  1  0.000000  0.816007  0.500000  1
  Sm  Sm3  1  0.333333  0.666667  0.000000  1
  Sm  Sm4  1  0.666667  0.333333  0.000000  1
  Zr  Zr5  1  0.563206  0.563206  0.000000  1
  Zr  Zr6  1  0.436794  0.000000  0.000000  1
  Zr  Zr7  1  0.000000  0.436794  0.000000  1
  Co  Co8  1  0.719708  0.719708  0.500000  1
  Co  Co9  1  0.280292  0.000000  0.500000  1
  Co  Co10  1  0.000000  0.280292  0.500000  1
  Co  Co11  1  0.178147  0.374317  0.000000  1
  Co  Co12  1  0.625683  0.803830  0.000000  1
  Co  Co13  1  0.196170  0.821853  0.000000  1
  Co  Co14  1  0.803830  0.625683  0.000000  1
  Co  Co15  1  0.821853  0.196170  0.000000  1
  Co  Co16  1  0.374317  0.178147  0.000000  1
  Co  Co17  1  0.358152  0.479722  0.500000  1
  Co  Co18  1  0.520278  0.878431  0.500000  1
  Co  Co19  1  0.121569  0.641848  0.500000  1
  Co  Co20  1  0.878431  0.520278  0.500000  1
  Co  Co21  1  0.641848  0.121569  0.500000  1
  Co  Co22  1  0.479722  0.358152  0.500000  1
  Co  Co23  1  0.000000  0.000000  0.000000  1
  As  As24  1  0.821575  0.821575  0.000000  1
  As  As25  1  0.178425  0.000000  0.000000  1
  As  As26  1  0.000000  0.178425  0.000000  1
  As  As27  1  0.172732  0.479706  0.500000  1
  As  As28  1  0.520294  0.693026  0.500000  1
  As  As29  1  0.306974  0.827268  0.500000  1
  As  As30  1  0.693026  0.520294  0.500000  1
  As  As31  1  0.827268  0.306974  0.500000  1
  As  As32  1  0.479706  0.172732  0.500000  1
  As  As33  1  0.355170  0.355170  0.000000  1
  As  As34  1  0.644830  0.000000  0.000000  1
  As  As35  1  0.000000  0.644830  0.000000  1
