# generated using pymatgen
data_Tm12Co8Au
_symmetry_space_group_name_H-M   'P 1'
_cell_length_a   11.31077200
_cell_length_b   11.31077210
_cell_length_c   3.97379100
_cell_angle_alpha   90.00000000
_cell_angle_beta   90.00000000
_cell_angle_gamma   119.99999972
_symmetry_Int_Tables_number   1
_chemical_formula_structural   Tm12Co8Au
_chemical_formula_sum   'Tm12 Co8 Au1'
_cell_volume   440.27107556
_cell_formula_units_Z   1
loop_
 _symmetry_equiv_pos_site_id
 _symmetry_equiv_pos_as_xyz
  1  'x, y, z'
loop_
 _atom_site_type_symbol
 _atom_site_label
 _atom_site_symmetry_multiplicity
 _atom_site_fract_x
 _atom_site_fract_y
 _atom_site_fract_z
 _atom_site_occupancy
  Tm  Tm0  1  0.517793  0.380658  0.251388  1
  Tm  Tm1  1  0.862866  0.482207  0.251388  1
  Tm  Tm2  1  0.619342  0.137134  0.251388  1
  Tm  Tm3  1  0.482207  0.619342  0.748612  1
  Tm  Tm4  1  0.137134  0.517793  0.748612  1
  Tm  Tm5  1  0.380658  0.862866  0.748612  1
  Tm  Tm6  1  0.974332  0.234083  0.247995  1
  Tm  Tm7  1  0.259751  0.025668  0.247995  1
  Tm  Tm8  1  0.765917  0.740249  0.247995  1
  Tm  Tm9  1  0.025668  0.765917  0.752005  1
  Tm  Tm10  1  0.740249  0.974332  0.752005  1
  Tm  Tm11  1  0.234083  0.259751  0.752005  1
  Co  Co12  1  0.333333  0.666667  0.249285  1
  Co  Co13  1  0.666667  0.333333  0.750715  1
  Co  Co14  1  0.157108  0.717806  0.253337  1
  Co  Co15  1  0.560697  0.842892  0.253337  1
  Co  Co16  1  0.282194  0.439303  0.253337  1
  Co  Co17  1  0.842892  0.282194  0.746663  1
  Co  Co18  1  0.439303  0.157108  0.746663  1
  Co  Co19  1  0.717806  0.560697  0.746663  1
  Au  Au20  1  0.000000  0.000000  0.500000  1
