# generated using pymatgen
data_Zr(BeB14)2
_symmetry_space_group_name_H-M   'P 1'
_cell_length_a   7.12578762
_cell_length_b   7.12578671
_cell_length_c   5.76219644
_cell_angle_alpha   66.57789954
_cell_angle_beta   66.57791748
_cell_angle_gamma   91.95471334
_symmetry_Int_Tables_number   1
_chemical_formula_structural   Zr(BeB14)2
_chemical_formula_sum   'Zr1 Be2 B28'
_cell_volume   239.85678743
_cell_formula_units_Z   1
loop_
 _symmetry_equiv_pos_site_id
 _symmetry_equiv_pos_as_xyz
  1  'x, y, z'
loop_
 _atom_site_type_symbol
 _atom_site_label
 _atom_site_symmetry_multiplicity
 _atom_site_fract_x
 _atom_site_fract_y
 _atom_site_fract_z
 _atom_site_occupancy
  Zr  Zr0  1  0.867221  0.867221  0.376202  1
  Be  Be1  1  0.511855  0.511855  0.467726  1
  Be  Be2  1  0.240221  0.240221  0.322053  1
  B  B3  1  0.415378  0.730612  0.181929  1
  B  B4  1  0.582832  0.256658  0.835965  1
  B  B5  1  0.256658  0.582832  0.835965  1
  B  B6  1  0.730612  0.415378  0.181929  1
  B  B7  1  0.691918  0.858181  0.981585  1
  B  B8  1  0.304791  0.132922  0.038818  1
  B  B9  1  0.132922  0.304791  0.038818  1
  B  B10  1  0.858181  0.691918  0.981585  1
  B  B11  1  0.532217  0.869350  0.306268  1
  B  B12  1  0.470121  0.122385  0.214799  1
  B  B13  1  0.122385  0.470121  0.214799  1
  B  B14  1  0.869350  0.532217  0.306268  1
  B  B15  1  0.459727  0.120488  0.714853  1
  B  B16  1  0.529405  0.867008  0.806786  1
  B  B17  1  0.867008  0.529405  0.806786  1
  B  B18  1  0.120488  0.459727  0.714853  1
  B  B19  1  0.722734  0.095817  0.007953  1
  B  B20  1  0.273597  0.892008  0.333988  1
  B  B21  1  0.892008  0.273597  0.333988  1
  B  B22  1  0.095817  0.722734  0.007953  1
  B  B23  1  0.272275  0.893608  0.017965  1
  B  B24  1  0.719859  0.095561  0.689105  1
  B  B25  1  0.095561  0.719859  0.689105  1
  B  B26  1  0.893608  0.272275  0.017965  1
  B  B27  1  0.277441  0.466677  0.392876  1
  B  B28  1  0.706697  0.520435  0.644120  1
  B  B29  1  0.520435  0.706697  0.644120  1
  B  B30  1  0.466677  0.277441  0.392876  1
