# generated using pymatgen
data_TmLu3Si4(RuRh)2
_symmetry_space_group_name_H-M   'P 1'
_cell_length_a   4.23133900
_cell_length_b   6.82036628
_cell_length_c   7.23813833
_cell_angle_alpha   90.27361423
_cell_angle_beta   90.00000000
_cell_angle_gamma   90.00000000
_symmetry_Int_Tables_number   1
_chemical_formula_structural   TmLu3Si4(RuRh)2
_chemical_formula_sum   'Tm1 Lu3 Si4 Ru2 Rh2'
_cell_volume   208.88509216
_cell_formula_units_Z   1
loop_
 _symmetry_equiv_pos_site_id
 _symmetry_equiv_pos_as_xyz
  1  'x, y, z'
loop_
 _atom_site_type_symbol
 _atom_site_label
 _atom_site_symmetry_multiplicity
 _atom_site_fract_x
 _atom_site_fract_y
 _atom_site_fract_z
 _atom_site_occupancy
  Tm  Tm0  1  0.250000  0.000175  0.811607  1
  Lu  Lu1  1  0.750000  0.999879  0.189121  1
  Lu  Lu2  1  0.250000  0.493111  0.688877  1
  Lu  Lu3  1  0.750000  0.506939  0.311015  1
  Si  Si4  1  0.250000  0.296308  0.116038  1
  Si  Si5  1  0.750000  0.703588  0.884324  1
  Si  Si6  1  0.250000  0.797548  0.397891  1
  Si  Si7  1  0.750000  0.202641  0.601655  1
  Ru  Ru8  1  0.750000  0.842846  0.564391  1
  Ru  Ru9  1  0.250000  0.157123  0.434638  1
  Rh  Rh10  1  0.750000  0.343458  0.936753  1
  Rh  Rh11  1  0.250000  0.656385  0.063690  1
