# generated using pymatgen
data_Ho5Fe3(P3Ru4)4
_symmetry_space_group_name_H-M   'P 1'
_cell_length_a   12.49713100
_cell_length_b   12.49713132
_cell_length_c   3.89344200
_cell_angle_alpha   90.00000000
_cell_angle_beta   90.00000000
_cell_angle_gamma   120.00000180
_symmetry_Int_Tables_number   1
_chemical_formula_structural   Ho5Fe3(P3Ru4)4
_chemical_formula_sum   'Ho5 Fe3 P12 Ru16'
_cell_volume   526.60501288
_cell_formula_units_Z   1
loop_
 _symmetry_equiv_pos_site_id
 _symmetry_equiv_pos_as_xyz
  1  'x, y, z'
loop_
 _atom_site_type_symbol
 _atom_site_label
 _atom_site_symmetry_multiplicity
 _atom_site_fract_x
 _atom_site_fract_y
 _atom_site_fract_z
 _atom_site_occupancy
  Ho  Ho0  1  0.000000  0.181705  0.500000  1
  Ho  Ho1  1  0.818295  0.818295  0.500000  1
  Ho  Ho2  1  0.181705  0.000000  0.500000  1
  Ho  Ho3  1  0.666667  0.333333  0.000000  1
  Ho  Ho4  1  0.333333  0.666667  0.000000  1
  Fe  Fe5  1  0.000000  0.716623  0.500000  1
  Fe  Fe6  1  0.283377  0.283377  0.500000  1
  Fe  Fe7  1  0.716623  0.000000  0.500000  1
  P  P8  1  0.000000  0.813360  0.000000  1
  P  P9  1  0.186640  0.186640  0.000000  1
  P  P10  1  0.813360  0.000000  0.000000  1
  P  P11  1  0.689989  0.162918  0.500000  1
  P  P12  1  0.837082  0.527071  0.500000  1
  P  P13  1  0.472929  0.310011  0.500000  1
  P  P14  1  0.162918  0.689989  0.500000  1
  P  P15  1  0.527071  0.837082  0.500000  1
  P  P16  1  0.310011  0.472929  0.500000  1
  P  P17  1  0.000000  0.373323  0.000000  1
  P  P18  1  0.626677  0.626677  0.000000  1
  P  P19  1  0.373323  0.000000  0.000000  1
  Ru  Ru20  1  0.000000  0.558030  0.000000  1
  Ru  Ru21  1  0.441970  0.441970  0.000000  1
  Ru  Ru22  1  0.558030  0.000000  0.000000  1
  Ru  Ru23  1  0.806955  0.181724  0.000000  1
  Ru  Ru24  1  0.818276  0.625232  0.000000  1
  Ru  Ru25  1  0.374768  0.193045  0.000000  1
  Ru  Ru26  1  0.181724  0.806955  0.000000  1
  Ru  Ru27  1  0.625232  0.818276  0.000000  1
  Ru  Ru28  1  0.193045  0.374768  0.000000  1
  Ru  Ru29  1  0.873571  0.363415  0.500000  1
  Ru  Ru30  1  0.636585  0.510156  0.500000  1
  Ru  Ru31  1  0.489844  0.126429  0.500000  1
  Ru  Ru32  1  0.363415  0.873571  0.500000  1
  Ru  Ru33  1  0.510156  0.636585  0.500000  1
  Ru  Ru34  1  0.126429  0.489844  0.500000  1
  Ru  Ru35  1  0.000000  0.000000  0.000000  1
