# generated using pymatgen
data_NdPa3(CdPt2)2
_symmetry_space_group_name_H-M   'P 1'
_cell_length_a   7.89007583
_cell_length_b   7.89007612
_cell_length_c   3.67522900
_cell_angle_alpha   90.00000000
_cell_angle_beta   90.00000000
_cell_angle_gamma   91.59524429
_symmetry_Int_Tables_number   1
_chemical_formula_structural   NdPa3(CdPt2)2
_chemical_formula_sum   'Nd1 Pa3 Cd2 Pt4'
_cell_volume   228.70645527
_cell_formula_units_Z   1
loop_
 _symmetry_equiv_pos_site_id
 _symmetry_equiv_pos_as_xyz
  1  'x, y, z'
loop_
 _atom_site_type_symbol
 _atom_site_label
 _atom_site_symmetry_multiplicity
 _atom_site_fract_x
 _atom_site_fract_y
 _atom_site_fract_z
 _atom_site_occupancy
  Nd  Nd0  1  0.826777  0.673223  0.500000  1
  Pa  Pa1  1  0.669922  0.171453  0.500000  1
  Pa  Pa2  1  0.328547  0.830078  0.500000  1
  Pa  Pa3  1  0.169544  0.330456  0.500000  1
  Cd  Cd4  1  0.000282  0.994984  0.000000  1
  Cd  Cd5  1  0.505016  0.499718  0.000000  1
  Pt  Pt6  1  0.147854  0.623326  0.000000  1
  Pt  Pt7  1  0.876674  0.352146  0.000000  1
  Pt  Pt8  1  0.614423  0.885577  0.000000  1
  Pt  Pt9  1  0.360962  0.139038  0.000000  1
