# generated using pymatgen
data_DyHo3Ga3SiRu4
_symmetry_space_group_name_H-M   'P 1'
_cell_length_a   4.44947500
_cell_length_b   7.11555548
_cell_length_c   7.14594912
_cell_angle_alpha   90.19900598
_cell_angle_beta   90.00000000
_cell_angle_gamma   90.00000000
_symmetry_Int_Tables_number   1
_chemical_formula_structural   DyHo3Ga3SiRu4
_chemical_formula_sum   'Dy1 Ho3 Ga3 Si1 Ru4'
_cell_volume   226.24285892
_cell_formula_units_Z   1
loop_
 _symmetry_equiv_pos_site_id
 _symmetry_equiv_pos_as_xyz
  1  'x, y, z'
loop_
 _atom_site_type_symbol
 _atom_site_label
 _atom_site_symmetry_multiplicity
 _atom_site_fract_x
 _atom_site_fract_y
 _atom_site_fract_z
 _atom_site_occupancy
  Dy  Dy0  1  0.750000  0.016236  0.195904  1
  Ho  Ho1  1  0.250000  0.985044  0.806972  1
  Ho  Ho2  1  0.250000  0.477286  0.694688  1
  Ho  Ho3  1  0.750000  0.515045  0.305604  1
  Ga  Ga4  1  0.250000  0.302714  0.106990  1
  Ga  Ga5  1  0.750000  0.694548  0.891993  1
  Ga  Ga6  1  0.250000  0.800182  0.397050  1
  Si  Si7  1  0.750000  0.196937  0.602218  1
  Ru  Ru8  1  0.750000  0.856971  0.565680  1
  Ru  Ru9  1  0.250000  0.163138  0.446739  1
  Ru  Ru10  1  0.750000  0.331832  0.921252  1
  Ru  Ru11  1  0.250000  0.660068  0.064908  1
