# generated using pymatgen
data_LuHfMn12P7
_symmetry_space_group_name_H-M   'P 1'
_cell_length_a   9.21844700
_cell_length_b   9.21844837
_cell_length_c   3.55469700
_cell_angle_alpha   90.00000000
_cell_angle_beta   90.00000000
_cell_angle_gamma   120.00000585
_symmetry_Int_Tables_number   1
_chemical_formula_structural   LuHfMn12P7
_chemical_formula_sum   'Lu1 Hf1 Mn12 P7'
_cell_volume   261.60665301
_cell_formula_units_Z   1
loop_
 _symmetry_equiv_pos_site_id
 _symmetry_equiv_pos_as_xyz
  1  'x, y, z'
loop_
 _atom_site_type_symbol
 _atom_site_label
 _atom_site_symmetry_multiplicity
 _atom_site_fract_x
 _atom_site_fract_y
 _atom_site_fract_z
 _atom_site_occupancy
  Lu  Lu0  1  0.000000  0.000000  0.500000  1
  Hf  Hf1  1  0.666667  0.333333  0.000000  1
  Mn  Mn2  1  0.759711  0.714199  0.000000  1
  Mn  Mn3  1  0.285801  0.045514  0.000000  1
  Mn  Mn4  1  0.954486  0.240289  0.000000  1
  Mn  Mn5  1  0.492253  0.946296  0.000000  1
  Mn  Mn6  1  0.053704  0.545957  0.000000  1
  Mn  Mn7  1  0.454043  0.507747  0.000000  1
  Mn  Mn8  1  0.725959  0.106274  0.500000  1
  Mn  Mn9  1  0.893726  0.619686  0.500000  1
  Mn  Mn10  1  0.380314  0.274041  0.500000  1
  Mn  Mn11  1  0.560152  0.768417  0.500000  1
  Mn  Mn12  1  0.231583  0.791735  0.500000  1
  Mn  Mn13  1  0.208265  0.439848  0.500000  1
  P  P14  1  0.465242  0.080269  0.500000  1
  P  P15  1  0.919731  0.384973  0.500000  1
  P  P16  1  0.615027  0.534758  0.500000  1
  P  P17  1  0.745488  0.955696  0.000000  1
  P  P18  1  0.044304  0.789792  0.000000  1
  P  P19  1  0.210208  0.254512  0.000000  1
  P  P20  1  0.333333  0.666667  0.000000  1
