# generated using pymatgen
data_Ca19In7HgN7
_symmetry_space_group_name_H-M   'P 1'
_cell_length_a   10.42163914
_cell_length_b   10.42163956
_cell_length_c   10.46045795
_cell_angle_alpha   60.12268117
_cell_angle_beta   60.12267897
_cell_angle_gamma   59.99999950
_symmetry_Int_Tables_number   1
_chemical_formula_structural   Ca19In7HgN7
_chemical_formula_sum   'Ca19 In7 Hg1 N7'
_cell_volume   804.84196051
_cell_formula_units_Z   1
loop_
 _symmetry_equiv_pos_site_id
 _symmetry_equiv_pos_as_xyz
  1  'x, y, z'
loop_
 _atom_site_type_symbol
 _atom_site_label
 _atom_site_symmetry_multiplicity
 _atom_site_fract_x
 _atom_site_fract_y
 _atom_site_fract_z
 _atom_site_occupancy
  Ca  Ca0  1  0.173931  0.500027  0.826014  1
  Ca  Ca1  1  0.499157  0.827432  0.174254  1
  Ca  Ca2  1  0.828253  0.174283  0.498788  1
  Ca  Ca3  1  0.166791  0.833857  0.165495  1
  Ca  Ca4  1  0.827432  0.499157  0.174254  1
  Ca  Ca5  1  0.174283  0.828253  0.498788  1
  Ca  Ca6  1  0.166461  0.166461  0.833208  1
  Ca  Ca7  1  0.174283  0.498675  0.498788  1
  Ca  Ca8  1  0.833857  0.833857  0.165495  1
  Ca  Ca9  1  0.833869  0.166461  0.833208  1
  Ca  Ca10  1  0.498675  0.828253  0.498788  1
  Ca  Ca11  1  0.500108  0.500108  0.499675  1
  Ca  Ca12  1  0.499157  0.499157  0.174254  1
  Ca  Ca13  1  0.166461  0.833869  0.833208  1
  Ca  Ca14  1  0.500027  0.173931  0.826014  1
  Ca  Ca15  1  0.498675  0.174283  0.498788  1
  Ca  Ca16  1  0.828253  0.498675  0.498788  1
  Ca  Ca17  1  0.833857  0.166791  0.165495  1
  Ca  Ca18  1  0.500027  0.500027  0.826014  1
  In  In19  1  0.825223  0.524163  0.825393  1
  In  In20  1  0.475831  0.174710  0.174749  1
  In  In21  1  0.174710  0.475831  0.174749  1
  In  In22  1  0.524163  0.825223  0.825393  1
  In  In23  1  0.174710  0.174710  0.174749  1
  In  In24  1  0.825223  0.825223  0.825393  1
  In  In25  1  0.823562  0.823562  0.529314  1
  Hg  Hg26  1  0.171578  0.171578  0.485266  1
  N  N27  1  0.675561  0.326068  0.672302  1
  N  N28  1  0.674355  0.325188  0.326103  1
  N  N29  1  0.326068  0.675561  0.672302  1
  N  N30  1  0.325188  0.674355  0.326103  1
  N  N31  1  0.326068  0.326068  0.672302  1
  N  N32  1  0.674355  0.674355  0.326103  1
  N  N33  1  0.999846  0.999846  0.000463  1
