# generated using pymatgen
data_NdHo2Mg3Pb2Au
_symmetry_space_group_name_H-M   'P 1'
_cell_length_a   7.65070303
_cell_length_b   7.65070219
_cell_length_c   4.53606400
_cell_angle_alpha   90.00000000
_cell_angle_beta   90.00000000
_cell_angle_gamma   120.47245176
_symmetry_Int_Tables_number   1
_chemical_formula_structural   NdHo2Mg3Pb2Au
_chemical_formula_sum   'Nd1 Ho2 Mg3 Pb2 Au1'
_cell_volume   228.83641508
_cell_formula_units_Z   1
loop_
 _symmetry_equiv_pos_site_id
 _symmetry_equiv_pos_as_xyz
  1  'x, y, z'
loop_
 _atom_site_type_symbol
 _atom_site_label
 _atom_site_symmetry_multiplicity
 _atom_site_fract_x
 _atom_site_fract_y
 _atom_site_fract_z
 _atom_site_occupancy
  Nd  Nd0  1  0.407523  0.407523  0.000000  1
  Ho  Ho1  1  0.598374  0.001721  0.000000  1
  Ho  Ho2  1  0.001721  0.598374  0.000000  1
  Mg  Mg3  1  0.231663  0.999559  0.500000  1
  Mg  Mg4  1  0.999559  0.231663  0.500000  1
  Mg  Mg5  1  0.766464  0.766464  0.500000  1
  Pb  Pb6  1  0.331048  0.671650  0.500000  1
  Pb  Pb7  1  0.671650  0.331048  0.500000  1
  Au  Au8  1  0.991997  0.991997  0.000000  1
