# generated using pymatgen
data_TaNb12Ni8Mo3N4
_symmetry_space_group_name_H-M   'P 1'
_cell_length_a   8.17153650
_cell_length_b   8.17144615
_cell_length_c   8.17149933
_cell_angle_alpha   60.24636423
_cell_angle_beta   60.24755287
_cell_angle_gamma   60.24805051
_symmetry_Int_Tables_number   1
_chemical_formula_structural   TaNb12Ni8Mo3N4
_chemical_formula_sum   'Ta1 Nb12 Ni8 Mo3 N4'
_cell_volume   387.98422172
_cell_formula_units_Z   1
loop_
 _symmetry_equiv_pos_site_id
 _symmetry_equiv_pos_as_xyz
  1  'x, y, z'
loop_
 _atom_site_type_symbol
 _atom_site_label
 _atom_site_symmetry_multiplicity
 _atom_site_fract_x
 _atom_site_fract_y
 _atom_site_fract_z
 _atom_site_occupancy
  Ta  Ta0  1  0.125000  0.125000  0.125000  1
  Nb  Nb1  1  0.312930  0.686961  0.686974  1
  Nb  Nb2  1  0.563037  0.563047  0.937042  1
  Nb  Nb3  1  0.314481  0.684055  0.314507  1
  Nb  Nb4  1  0.314508  0.314526  0.684042  1
  Nb  Nb5  1  0.684053  0.314491  0.314500  1
  Nb  Nb6  1  0.935492  0.935474  0.565958  1
  Nb  Nb7  1  0.935519  0.565945  0.935493  1
  Nb  Nb8  1  0.937070  0.563039  0.563026  1
  Nb  Nb9  1  0.565947  0.935509  0.935500  1
  Nb  Nb10  1  0.686963  0.686953  0.312958  1
  Nb  Nb11  1  0.686953  0.312955  0.686956  1
  Nb  Nb12  1  0.563047  0.937045  0.563044  1
  Ni  Ni13  1  0.010701  0.331136  0.331149  1
  Ni  Ni14  1  0.921591  0.921591  0.921589  1
  Ni  Ni15  1  0.331129  0.331138  0.010741  1
  Ni  Ni16  1  0.918871  0.918862  0.239259  1
  Ni  Ni17  1  0.239299  0.918864  0.918851  1
  Ni  Ni18  1  0.331133  0.010737  0.331147  1
  Ni  Ni19  1  0.918867  0.239263  0.918853  1
  Ni  Ni20  1  0.328409  0.328409  0.328411  1
  Mo  Mo21  1  0.125000  0.125000  0.625000  1
  Mo  Mo22  1  0.625000  0.125000  0.125000  1
  Mo  Mo23  1  0.125000  0.625000  0.125000  1
  N  N24  1  0.625000  0.125000  0.625000  1
  N  N25  1  0.625000  0.625000  0.125000  1
  N  N26  1  0.125000  0.625000  0.625000  1
  N  N27  1  0.625000  0.625000  0.625000  1
