# generated using pymatgen
data_Dy9Y7B4C8I19
_symmetry_space_group_name_H-M   'P 1'
_cell_length_a   12.60668004
_cell_length_b   14.48120487
_cell_length_c   19.80258638
_cell_angle_alpha   104.70546157
_cell_angle_beta   89.60242020
_cell_angle_gamma   112.80411269
_symmetry_Int_Tables_number   1
_chemical_formula_structural   Dy9Y7B4C8I19
_chemical_formula_sum   'Dy18 Y14 B8 C16 I38'
_cell_volume   3206.41891017
_cell_formula_units_Z   2
loop_
 _symmetry_equiv_pos_site_id
 _symmetry_equiv_pos_as_xyz
  1  'x, y, z'
loop_
 _atom_site_type_symbol
 _atom_site_label
 _atom_site_symmetry_multiplicity
 _atom_site_fract_x
 _atom_site_fract_y
 _atom_site_fract_z
 _atom_site_occupancy
  Dy  Dy0  1  0.315127  0.341088  0.220783  1
  Dy  Dy1  1  0.570031  0.347499  0.221690  1
  Dy  Dy2  1  0.684754  0.658942  0.779309  1
  Dy  Dy3  1  0.398137  0.265218  0.042795  1
  Dy  Dy4  1  0.321435  0.711032  0.543921  1
  Dy  Dy5  1  0.859352  0.728114  0.541845  1
  Dy  Dy6  1  0.639096  0.504676  0.408573  1
  Dy  Dy7  1  0.443888  0.651202  0.279015  1
  Dy  Dy8  1  0.398085  0.264471  0.373130  1
  Dy  Dy9  1  0.139058  0.276750  0.956019  1
  Dy  Dy10  1  0.325616  0.714675  0.041919  1
  Dy  Dy11  1  0.405152  0.263386  0.872960  1
  Dy  Dy12  1  0.861023  0.723292  0.043978  1
  Dy  Dy13  1  0.678498  0.289018  0.455977  1
  Dy  Dy14  1  0.601913  0.734776  0.957194  1
  Dy  Dy15  1  0.594813  0.736583  0.127028  1
  Dy  Dy16  1  0.637593  0.502260  0.091594  1
  Dy  Dy17  1  0.362433  0.497756  0.908429  1
  Y  Y18  1  0.140397  0.271934  0.458086  1
  Y  Y19  1  0.700134  0.659841  0.277932  1
  Y  Y20  1  0.404870  0.264528  0.542954  1
  Y  Y21  1  0.366140  0.496768  0.407820  1
  Y  Y22  1  0.366064  0.497412  0.092068  1
  Y  Y23  1  0.633914  0.502628  0.907987  1
  Y  Y24  1  0.429330  0.652439  0.778323  1
  Y  Y25  1  0.360745  0.495364  0.591492  1
  Y  Y26  1  0.674767  0.285425  0.958162  1
  Y  Y27  1  0.595002  0.735388  0.456948  1
  Y  Y28  1  0.633869  0.503326  0.592157  1
  Y  Y29  1  0.556432  0.348484  0.720939  1
  Y  Y30  1  0.299943  0.340077  0.722045  1
  Y  Y31  1  0.602109  0.736019  0.627158  1
  B  B32  1  0.507915  0.501112  0.205328  1
  B  B33  1  0.470850  0.430149  0.486815  1
  B  B34  1  0.492107  0.498825  0.794810  1
  B  B35  1  0.470681  0.430227  0.987011  1
  B  B36  1  0.529242  0.569819  0.013028  1
  B  B37  1  0.492520  0.500690  0.705467  1
  B  B38  1  0.507595  0.499188  0.294507  1
  B  B39  1  0.529212  0.569864  0.512877  1
  C  C40  1  0.666127  0.635733  0.525011  1
  C  C41  1  0.460843  0.391503  0.315486  1
  C  C42  1  0.449678  0.391840  0.816334  1
  C  C43  1  0.445254  0.630352  0.024796  1
  C  C44  1  0.553796  0.368620  0.475337  1
  C  C45  1  0.539614  0.608419  0.684631  1
  C  C46  1  0.333957  0.363039  0.975270  1
  C  C47  1  0.450772  0.394956  0.644449  1
  C  C48  1  0.554646  0.369708  0.975230  1
  C  C49  1  0.665985  0.636957  0.024763  1
  C  C50  1  0.549979  0.608243  0.183912  1
  C  C51  1  0.461325  0.395006  0.144593  1
  C  C52  1  0.446231  0.631407  0.524314  1
  C  C53  1  0.334043  0.363938  0.474535  1
  C  C54  1  0.549072  0.604941  0.355463  1
  C  C55  1  0.538936  0.604845  0.855572  1
  I  I56  1  0.455783  0.085940  0.947225  1
  I  I57  1  0.617116  0.867494  0.833940  1
  I  I58  1  0.502816  0.905144  0.640755  1
  I  I59  1  0.111708  0.353051  0.824994  1
  I  I60  1  0.615303  0.205196  0.584105  1
  I  I61  1  0.869458  0.194028  0.437819  1
  I  I62  1  0.845486  0.911516  0.143298  1
  I  I63  1  0.873294  0.506202  0.949722  1
  I  I64  1  0.862663  0.812050  0.702361  1
  I  I65  1  0.383095  0.132759  0.166160  1
  I  I66  1  0.137462  0.187896  0.297476  1
  I  I67  1  0.770997  0.366541  0.324917  1
  I  I68  1  0.866722  0.807889  0.916627  1
  I  I69  1  0.750815  0.338846  0.114566  1
  I  I70  1  0.543855  0.913789  0.052754  1
  I  I71  1  0.108189  0.325368  0.615170  1
  I  I72  1  0.891609  0.674641  0.385055  1
  I  I73  1  0.818147  0.921617  0.539004  1
  I  I74  1  0.135348  0.810229  0.057182  1
  I  I75  1  0.805600  0.509904  0.748929  1
  I  I76  1  0.864434  0.189724  0.942806  1
  I  I77  1  0.127382  0.491559  0.450696  1
  I  I78  1  0.249217  0.661274  0.885662  1
  I  I79  1  0.130642  0.805872  0.562171  1
  I  I80  1  0.624137  0.211841  0.797749  1
  I  I81  1  0.194759  0.490281  0.251087  1
  I  I82  1  0.181915  0.078115  0.461004  1
  I  I83  1  0.497225  0.094978  0.359295  1
  I  I84  1  0.384754  0.794799  0.415864  1
  I  I85  1  0.154474  0.088491  0.856719  1
  I  I86  1  0.872584  0.508661  0.549277  1
  I  I87  1  0.683689  0.868261  0.327966  1
  I  I88  1  0.133304  0.192138  0.083387  1
  I  I89  1  0.126888  0.494038  0.050275  1
  I  I90  1  0.228831  0.633589  0.675105  1
  I  I91  1  0.375838  0.788019  0.202083  1
  I  I92  1  0.316088  0.131563  0.672004  1
  I  I93  1  0.888274  0.646950  0.175023  1
