# generated using pymatgen
data_Y12Ho4MgZn3Co4
_symmetry_space_group_name_H-M   'P 1'
_cell_length_a   9.42749407
_cell_length_b   9.40969143
_cell_length_c   9.40969100
_cell_angle_alpha   60.00000503
_cell_angle_beta   60.06245230
_cell_angle_gamma   60.06245397
_symmetry_Int_Tables_number   1
_chemical_formula_structural   Y12Ho4MgZn3Co4
_chemical_formula_sum   'Y12 Ho4 Mg1 Zn3 Co4'
_cell_volume   590.80117605
_cell_formula_units_Z   1
loop_
 _symmetry_equiv_pos_site_id
 _symmetry_equiv_pos_as_xyz
  1  'x, y, z'
loop_
 _atom_site_type_symbol
 _atom_site_label
 _atom_site_symmetry_multiplicity
 _atom_site_fract_x
 _atom_site_fract_y
 _atom_site_fract_z
 _atom_site_occupancy
  Y  Y0  1  0.807430  0.191760  0.191760  1
  Y  Y1  1  0.188080  0.811759  0.811759  1
  Y  Y2  1  0.188080  0.811759  0.188403  1
  Y  Y3  1  0.807430  0.191760  0.809051  1
  Y  Y4  1  0.188080  0.188403  0.811759  1
  Y  Y5  1  0.807430  0.809051  0.191760  1
  Y  Y6  1  0.934084  0.561793  0.561793  1
  Y  Y7  1  0.560553  0.938196  0.938196  1
  Y  Y8  1  0.560553  0.938196  0.563056  1
  Y  Y9  1  0.934084  0.561793  0.942331  1
  Y  Y10  1  0.560553  0.563056  0.938196  1
  Y  Y11  1  0.934084  0.942331  0.561793  1
  Ho  Ho12  1  0.348420  0.346356  0.346356  1
  Ho  Ho13  1  0.348420  0.346356  0.958869  1
  Ho  Ho14  1  0.348420  0.958869  0.346356  1
  Ho  Ho15  1  0.947612  0.350796  0.350796  1
  Mg  Mg16  1  0.290045  0.569985  0.569985  1
  Zn  Zn17  1  0.585246  0.577889  0.577889  1
  Zn  Zn18  1  0.585246  0.577889  0.258975  1
  Zn  Zn19  1  0.585246  0.258975  0.577889  1
  Co  Co20  1  0.139684  0.144234  0.144234  1
  Co  Co21  1  0.139684  0.144234  0.571846  1
  Co  Co22  1  0.139684  0.571846  0.144234  1
  Co  Co23  1  0.571853  0.142716  0.142716  1
