# generated using pymatgen
data_AcGe3Os
_symmetry_space_group_name_H-M   'P 1'
_cell_length_a   6.08707139
_cell_length_b   6.08707063
_cell_length_c   6.08706983
_cell_angle_alpha   136.15570040
_cell_angle_beta   136.15569315
_cell_angle_gamma   63.73971663
_symmetry_Int_Tables_number   1
_chemical_formula_structural   AcGe3Os
_chemical_formula_sum   'Ac1 Ge3 Os1'
_cell_volume   106.79340959
_cell_formula_units_Z   1
loop_
 _symmetry_equiv_pos_site_id
 _symmetry_equiv_pos_as_xyz
  1  'x, y, z'
loop_
 _atom_site_type_symbol
 _atom_site_label
 _atom_site_symmetry_multiplicity
 _atom_site_fract_x
 _atom_site_fract_y
 _atom_site_fract_z
 _atom_site_occupancy
  Ac  Ac0  1  0.000572  0.000572  0.000000  1
  Ge  Ge1  1  0.424964  0.424964  0.000000  1
  Ge  Ge2  1  0.258844  0.758844  0.500000  1
  Ge  Ge3  1  0.758844  0.258844  0.500000  1
  Os  Os4  1  0.658775  0.658775  0.000000  1
