# generated using pymatgen
data_Ho2Er2TmSn4
_symmetry_space_group_name_H-M   'P 1'
_cell_length_a   7.99602600
_cell_length_b   8.12985300
_cell_length_c   15.37299200
_cell_angle_alpha   90.00000000
_cell_angle_beta   90.00000000
_cell_angle_gamma   90.00000000
_symmetry_Int_Tables_number   1
_chemical_formula_structural   Ho2Er2TmSn4
_chemical_formula_sum   'Ho8 Er8 Tm4 Sn16'
_cell_volume   999.34464987
_cell_formula_units_Z   4
loop_
 _symmetry_equiv_pos_site_id
 _symmetry_equiv_pos_as_xyz
  1  'x, y, z'
loop_
 _atom_site_type_symbol
 _atom_site_label
 _atom_site_symmetry_multiplicity
 _atom_site_fract_x
 _atom_site_fract_y
 _atom_site_fract_z
 _atom_site_occupancy
  Ho  Ho0  1  0.521331  0.320673  0.902802  1
  Ho  Ho1  1  0.021331  0.179327  0.597198  1
  Ho  Ho2  1  0.478669  0.679327  0.402802  1
  Ho  Ho3  1  0.978669  0.820673  0.097198  1
  Ho  Ho4  1  0.478669  0.679327  0.097198  1
  Ho  Ho5  1  0.978669  0.820673  0.402802  1
  Ho  Ho6  1  0.521331  0.320673  0.597198  1
  Ho  Ho7  1  0.021331  0.179327  0.902802  1
  Er  Er8  1  0.367510  0.836627  0.877464  1
  Er  Er9  1  0.867510  0.663373  0.622536  1
  Er  Er10  1  0.632490  0.163373  0.377464  1
  Er  Er11  1  0.132490  0.336627  0.122536  1
  Er  Er12  1  0.632490  0.163373  0.122536  1
  Er  Er13  1  0.132490  0.336627  0.377464  1
  Er  Er14  1  0.367510  0.836627  0.622536  1
  Er  Er15  1  0.867510  0.663373  0.877464  1
  Tm  Tm16  1  0.198414  0.503567  0.750000  1
  Tm  Tm17  1  0.698414  0.996433  0.750000  1
  Tm  Tm18  1  0.801586  0.496433  0.250000  1
  Tm  Tm19  1  0.301586  0.003567  0.250000  1
  Sn  Sn20  1  0.293188  0.036540  0.041727  1
  Sn  Sn21  1  0.793188  0.463460  0.458273  1
  Sn  Sn22  1  0.706812  0.963460  0.541727  1
  Sn  Sn23  1  0.206812  0.536540  0.958273  1
  Sn  Sn24  1  0.706812  0.963460  0.958273  1
  Sn  Sn25  1  0.206812  0.536540  0.541727  1
  Sn  Sn26  1  0.293188  0.036540  0.458273  1
  Sn  Sn27  1  0.793188  0.463460  0.041727  1
  Sn  Sn28  1  0.564466  0.619368  0.750000  1
  Sn  Sn29  1  0.064466  0.880632  0.750000  1
  Sn  Sn30  1  0.435534  0.380632  0.250000  1
  Sn  Sn31  1  0.935534  0.119368  0.250000  1
  Sn  Sn32  1  0.330641  0.148565  0.750000  1
  Sn  Sn33  1  0.830641  0.351435  0.750000  1
  Sn  Sn34  1  0.669359  0.851435  0.250000  1
  Sn  Sn35  1  0.169359  0.648565  0.250000  1
