# generated using pymatgen
data_Nd2Er5Tm3(In2Pt)4
_symmetry_space_group_name_H-M   'P 1'
_cell_length_a   3.60823000
_cell_length_b   8.18099013
_cell_length_c   18.31940328
_cell_angle_alpha   90.02026325
_cell_angle_beta   90.00000000
_cell_angle_gamma   90.00000000
_symmetry_Int_Tables_number   1
_chemical_formula_structural   Nd2Er5Tm3(In2Pt)4
_chemical_formula_sum   'Nd2 Er5 Tm3 In8 Pt4'
_cell_volume   540.76849011
_cell_formula_units_Z   1
loop_
 _symmetry_equiv_pos_site_id
 _symmetry_equiv_pos_as_xyz
  1  'x, y, z'
loop_
 _atom_site_type_symbol
 _atom_site_label
 _atom_site_symmetry_multiplicity
 _atom_site_fract_x
 _atom_site_fract_y
 _atom_site_fract_z
 _atom_site_occupancy
  Nd  Nd0  1  0.000000  0.000002  0.999897  1
  Nd  Nd1  1  0.000000  0.499825  0.500041  1
  Er  Er2  1  0.000000  0.620929  0.086364  1
  Er  Er3  1  0.000000  0.242634  0.219237  1
  Er  Er4  1  0.000000  0.757729  0.780826  1
  Er  Er5  1  0.000000  0.257626  0.718986  1
  Er  Er6  1  0.000000  0.742406  0.281023  1
  Tm  Tm7  1  0.000000  0.120673  0.413335  1
  Tm  Tm8  1  0.000000  0.879121  0.586784  1
  Tm  Tm9  1  0.000000  0.379467  0.913161  1
  In  In10  1  0.500000  0.421332  0.348196  1
  In  In11  1  0.500000  0.578516  0.652042  1
  In  In12  1  0.500000  0.078993  0.847970  1
  In  In13  1  0.500000  0.922161  0.152070  1
  In  In14  1  0.500000  0.301305  0.066912  1
  In  In15  1  0.500000  0.697914  0.932753  1
  In  In16  1  0.500000  0.197537  0.566720  1
  In  In17  1  0.500000  0.801935  0.433388  1
  Pt  Pt18  1  0.500000  0.026310  0.303932  1
  Pt  Pt19  1  0.500000  0.973863  0.696178  1
  Pt  Pt20  1  0.500000  0.473670  0.803745  1
  Pt  Pt21  1  0.500000  0.526052  0.196440  1
