# generated using pymatgen
data_Dy9Sc(Zn2Bi)2
_symmetry_space_group_name_H-M   'P 1'
_cell_length_a   8.56308170
_cell_length_b   8.56308167
_cell_length_c   8.56308218
_cell_angle_alpha   123.20345829
_cell_angle_beta   123.20344879
_cell_angle_gamma   84.53559279
_symmetry_Int_Tables_number   1
_chemical_formula_structural   Dy9Sc(Zn2Bi)2
_chemical_formula_sum   'Dy9 Sc1 Zn4 Bi2'
_cell_volume   420.40407152
_cell_formula_units_Z   1
loop_
 _symmetry_equiv_pos_site_id
 _symmetry_equiv_pos_as_xyz
  1  'x, y, z'
loop_
 _atom_site_type_symbol
 _atom_site_label
 _atom_site_symmetry_multiplicity
 _atom_site_fract_x
 _atom_site_fract_y
 _atom_site_fract_z
 _atom_site_occupancy
  Dy  Dy0  1  0.500000  0.500000  0.000000  1
  Dy  Dy1  1  0.513246  0.009693  0.805972  1
  Dy  Dy2  1  0.203722  0.707275  0.194028  1
  Dy  Dy3  1  0.009693  0.203722  0.496447  1
  Dy  Dy4  1  0.707275  0.513246  0.503553  1
  Dy  Dy5  1  0.486754  0.990307  0.194028  1
  Dy  Dy6  1  0.796278  0.292725  0.805972  1
  Dy  Dy7  1  0.990307  0.796278  0.503553  1
  Dy  Dy8  1  0.292725  0.486754  0.496447  1
  Sc  Sc9  1  0.000000  0.000000  0.000000  1
  Zn  Zn10  1  0.139116  0.643785  0.782901  1
  Zn  Zn11  1  0.860884  0.356215  0.217099  1
  Zn  Zn12  1  0.643785  0.860884  0.504669  1
  Zn  Zn13  1  0.356215  0.139116  0.495331  1
  Bi  Bi14  1  0.245959  0.245959  0.000000  1
  Bi  Bi15  1  0.754041  0.754041  0.000000  1
