# generated using pymatgen
data_HoLu15(AlPt)4
_symmetry_space_group_name_H-M   'P 1'
_cell_length_a   9.40658488
_cell_length_b   9.40658496
_cell_length_c   9.40999400
_cell_angle_alpha   59.98801789
_cell_angle_beta   59.98801760
_cell_angle_gamma   59.95385042
_symmetry_Int_Tables_number   1
_chemical_formula_structural   HoLu15(AlPt)4
_chemical_formula_sum   'Ho1 Lu15 Al4 Pt4'
_cell_volume   588.44785593
_cell_formula_units_Z   1
loop_
 _symmetry_equiv_pos_site_id
 _symmetry_equiv_pos_as_xyz
  1  'x, y, z'
loop_
 _atom_site_type_symbol
 _atom_site_label
 _atom_site_symmetry_multiplicity
 _atom_site_fract_x
 _atom_site_fract_y
 _atom_site_fract_z
 _atom_site_occupancy
  Ho  Ho0  1  0.183722  0.183722  0.816278  1
  Lu  Lu1  1  0.604712  0.604712  0.603165  1
  Lu  Lu2  1  0.604712  0.604712  0.187413  1
  Lu  Lu3  1  0.603169  0.187221  0.604805  1
  Lu  Lu4  1  0.187221  0.603169  0.604805  1
  Lu  Lu5  1  0.057410  0.443422  0.441585  1
  Lu  Lu6  1  0.443422  0.057410  0.057583  1
  Lu  Lu7  1  0.443422  0.057410  0.441585  1
  Lu  Lu8  1  0.057410  0.443422  0.057583  1
  Lu  Lu9  1  0.443332  0.443332  0.056668  1
  Lu  Lu10  1  0.056644  0.056644  0.443356  1
  Lu  Lu11  1  0.185969  0.813030  0.813779  1
  Lu  Lu12  1  0.813030  0.185969  0.187222  1
  Lu  Lu13  1  0.813030  0.185969  0.813779  1
  Lu  Lu14  1  0.185969  0.813030  0.187222  1
  Lu  Lu15  1  0.815223  0.815223  0.184777  1
  Al  Al16  1  0.828564  0.828564  0.828897  1
  Al  Al17  1  0.828564  0.828564  0.513977  1
  Al  Al18  1  0.827883  0.515579  0.828269  1
  Al  Al19  1  0.515579  0.827883  0.828269  1
  Pt  Pt20  1  0.394070  0.394070  0.392037  1
  Pt  Pt21  1  0.394070  0.394070  0.819821  1
  Pt  Pt22  1  0.392647  0.820227  0.393563  1
  Pt  Pt23  1  0.820227  0.392647  0.393563  1
