# generated using pymatgen
data_Pa6Ga6PdRh5
_symmetry_space_group_name_H-M   'P 1'
_cell_length_a   7.12442600
_cell_length_b   7.12442608
_cell_length_c   7.95504000
_cell_angle_alpha   90.00000000
_cell_angle_beta   90.00000000
_cell_angle_gamma   119.99999961
_symmetry_Int_Tables_number   1
_chemical_formula_structural   Pa6Ga6PdRh5
_chemical_formula_sum   'Pa6 Ga6 Pd1 Rh5'
_cell_volume   349.68158823
_cell_formula_units_Z   1
loop_
 _symmetry_equiv_pos_site_id
 _symmetry_equiv_pos_as_xyz
  1  'x, y, z'
loop_
 _atom_site_type_symbol
 _atom_site_label
 _atom_site_symmetry_multiplicity
 _atom_site_fract_x
 _atom_site_fract_y
 _atom_site_fract_z
 _atom_site_occupancy
  Pa  Pa0  1  0.588700  0.587636  0.250000  1
  Pa  Pa1  1  0.000989  0.420285  0.750000  1
  Pa  Pa2  1  0.412364  0.001064  0.250000  1
  Pa  Pa3  1  0.998936  0.411300  0.250000  1
  Pa  Pa4  1  0.419296  0.999011  0.750000  1
  Pa  Pa5  1  0.579715  0.580704  0.750000  1
  Ga  Ga6  1  0.247351  0.247411  0.497697  1
  Ga  Ga7  1  0.752589  0.999940  0.497697  1
  Ga  Ga8  1  0.000060  0.752649  0.497697  1
  Ga  Ga9  1  0.752589  0.999940  0.002303  1
  Ga  Ga10  1  0.247351  0.247411  0.002303  1
  Ga  Ga11  1  0.000060  0.752649  0.002303  1
  Pd  Pd12  1  0.000000  0.000000  0.750000  1
  Rh  Rh13  1  0.333333  0.666667  0.499888  1
  Rh  Rh14  1  0.000000  0.000000  0.250000  1
  Rh  Rh15  1  0.333333  0.666667  0.000112  1
  Rh  Rh16  1  0.666667  0.333333  0.502195  1
  Rh  Rh17  1  0.666667  0.333333  0.997805  1
