# generated using pymatgen
data_Ba2CeUO6
_symmetry_space_group_name_H-M   'P 1'
_cell_length_a   6.28643090
_cell_length_b   6.30068511
_cell_length_c   6.30068503
_cell_angle_alpha   120.19179397
_cell_angle_beta   119.51730533
_cell_angle_gamma   90.31767327
_symmetry_Int_Tables_number   1
_chemical_formula_structural   Ba2CeUO6
_chemical_formula_sum   'Ba2 Ce1 U1 O6'
_cell_volume   176.74561213
_cell_formula_units_Z   1
loop_
 _symmetry_equiv_pos_site_id
 _symmetry_equiv_pos_as_xyz
  1  'x, y, z'
loop_
 _atom_site_type_symbol
 _atom_site_label
 _atom_site_symmetry_multiplicity
 _atom_site_fract_x
 _atom_site_fract_y
 _atom_site_fract_z
 _atom_site_occupancy
  Ba  Ba0  1  0.740317  0.750788  0.989528  1
  Ba  Ba1  1  0.259683  0.249212  0.010472  1
  Ce  Ce2  1  0.500000  0.000000  0.500000  1
  U  U3  1  0.000000  0.500000  0.500000  1
  O  O4  1  0.285441  0.788594  0.980371  1
  O  O5  1  0.714559  0.694930  0.503153  1
  O  O6  1  0.714559  0.211406  0.019629  1
  O  O7  1  0.285441  0.305070  0.496847  1
  O  O8  1  0.844197  0.261432  0.582764  1
  O  O9  1  0.155803  0.738568  0.417236  1
