# generated using pymatgen
data_YbY3ThInPd4
_symmetry_space_group_name_H-M   'P 1'
_cell_length_a   7.97176135
_cell_length_b   7.92086915
_cell_length_c   3.78921400
_cell_angle_alpha   90.00000000
_cell_angle_beta   90.00000000
_cell_angle_gamma   91.01471833
_symmetry_Int_Tables_number   1
_chemical_formula_structural   YbY3ThInPd4
_chemical_formula_sum   'Yb1 Y3 Th1 In1 Pd4'
_cell_volume   239.22587363
_cell_formula_units_Z   1
loop_
 _symmetry_equiv_pos_site_id
 _symmetry_equiv_pos_as_xyz
  1  'x, y, z'
loop_
 _atom_site_type_symbol
 _atom_site_label
 _atom_site_symmetry_multiplicity
 _atom_site_fract_x
 _atom_site_fract_y
 _atom_site_fract_z
 _atom_site_occupancy
  Yb  Yb0  1  0.495138  0.507940  0.000000  1
  Y  Y1  1  0.311228  0.855727  0.500000  1
  Y  Y2  1  0.145176  0.315612  0.500000  1
  Y  Y3  1  0.860253  0.682394  0.500000  1
  Th  Th4  1  0.679544  0.144774  0.500000  1
  In  In5  1  0.005757  0.995994  0.000000  1
  Pd  Pd6  1  0.137278  0.622102  0.000000  1
  Pd  Pd7  1  0.858069  0.369536  0.000000  1
  Pd  Pd8  1  0.628978  0.864414  0.000000  1
  Pd  Pd9  1  0.378579  0.141506  0.000000  1
