# generated using pymatgen
data_SbPtI18
_symmetry_space_group_name_H-M   'P 1'
_cell_length_a   10.47909593
_cell_length_b   10.26335365
_cell_length_c   10.18574601
_cell_angle_alpha   88.74038058
_cell_angle_beta   86.93855195
_cell_angle_gamma   88.74328042
_symmetry_Int_Tables_number   1
_chemical_formula_structural   SbPtI18
_chemical_formula_sum   'Sb1 Pt1 I18'
_cell_volume   1093.41955529
_cell_formula_units_Z   1
loop_
 _symmetry_equiv_pos_site_id
 _symmetry_equiv_pos_as_xyz
  1  'x, y, z'
loop_
 _atom_site_type_symbol
 _atom_site_label
 _atom_site_symmetry_multiplicity
 _atom_site_fract_x
 _atom_site_fract_y
 _atom_site_fract_z
 _atom_site_occupancy
  Sb  Sb0  1  0.000000  0.000000  0.000000  1
  Pt  Pt1  1  0.500000  0.500000  0.500000  1
  I  I2  1  0.779124  0.471688  0.504206  1
  I  I3  1  0.500328  0.761422  0.476561  1
  I  I4  1  0.473495  0.500792  0.764367  1
  I  I5  1  0.220876  0.528312  0.495794  1
  I  I6  1  0.499672  0.238578  0.523439  1
  I  I7  1  0.526505  0.499208  0.235633  1
  I  I8  1  0.891314  0.382435  0.742774  1
  I  I9  1  0.744163  0.878183  0.386434  1
  I  I10  1  0.380479  0.746399  0.880086  1
  I  I11  1  0.108686  0.617565  0.257226  1
  I  I12  1  0.255837  0.121817  0.613566  1
  I  I13  1  0.619521  0.253601  0.119914  1
  I  I14  1  0.026164  0.975929  0.697893  1
  I  I15  1  0.707832  0.020761  0.975304  1
  I  I16  1  0.973376  0.703890  0.015929  1
  I  I17  1  0.973836  0.024071  0.302107  1
  I  I18  1  0.292168  0.979239  0.024696  1
  I  I19  1  0.026624  0.296110  0.984071  1
