# generated using pymatgen
data_Nd2Sm6Be3Si12Pd
_symmetry_space_group_name_H-M   'P 1'
_cell_length_a   8.01910700
_cell_length_b   8.01910815
_cell_length_c   8.44114200
_cell_angle_alpha   90.00000000
_cell_angle_beta   90.00000000
_cell_angle_gamma   119.99999111
_symmetry_Int_Tables_number   1
_chemical_formula_structural   Nd2Sm6Be3Si12Pd
_chemical_formula_sum   'Nd2 Sm6 Be3 Si12 Pd1'
_cell_volume   470.09318593
_cell_formula_units_Z   1
loop_
 _symmetry_equiv_pos_site_id
 _symmetry_equiv_pos_as_xyz
  1  'x, y, z'
loop_
 _atom_site_type_symbol
 _atom_site_label
 _atom_site_symmetry_multiplicity
 _atom_site_fract_x
 _atom_site_fract_y
 _atom_site_fract_z
 _atom_site_occupancy
  Nd  Nd0  1  0.000000  0.000000  0.750026  1
  Nd  Nd1  1  0.000000  0.000000  0.250085  1
  Sm  Sm2  1  0.498431  0.501569  0.752360  1
  Sm  Sm3  1  0.498550  0.501450  0.247703  1
  Sm  Sm4  1  0.003138  0.501569  0.752360  1
  Sm  Sm5  1  0.002899  0.501450  0.247703  1
  Sm  Sm6  1  0.498431  0.996862  0.752360  1
  Sm  Sm7  1  0.498550  0.997101  0.247703  1
  Be  Be8  1  0.666667  0.333333  0.998832  1
  Be  Be9  1  0.333333  0.666667  0.001077  1
  Be  Be10  1  0.333333  0.666667  0.499247  1
  Si  Si11  1  0.826989  0.173011  0.000008  1
  Si  Si12  1  0.172954  0.827046  0.000112  1
  Si  Si13  1  0.346024  0.173011  0.000008  1
  Si  Si14  1  0.171208  0.828792  0.499736  1
  Si  Si15  1  0.654093  0.827046  0.000112  1
  Si  Si16  1  0.833213  0.166787  0.500206  1
  Si  Si17  1  0.826989  0.653976  0.000008  1
  Si  Si18  1  0.657585  0.828792  0.499736  1
  Si  Si19  1  0.172954  0.345907  0.000112  1
  Si  Si20  1  0.333574  0.166787  0.500206  1
  Si  Si21  1  0.171208  0.342415  0.499736  1
  Si  Si22  1  0.833213  0.666426  0.500206  1
  Pd  Pd23  1  0.666667  0.333333  0.500355  1
