# generated using pymatgen
data_Tm10Zn3Bi2Pt
_symmetry_space_group_name_H-M   'P 1'
_cell_length_a   8.53881421
_cell_length_b   8.53881398
_cell_length_c   8.58283366
_cell_angle_alpha   124.24979616
_cell_angle_beta   124.24979909
_cell_angle_gamma   82.44911266
_symmetry_Int_Tables_number   1
_chemical_formula_structural   Tm10Zn3Bi2Pt
_chemical_formula_sum   'Tm10 Zn3 Bi2 Pt1'
_cell_volume   411.53941444
_cell_formula_units_Z   1
loop_
 _symmetry_equiv_pos_site_id
 _symmetry_equiv_pos_as_xyz
  1  'x, y, z'
loop_
 _atom_site_type_symbol
 _atom_site_label
 _atom_site_symmetry_multiplicity
 _atom_site_fract_x
 _atom_site_fract_y
 _atom_site_fract_z
 _atom_site_occupancy
  Tm  Tm0  1  0.003935  0.001873  0.005808  1
  Tm  Tm1  1  0.498127  0.496065  0.994192  1
  Tm  Tm2  1  0.786891  0.294329  0.800241  1
  Tm  Tm3  1  0.205671  0.713109  0.199759  1
  Tm  Tm4  1  0.486650  0.994088  0.199759  1
  Tm  Tm5  1  0.300001  0.476509  0.500000  1
  Tm  Tm6  1  0.023491  0.199999  0.500000  1
  Tm  Tm7  1  0.505912  0.013350  0.800241  1
  Tm  Tm8  1  0.706843  0.514285  0.500000  1
  Tm  Tm9  1  0.985715  0.793157  0.500000  1
  Zn  Zn10  1  0.137538  0.639846  0.777384  1
  Zn  Zn11  1  0.860154  0.362462  0.222616  1
  Zn  Zn12  1  0.637698  0.862302  0.500000  1
  Bi  Bi13  1  0.246724  0.253276  0.000000  1
  Bi  Bi14  1  0.746724  0.753276  0.000000  1
  Pt  Pt15  1  0.367925  0.132075  0.500000  1
