# generated using pymatgen
data_Tm16Co4AgHg3
_symmetry_space_group_name_H-M   'P 1'
_cell_length_a   9.33481082
_cell_length_b   9.33481134
_cell_length_c   9.33481052
_cell_angle_alpha   60.03126251
_cell_angle_beta   60.03126066
_cell_angle_gamma   60.03126398
_symmetry_Int_Tables_number   1
_chemical_formula_structural   Tm16Co4AgHg3
_chemical_formula_sum   'Tm16 Co4 Ag1 Hg3'
_cell_volume   575.58468779
_cell_formula_units_Z   1
loop_
 _symmetry_equiv_pos_site_id
 _symmetry_equiv_pos_as_xyz
  1  'x, y, z'
loop_
 _atom_site_type_symbol
 _atom_site_label
 _atom_site_symmetry_multiplicity
 _atom_site_fract_x
 _atom_site_fract_y
 _atom_site_fract_z
 _atom_site_occupancy
  Tm  Tm0  1  0.347772  0.347772  0.347772  1
  Tm  Tm1  1  0.347405  0.347405  0.956843  1
  Tm  Tm2  1  0.347405  0.956843  0.347405  1
  Tm  Tm3  1  0.956843  0.347405  0.347405  1
  Tm  Tm4  1  0.811521  0.188601  0.188601  1
  Tm  Tm5  1  0.188787  0.811809  0.811809  1
  Tm  Tm6  1  0.188601  0.811521  0.188601  1
  Tm  Tm7  1  0.811809  0.188787  0.811809  1
  Tm  Tm8  1  0.188601  0.188601  0.811521  1
  Tm  Tm9  1  0.811809  0.811809  0.188787  1
  Tm  Tm10  1  0.936922  0.561540  0.561540  1
  Tm  Tm11  1  0.561633  0.937941  0.937941  1
  Tm  Tm12  1  0.561540  0.936922  0.561540  1
  Tm  Tm13  1  0.937941  0.561633  0.937941  1
  Tm  Tm14  1  0.561540  0.561540  0.936922  1
  Tm  Tm15  1  0.937941  0.937941  0.561633  1
  Co  Co16  1  0.141292  0.141292  0.141292  1
  Co  Co17  1  0.141476  0.141476  0.575910  1
  Co  Co18  1  0.141476  0.575910  0.141476  1
  Co  Co19  1  0.575910  0.141476  0.141476  1
  Ag  Ag20  1  0.583334  0.583334  0.583334  1
  Hg  Hg21  1  0.584739  0.584739  0.248964  1
  Hg  Hg22  1  0.584739  0.248964  0.584739  1
  Hg  Hg23  1  0.248964  0.584739  0.584739  1
