# generated using pymatgen
data_Nd5Ti3(Co4P3)4
_symmetry_space_group_name_H-M   'P 1'
_cell_length_a   12.30837400
_cell_length_b   12.30837401
_cell_length_c   3.74679100
_cell_angle_alpha   90.00000000
_cell_angle_beta   90.00000000
_cell_angle_gamma   120.00000534
_symmetry_Int_Tables_number   1
_chemical_formula_structural   Nd5Ti3(Co4P3)4
_chemical_formula_sum   'Nd5 Ti3 Co16 P12'
_cell_volume   491.57687618
_cell_formula_units_Z   1
loop_
 _symmetry_equiv_pos_site_id
 _symmetry_equiv_pos_as_xyz
  1  'x, y, z'
loop_
 _atom_site_type_symbol
 _atom_site_label
 _atom_site_symmetry_multiplicity
 _atom_site_fract_x
 _atom_site_fract_y
 _atom_site_fract_z
 _atom_site_occupancy
  Nd  Nd0  1  0.186082  0.186082  0.500000  1
  Nd  Nd1  1  0.813918  0.000000  0.500000  1
  Nd  Nd2  1  0.000000  0.813918  0.500000  1
  Nd  Nd3  1  0.333333  0.666667  0.000000  1
  Nd  Nd4  1  0.666667  0.333333  0.000000  1
  Ti  Ti5  1  0.562616  0.562616  0.000000  1
  Ti  Ti6  1  0.437384  0.000000  0.000000  1
  Ti  Ti7  1  0.000000  0.437384  0.000000  1
  Co  Co8  1  0.716753  0.716753  0.500000  1
  Co  Co9  1  0.283247  0.000000  0.500000  1
  Co  Co10  1  0.000000  0.283247  0.500000  1
  Co  Co11  1  0.177194  0.376986  0.000000  1
  Co  Co12  1  0.623014  0.800208  0.000000  1
  Co  Co13  1  0.199792  0.822806  0.000000  1
  Co  Co14  1  0.800208  0.623014  0.000000  1
  Co  Co15  1  0.822806  0.199792  0.000000  1
  Co  Co16  1  0.376986  0.177194  0.000000  1
  Co  Co17  1  0.356658  0.480222  0.500000  1
  Co  Co18  1  0.519778  0.876436  0.500000  1
  Co  Co19  1  0.123564  0.643342  0.500000  1
  Co  Co20  1  0.876436  0.519778  0.500000  1
  Co  Co21  1  0.643342  0.123564  0.500000  1
  Co  Co22  1  0.480222  0.356658  0.500000  1
  Co  Co23  1  0.000000  0.000000  0.000000  1
  P  P24  1  0.817489  0.817489  0.000000  1
  P  P25  1  0.182511  0.000000  0.000000  1
  P  P26  1  0.000000  0.182511  0.000000  1
  P  P27  1  0.165719  0.477150  0.500000  1
  P  P28  1  0.522850  0.688570  0.500000  1
  P  P29  1  0.311430  0.834281  0.500000  1
  P  P30  1  0.688570  0.522850  0.500000  1
  P  P31  1  0.834281  0.311430  0.500000  1
  P  P32  1  0.477150  0.165719  0.500000  1
  P  P33  1  0.363870  0.363870  0.000000  1
  P  P34  1  0.636130  0.000000  0.000000  1
  P  P35  1  0.000000  0.636130  0.000000  1
