# generated using pymatgen
data_TbHoFe3Tc14C3
_symmetry_space_group_name_H-M   'P 1'
_cell_length_a   6.89274952
_cell_length_b   6.89274925
_cell_length_c   6.89274820
_cell_angle_alpha   82.39459642
_cell_angle_beta   82.39459931
_cell_angle_gamma   82.39460016
_symmetry_Int_Tables_number   1
_chemical_formula_structural   TbHoFe3Tc14C3
_chemical_formula_sum   'Tb1 Ho1 Fe3 Tc14 C3'
_cell_volume   319.53302223
_cell_formula_units_Z   1
loop_
 _symmetry_equiv_pos_site_id
 _symmetry_equiv_pos_as_xyz
  1  'x, y, z'
loop_
 _atom_site_type_symbol
 _atom_site_label
 _atom_site_symmetry_multiplicity
 _atom_site_fract_x
 _atom_site_fract_y
 _atom_site_fract_z
 _atom_site_occupancy
  Tb  Tb0  1  0.652046  0.652046  0.652046  1
  Ho  Ho1  1  0.347704  0.347704  0.347704  1
  Fe  Fe2  1  0.999987  0.999987  0.500029  1
  Fe  Fe3  1  0.500029  0.999987  0.999987  1
  Fe  Fe4  1  0.999987  0.500029  0.999987  1
  Tc  Tc5  1  0.724132  0.275782  0.000105  1
  Tc  Tc6  1  0.000105  0.724132  0.275782  1
  Tc  Tc7  1  0.275782  0.000105  0.724132  1
  Tc  Tc8  1  0.000105  0.275782  0.724132  1
  Tc  Tc9  1  0.724132  0.000105  0.275782  1
  Tc  Tc10  1  0.275782  0.724132  0.000105  1
  Tc  Tc11  1  0.348277  0.860866  0.348277  1
  Tc  Tc12  1  0.348277  0.348277  0.860866  1
  Tc  Tc13  1  0.860866  0.348277  0.348277  1
  Tc  Tc14  1  0.651444  0.139688  0.651444  1
  Tc  Tc15  1  0.651444  0.651444  0.139688  1
  Tc  Tc16  1  0.139688  0.651444  0.651444  1
  Tc  Tc17  1  0.899100  0.899100  0.899100  1
  Tc  Tc18  1  0.101068  0.101068  0.101068  1
  C  C19  1  0.499426  0.499426  0.001194  1
  C  C20  1  0.001194  0.499426  0.499426  1
  C  C21  1  0.499426  0.001194  0.499426  1
