# generated using pymatgen
data_Tb15Ce(NiHg)4
_symmetry_space_group_name_H-M   'P 1'
_cell_length_a   9.58067602
_cell_length_b   9.58067536
_cell_length_c   9.58067576
_cell_angle_alpha   59.84101525
_cell_angle_beta   59.84102171
_cell_angle_gamma   59.84101232
_symmetry_Int_Tables_number   1
_chemical_formula_structural   Tb15Ce(NiHg)4
_chemical_formula_sum   'Tb15 Ce1 Ni4 Hg4'
_cell_volume   619.58884834
_cell_formula_units_Z   1
loop_
 _symmetry_equiv_pos_site_id
 _symmetry_equiv_pos_as_xyz
  1  'x, y, z'
loop_
 _atom_site_type_symbol
 _atom_site_label
 _atom_site_symmetry_multiplicity
 _atom_site_fract_x
 _atom_site_fract_y
 _atom_site_fract_z
 _atom_site_occupancy
  Tb  Tb0  1  0.350448  0.350448  0.947112  1
  Tb  Tb1  1  0.350448  0.947112  0.350448  1
  Tb  Tb2  1  0.947112  0.350448  0.350448  1
  Tb  Tb3  1  0.811899  0.189926  0.189926  1
  Tb  Tb4  1  0.190329  0.811539  0.811539  1
  Tb  Tb5  1  0.189926  0.811899  0.189926  1
  Tb  Tb6  1  0.811539  0.190329  0.811539  1
  Tb  Tb7  1  0.189926  0.189926  0.811899  1
  Tb  Tb8  1  0.811539  0.811539  0.190329  1
  Tb  Tb9  1  0.940309  0.562625  0.562625  1
  Tb  Tb10  1  0.562572  0.936264  0.936264  1
  Tb  Tb11  1  0.562625  0.940309  0.562625  1
  Tb  Tb12  1  0.936264  0.562572  0.936264  1
  Tb  Tb13  1  0.562625  0.562625  0.940309  1
  Tb  Tb14  1  0.936264  0.936264  0.562572  1
  Ce  Ce15  1  0.344912  0.344912  0.344912  1
  Ni  Ni16  1  0.143484  0.143484  0.143484  1
  Ni  Ni17  1  0.144721  0.144721  0.569245  1
  Ni  Ni18  1  0.144721  0.569245  0.144721  1
  Ni  Ni19  1  0.569245  0.144721  0.144721  1
  Hg  Hg20  1  0.584863  0.584863  0.584863  1
  Hg  Hg21  1  0.584255  0.584255  0.245716  1
  Hg  Hg22  1  0.584255  0.245716  0.584255  1
  Hg  Hg23  1  0.245716  0.584255  0.584255  1
