# generated using pymatgen
data_Ce3Co8ReP6
_symmetry_space_group_name_H-M   'P 1'
_cell_length_a   3.78198000
_cell_length_b   10.62451500
_cell_length_c   12.35658700
_cell_angle_alpha   90.00000000
_cell_angle_beta   90.00000000
_cell_angle_gamma   90.00000000
_symmetry_Int_Tables_number   1
_chemical_formula_structural   Ce3Co8ReP6
_chemical_formula_sum   'Ce6 Co16 Re2 P12'
_cell_volume   496.50871189
_cell_formula_units_Z   2
loop_
 _symmetry_equiv_pos_site_id
 _symmetry_equiv_pos_as_xyz
  1  'x, y, z'
loop_
 _atom_site_type_symbol
 _atom_site_label
 _atom_site_symmetry_multiplicity
 _atom_site_fract_x
 _atom_site_fract_y
 _atom_site_fract_z
 _atom_site_occupancy
  Ce  Ce0  1  0.000000  0.500000  0.524753  1
  Ce  Ce1  1  0.500000  0.000000  0.475247  1
  Ce  Ce2  1  0.500000  0.819088  0.207786  1
  Ce  Ce3  1  0.500000  0.180912  0.207786  1
  Ce  Ce4  1  0.000000  0.680912  0.792214  1
  Ce  Ce5  1  0.000000  0.319088  0.792214  1
  Co  Co6  1  0.500000  0.500000  0.702791  1
  Co  Co7  1  0.000000  0.000000  0.297209  1
  Co  Co8  1  0.000000  0.500000  0.987114  1
  Co  Co9  1  0.500000  0.000000  0.012886  1
  Co  Co10  1  0.500000  0.332383  0.991873  1
  Co  Co11  1  0.500000  0.667617  0.991873  1
  Co  Co12  1  0.000000  0.167617  0.008127  1
  Co  Co13  1  0.000000  0.832383  0.008127  1
  Co  Co14  1  0.500000  0.300761  0.427838  1
  Co  Co15  1  0.500000  0.699239  0.427838  1
  Co  Co16  1  0.000000  0.199239  0.572162  1
  Co  Co17  1  0.000000  0.800761  0.572162  1
  Co  Co18  1  0.500000  0.880505  0.713391  1
  Co  Co19  1  0.500000  0.119495  0.713391  1
  Co  Co20  1  0.000000  0.619495  0.286609  1
  Co  Co21  1  0.000000  0.380505  0.286609  1
  Re  Re22  1  0.500000  0.500000  0.154013  1
  Re  Re23  1  0.000000  0.000000  0.845987  1
  P  P24  1  0.500000  0.500000  0.884988  1
  P  P25  1  0.000000  0.000000  0.115012  1
  P  P26  1  0.500000  0.500000  0.345123  1
  P  P27  1  0.000000  0.000000  0.654877  1
  P  P28  1  0.500000  0.305964  0.612615  1
  P  P29  1  0.500000  0.694036  0.612615  1
  P  P30  1  0.000000  0.194036  0.387385  1
  P  P31  1  0.000000  0.805964  0.387385  1
  P  P32  1  0.500000  0.846353  0.895178  1
  P  P33  1  0.500000  0.153647  0.895178  1
  P  P34  1  0.000000  0.653647  0.104822  1
  P  P35  1  0.000000  0.346353  0.104822  1
