# generated using pymatgen
data_Gd3Y7Ir4
_symmetry_space_group_name_H-M   'P 1'
_cell_length_a   6.50135123
_cell_length_b   7.23064502
_cell_length_c   8.61687600
_cell_angle_alpha   96.70889066
_cell_angle_beta   112.16316191
_cell_angle_gamma   89.99999966
_symmetry_Int_Tables_number   1
_chemical_formula_structural   Gd3Y7Ir4
_chemical_formula_sum   'Gd3 Y7 Ir4'
_cell_volume   372.14438702
_cell_formula_units_Z   1
loop_
 _symmetry_equiv_pos_site_id
 _symmetry_equiv_pos_as_xyz
  1  'x, y, z'
loop_
 _atom_site_type_symbol
 _atom_site_label
 _atom_site_symmetry_multiplicity
 _atom_site_fract_x
 _atom_site_fract_y
 _atom_site_fract_z
 _atom_site_occupancy
  Gd  Gd0  1  0.793647  0.083921  0.814283  1
  Gd  Gd1  1  0.979364  0.416079  0.185717  1
  Gd  Gd2  1  0.572632  0.750000  0.000000  1
  Y  Y3  1  0.208236  0.918571  0.185265  1
  Y  Y4  1  0.022970  0.581429  0.814735  1
  Y  Y5  1  0.209283  0.184028  0.560366  1
  Y  Y6  1  0.648916  0.315972  0.439634  1
  Y  Y7  1  0.789214  0.815504  0.438922  1
  Y  Y8  1  0.350292  0.684496  0.561078  1
  Y  Y9  1  0.427198  0.250000  0.000000  1
  Ir  Ir10  1  0.600784  0.425181  0.777028  1
  Ir  Ir11  1  0.823756  0.074819  0.222972  1
  Ir  Ir12  1  0.397802  0.574657  0.221898  1
  Ir  Ir13  1  0.175904  0.925343  0.778102  1
