# generated using pymatgen
data_Tb7YHf9Nb3Si16
_symmetry_space_group_name_H-M   'P 1'
_cell_length_a   7.24831344
_cell_length_b   7.24767173
_cell_length_c   13.29891909
_cell_angle_alpha   90.04465037
_cell_angle_beta   90.03905052
_cell_angle_gamma   90.04312323
_symmetry_Int_Tables_number   1
_chemical_formula_structural   Tb7YHf9Nb3Si16
_chemical_formula_sum   'Tb7 Y1 Hf9 Nb3 Si16'
_cell_volume   698.63681491
_cell_formula_units_Z   1
loop_
 _symmetry_equiv_pos_site_id
 _symmetry_equiv_pos_as_xyz
  1  'x, y, z'
loop_
 _atom_site_type_symbol
 _atom_site_label
 _atom_site_symmetry_multiplicity
 _atom_site_fract_x
 _atom_site_fract_y
 _atom_site_fract_z
 _atom_site_occupancy
  Tb  Tb0  1  0.003017  0.657286  0.714235  1
  Tb  Tb1  1  0.155954  0.498198  0.464439  1
  Tb  Tb2  1  0.501756  0.844025  0.035530  1
  Tb  Tb3  1  0.844115  0.502733  0.966548  1
  Tb  Tb4  1  0.497210  0.155866  0.533449  1
  Tb  Tb5  1  0.342733  0.996993  0.785741  1
  Tb  Tb6  1  0.655880  0.001379  0.285457  1
  Y  Y7  1  0.998781  0.344171  0.214515  1
  Hf  Hf8  1  0.674991  0.325034  0.750007  1
  Hf  Hf9  1  0.148515  0.993448  0.374965  1
  Hf  Hf10  1  0.852720  0.004532  0.876229  1
  Hf  Hf11  1  0.506442  0.650057  0.622778  1
  Hf  Hf12  1  0.349892  0.493564  0.877254  1
  Hf  Hf13  1  0.493079  0.351643  0.125030  1
  Hf  Hf14  1  0.648360  0.506854  0.374990  1
  Hf  Hf15  1  0.995515  0.147298  0.623780  1
  Hf  Hf16  1  0.006460  0.851628  0.125074  1
  Nb  Nb17  1  0.175398  0.174852  0.000554  1
  Nb  Nb18  1  0.825108  0.824605  0.499428  1
  Nb  Nb19  1  0.324407  0.675593  0.250002  1
  Si  Si20  1  0.362996  0.295750  0.316670  1
  Si  Si21  1  0.636551  0.704856  0.816943  1
  Si  Si22  1  0.204159  0.862773  0.566358  1
  Si  Si23  1  0.137210  0.795825  0.933639  1
  Si  Si24  1  0.795708  0.136885  0.067044  1
  Si  Si25  1  0.863116  0.204363  0.433053  1
  Si  Si26  1  0.295124  0.363477  0.683034  1
  Si  Si27  1  0.704331  0.636871  0.183300  1
  Si  Si28  1  0.295526  0.048678  0.185317  1
  Si  Si29  1  0.704729  0.950258  0.684329  1
  Si  Si30  1  0.450843  0.795773  0.434480  1
  Si  Si31  1  0.204215  0.549119  0.065550  1
  Si  Si32  1  0.547481  0.203432  0.936194  1
  Si  Si33  1  0.796600  0.452585  0.563793  1
  Si  Si34  1  0.049731  0.295276  0.815646  1
  Si  Si35  1  0.951346  0.704318  0.314646  1
