# generated using pymatgen
data_Pr6Ge(P3Rh5)4
_symmetry_space_group_name_H-M   'P 1'
_cell_length_a   13.58245100
_cell_length_b   13.58244935
_cell_length_c   3.95454700
_cell_angle_alpha   90.00000000
_cell_angle_beta   90.00000000
_cell_angle_gamma   120.00000157
_symmetry_Int_Tables_number   1
_chemical_formula_structural   Pr6Ge(P3Rh5)4
_chemical_formula_sum   'Pr6 Ge1 P12 Rh20'
_cell_volume   631.80579881
_cell_formula_units_Z   1
loop_
 _symmetry_equiv_pos_site_id
 _symmetry_equiv_pos_as_xyz
  1  'x, y, z'
loop_
 _atom_site_type_symbol
 _atom_site_label
 _atom_site_symmetry_multiplicity
 _atom_site_fract_x
 _atom_site_fract_y
 _atom_site_fract_z
 _atom_site_occupancy
  Pr  Pr0  1  0.530469  0.718067  0.248704  1
  Pr  Pr1  1  0.281933  0.812402  0.248704  1
  Pr  Pr2  1  0.187598  0.469531  0.248704  1
  Pr  Pr3  1  0.469531  0.281933  0.751296  1
  Pr  Pr4  1  0.718067  0.187598  0.751296  1
  Pr  Pr5  1  0.812402  0.530469  0.751296  1
  Ge  Ge6  1  0.000000  0.000000  0.000000  1
  P  P7  1  0.522062  0.134578  0.250426  1
  P  P8  1  0.865422  0.387485  0.250426  1
  P  P9  1  0.612515  0.477938  0.250426  1
  P  P10  1  0.947929  0.720529  0.251853  1
  P  P11  1  0.279471  0.227398  0.251853  1
  P  P12  1  0.772602  0.052071  0.251853  1
  P  P13  1  0.387485  0.522062  0.749574  1
  P  P14  1  0.477938  0.865422  0.749574  1
  P  P15  1  0.134578  0.612515  0.749574  1
  P  P16  1  0.720529  0.772602  0.748147  1
  P  P17  1  0.227398  0.947929  0.748147  1
  P  P18  1  0.052071  0.279471  0.748147  1
  Rh  Rh19  1  0.333333  0.666667  0.752230  1
  Rh  Rh20  1  0.923765  0.251520  0.251972  1
  Rh  Rh21  1  0.748480  0.672246  0.251972  1
  Rh  Rh22  1  0.327754  0.076235  0.251972  1
  Rh  Rh23  1  0.441519  0.025469  0.750924  1
  Rh  Rh24  1  0.974531  0.416051  0.750924  1
  Rh  Rh25  1  0.583949  0.558481  0.750924  1
  Rh  Rh26  1  0.666667  0.333333  0.247770  1
  Rh  Rh27  1  0.095940  0.195028  0.251956  1
  Rh  Rh28  1  0.804972  0.900912  0.251956  1
  Rh  Rh29  1  0.099088  0.904060  0.251956  1
  Rh  Rh30  1  0.025469  0.583949  0.249076  1
  Rh  Rh31  1  0.416051  0.441519  0.249076  1
  Rh  Rh32  1  0.558481  0.974531  0.249076  1
  Rh  Rh33  1  0.672246  0.923765  0.748028  1
  Rh  Rh34  1  0.076235  0.748480  0.748028  1
  Rh  Rh35  1  0.251520  0.327754  0.748028  1
  Rh  Rh36  1  0.904060  0.804972  0.748044  1
  Rh  Rh37  1  0.195028  0.099088  0.748044  1
  Rh  Rh38  1  0.900912  0.095940  0.748044  1
