# generated using pymatgen
data_TbY2Tm(Ga3Rh)6
_symmetry_space_group_name_H-M   'P 1'
_cell_length_a   7.56868116
_cell_length_b   7.57405482
_cell_length_c   9.52013400
_cell_angle_alpha   90.00000000
_cell_angle_beta   90.00000000
_cell_angle_gamma   119.82430795
_symmetry_Int_Tables_number   1
_chemical_formula_structural   TbY2Tm(Ga3Rh)6
_chemical_formula_sum   'Tb1 Y2 Tm1 Ga18 Rh6'
_cell_volume   473.46567433
_cell_formula_units_Z   1
loop_
 _symmetry_equiv_pos_site_id
 _symmetry_equiv_pos_as_xyz
  1  'x, y, z'
loop_
 _atom_site_type_symbol
 _atom_site_label
 _atom_site_symmetry_multiplicity
 _atom_site_fract_x
 _atom_site_fract_y
 _atom_site_fract_z
 _atom_site_occupancy
  Tb  Tb0  1  0.997053  0.668129  0.250000  1
  Y  Y1  1  0.003021  0.331824  0.750000  1
  Y  Y2  1  0.668055  0.996967  0.250000  1
  Tm  Tm3  1  0.331966  0.002998  0.750000  1
  Ga  Ga4  1  0.125097  0.125215  0.250000  1
  Ga  Ga5  1  0.875519  0.875209  0.750000  1
  Ga  Ga6  1  0.000264  0.333950  0.079919  1
  Ga  Ga7  1  0.000237  0.666096  0.919076  1
  Ga  Ga8  1  0.000237  0.666096  0.580924  1
  Ga  Ga9  1  0.334821  0.000570  0.420435  1
  Ga  Ga10  1  0.000264  0.333950  0.420081  1
  Ga  Ga11  1  0.664861  0.999790  0.580601  1
  Ga  Ga12  1  0.664861  0.999790  0.919399  1
  Ga  Ga13  1  0.334821  0.000570  0.079565  1
  Ga  Ga14  1  0.332705  0.332218  0.565167  1
  Ga  Ga15  1  0.667016  0.667361  0.435973  1
  Ga  Ga16  1  0.667016  0.667361  0.064027  1
  Ga  Ga17  1  0.332705  0.332218  0.934833  1
  Ga  Ga18  1  0.338942  0.547879  0.250000  1
  Ga  Ga19  1  0.660741  0.451487  0.750000  1
  Ga  Ga20  1  0.547603  0.338461  0.250000  1
  Ga  Ga21  1  0.452109  0.661663  0.750000  1
  Rh  Rh22  1  0.671380  0.328427  0.999702  1
  Rh  Rh23  1  0.328300  0.671485  0.999723  1
  Rh  Rh24  1  0.328300  0.671485  0.500277  1
  Rh  Rh25  1  0.671380  0.328427  0.500298  1
  Rh  Rh26  1  0.000365  0.000186  0.999558  1
  Rh  Rh27  1  0.000365  0.000186  0.500442  1
