# generated using pymatgen
data_Ho3Tm7Sn5Sb
_symmetry_space_group_name_H-M   'P 1'
_cell_length_a   8.86819012
_cell_length_b   8.87526778
_cell_length_c   6.41951700
_cell_angle_alpha   90.00000000
_cell_angle_beta   90.00000000
_cell_angle_gamma   120.03113094
_symmetry_Int_Tables_number   1
_chemical_formula_structural   Ho3Tm7Sn5Sb
_chemical_formula_sum   'Ho3 Tm7 Sn5 Sb1'
_cell_volume   437.43459152
_cell_formula_units_Z   1
loop_
 _symmetry_equiv_pos_site_id
 _symmetry_equiv_pos_as_xyz
  1  'x, y, z'
loop_
 _atom_site_type_symbol
 _atom_site_label
 _atom_site_symmetry_multiplicity
 _atom_site_fract_x
 _atom_site_fract_y
 _atom_site_fract_z
 _atom_site_occupancy
  Ho  Ho0  1  0.761964  0.999861  0.750000  1
  Ho  Ho1  1  0.238002  0.240056  0.750000  1
  Ho  Ho2  1  0.238892  0.999899  0.250000  1
  Tm  Tm3  1  0.997695  0.759623  0.750000  1
  Tm  Tm4  1  0.000652  0.239194  0.250000  1
  Tm  Tm5  1  0.761698  0.760971  0.250000  1
  Tm  Tm6  1  0.333118  0.665609  0.499790  1
  Tm  Tm7  1  0.667589  0.334462  0.000217  1
  Tm  Tm8  1  0.667589  0.334462  0.499783  1
  Tm  Tm9  1  0.333118  0.665609  0.000210  1
  Sn  Sn10  1  0.395989  0.395417  0.250000  1
  Sn  Sn11  1  0.000564  0.604587  0.250000  1
  Sn  Sn12  1  0.999709  0.396501  0.750000  1
  Sn  Sn13  1  0.604145  0.604137  0.750000  1
  Sn  Sn14  1  0.605776  0.999956  0.250000  1
  Sb  Sb15  1  0.393501  0.999655  0.750000  1
