# generated using pymatgen
data_Ac2SmY(Zn5Sn)2
_symmetry_space_group_name_H-M   'P 1'
_cell_length_a   8.63418598
_cell_length_b   8.63418756
_cell_length_c   9.20785200
_cell_angle_alpha   90.00000000
_cell_angle_beta   90.00000000
_cell_angle_gamma   149.41511708
_symmetry_Int_Tables_number   1
_chemical_formula_structural   Ac2SmY(Zn5Sn)2
_chemical_formula_sum   'Ac2 Sm1 Y1 Zn10 Sn2'
_cell_volume   349.26938081
_cell_formula_units_Z   1
loop_
 _symmetry_equiv_pos_site_id
 _symmetry_equiv_pos_as_xyz
  1  'x, y, z'
loop_
 _atom_site_type_symbol
 _atom_site_label
 _atom_site_symmetry_multiplicity
 _atom_site_fract_x
 _atom_site_fract_y
 _atom_site_fract_z
 _atom_site_occupancy
  Ac  Ac0  1  0.999780  0.000220  0.500201  1
  Ac  Ac1  1  0.999780  0.000220  0.999799  1
  Sm  Sm2  1  0.207740  0.792260  0.250000  1
  Y  Y3  1  0.792124  0.207876  0.750000  1
  Zn  Zn4  1  0.811411  0.188589  0.389298  1
  Zn  Zn5  1  0.188976  0.811024  0.612212  1
  Zn  Zn6  1  0.811411  0.188589  0.110702  1
  Zn  Zn7  1  0.188976  0.811024  0.887788  1
  Zn  Zn8  1  0.661303  0.338697  0.486446  1
  Zn  Zn9  1  0.338832  0.661168  0.514842  1
  Zn  Zn10  1  0.661303  0.338697  0.013554  1
  Zn  Zn11  1  0.338832  0.661168  0.985158  1
  Zn  Zn12  1  0.396299  0.603701  0.250000  1
  Zn  Zn13  1  0.604233  0.395767  0.750000  1
  Sn  Sn14  1  0.563338  0.436662  0.250000  1
  Sn  Sn15  1  0.435664  0.564336  0.750000  1
