# generated using pymatgen
data_Y8Ga12NiAg3
_symmetry_space_group_name_H-M   'P 1'
_cell_length_a   7.16563600
_cell_length_b   8.92999256
_cell_length_c   8.92999200
_cell_angle_alpha   120.00000532
_cell_angle_beta   90.00000000
_cell_angle_gamma   90.00000000
_symmetry_Int_Tables_number   1
_chemical_formula_structural   Y8Ga12NiAg3
_chemical_formula_sum   'Y8 Ga12 Ni1 Ag3'
_cell_volume   494.86588842
_cell_formula_units_Z   1
loop_
 _symmetry_equiv_pos_site_id
 _symmetry_equiv_pos_as_xyz
  1  'x, y, z'
loop_
 _atom_site_type_symbol
 _atom_site_label
 _atom_site_symmetry_multiplicity
 _atom_site_fract_x
 _atom_site_fract_y
 _atom_site_fract_z
 _atom_site_occupancy
  Y  Y0  1  0.742166  0.000000  0.000000  1
  Y  Y1  1  0.252880  0.000000  0.000000  1
  Y  Y2  1  0.748920  0.489413  0.510587  1
  Y  Y3  1  0.253833  0.517048  0.482952  1
  Y  Y4  1  0.748920  0.021173  0.510587  1
  Y  Y5  1  0.253833  0.965904  0.482952  1
  Y  Y6  1  0.748920  0.489413  0.978827  1
  Y  Y7  1  0.253833  0.517048  0.034096  1
  Ga  Ga8  1  0.970355  0.836101  0.163899  1
  Ga  Ga9  1  0.034648  0.165337  0.834663  1
  Ga  Ga10  1  0.970355  0.327798  0.163899  1
  Ga  Ga11  1  0.470472  0.164634  0.835366  1
  Ga  Ga12  1  0.034648  0.669324  0.834663  1
  Ga  Ga13  1  0.531606  0.826491  0.173509  1
  Ga  Ga14  1  0.970355  0.836101  0.672202  1
  Ga  Ga15  1  0.470472  0.670732  0.835366  1
  Ga  Ga16  1  0.034648  0.165337  0.330676  1
  Ga  Ga17  1  0.531606  0.347021  0.173509  1
  Ga  Ga18  1  0.470472  0.164634  0.329268  1
  Ga  Ga19  1  0.531606  0.826491  0.652979  1
  Ni  Ni20  1  0.521042  0.666667  0.333333  1
  Ag  Ag21  1  0.949484  0.666667  0.333333  1
  Ag  Ag22  1  0.038670  0.333333  0.666667  1
  Ag  Ag23  1  0.466263  0.333333  0.666667  1
