# generated using pymatgen
data_Sm2Ir3W
_symmetry_space_group_name_H-M   'P 1'
_cell_length_a   5.27280782
_cell_length_b   5.66406131
_cell_length_c   5.66406100
_cell_angle_alpha   59.99999598
_cell_angle_beta   57.51348313
_cell_angle_gamma   57.51347691
_symmetry_Int_Tables_number   1
_chemical_formula_structural   Sm2Ir3W
_chemical_formula_sum   'Sm2 Ir3 W1'
_cell_volume   114.91961446
_cell_formula_units_Z   1
loop_
 _symmetry_equiv_pos_site_id
 _symmetry_equiv_pos_as_xyz
  1  'x, y, z'
loop_
 _atom_site_type_symbol
 _atom_site_label
 _atom_site_symmetry_multiplicity
 _atom_site_fract_x
 _atom_site_fract_y
 _atom_site_fract_z
 _atom_site_occupancy
  Sm  Sm0  1  0.749212  0.750262  0.750262  1
  Sm  Sm1  1  0.500788  0.499738  0.499738  1
  Ir  Ir2  1  0.125000  0.625000  0.125000  1
  Ir  Ir3  1  0.125000  0.125000  0.625000  1
  Ir  Ir4  1  0.125000  0.125000  0.125000  1
  W  W5  1  0.625000  0.125000  0.125000  1
