# generated using pymatgen
data_Ho4AlFeRu6
_symmetry_space_group_name_H-M   'P 1'
_cell_length_a   5.43310408
_cell_length_b   5.16438825
_cell_length_c   8.83240600
_cell_angle_alpha   90.00000000
_cell_angle_beta   90.00000000
_cell_angle_gamma   121.61202080
_symmetry_Int_Tables_number   1
_chemical_formula_structural   Ho4AlFeRu6
_chemical_formula_sum   'Ho4 Al1 Fe1 Ru6'
_cell_volume   211.05237636
_cell_formula_units_Z   1
loop_
 _symmetry_equiv_pos_site_id
 _symmetry_equiv_pos_as_xyz
  1  'x, y, z'
loop_
 _atom_site_type_symbol
 _atom_site_label
 _atom_site_symmetry_multiplicity
 _atom_site_fract_x
 _atom_site_fract_y
 _atom_site_fract_z
 _atom_site_occupancy
  Ho  Ho0  1  0.669976  0.339553  0.568250  1
  Ho  Ho1  1  0.331141  0.662546  0.437559  1
  Ho  Ho2  1  0.331141  0.662546  0.062441  1
  Ho  Ho3  1  0.669976  0.339553  0.931750  1
  Al  Al4  1  0.835715  0.671722  0.250000  1
  Fe  Fe5  1  0.156856  0.312983  0.750000  1
  Ru  Ru6  1  0.006701  0.013608  0.502042  1
  Ru  Ru7  1  0.006701  0.013608  0.997958  1
  Ru  Ru8  1  0.176212  0.824104  0.750000  1
  Ru  Ru9  1  0.647302  0.824294  0.750000  1
  Ru  Ru10  1  0.822313  0.168270  0.250000  1
  Ru  Ru11  1  0.345965  0.167214  0.250000  1
