# generated using pymatgen
data_V11FeSi3Ge
_symmetry_space_group_name_H-M   'P 1'
_cell_length_a   4.68706400
_cell_length_b   4.68703600
_cell_length_c   9.37766000
_cell_angle_alpha   90.00000000
_cell_angle_beta   90.00000000
_cell_angle_gamma   90.00000000
_symmetry_Int_Tables_number   1
_chemical_formula_structural   V11FeSi3Ge
_chemical_formula_sum   'V11 Fe1 Si3 Ge1'
_cell_volume   206.01253950
_cell_formula_units_Z   1
loop_
 _symmetry_equiv_pos_site_id
 _symmetry_equiv_pos_as_xyz
  1  'x, y, z'
loop_
 _atom_site_type_symbol
 _atom_site_label
 _atom_site_symmetry_multiplicity
 _atom_site_fract_x
 _atom_site_fract_y
 _atom_site_fract_z
 _atom_site_occupancy
  V  V0  1  0.001809  0.500000  0.131641  1
  V  V1  1  0.998826  0.500000  0.623019  1
  V  V2  1  0.499439  0.248928  0.744435  1
  V  V3  1  0.499439  0.248928  0.255565  1
  V  V4  1  0.756757  0.000000  0.000000  1
  V  V5  1  0.001809  0.500000  0.868359  1
  V  V6  1  0.998826  0.500000  0.376981  1
  V  V7  1  0.499439  0.751072  0.744435  1
  V  V8  1  0.499439  0.751072  0.255565  1
  V  V9  1  0.246674  0.000000  0.000000  1
  V  V10  1  0.248157  0.000000  0.500000  1
  Fe  Fe11  1  0.748836  0.000000  0.500000  1
  Si  Si12  1  0.497854  0.500000  0.500000  1
  Si  Si13  1  0.001653  0.000000  0.748165  1
  Si  Si14  1  0.001653  0.000000  0.251835  1
  Ge  Ge15  1  0.499388  0.500000  0.000000  1
