# generated using pymatgen
data_Tm3Zr2InIr3
_symmetry_space_group_name_H-M   'P 1'
_cell_length_a   7.20534300
_cell_length_b   7.25117900
_cell_length_c   4.31061200
_cell_angle_alpha   90.00000000
_cell_angle_beta   90.00000000
_cell_angle_gamma   119.79112103
_symmetry_Int_Tables_number   1
_chemical_formula_structural   Tm3Zr2InIr3
_chemical_formula_sum   'Tm3 Zr2 In1 Ir3'
_cell_volume   195.45334726
_cell_formula_units_Z   1
loop_
 _symmetry_equiv_pos_site_id
 _symmetry_equiv_pos_as_xyz
  1  'x, y, z'
loop_
 _atom_site_type_symbol
 _atom_site_label
 _atom_site_symmetry_multiplicity
 _atom_site_fract_x
 _atom_site_fract_y
 _atom_site_fract_z
 _atom_site_occupancy
  Tm  Tm0  1  0.988142  0.398330  0.500000  1
  Tm  Tm1  1  0.589812  0.601670  0.500000  1
  Tm  Tm2  1  0.424658  0.000000  0.500000  1
  Zr  Zr3  1  0.998132  0.746720  0.000000  1
  Zr  Zr4  1  0.251413  0.253280  0.000000  1
  In  In5  1  0.750342  0.000000  0.000000  1
  Ir  Ir6  1  0.314658  0.657692  0.000000  1
  Ir  Ir7  1  0.656968  0.342308  0.000000  1
  Ir  Ir8  1  0.025876  0.000000  0.500000  1
