# generated using pymatgen
data_Nd6Sm2Sc12Si15Sb
_symmetry_space_group_name_H-M   'P 1'
_cell_length_a   7.26798314
_cell_length_b   7.52037460
_cell_length_c   14.23341257
_cell_angle_alpha   90.05219719
_cell_angle_beta   89.21184441
_cell_angle_gamma   90.26351948
_symmetry_Int_Tables_number   1
_chemical_formula_structural   Nd6Sm2Sc12Si15Sb
_chemical_formula_sum   'Nd6 Sm2 Sc12 Si15 Sb1'
_cell_volume   777.88712415
_cell_formula_units_Z   1
loop_
 _symmetry_equiv_pos_site_id
 _symmetry_equiv_pos_as_xyz
  1  'x, y, z'
loop_
 _atom_site_type_symbol
 _atom_site_label
 _atom_site_symmetry_multiplicity
 _atom_site_fract_x
 _atom_site_fract_y
 _atom_site_fract_z
 _atom_site_occupancy
  Nd  Nd0  1  0.012038  0.173659  0.097849  1
  Nd  Nd1  1  0.988244  0.827465  0.902781  1
  Nd  Nd2  1  0.488487  0.672858  0.903297  1
  Nd  Nd3  1  0.990684  0.830414  0.598120  1
  Nd  Nd4  1  0.512262  0.327252  0.097741  1
  Nd  Nd5  1  0.005152  0.169969  0.399887  1
  Sm  Sm6  1  0.509578  0.323341  0.398860  1
  Sm  Sm7  1  0.505522  0.680399  0.600777  1
  Sc  Sc8  1  0.162380  0.499310  0.754122  1
  Sc  Sc9  1  0.837602  0.500978  0.251467  1
  Sc  Sc10  1  0.338554  0.998544  0.250219  1
  Sc  Sc11  1  0.662913  0.001728  0.751305  1
  Sc  Sc12  1  0.343791  0.162031  0.630738  1
  Sc  Sc13  1  0.662476  0.825871  0.372389  1
  Sc  Sc14  1  0.160335  0.680108  0.371133  1
  Sc  Sc15  1  0.668437  0.824337  0.124995  1
  Sc  Sc16  1  0.825709  0.326234  0.625032  1
  Sc  Sc17  1  0.330132  0.174600  0.874519  1
  Sc  Sc18  1  0.831019  0.324029  0.875172  1
  Sc  Sc19  1  0.169432  0.676039  0.125278  1
  Si  Si20  1  0.034794  0.126007  0.749762  1
  Si  Si21  1  0.962710  0.877013  0.247912  1
  Si  Si22  1  0.461603  0.622967  0.248503  1
  Si  Si23  1  0.536706  0.377467  0.752065  1
  Si  Si24  1  0.290411  0.875158  0.751298  1
  Si  Si25  1  0.709044  0.119524  0.248441  1
  Si  Si26  1  0.210417  0.381709  0.250015  1
  Si  Si27  1  0.792241  0.619465  0.750485  1
  Si  Si28  1  0.820659  0.541416  0.455409  1
  Si  Si29  1  0.343278  0.962739  0.460459  1
  Si  Si30  1  0.848289  0.536470  0.039876  1
  Si  Si31  1  0.657503  0.038748  0.538306  1
  Si  Si32  1  0.151289  0.463906  0.960797  1
  Si  Si33  1  0.651366  0.036184  0.960310  1
  Si  Si34  1  0.347546  0.964446  0.040041  1
  Sb  Sb35  1  0.177391  0.457618  0.540642  1
