# generated using pymatgen
data_Gd5YH18
_symmetry_space_group_name_H-M   'P 1'
_cell_length_a   6.41833701
_cell_length_b   6.41932330
_cell_length_c   6.66794700
_cell_angle_alpha   90.00327833
_cell_angle_beta   89.99842101
_cell_angle_gamma   120.00578497
_symmetry_Int_Tables_number   1
_chemical_formula_structural   Gd5YH18
_chemical_formula_sum   'Gd5 Y1 H18'
_cell_volume   237.90809346
_cell_formula_units_Z   1
loop_
 _symmetry_equiv_pos_site_id
 _symmetry_equiv_pos_as_xyz
  1  'x, y, z'
loop_
 _atom_site_type_symbol
 _atom_site_label
 _atom_site_symmetry_multiplicity
 _atom_site_fract_x
 _atom_site_fract_y
 _atom_site_fract_z
 _atom_site_occupancy
  Gd  Gd0  1  0.669896  0.669667  0.750200  1
  Gd  Gd1  1  0.330096  0.999770  0.750200  1
  Gd  Gd2  1  0.000001  0.330497  0.750389  1
  Gd  Gd3  1  0.330214  0.330261  0.250278  1
  Gd  Gd4  1  0.669792  0.000047  0.250280  1
  Y  Y5  1  0.000001  0.670029  0.250060  1
  H  H6  1  0.305558  0.305552  0.592281  1
  H  H7  1  0.694443  0.999995  0.592281  1
  H  H8  1  0.000000  0.694148  0.591635  1
  H  H9  1  0.694807  0.694591  0.092563  1
  H  H10  1  0.305194  0.999786  0.092562  1
  H  H11  1  0.999999  0.304839  0.092040  1
  H  H12  1  0.355149  0.355147  0.907459  1
  H  H13  1  0.644850  0.999998  0.907459  1
  H  H14  1  0.000000  0.644995  0.908101  1
  H  H15  1  0.644648  0.644784  0.407500  1
  H  H16  1  0.355353  0.000138  0.407500  1
  H  H17  1  0.000000  0.355698  0.406932  1
  H  H18  1  0.999998  0.000070  0.819660  1
  H  H19  1  0.000001  0.998842  0.319561  1
  H  H20  1  0.333405  0.666665  0.704175  1
  H  H21  1  0.666594  0.333257  0.704175  1
  H  H22  1  0.667967  0.334594  0.204361  1
  H  H23  1  0.332034  0.666628  0.204361  1
