# generated using pymatgen
data_Y3Tm3Th2(MgCo)2
_symmetry_space_group_name_H-M   'P 1'
_cell_length_a   9.58802009
_cell_length_b   9.58801927
_cell_length_c   9.58802100
_cell_angle_alpha   59.99999750
_cell_angle_beta   60.00000032
_cell_angle_gamma   60.00000336
_symmetry_Int_Tables_number   1
_chemical_formula_structural   Y3Tm3Th2(MgCo)2
_chemical_formula_sum   'Y6 Tm6 Th4 Mg4 Co4'
_cell_volume   623.26367561
_cell_formula_units_Z   2
loop_
 _symmetry_equiv_pos_site_id
 _symmetry_equiv_pos_as_xyz
  1  'x, y, z'
loop_
 _atom_site_type_symbol
 _atom_site_label
 _atom_site_symmetry_multiplicity
 _atom_site_fract_x
 _atom_site_fract_y
 _atom_site_fract_z
 _atom_site_occupancy
  Y  Y0  1  0.936265  0.563735  0.563735  1
  Y  Y1  1  0.563735  0.936265  0.936265  1
  Y  Y2  1  0.563735  0.936265  0.563735  1
  Y  Y3  1  0.936265  0.563735  0.936265  1
  Y  Y4  1  0.563735  0.563735  0.936265  1
  Y  Y5  1  0.936265  0.936265  0.563735  1
  Tm  Tm6  1  0.814722  0.185278  0.185278  1
  Tm  Tm7  1  0.185278  0.814722  0.814722  1
  Tm  Tm8  1  0.185278  0.814722  0.185278  1
  Tm  Tm9  1  0.814722  0.185278  0.814722  1
  Tm  Tm10  1  0.185278  0.185278  0.814722  1
  Tm  Tm11  1  0.814722  0.814722  0.185278  1
  Th  Th12  1  0.344612  0.344612  0.344612  1
  Th  Th13  1  0.344612  0.344612  0.966165  1
  Th  Th14  1  0.344612  0.966165  0.344612  1
  Th  Th15  1  0.966165  0.344612  0.344612  1
  Mg  Mg16  1  0.580094  0.580094  0.580094  1
  Mg  Mg17  1  0.580094  0.580094  0.259718  1
  Mg  Mg18  1  0.580094  0.259718  0.580094  1
  Mg  Mg19  1  0.259718  0.580094  0.580094  1
  Co  Co20  1  0.144288  0.144288  0.144288  1
  Co  Co21  1  0.144288  0.144288  0.567135  1
  Co  Co22  1  0.144288  0.567135  0.144288  1
  Co  Co23  1  0.567135  0.144288  0.144288  1
