# generated using pymatgen
data_Ho10Al4Ru5Rh
_symmetry_space_group_name_H-M   'P 1'
_cell_length_a   8.31404735
_cell_length_b   8.31705031
_cell_length_c   8.31705087
_cell_angle_alpha   109.45142465
_cell_angle_beta   109.57032098
_cell_angle_gamma   109.40660176
_symmetry_Int_Tables_number   1
_chemical_formula_structural   Ho10Al4Ru5Rh
_chemical_formula_sum   'Ho10 Al4 Ru5 Rh1'
_cell_volume   442.63917044
_cell_formula_units_Z   1
loop_
 _symmetry_equiv_pos_site_id
 _symmetry_equiv_pos_as_xyz
  1  'x, y, z'
loop_
 _atom_site_type_symbol
 _atom_site_label
 _atom_site_symmetry_multiplicity
 _atom_site_fract_x
 _atom_site_fract_y
 _atom_site_fract_z
 _atom_site_occupancy
  Ho  Ho0  1  0.250000  0.680319  0.430319  1
  Ho  Ho1  1  0.750000  0.819016  0.069016  1
  Ho  Ho2  1  0.432884  0.251129  0.679941  1
  Ho  Ho3  1  0.682795  0.432299  0.252087  1
  Ho  Ho4  1  0.067116  0.747056  0.818245  1
  Ho  Ho5  1  0.817205  0.069292  0.749504  1
  Ho  Ho6  1  0.213007  0.214815  0.215997  1
  Ho  Ho7  1  0.500191  0.999992  0.286938  1
  Ho  Ho8  1  0.286993  0.502990  0.001806  1
  Ho  Ho9  1  0.999809  0.286748  0.499800  1
  Al  Al10  1  0.589361  0.589379  0.589084  1
  Al  Al11  1  0.500660  0.998738  0.910205  1
  Al  Al12  1  0.910639  0.499723  0.000018  1
  Al  Al13  1  0.999340  0.909545  0.498079  1
  Ru  Ru14  1  0.750000  0.376610  0.626610  1
  Ru  Ru15  1  0.872292  0.249813  0.122575  1
  Ru  Ru16  1  0.124258  0.874669  0.249836  1
  Ru  Ru17  1  0.627707  0.750281  0.377520  1
  Ru  Ru18  1  0.375742  0.625578  0.750412  1
  Rh  Rh19  1  0.250000  0.122007  0.872007  1
