# generated using pymatgen
data_Tb8Ti5Si16Mo4W3
_symmetry_space_group_name_H-M   'P 1'
_cell_length_a   6.95246657
_cell_length_b   6.94636235
_cell_length_c   12.87294014
_cell_angle_alpha   89.88092014
_cell_angle_beta   90.04128338
_cell_angle_gamma   90.03888827
_symmetry_Int_Tables_number   1
_chemical_formula_structural   Tb8Ti5Si16Mo4W3
_chemical_formula_sum   'Tb8 Ti5 Si16 Mo4 W3'
_cell_volume   621.68865628
_cell_formula_units_Z   1
loop_
 _symmetry_equiv_pos_site_id
 _symmetry_equiv_pos_as_xyz
  1  'x, y, z'
loop_
 _atom_site_type_symbol
 _atom_site_label
 _atom_site_symmetry_multiplicity
 _atom_site_fract_x
 _atom_site_fract_y
 _atom_site_fract_z
 _atom_site_occupancy
  Tb  Tb0  1  0.340331  0.003576  0.467390  1
  Tb  Tb1  1  0.497252  0.839944  0.718846  1
  Tb  Tb2  1  0.502530  0.160436  0.218548  1
  Tb  Tb3  1  0.839370  0.496411  0.280874  1
  Tb  Tb4  1  0.160400  0.502376  0.782626  1
  Tb  Tb5  1  0.660025  0.997228  0.968568  1
  Tb  Tb6  1  0.002958  0.339628  0.531685  1
  Tb  Tb7  1  0.996253  0.661459  0.031152  1
  Ti  Ti8  1  0.329552  0.329984  0.999553  1
  Ti  Ti9  1  0.169379  0.829240  0.250085  1
  Ti  Ti10  1  0.827954  0.171892  0.750433  1
  Ti  Ti11  1  0.669584  0.667932  0.498926  1
  Ti  Ti12  1  0.993865  0.840664  0.625657  1
  Si  Si13  1  0.202420  0.128538  0.684330  1
  Si  Si14  1  0.371958  0.701482  0.934346  1
  Si  Si15  1  0.629683  0.299195  0.433957  1
  Si  Si16  1  0.699760  0.371461  0.066084  1
  Si  Si17  1  0.300930  0.628373  0.564906  1
  Si  Si18  1  0.799309  0.871801  0.183940  1
  Si  Si19  1  0.127101  0.200712  0.316277  1
  Si  Si20  1  0.872757  0.799779  0.815651  1
  Si  Si21  1  0.288865  0.959151  0.062951  1
  Si  Si22  1  0.540736  0.788889  0.312836  1
  Si  Si23  1  0.458353  0.211151  0.812755  1
  Si  Si24  1  0.789187  0.542321  0.687370  1
  Si  Si25  1  0.211144  0.458686  0.186671  1
  Si  Si26  1  0.711049  0.042145  0.563468  1
  Si  Si27  1  0.958786  0.289062  0.937374  1
  Si  Si28  1  0.042818  0.710566  0.437029  1
  Mo  Mo29  1  0.160056  0.008758  0.875319  1
  Mo  Mo30  1  0.492373  0.659567  0.124518  1
  Mo  Mo31  1  0.507576  0.340494  0.623536  1
  Mo  Mo32  1  0.658052  0.491387  0.877647  1
  W  W33  1  0.341804  0.504819  0.374522  1
  W  W34  1  0.839127  0.991150  0.373762  1
  W  W35  1  0.006700  0.159748  0.126407  1
