# generated using pymatgen
data_NdSm3Mn4Al4O20
_symmetry_space_group_name_H-M   'P 1'
_cell_length_a   5.70975400
_cell_length_b   7.40664086
_cell_length_c   8.54230900
_cell_angle_alpha   90.05541414
_cell_angle_beta   90.00000000
_cell_angle_gamma   90.00000000
_symmetry_Int_Tables_number   1
_chemical_formula_structural   NdSm3Mn4Al4O20
_chemical_formula_sum   'Nd1 Sm3 Mn4 Al4 O20'
_cell_volume   361.25490986
_cell_formula_units_Z   1
loop_
 _symmetry_equiv_pos_site_id
 _symmetry_equiv_pos_as_xyz
  1  'x, y, z'
loop_
 _atom_site_type_symbol
 _atom_site_label
 _atom_site_symmetry_multiplicity
 _atom_site_fract_x
 _atom_site_fract_y
 _atom_site_fract_z
 _atom_site_occupancy
  Nd  Nd0  1  0.500000  0.365645  0.330443  1
  Sm  Sm1  1  0.500000  0.635351  0.670236  1
  Sm  Sm2  1  0.500000  0.134089  0.830500  1
  Sm  Sm3  1  0.500000  0.865214  0.169459  1
  Mn  Mn4  1  0.244144  0.999216  0.500206  1
  Mn  Mn5  1  0.755856  0.999216  0.500206  1
  Mn  Mn6  1  0.755753  0.500233  0.999269  1
  Mn  Mn7  1  0.244247  0.500233  0.999269  1
  Al  Al8  1  0.000000  0.106826  0.140292  1
  Al  Al9  1  0.000000  0.892318  0.859169  1
  Al  Al10  1  0.000000  0.392981  0.641107  1
  Al  Al11  1  0.000000  0.609010  0.359596  1
  O  O12  1  0.000000  0.340845  0.069184  1
  O  O13  1  0.000000  0.659072  0.930464  1
  O  O14  1  0.000000  0.159311  0.568732  1
  O  O15  1  0.000000  0.840882  0.432261  1
  O  O16  1  0.216347  0.000123  0.999573  1
  O  O17  1  0.783653  0.000123  0.999573  1
  O  O18  1  0.784860  0.502197  0.501344  1
  O  O19  1  0.215140  0.502197  0.501344  1
  O  O20  1  0.244159  0.098265  0.289442  1
  O  O21  1  0.755098  0.898402  0.710553  1
  O  O22  1  0.244902  0.898402  0.710553  1
  O  O23  1  0.754912  0.398545  0.789626  1
  O  O24  1  0.755841  0.098265  0.289442  1
  O  O25  1  0.243731  0.603245  0.209690  1
  O  O26  1  0.756269  0.603245  0.209690  1
  O  O27  1  0.245088  0.398545  0.789626  1
  O  O28  1  0.500000  0.341169  0.051670  1
  O  O29  1  0.500000  0.659467  0.946110  1
  O  O30  1  0.500000  0.157486  0.554972  1
  O  O31  1  0.500000  0.839882  0.446398  1
