# generated using pymatgen
data_Ti10Ge6O
_symmetry_space_group_name_H-M   'P 1'
_cell_length_a   7.56296800
_cell_length_b   7.56296851
_cell_length_c   5.18570100
_cell_angle_alpha   90.00000000
_cell_angle_beta   90.00000000
_cell_angle_gamma   119.99999779
_symmetry_Int_Tables_number   1
_chemical_formula_structural   Ti10Ge6O
_chemical_formula_sum   'Ti10 Ge6 O1'
_cell_volume   256.87549048
_cell_formula_units_Z   1
loop_
 _symmetry_equiv_pos_site_id
 _symmetry_equiv_pos_as_xyz
  1  'x, y, z'
loop_
 _atom_site_type_symbol
 _atom_site_label
 _atom_site_symmetry_multiplicity
 _atom_site_fract_x
 _atom_site_fract_y
 _atom_site_fract_z
 _atom_site_occupancy
  Ti  Ti0  1  0.000000  0.760930  0.256505  1
  Ti  Ti1  1  0.239070  0.239070  0.256505  1
  Ti  Ti2  1  0.760930  0.000000  0.256505  1
  Ti  Ti3  1  0.000000  0.239070  0.743495  1
  Ti  Ti4  1  0.760930  0.760930  0.743495  1
  Ti  Ti5  1  0.239070  0.000000  0.743495  1
  Ti  Ti6  1  0.333333  0.666667  0.000000  1
  Ti  Ti7  1  0.666667  0.333333  0.000000  1
  Ti  Ti8  1  0.666667  0.333333  0.500000  1
  Ti  Ti9  1  0.333333  0.666667  0.500000  1
  Ge  Ge10  1  0.000000  0.397363  0.245162  1
  Ge  Ge11  1  0.602637  0.602637  0.245162  1
  Ge  Ge12  1  0.397363  0.000000  0.245162  1
  Ge  Ge13  1  0.000000  0.602637  0.754838  1
  Ge  Ge14  1  0.397363  0.397363  0.754838  1
  Ge  Ge15  1  0.602637  0.000000  0.754838  1
  O  O16  1  0.000000  0.000000  0.500000  1
