# generated using pymatgen
data_Gd6DyRh3
_symmetry_space_group_name_H-M   'P 1'
_cell_length_a   10.00367800
_cell_length_b   10.00368049
_cell_length_c   6.29074500
_cell_angle_alpha   90.00000000
_cell_angle_beta   90.00000000
_cell_angle_gamma   120.00000499
_symmetry_Int_Tables_number   1
_chemical_formula_structural   Gd6DyRh3
_chemical_formula_sum   'Gd12 Dy2 Rh6'
_cell_volume   545.19543069
_cell_formula_units_Z   2
loop_
 _symmetry_equiv_pos_site_id
 _symmetry_equiv_pos_as_xyz
  1  'x, y, z'
loop_
 _atom_site_type_symbol
 _atom_site_label
 _atom_site_symmetry_multiplicity
 _atom_site_fract_x
 _atom_site_fract_y
 _atom_site_fract_z
 _atom_site_occupancy
  Gd  Gd0  1  0.875164  0.750328  0.771208  1
  Gd  Gd1  1  0.249672  0.124836  0.771208  1
  Gd  Gd2  1  0.875164  0.124836  0.771208  1
  Gd  Gd3  1  0.124836  0.249672  0.271208  1
  Gd  Gd4  1  0.750328  0.875164  0.271208  1
  Gd  Gd5  1  0.124836  0.875164  0.271208  1
  Gd  Gd6  1  0.458284  0.916568  0.591269  1
  Gd  Gd7  1  0.083432  0.541716  0.591269  1
  Gd  Gd8  1  0.458284  0.541716  0.591269  1
  Gd  Gd9  1  0.541716  0.083432  0.091269  1
  Gd  Gd10  1  0.916568  0.458284  0.091269  1
  Gd  Gd11  1  0.541716  0.458284  0.091269  1
  Dy  Dy12  1  0.666667  0.333333  0.567338  1
  Dy  Dy13  1  0.333333  0.666667  0.067338  1
  Rh  Rh14  1  0.189494  0.378987  0.850918  1
  Rh  Rh15  1  0.621013  0.810506  0.850918  1
  Rh  Rh16  1  0.189494  0.810506  0.850918  1
  Rh  Rh17  1  0.810506  0.621013  0.350918  1
  Rh  Rh18  1  0.378987  0.189494  0.350918  1
  Rh  Rh19  1  0.810506  0.189494  0.350918  1
