# generated using pymatgen
data_La17Tm(InIr6)2
_symmetry_space_group_name_H-M   'P 1'
_cell_length_a   11.36731900
_cell_length_b   11.36731900
_cell_length_c   6.44427000
_cell_angle_alpha   90.00000000
_cell_angle_beta   90.00000000
_cell_angle_gamma   90.00000000
_symmetry_Int_Tables_number   1
_chemical_formula_structural   La17Tm(InIr6)2
_chemical_formula_sum   'La17 Tm1 In2 Ir12'
_cell_volume   832.70241370
_cell_formula_units_Z   1
loop_
 _symmetry_equiv_pos_site_id
 _symmetry_equiv_pos_as_xyz
  1  'x, y, z'
loop_
 _atom_site_type_symbol
 _atom_site_label
 _atom_site_symmetry_multiplicity
 _atom_site_fract_x
 _atom_site_fract_y
 _atom_site_fract_z
 _atom_site_occupancy
  La  La0  1  0.280386  0.086864  0.389478  1
  La  La1  1  0.285890  0.912918  0.885489  1
  La  La2  1  0.714110  0.087082  0.885489  1
  La  La3  1  0.719614  0.913136  0.389478  1
  La  La4  1  0.587411  0.783000  0.889954  1
  La  La5  1  0.587794  0.208743  0.384206  1
  La  La6  1  0.412206  0.791257  0.384206  1
  La  La7  1  0.412589  0.217000  0.889954  1
  La  La8  1  0.208743  0.412206  0.615794  1
  La  La9  1  0.217000  0.587411  0.110046  1
  La  La10  1  0.783000  0.412589  0.110046  1
  La  La11  1  0.791257  0.587794  0.615794  1
  La  La12  1  0.912918  0.714110  0.114511  1
  La  La13  1  0.913136  0.280386  0.610522  1
  La  La14  1  0.086864  0.719614  0.610522  1
  La  La15  1  0.087082  0.285890  0.114511  1
  La  La16  1  0.500000  0.500000  0.500000  1
  Tm  Tm17  1  0.000000  0.000000  0.000000  1
  In  In18  1  0.000000  0.000000  0.500000  1
  In  In19  1  0.500000  0.500000  0.000000  1
  Ir  Ir20  1  0.851644  0.149758  0.242592  1
  Ir  Ir21  1  0.850242  0.851644  0.757408  1
  Ir  Ir22  1  0.149758  0.148356  0.757408  1
  Ir  Ir23  1  0.148356  0.850242  0.242592  1
  Ir  Ir24  1  0.655047  0.346110  0.745629  1
  Ir  Ir25  1  0.653890  0.655047  0.254371  1
  Ir  Ir26  1  0.346110  0.344953  0.254371  1
  Ir  Ir27  1  0.344953  0.653890  0.745629  1
  Ir  Ir28  1  0.500000  0.000000  0.116922  1
  Ir  Ir29  1  0.500000  0.000000  0.618626  1
  Ir  Ir30  1  0.000000  0.500000  0.883078  1
  Ir  Ir31  1  0.000000  0.500000  0.381374  1
