# generated using pymatgen
data_Li2Nb8Fe5Si14Ru
_symmetry_space_group_name_H-M   'P 1'
_cell_length_a   9.29940296
_cell_length_b   9.28954536
_cell_length_c   9.27935809
_cell_angle_alpha   94.36523986
_cell_angle_beta   94.30534052
_cell_angle_gamma   147.92375626
_symmetry_Int_Tables_number   1
_chemical_formula_structural   Li2Nb8Fe5Si14Ru
_chemical_formula_sum   'Li2 Nb8 Fe5 Si14 Ru1'
_cell_volume   409.45236856
_cell_formula_units_Z   1
loop_
 _symmetry_equiv_pos_site_id
 _symmetry_equiv_pos_as_xyz
  1  'x, y, z'
loop_
 _atom_site_type_symbol
 _atom_site_label
 _atom_site_symmetry_multiplicity
 _atom_site_fract_x
 _atom_site_fract_y
 _atom_site_fract_z
 _atom_site_occupancy
  Li  Li0  1  0.101153  0.601917  0.205460  1
  Li  Li1  1  0.100283  0.898859  0.500798  1
  Nb  Nb2  1  0.132547  0.134383  0.270060  1
  Nb  Nb3  1  0.867385  0.867057  0.732484  1
  Nb  Nb4  1  0.866856  0.134556  0.001187  1
  Nb  Nb5  1  0.134547  0.863764  0.999046  1
  Nb  Nb6  1  0.499455  0.689040  0.191827  1
  Nb  Nb7  1  0.498051  0.308437  0.809921  1
  Nb  Nb8  1  0.314455  0.502559  0.811029  1
  Nb  Nb9  1  0.696735  0.503773  0.194369  1
  Fe  Fe10  1  0.387937  0.616473  0.502445  1
  Fe  Fe11  1  0.595378  0.400097  0.500829  1
  Fe  Fe12  1  0.909945  0.094095  0.501252  1
  Fe  Fe13  1  0.910406  0.407225  0.816260  1
  Fe  Fe14  1  0.596345  0.093722  0.196077  1
  Si  Si15  1  0.313740  0.319445  0.584365  1
  Si  Si16  1  0.680434  0.686852  0.418519  1
  Si  Si17  1  0.689518  0.272892  0.997808  1
  Si  Si18  1  0.308505  0.721530  0.998683  1
  Si  Si19  1  0.982863  0.275360  0.297968  1
  Si  Si20  1  0.971545  0.679379  0.707516  1
  Si  Si21  1  0.741070  0.029526  0.706603  1
  Si  Si22  1  0.311738  0.019747  0.292272  1
  Si  Si23  1  0.553258  0.952178  0.407358  1
  Si  Si24  1  0.563098  0.155843  0.594907  1
  Si  Si25  1  0.037460  0.442057  0.588290  1
  Si  Si26  1  0.846940  0.445102  0.401473  1
  Si  Si27  1  0.752898  0.750943  0.001898  1
  Si  Si28  1  0.251095  0.249907  0.001524  1
  Ru  Ru29  1  0.384357  0.883281  0.767772  1
