# generated using pymatgen
data_Nd3(MoC3)2
_symmetry_space_group_name_H-M   'P 1'
_cell_length_a   8.57565400
_cell_length_b   8.57565318
_cell_length_c   5.29179200
_cell_angle_alpha   90.00000000
_cell_angle_beta   90.00000000
_cell_angle_gamma   119.99998003
_symmetry_Int_Tables_number   1
_chemical_formula_structural   Nd3(MoC3)2
_chemical_formula_sum   'Nd6 Mo4 C12'
_cell_volume   337.02952125
_cell_formula_units_Z   2
loop_
 _symmetry_equiv_pos_site_id
 _symmetry_equiv_pos_as_xyz
  1  'x, y, z'
loop_
 _atom_site_type_symbol
 _atom_site_label
 _atom_site_symmetry_multiplicity
 _atom_site_fract_x
 _atom_site_fract_y
 _atom_site_fract_z
 _atom_site_occupancy
  Nd  Nd0  1  0.619665  0.691447  0.750000  1
  Nd  Nd1  1  0.928218  0.619665  0.250000  1
  Nd  Nd2  1  0.691447  0.071782  0.250000  1
  Nd  Nd3  1  0.308553  0.928218  0.750000  1
  Nd  Nd4  1  0.071782  0.380335  0.750000  1
  Nd  Nd5  1  0.380335  0.308553  0.250000  1
  Mo  Mo6  1  0.000000  0.000000  0.500000  1
  Mo  Mo7  1  0.000000  0.000000  0.000000  1
  Mo  Mo8  1  0.666667  0.333333  0.750000  1
  Mo  Mo9  1  0.333333  0.666667  0.250000  1
  C  C10  1  0.959217  0.771601  0.750000  1
  C  C11  1  0.187615  0.959217  0.250000  1
  C  C12  1  0.771601  0.812385  0.250000  1
  C  C13  1  0.228399  0.187615  0.750000  1
  C  C14  1  0.812385  0.040783  0.750000  1
  C  C15  1  0.040783  0.228399  0.250000  1
  C  C16  1  0.864121  0.586734  0.750000  1
  C  C17  1  0.277386  0.864121  0.250000  1
  C  C18  1  0.586734  0.722614  0.250000  1
  C  C19  1  0.413266  0.277386  0.750000  1
  C  C20  1  0.135879  0.413266  0.250000  1
  C  C21  1  0.722614  0.135879  0.750000  1
