# generated using pymatgen
data_LaGeIrPt
_symmetry_space_group_name_H-M   'P 1'
_cell_length_a   9.69460200
_cell_length_b   9.69460229
_cell_length_c   4.18604200
_cell_angle_alpha   90.00000000
_cell_angle_beta   90.00000000
_cell_angle_gamma   155.35569258
_symmetry_Int_Tables_number   1
_chemical_formula_structural   LaGeIrPt
_chemical_formula_sum   'La2 Ge2 Ir2 Pt2'
_cell_volume   164.05245540
_cell_formula_units_Z   2
loop_
 _symmetry_equiv_pos_site_id
 _symmetry_equiv_pos_as_xyz
  1  'x, y, z'
loop_
 _atom_site_type_symbol
 _atom_site_label
 _atom_site_symmetry_multiplicity
 _atom_site_fract_x
 _atom_site_fract_y
 _atom_site_fract_z
 _atom_site_occupancy
  La  La0  1  0.103934  0.896066  0.750000  1
  La  La1  1  0.896066  0.103934  0.250000  1
  Ge  Ge2  1  0.321301  0.678699  0.750000  1
  Ge  Ge3  1  0.678699  0.321301  0.250000  1
  Ir  Ir4  1  0.249875  0.750125  0.250000  1
  Ir  Ir5  1  0.750125  0.249875  0.750000  1
  Pt  Pt6  1  0.546740  0.453260  0.250000  1
  Pt  Pt7  1  0.453260  0.546740  0.750000  1
