# generated using pymatgen
data_Ho5ZnGaBi
_symmetry_space_group_name_H-M   'P 1'
_cell_length_a   8.53224241
_cell_length_b   8.53224335
_cell_length_c   8.68435213
_cell_angle_alpha   123.41509553
_cell_angle_beta   123.41509412
_cell_angle_gamma   83.04805674
_symmetry_Int_Tables_number   1
_chemical_formula_structural   Ho5ZnGaBi
_chemical_formula_sum   'Ho10 Zn2 Ga2 Bi2'
_cell_volume   425.14737105
_cell_formula_units_Z   2
loop_
 _symmetry_equiv_pos_site_id
 _symmetry_equiv_pos_as_xyz
  1  'x, y, z'
loop_
 _atom_site_type_symbol
 _atom_site_label
 _atom_site_symmetry_multiplicity
 _atom_site_fract_x
 _atom_site_fract_y
 _atom_site_fract_z
 _atom_site_occupancy
  Ho  Ho0  1  0.000000  0.000000  0.000000  1
  Ho  Ho1  1  0.500000  0.500000  0.000000  1
  Ho  Ho2  1  0.004897  0.504897  0.799792  1
  Ho  Ho3  1  0.705104  0.205104  0.200208  1
  Ho  Ho4  1  0.515521  0.708007  0.500000  1
  Ho  Ho5  1  0.208007  0.015521  0.500000  1
  Ho  Ho6  1  0.995103  0.495103  0.200208  1
  Ho  Ho7  1  0.294896  0.794896  0.799792  1
  Ho  Ho8  1  0.484479  0.291993  0.500000  1
  Ho  Ho9  1  0.791993  0.984479  0.500000  1
  Zn  Zn10  1  0.138090  0.361910  0.500000  1
  Zn  Zn11  1  0.861910  0.638090  0.500000  1
  Ga  Ga12  1  0.651939  0.151939  0.803878  1
  Ga  Ga13  1  0.348061  0.848061  0.196122  1
  Bi  Bi14  1  0.750000  0.750000  0.000000  1
  Bi  Bi15  1  0.250000  0.250000  0.000000  1
