# generated using pymatgen
data_Tb3Y(SO6)2
_symmetry_space_group_name_H-M   'P 1'
_cell_length_a   4.18808705
_cell_length_b   7.09809587
_cell_length_c   8.11004756
_cell_angle_alpha   107.01507772
_cell_angle_beta   89.99899559
_cell_angle_gamma   107.14142980
_symmetry_Int_Tables_number   1
_chemical_formula_structural   Tb3Y(SO6)2
_chemical_formula_sum   'Tb3 Y1 S2 O12'
_cell_volume   219.31435917
_cell_formula_units_Z   1
loop_
 _symmetry_equiv_pos_site_id
 _symmetry_equiv_pos_as_xyz
  1  'x, y, z'
loop_
 _atom_site_type_symbol
 _atom_site_label
 _atom_site_symmetry_multiplicity
 _atom_site_fract_x
 _atom_site_fract_y
 _atom_site_fract_z
 _atom_site_occupancy
  Tb  Tb0  1  0.320602  0.657126  0.415168  1
  Tb  Tb1  1  0.336331  0.657002  0.914973  1
  Tb  Tb2  1  0.663396  0.342388  0.084794  1
  Y  Y3  1  0.679549  0.343885  0.585106  1
  S  S4  1  0.941747  0.000183  0.749961  1
  S  S5  1  0.058492  0.000084  0.250138  1
  O  O6  1  0.771413  0.507636  0.876669  1
  O  O7  1  0.228460  0.492006  0.123041  1
  O  O8  1  0.262996  0.491184  0.622825  1
  O  O9  1  0.736343  0.507735  0.377037  1
  O  O10  1  0.729434  0.998437  0.600397  1
  O  O11  1  0.271196  0.002610  0.399866  1
  O  O12  1  0.731250  0.002021  0.899645  1
  O  O13  1  0.268649  0.997822  0.100299  1
  O  O14  1  0.234847  0.188910  0.796742  1
  O  O15  1  0.765675  0.810997  0.203567  1
  O  O16  1  0.045660  0.811045  0.703265  1
  O  O17  1  0.953960  0.188929  0.296506  1
