# generated using pymatgen
data_Ho2Er2ReB12Ru
_symmetry_space_group_name_H-M   'P 1'
_cell_length_a   3.65090200
_cell_length_b   9.12254158
_cell_length_c   11.50696857
_cell_angle_alpha   89.78843481
_cell_angle_beta   90.00000000
_cell_angle_gamma   90.00000000
_symmetry_Int_Tables_number   1
_chemical_formula_structural   Ho2Er2ReB12Ru
_chemical_formula_sum   'Ho4 Er4 Re2 B24 Ru2'
_cell_volume   383.24279002
_cell_formula_units_Z   2
loop_
 _symmetry_equiv_pos_site_id
 _symmetry_equiv_pos_as_xyz
  1  'x, y, z'
loop_
 _atom_site_type_symbol
 _atom_site_label
 _atom_site_symmetry_multiplicity
 _atom_site_fract_x
 _atom_site_fract_y
 _atom_site_fract_z
 _atom_site_occupancy
  Ho  Ho0  1  0.000000  0.324752  0.415314  1
  Ho  Ho1  1  0.000000  0.675248  0.584686  1
  Ho  Ho2  1  0.000000  0.821294  0.087645  1
  Ho  Ho3  1  0.000000  0.178706  0.912355  1
  Er  Er4  1  0.000000  0.943176  0.370968  1
  Er  Er5  1  0.000000  0.056824  0.629032  1
  Er  Er6  1  0.000000  0.443133  0.129208  1
  Er  Er7  1  0.000000  0.556867  0.870792  1
  Re  Re8  1  0.000000  0.638751  0.320151  1
  Re  Re9  1  0.000000  0.361249  0.679849  1
  B  B10  1  0.500000  0.553087  0.433133  1
  B  B11  1  0.500000  0.446913  0.566867  1
  B  B12  1  0.500000  0.053846  0.066966  1
  B  B13  1  0.500000  0.946154  0.933034  1
  B  B14  1  0.500000  0.749325  0.419282  1
  B  B15  1  0.500000  0.250675  0.580718  1
  B  B16  1  0.500000  0.248818  0.080910  1
  B  B17  1  0.500000  0.751182  0.919090  1
  B  B18  1  0.500000  0.792493  0.265347  1
  B  B19  1  0.500000  0.207507  0.734653  1
  B  B20  1  0.500000  0.291175  0.234008  1
  B  B21  1  0.500000  0.708825  0.765992  1
  B  B22  1  0.500000  0.631394  0.184778  1
  B  B23  1  0.500000  0.368606  0.815222  1
  B  B24  1  0.500000  0.131151  0.314234  1
  B  B25  1  0.500000  0.868849  0.685766  1
  B  B26  1  0.500000  0.983174  0.212183  1
  B  B27  1  0.500000  0.016826  0.787817  1
  B  B28  1  0.500000  0.482423  0.287197  1
  B  B29  1  0.500000  0.517577  0.712803  1
  B  B30  1  0.500000  0.603646  0.028470  1
  B  B31  1  0.500000  0.396354  0.971530  1
  B  B32  1  0.500000  0.103221  0.471265  1
  B  B33  1  0.500000  0.896779  0.528735  1
  Ru  Ru34  1  0.000000  0.138113  0.178645  1
  Ru  Ru35  1  0.000000  0.861887  0.821355  1
