# generated using pymatgen
data_Hf24Fe3CoSe8
_symmetry_space_group_name_H-M   'P 1'
_cell_length_a   3.46519200
_cell_length_b   12.85559427
_cell_length_c   15.91146755
_cell_angle_alpha   90.15208277
_cell_angle_beta   90.00000000
_cell_angle_gamma   90.00000000
_symmetry_Int_Tables_number   1
_chemical_formula_structural   Hf24Fe3CoSe8
_chemical_formula_sum   'Hf24 Fe3 Co1 Se8'
_cell_volume   708.80727778
_cell_formula_units_Z   1
loop_
 _symmetry_equiv_pos_site_id
 _symmetry_equiv_pos_as_xyz
  1  'x, y, z'
loop_
 _atom_site_type_symbol
 _atom_site_label
 _atom_site_symmetry_multiplicity
 _atom_site_fract_x
 _atom_site_fract_y
 _atom_site_fract_z
 _atom_site_occupancy
  Hf  Hf0  1  0.000000  0.329585  0.490985  1
  Hf  Hf1  1  0.000000  0.670611  0.509109  1
  Hf  Hf2  1  0.500000  0.170898  0.992132  1
  Hf  Hf3  1  0.500000  0.829263  0.008679  1
  Hf  Hf4  1  0.000000  0.086996  0.578730  1
  Hf  Hf5  1  0.000000  0.912826  0.421251  1
  Hf  Hf6  1  0.500000  0.412320  0.078006  1
  Hf  Hf7  1  0.500000  0.587134  0.921038  1
  Hf  Hf8  1  0.000000  0.701506  0.303512  1
  Hf  Hf9  1  0.000000  0.298330  0.696485  1
  Hf  Hf10  1  0.500000  0.798912  0.804155  1
  Hf  Hf11  1  0.500000  0.201395  0.196467  1
  Hf  Hf12  1  0.000000  0.025058  0.102161  1
  Hf  Hf13  1  0.000000  0.974431  0.899046  1
  Hf  Hf14  1  0.500000  0.473909  0.602264  1
  Hf  Hf15  1  0.500000  0.526437  0.398262  1
  Hf  Hf16  1  0.000000  0.619558  0.076878  1
  Hf  Hf17  1  0.000000  0.380843  0.921186  1
  Hf  Hf18  1  0.500000  0.879276  0.577588  1
  Hf  Hf19  1  0.500000  0.120755  0.422060  1
  Hf  Hf20  1  0.000000  0.415085  0.244073  1
  Hf  Hf21  1  0.000000  0.586591  0.756278  1
  Hf  Hf22  1  0.500000  0.086096  0.744231  1
  Hf  Hf23  1  0.500000  0.913452  0.256181  1
  Fe  Fe24  1  0.000000  0.736058  0.911133  1
  Fe  Fe25  1  0.500000  0.236780  0.588612  1
  Fe  Fe26  1  0.500000  0.762846  0.411440  1
  Co  Co27  1  0.000000  0.262409  0.089219  1
  Se  Se28  1  0.000000  0.812347  0.151939  1
  Se  Se29  1  0.000000  0.187471  0.848607  1
  Se  Se30  1  0.500000  0.687161  0.652164  1
  Se  Se31  1  0.500000  0.312918  0.347659  1
  Se  Se32  1  0.000000  0.072393  0.289390  1
  Se  Se33  1  0.000000  0.927578  0.710471  1
  Se  Se34  1  0.500000  0.427855  0.789135  1
  Se  Se35  1  0.500000  0.572914  0.209475  1
