# generated using pymatgen
data_Pu3Pa(NiB10)2
_symmetry_space_group_name_H-M   'P 1'
_cell_length_a   4.12688800
_cell_length_b   5.55675716
_cell_length_c   11.04257830
_cell_angle_alpha   89.97301320
_cell_angle_beta   90.00000000
_cell_angle_gamma   90.00000000
_symmetry_Int_Tables_number   1
_chemical_formula_structural   Pu3Pa(NiB10)2
_chemical_formula_sum   'Pu3 Pa1 Ni2 B20'
_cell_volume   253.22964110
_cell_formula_units_Z   1
loop_
 _symmetry_equiv_pos_site_id
 _symmetry_equiv_pos_as_xyz
  1  'x, y, z'
loop_
 _atom_site_type_symbol
 _atom_site_label
 _atom_site_symmetry_multiplicity
 _atom_site_fract_x
 _atom_site_fract_y
 _atom_site_fract_z
 _atom_site_occupancy
  Pu  Pu0  1  0.500000  0.683574  0.138445  1
  Pu  Pu1  1  0.500000  0.816579  0.640094  1
  Pu  Pu2  1  0.500000  0.182453  0.359981  1
  Pa  Pa3  1  0.500000  0.316377  0.860972  1
  Ni  Ni4  1  0.000000  0.500587  0.500491  1
  Ni  Ni5  1  0.000000  0.003001  0.998938  1
  B  B6  1  0.000000  0.126091  0.539972  1
  B  B7  1  0.000000  0.874117  0.460263  1
  B  B8  1  0.000000  0.624937  0.959945  1
  B  B9  1  0.000000  0.373224  0.038903  1
  B  B10  1  0.000000  0.158589  0.698750  1
  B  B11  1  0.000000  0.841771  0.302051  1
  B  B12  1  0.302281  0.200428  0.113730  1
  B  B13  1  0.302365  0.800166  0.886214  1
  B  B14  1  0.698032  0.700364  0.386327  1
  B  B15  1  0.698050  0.299655  0.613822  1
  B  B16  1  0.697635  0.800166  0.886214  1
  B  B17  1  0.697719  0.200428  0.113730  1
  B  B18  1  0.301950  0.299655  0.613822  1
  B  B19  1  0.301968  0.700364  0.386327  1
  B  B20  1  0.000000  0.028244  0.186610  1
  B  B21  1  0.000000  0.971428  0.813093  1
  B  B22  1  0.000000  0.528586  0.313283  1
  B  B23  1  0.000000  0.470227  0.687899  1
  B  B24  1  0.000000  0.342279  0.197923  1
  B  B25  1  0.000000  0.656710  0.802202  1
