# generated using pymatgen
data_CaPr3Sm3CoI12
_symmetry_space_group_name_H-M   'P 1'
_cell_length_a   9.93569103
_cell_length_b   10.05475368
_cell_length_c   10.01606740
_cell_angle_alpha   106.88829046
_cell_angle_beta   107.16110936
_cell_angle_gamma   106.95664689
_symmetry_Int_Tables_number   1
_chemical_formula_structural   CaPr3Sm3CoI12
_chemical_formula_sum   'Ca1 Pr3 Sm3 Co1 I12'
_cell_volume   833.27147402
_cell_formula_units_Z   1
loop_
 _symmetry_equiv_pos_site_id
 _symmetry_equiv_pos_as_xyz
  1  'x, y, z'
loop_
 _atom_site_type_symbol
 _atom_site_label
 _atom_site_symmetry_multiplicity
 _atom_site_fract_x
 _atom_site_fract_y
 _atom_site_fract_z
 _atom_site_occupancy
  Ca  Ca0  1  0.499764  0.500268  0.499386  1
  Pr  Pr1  1  0.289351  0.024586  0.094861  1
  Pr  Pr2  1  0.900147  0.695361  0.975264  1
  Pr  Pr3  1  0.710912  0.974802  0.905403  1
  Sm  Sm4  1  0.974615  0.902266  0.699430  1
  Sm  Sm5  1  0.026063  0.100005  0.301462  1
  Sm  Sm6  1  0.098586  0.299005  0.024824  1
  Co  Co7  1  0.000382  0.000296  0.000535  1
  I  I8  1  0.534909  0.616517  0.840215  1
  I  I9  1  0.459524  0.383168  0.156289  1
  I  I10  1  0.315631  0.925907  0.771258  1
  I  I11  1  0.380760  0.158467  0.461962  1
  I  I12  1  0.929678  0.781041  0.324879  1
  I  I13  1  0.684417  0.074467  0.228974  1
  I  I14  1  0.072307  0.224169  0.681880  1
  I  I15  1  0.775430  0.317953  0.926723  1
  I  I16  1  0.229197  0.679081  0.074151  1
  I  I17  1  0.846647  0.543935  0.616731  1
  I  I18  1  0.152430  0.456371  0.377470  1
  I  I19  1  0.619251  0.842335  0.538303  1
