# generated using pymatgen
data_Dy7Tm3Sn5Bi
_symmetry_space_group_name_H-M   'P 1'
_cell_length_a   8.98053501
_cell_length_b   8.97603962
_cell_length_c   6.49075003
_cell_angle_alpha   89.98960532
_cell_angle_beta   90.00525913
_cell_angle_gamma   120.01759775
_symmetry_Int_Tables_number   1
_chemical_formula_structural   Dy7Tm3Sn5Bi
_chemical_formula_sum   'Dy7 Tm3 Sn5 Bi1'
_cell_volume   453.03884362
_cell_formula_units_Z   1
loop_
 _symmetry_equiv_pos_site_id
 _symmetry_equiv_pos_as_xyz
  1  'x, y, z'
loop_
 _atom_site_type_symbol
 _atom_site_label
 _atom_site_symmetry_multiplicity
 _atom_site_fract_x
 _atom_site_fract_y
 _atom_site_fract_z
 _atom_site_occupancy
  Dy  Dy0  1  0.994708  0.757296  0.749901  1
  Dy  Dy1  1  0.000287  0.239444  0.250080  1
  Dy  Dy2  1  0.760950  0.760475  0.250128  1
  Dy  Dy3  1  0.764292  0.000052  0.749910  1
  Dy  Dy4  1  0.237468  0.242631  0.749916  1
  Dy  Dy5  1  0.238109  0.000046  0.250082  1
  Dy  Dy6  1  0.332565  0.662870  0.001607  1
  Tm  Tm7  1  0.332538  0.662714  0.498264  1
  Tm  Tm8  1  0.669859  0.337316  0.001764  1
  Tm  Tm9  1  0.669844  0.337285  0.498251  1
  Sn  Sn10  1  0.396115  0.394368  0.250421  1
  Sn  Sn11  1  0.000740  0.605135  0.250408  1
  Sn  Sn12  1  0.999119  0.395859  0.749619  1
  Sn  Sn13  1  0.603744  0.603617  0.749587  1
  Sn  Sn14  1  0.605073  0.000468  0.250378  1
  Bi  Bi15  1  0.394589  0.000425  0.749683  1
