# generated using pymatgen
data_Dy2Er14CdHg3Pt4
_symmetry_space_group_name_H-M   'P 1'
_cell_length_a   9.59086941
_cell_length_b   9.59858172
_cell_length_c   9.58497200
_cell_angle_alpha   60.04689229
_cell_angle_beta   60.02033859
_cell_angle_gamma   60.00293075
_symmetry_Int_Tables_number   1
_chemical_formula_structural   Dy2Er14CdHg3Pt4
_chemical_formula_sum   'Dy2 Er14 Cd1 Hg3 Pt4'
_cell_volume   624.26782728
_cell_formula_units_Z   1
loop_
 _symmetry_equiv_pos_site_id
 _symmetry_equiv_pos_as_xyz
  1  'x, y, z'
loop_
 _atom_site_type_symbol
 _atom_site_label
 _atom_site_symmetry_multiplicity
 _atom_site_fract_x
 _atom_site_fract_y
 _atom_site_fract_z
 _atom_site_occupancy
  Dy  Dy0  1  0.564804  0.565461  0.934868  1
  Dy  Dy1  1  0.935138  0.936570  0.564146  1
  Er  Er2  1  0.354189  0.353518  0.351977  1
  Er  Er3  1  0.354189  0.353518  0.940318  1
  Er  Er4  1  0.356808  0.935623  0.353785  1
  Er  Er5  1  0.933166  0.356950  0.354943  1
  Er  Er6  1  0.810332  0.189658  0.190179  1
  Er  Er7  1  0.188317  0.811252  0.810566  1
  Er  Er8  1  0.188317  0.811252  0.189867  1
  Er  Er9  1  0.810332  0.189658  0.809831  1
  Er  Er10  1  0.189015  0.190101  0.810442  1
  Er  Er11  1  0.810441  0.810762  0.189399  1
  Er  Er12  1  0.935124  0.563963  0.564286  1
  Er  Er13  1  0.563005  0.936800  0.936104  1
  Er  Er14  1  0.563005  0.936800  0.564093  1
  Er  Er15  1  0.935124  0.563962  0.936627  1
  Cd  Cd16  1  0.255293  0.580411  0.582148  1
  Hg  Hg17  1  0.585188  0.587069  0.587018  1
  Hg  Hg18  1  0.585188  0.587069  0.240722  1
  Hg  Hg19  1  0.584714  0.240242  0.587521  1
  Pt  Pt20  1  0.143534  0.143986  0.145050  1
  Pt  Pt21  1  0.143534  0.143986  0.567431  1
  Pt  Pt22  1  0.141992  0.568961  0.144524  1
  Pt  Pt23  1  0.569253  0.142430  0.144159  1
