# generated using pymatgen
data_K12TaNb3Te16
_symmetry_space_group_name_H-M   'P 1'
_cell_length_a   10.15831270
_cell_length_b   10.21263569
_cell_length_c   11.61726000
_cell_angle_alpha   90.00000000
_cell_angle_beta   90.00000000
_cell_angle_gamma   90.14971100
_symmetry_Int_Tables_number   1
_chemical_formula_structural   K12TaNb3Te16
_chemical_formula_sum   'K12 Ta1 Nb3 Te16'
_cell_volume   1205.20699509
_cell_formula_units_Z   1
loop_
 _symmetry_equiv_pos_site_id
 _symmetry_equiv_pos_as_xyz
  1  'x, y, z'
loop_
 _atom_site_type_symbol
 _atom_site_label
 _atom_site_symmetry_multiplicity
 _atom_site_fract_x
 _atom_site_fract_y
 _atom_site_fract_z
 _atom_site_occupancy
  K  K0  1  0.052165  0.200833  0.046917  1
  K  K1  1  0.123444  0.400836  0.750000  1
  K  K2  1  0.376170  0.900047  0.250000  1
  K  K3  1  0.623871  0.099811  0.750000  1
  K  K4  1  0.876536  0.599595  0.250000  1
  K  K5  1  0.947432  0.798653  0.546112  1
  K  K6  1  0.552333  0.299317  0.452862  1
  K  K7  1  0.447941  0.700643  0.952989  1
  K  K8  1  0.552333  0.299317  0.047138  1
  K  K9  1  0.052165  0.200833  0.453083  1
  K  K10  1  0.447941  0.700643  0.547011  1
  K  K11  1  0.947432  0.798653  0.953888  1
  Ta  Ta12  1  0.209480  0.983125  0.750000  1
  Nb  Nb13  1  0.790433  0.016888  0.250000  1
  Nb  Nb14  1  0.710028  0.517083  0.750000  1
  Nb  Nb15  1  0.290033  0.482669  0.250000  1
  Te  Te16  1  0.335043  0.053540  0.936314  1
  Te  Te17  1  0.189831  0.728450  0.750000  1
  Te  Te18  1  0.309442  0.228099  0.250000  1
  Te  Te19  1  0.690954  0.771696  0.750000  1
  Te  Te20  1  0.809765  0.271577  0.250000  1
  Te  Te21  1  0.971846  0.084936  0.750000  1
  Te  Te22  1  0.528178  0.585006  0.250000  1
  Te  Te23  1  0.471934  0.414933  0.750000  1
  Te  Te24  1  0.028524  0.915520  0.250000  1
  Te  Te25  1  0.664754  0.946905  0.436449  1
  Te  Te26  1  0.835388  0.447252  0.563472  1
  Te  Te27  1  0.164707  0.552719  0.063548  1
  Te  Te28  1  0.664754  0.946905  0.063551  1
  Te  Te29  1  0.335043  0.053540  0.563686  1
  Te  Te30  1  0.164707  0.552719  0.436452  1
  Te  Te31  1  0.835388  0.447252  0.936528  1
