# generated using pymatgen
data_HfSc9(TiGa10)2
_symmetry_space_group_name_H-M   'P 1'
_cell_length_a   5.71530188
_cell_length_b   9.11912200
_cell_length_c   10.97851929
_cell_angle_alpha   90.00000000
_cell_angle_beta   90.11281741
_cell_angle_gamma   90.00000000
_symmetry_Int_Tables_number   1
_chemical_formula_structural   HfSc9(TiGa10)2
_chemical_formula_sum   'Hf1 Sc9 Ti2 Ga20'
_cell_volume   572.18323386
_cell_formula_units_Z   1
loop_
 _symmetry_equiv_pos_site_id
 _symmetry_equiv_pos_as_xyz
  1  'x, y, z'
loop_
 _atom_site_type_symbol
 _atom_site_label
 _atom_site_symmetry_multiplicity
 _atom_site_fract_x
 _atom_site_fract_y
 _atom_site_fract_z
 _atom_site_occupancy
  Hf  Hf0  1  0.859269  0.750000  0.064078  1
  Sc  Sc1  1  0.352491  0.250000  0.434491  1
  Sc  Sc2  1  0.888322  0.501830  0.353422  1
  Sc  Sc3  1  0.616581  0.994768  0.855103  1
  Sc  Sc4  1  0.112664  0.004702  0.645110  1
  Sc  Sc5  1  0.389260  0.498123  0.146657  1
  Sc  Sc6  1  0.112664  0.495298  0.645110  1
  Sc  Sc7  1  0.389260  0.001877  0.146657  1
  Sc  Sc8  1  0.888322  0.998170  0.353422  1
  Sc  Sc9  1  0.616581  0.505232  0.855103  1
  Ti  Ti10  1  0.640605  0.750000  0.566900  1
  Ti  Ti11  1  0.140652  0.250000  0.934311  1
  Ga  Ga12  1  0.875160  0.052995  0.091329  1
  Ga  Ga13  1  0.623536  0.454830  0.596675  1
  Ga  Ga14  1  0.127278  0.545020  0.904314  1
  Ga  Ga15  1  0.375775  0.945424  0.408379  1
  Ga  Ga16  1  0.127278  0.954980  0.904314  1
  Ga  Ga17  1  0.375775  0.554576  0.408379  1
  Ga  Ga18  1  0.875160  0.447005  0.091329  1
  Ga  Ga19  1  0.623536  0.045170  0.596675  1
  Ga  Ga20  1  0.152366  0.750000  0.253810  1
  Ga  Ga21  1  0.354099  0.750000  0.748368  1
  Ga  Ga22  1  0.855705  0.250000  0.752024  1
  Ga  Ga23  1  0.653261  0.250000  0.247066  1
  Ga  Ga24  1  0.389942  0.750000  0.000018  1
  Ga  Ga25  1  0.090416  0.750000  0.503113  1
  Ga  Ga26  1  0.593274  0.250000  0.996332  1
  Ga  Ga27  1  0.886420  0.250000  0.500582  1
  Ga  Ga28  1  0.624364  0.750000  0.290034  1
  Ga  Ga29  1  0.881498  0.750000  0.783370  1
  Ga  Ga30  1  0.381680  0.250000  0.718720  1
  Ga  Ga31  1  0.126810  0.250000  0.204808  1
