# generated using pymatgen
data_Zr6Zn20Co2SiAg
_symmetry_space_group_name_H-M   'P 1'
_cell_length_a   8.72946659
_cell_length_b   8.78545367
_cell_length_c   8.73116646
_cell_angle_alpha   59.84137058
_cell_angle_beta   60.00644043
_cell_angle_gamma   60.21058385
_symmetry_Int_Tables_number   1
_chemical_formula_structural   Zr6Zn20Co2SiAg
_chemical_formula_sum   'Zr6 Zn20 Co2 Si1 Ag1'
_cell_volume   473.68727439
_cell_formula_units_Z   1
loop_
 _symmetry_equiv_pos_site_id
 _symmetry_equiv_pos_as_xyz
  1  'x, y, z'
loop_
 _atom_site_type_symbol
 _atom_site_label
 _atom_site_symmetry_multiplicity
 _atom_site_fract_x
 _atom_site_fract_y
 _atom_site_fract_z
 _atom_site_occupancy
  Zr  Zr0  1  0.709609  0.281300  0.299482  1
  Zr  Zr1  1  0.290391  0.718700  0.700518  1
  Zr  Zr2  1  0.284269  0.715986  0.290485  1
  Zr  Zr3  1  0.715731  0.284014  0.709515  1
  Zr  Zr4  1  0.290739  0.284014  0.709515  1
  Zr  Zr5  1  0.709261  0.715986  0.290485  1
  Zn  Zn6  1  0.120765  0.120080  0.137693  1
  Zn  Zn7  1  0.879235  0.879920  0.862307  1
  Zn  Zn8  1  0.131722  0.118050  0.618505  1
  Zn  Zn9  1  0.125455  0.624367  0.124722  1
  Zn  Zn10  1  0.868278  0.881950  0.381495  1
  Zn  Zn11  1  0.874545  0.375633  0.875278  1
  Zn  Zn12  1  0.621463  0.120080  0.137693  1
  Zn  Zn13  1  0.378537  0.879920  0.862307  1
  Zn  Zn14  1  0.500000  0.000000  0.000000  1
  Zn  Zn15  1  0.000000  0.500000  0.500000  1
  Zn  Zn16  1  0.000000  0.500000  0.000000  1
  Zn  Zn17  1  0.500000  0.500000  0.000000  1
  Zn  Zn18  1  0.341296  0.329373  0.342016  1
  Zn  Zn19  1  0.658704  0.670627  0.657984  1
  Zn  Zn20  1  0.338980  0.339466  0.982574  1
  Zn  Zn21  1  0.333525  0.991664  0.341286  1
  Zn  Zn22  1  0.661020  0.660534  0.017426  1
  Zn  Zn23  1  0.666475  0.008336  0.658714  1
  Zn  Zn24  1  0.987314  0.329373  0.342016  1
  Zn  Zn25  1  0.012686  0.670627  0.657984  1
  Co  Co26  1  0.500000  0.000000  0.500000  1
  Co  Co27  1  0.000000  0.000000  0.500000  1
  Si  Si28  1  0.500000  0.500000  0.500000  1
  Ag  Ag29  1  0.000000  0.000000  0.000000  1
