# generated using pymatgen
data_Tm3U(NiB4)4
_symmetry_space_group_name_H-M   'P 1'
_cell_length_a   6.78348283
_cell_length_b   6.78343177
_cell_length_c   6.78344631
_cell_angle_alpha   113.01590629
_cell_angle_beta   113.01592771
_cell_angle_gamma   102.59306363
_symmetry_Int_Tables_number   1
_chemical_formula_structural   Tm3U(NiB4)4
_chemical_formula_sum   'Tm3 U1 Ni4 B16'
_cell_volume   237.73365701
_cell_formula_units_Z   1
loop_
 _symmetry_equiv_pos_site_id
 _symmetry_equiv_pos_as_xyz
  1  'x, y, z'
loop_
 _atom_site_type_symbol
 _atom_site_label
 _atom_site_symmetry_multiplicity
 _atom_site_fract_x
 _atom_site_fract_y
 _atom_site_fract_z
 _atom_site_occupancy
  Tm  Tm0  1  0.201149  0.201149  0.000000  1
  Tm  Tm1  1  0.798851  0.798850  0.000000  1
  Tm  Tm2  1  0.750001  0.250000  0.500000  1
  U  U3  1  0.249999  0.749998  0.499998  1
  Ni  Ni4  1  0.501168  0.272592  0.771426  1
  Ni  Ni5  1  0.501173  0.729754  0.228581  1
  Ni  Ni6  1  0.727410  0.498833  0.228579  1
  Ni  Ni7  1  0.270248  0.498829  0.771421  1
  B  B8  1  0.113087  0.277972  0.387456  1
  B  B9  1  0.890516  0.725629  0.612544  1
  B  B10  1  0.890516  0.277971  0.164886  1
  B  B11  1  0.113086  0.725630  0.835114  1
  B  B12  1  0.722029  0.886915  0.612545  1
  B  B13  1  0.274369  0.109484  0.387456  1
  B  B14  1  0.722029  0.109484  0.835114  1
  B  B15  1  0.274370  0.886914  0.164885  1
  B  B16  1  0.418901  0.421809  0.533622  1
  B  B17  1  0.888187  0.885279  0.466376  1
  B  B18  1  0.578191  0.111813  0.997093  1
  B  B19  1  0.114721  0.581098  0.002908  1
  B  B20  1  0.578190  0.581096  0.466376  1
  B  B21  1  0.114721  0.111812  0.533622  1
  B  B22  1  0.888188  0.421810  0.002908  1
  B  B23  1  0.418902  0.885278  0.997092  1
