# generated using pymatgen
data_La8In2TcNi
_symmetry_space_group_name_H-M   'P 1'
_cell_length_a   10.06310054
_cell_length_b   10.06310051
_cell_length_c   10.19956100
_cell_angle_alpha   59.55039652
_cell_angle_beta   59.55039662
_cell_angle_gamma   59.10575681
_symmetry_Int_Tables_number   1
_chemical_formula_structural   La8In2TcNi
_chemical_formula_sum   'La16 In4 Tc2 Ni2'
_cell_volume   720.38341336
_cell_formula_units_Z   2
loop_
 _symmetry_equiv_pos_site_id
 _symmetry_equiv_pos_as_xyz
  1  'x, y, z'
loop_
 _atom_site_type_symbol
 _atom_site_label
 _atom_site_symmetry_multiplicity
 _atom_site_fract_x
 _atom_site_fract_y
 _atom_site_fract_z
 _atom_site_occupancy
  La  La0  1  0.596738  0.596738  0.595740  1
  La  La1  1  0.596738  0.596738  0.210785  1
  La  La2  1  0.597014  0.212486  0.595251  1
  La  La3  1  0.212486  0.597014  0.595251  1
  La  La4  1  0.062912  0.440020  0.438694  1
  La  La5  1  0.440020  0.062912  0.058376  1
  La  La6  1  0.440020  0.062912  0.438694  1
  La  La7  1  0.062912  0.440020  0.058376  1
  La  La8  1  0.439828  0.439828  0.060172  1
  La  La9  1  0.057564  0.057564  0.442436  1
  La  La10  1  0.190120  0.803839  0.813717  1
  La  La11  1  0.803839  0.190120  0.192324  1
  La  La12  1  0.803839  0.190120  0.813717  1
  La  La13  1  0.190120  0.803839  0.192324  1
  La  La14  1  0.812117  0.812117  0.187883  1
  La  La15  1  0.193833  0.193833  0.806167  1
  In  In16  1  0.828299  0.828299  0.829946  1
  In  In17  1  0.828299  0.828299  0.513457  1
  In  In18  1  0.827915  0.513439  0.829324  1
  In  In19  1  0.513439  0.827915  0.829324  1
  Tc  Tc20  1  0.389464  0.389464  0.382652  1
  Tc  Tc21  1  0.389464  0.389464  0.838421  1
  Ni  Ni22  1  0.393157  0.829871  0.388487  1
  Ni  Ni23  1  0.829871  0.393157  0.388487  1
