# generated using pymatgen
data_Ni3MoPt
_symmetry_space_group_name_H-M   'P 1'
_cell_length_a   4.49808087
_cell_length_b   4.49808079
_cell_length_c   4.62016340
_cell_angle_alpha   98.71585642
_cell_angle_beta   99.93130050
_cell_angle_gamma   131.85167859
_symmetry_Int_Tables_number   1
_chemical_formula_structural   Ni3MoPt
_chemical_formula_sum   'Ni3 Mo1 Pt1'
_cell_volume   63.89829891
_cell_formula_units_Z   1
loop_
 _symmetry_equiv_pos_site_id
 _symmetry_equiv_pos_as_xyz
  1  'x, y, z'
loop_
 _atom_site_type_symbol
 _atom_site_label
 _atom_site_symmetry_multiplicity
 _atom_site_fract_x
 _atom_site_fract_y
 _atom_site_fract_z
 _atom_site_occupancy
  Ni  Ni0  1  0.407795  0.203224  0.611020  1
  Ni  Ni1  1  0.197718  0.606863  0.804581  1
  Ni  Ni2  1  0.792266  0.394053  0.186319  1
  Mo  Mo3  1  0.002110  0.994512  0.996622  1
  Pt  Pt4  1  0.600111  0.801348  0.401458  1
