# generated using pymatgen
data_Sc6Al16Pd7Se
_symmetry_space_group_name_H-M   'P 1'
_cell_length_a   8.83783148
_cell_length_b   8.83783090
_cell_length_c   8.83783100
_cell_angle_alpha   60.00000338
_cell_angle_beta   60.00000553
_cell_angle_gamma   60.00000370
_symmetry_Int_Tables_number   1
_chemical_formula_structural   Sc6Al16Pd7Se
_chemical_formula_sum   'Sc6 Al16 Pd7 Se1'
_cell_volume   488.11498426
_cell_formula_units_Z   1
loop_
 _symmetry_equiv_pos_site_id
 _symmetry_equiv_pos_as_xyz
  1  'x, y, z'
loop_
 _atom_site_type_symbol
 _atom_site_label
 _atom_site_symmetry_multiplicity
 _atom_site_fract_x
 _atom_site_fract_y
 _atom_site_fract_z
 _atom_site_occupancy
  Sc  Sc0  1  0.705908  0.294092  0.294092  1
  Sc  Sc1  1  0.294092  0.705908  0.705908  1
  Sc  Sc2  1  0.294092  0.705908  0.294092  1
  Sc  Sc3  1  0.705908  0.294092  0.705908  1
  Sc  Sc4  1  0.294092  0.294092  0.705908  1
  Sc  Sc5  1  0.705908  0.705908  0.294092  1
  Al  Al6  1  0.120879  0.120879  0.120879  1
  Al  Al7  1  0.879121  0.879121  0.879121  1
  Al  Al8  1  0.120879  0.120879  0.637364  1
  Al  Al9  1  0.120879  0.637364  0.120879  1
  Al  Al10  1  0.879121  0.879121  0.362636  1
  Al  Al11  1  0.879121  0.362636  0.879121  1
  Al  Al12  1  0.637364  0.120879  0.120879  1
  Al  Al13  1  0.362636  0.879121  0.879121  1
  Al  Al14  1  0.333705  0.333705  0.333705  1
  Al  Al15  1  0.666295  0.666295  0.666295  1
  Al  Al16  1  0.333705  0.333705  0.998888  1
  Al  Al17  1  0.333705  0.998888  0.333705  1
  Al  Al18  1  0.666295  0.666295  0.001112  1
  Al  Al19  1  0.666295  0.001112  0.666295  1
  Al  Al20  1  0.998888  0.333705  0.333705  1
  Al  Al21  1  0.001112  0.666295  0.666295  1
  Pd  Pd22  1  0.500000  0.000000  0.000000  1
  Pd  Pd23  1  0.000000  0.500000  0.500000  1
  Pd  Pd24  1  0.000000  0.500000  0.000000  1
  Pd  Pd25  1  0.500000  0.000000  0.500000  1
  Pd  Pd26  1  0.000000  0.000000  0.500000  1
  Pd  Pd27  1  0.500000  0.500000  0.000000  1
  Pd  Pd28  1  0.000000  0.000000  0.000000  1
  Se  Se29  1  0.500000  0.500000  0.500000  1
