# generated using pymatgen
data_Dy2PaRu2
_symmetry_space_group_name_H-M   'P 1'
_cell_length_a   5.92570027
_cell_length_b   5.92570088
_cell_length_c   5.92570137
_cell_angle_alpha   138.78945574
_cell_angle_beta   120.60304325
_cell_angle_gamma   74.84798355
_symmetry_Int_Tables_number   1
_chemical_formula_structural   Dy2PaRu2
_chemical_formula_sum   'Dy2 Pa1 Ru2'
_cell_volume   115.24657996
_cell_formula_units_Z   1
loop_
 _symmetry_equiv_pos_site_id
 _symmetry_equiv_pos_as_xyz
  1  'x, y, z'
loop_
 _atom_site_type_symbol
 _atom_site_label
 _atom_site_symmetry_multiplicity
 _atom_site_fract_x
 _atom_site_fract_y
 _atom_site_fract_z
 _atom_site_occupancy
  Dy  Dy0  1  0.693808  0.193808  0.500000  1
  Dy  Dy1  1  0.306192  0.806193  0.500001  1
  Pa  Pa2  1  0.000000  0.000000  0.000000  1
  Ru  Ru3  1  0.746044  0.499999  0.246044  1
  Ru  Ru4  1  0.253955  0.500001  0.753956  1
