# generated using pymatgen
data_Ho10GaSn6Ge
_symmetry_space_group_name_H-M   'P 1'
_cell_length_a   9.16720900
_cell_length_b   9.16724801
_cell_length_c   6.51133400
_cell_angle_alpha   90.00096643
_cell_angle_beta   90.00111434
_cell_angle_gamma   119.99754563
_symmetry_Int_Tables_number   1
_chemical_formula_structural   Ho10GaSn6Ge
_chemical_formula_sum   'Ho10 Ga1 Sn6 Ge1'
_cell_volume   473.90081823
_cell_formula_units_Z   1
loop_
 _symmetry_equiv_pos_site_id
 _symmetry_equiv_pos_as_xyz
  1  'x, y, z'
loop_
 _atom_site_type_symbol
 _atom_site_label
 _atom_site_symmetry_multiplicity
 _atom_site_fract_x
 _atom_site_fract_y
 _atom_site_fract_z
 _atom_site_occupancy
  Ho  Ho0  1  0.741941  0.741949  0.756324  1
  Ho  Ho1  1  0.258072  0.000056  0.756369  1
  Ho  Ho2  1  0.000050  0.258069  0.756363  1
  Ho  Ho3  1  0.258059  0.258051  0.243676  1
  Ho  Ho4  1  0.741928  0.999944  0.243631  1
  Ho  Ho5  1  0.999950  0.741931  0.243637  1
  Ho  Ho6  1  0.666676  0.333320  0.000001  1
  Ho  Ho7  1  0.333324  0.666680  0.999999  1
  Ho  Ho8  1  0.333338  0.666655  0.500001  1
  Ho  Ho9  1  0.666662  0.333345  0.499999  1
  Ga  Ga10  1  0.000000  0.000000  0.500000  1
  Sn  Sn11  1  0.389186  0.389169  0.750129  1
  Sn  Sn12  1  0.610846  0.999995  0.750103  1
  Sn  Sn13  1  0.999997  0.610851  0.750101  1
  Sn  Sn14  1  0.610814  0.610831  0.249871  1
  Sn  Sn15  1  0.389154  0.000005  0.249897  1
  Sn  Sn16  1  0.000003  0.389149  0.249899  1
  Ge  Ge17  1  0.000000  0.000000  0.000000  1
