# generated using pymatgen
data_La2Y14Cd4OsPt3
_symmetry_space_group_name_H-M   'P 1'
_cell_length_a   9.80791734
_cell_length_b   9.80791773
_cell_length_c   9.79900436
_cell_angle_alpha   59.50501600
_cell_angle_beta   59.50501883
_cell_angle_gamma   59.75836786
_symmetry_Int_Tables_number   1
_chemical_formula_structural   La2Y14Cd4OsPt3
_chemical_formula_sum   'La2 Y14 Cd4 Os1 Pt3'
_cell_volume   660.30284021
_cell_formula_units_Z   1
loop_
 _symmetry_equiv_pos_site_id
 _symmetry_equiv_pos_as_xyz
  1  'x, y, z'
loop_
 _atom_site_type_symbol
 _atom_site_label
 _atom_site_symmetry_multiplicity
 _atom_site_fract_x
 _atom_site_fract_y
 _atom_site_fract_z
 _atom_site_occupancy
  La  La0  1  0.351796  0.351796  0.353327  1
  La  La1  1  0.346819  0.346819  0.949903  1
  Y  Y2  1  0.351329  0.944628  0.350822  1
  Y  Y3  1  0.944628  0.351329  0.350822  1
  Y  Y4  1  0.817651  0.187576  0.187855  1
  Y  Y5  1  0.187786  0.811432  0.810315  1
  Y  Y6  1  0.187576  0.817651  0.187855  1
  Y  Y7  1  0.811432  0.187786  0.810315  1
  Y  Y8  1  0.185790  0.185790  0.816722  1
  Y  Y9  1  0.809878  0.809878  0.188269  1
  Y  Y10  1  0.935249  0.566417  0.565510  1
  Y  Y11  1  0.560878  0.935450  0.936055  1
  Y  Y12  1  0.566417  0.935249  0.565510  1
  Y  Y13  1  0.935450  0.560878  0.936055  1
  Y  Y14  1  0.566717  0.566717  0.933203  1
  Y  Y15  1  0.938668  0.938668  0.557581  1
  Cd  Cd16  1  0.582383  0.582383  0.576935  1
  Cd  Cd17  1  0.584068  0.584068  0.253234  1
  Cd  Cd18  1  0.586263  0.251333  0.580216  1
  Cd  Cd19  1  0.251333  0.586263  0.580216  1
  Os  Os20  1  0.141559  0.141559  0.146060  1
  Pt  Pt21  1  0.140922  0.140922  0.572767  1
  Pt  Pt22  1  0.138206  0.577208  0.145228  1
  Pt  Pt23  1  0.577208  0.138206  0.145228  1
