# generated using pymatgen
data_Th(PS3)4
_symmetry_space_group_name_H-M   'P 1'
_cell_length_a   10.72749636
_cell_length_b   10.72749183
_cell_length_c   10.72749112
_cell_angle_alpha   102.46327582
_cell_angle_beta   102.46324762
_cell_angle_gamma   124.63682089
_symmetry_Int_Tables_number   1
_chemical_formula_structural   Th(PS3)4
_chemical_formula_sum   'Th2 P8 S24'
_cell_volume   899.46351669
_cell_formula_units_Z   2
loop_
 _symmetry_equiv_pos_site_id
 _symmetry_equiv_pos_as_xyz
  1  'x, y, z'
loop_
 _atom_site_type_symbol
 _atom_site_label
 _atom_site_symmetry_multiplicity
 _atom_site_fract_x
 _atom_site_fract_y
 _atom_site_fract_z
 _atom_site_occupancy
  Th  Th0  1  0.500000  0.500000  0.000000  1
  Th  Th1  1  0.750000  0.250000  0.500000  1
  P  P2  1  0.941049  0.762721  0.190710  1
  P  P3  1  0.572010  0.750339  0.809290  1
  P  P4  1  0.000339  0.691049  0.678329  1
  P  P5  1  0.012721  0.322011  0.321672  1
  P  P6  1  0.308951  0.987279  0.309290  1
  P  P7  1  0.677990  0.999661  0.690710  1
  P  P8  1  0.249661  0.058951  0.821671  1
  P  P9  1  0.237279  0.427989  0.178328  1
  S  S10  1  0.987902  0.879888  0.766123  1
  S  S11  1  0.113765  0.221779  0.233877  1
  S  S12  1  0.471779  0.737902  0.608014  1
  S  S13  1  0.129888  0.863765  0.391986  1
  S  S14  1  0.262098  0.870112  0.733877  1
  S  S15  1  0.136235  0.528221  0.266123  1
  S  S16  1  0.778221  0.012098  0.891986  1
  S  S17  1  0.120112  0.886235  0.108014  1
  S  S18  1  0.858914  0.560095  0.470022  1
  S  S19  1  0.090073  0.388892  0.529978  1
  S  S20  1  0.638892  0.608914  0.798819  1
  S  S21  1  0.810094  0.840073  0.201181  1
  S  S22  1  0.391086  0.189905  0.029978  1
  S  S23  1  0.159927  0.361108  0.970022  1
  S  S24  1  0.611108  0.141086  0.701181  1
  S  S25  1  0.439906  0.909927  0.298819  1
  S  S26  1  0.784963  0.512712  0.089326  1
  S  S27  1  0.423386  0.695637  0.910674  1
  S  S28  1  0.945637  0.534963  0.772250  1
  S  S29  1  0.762713  0.173386  0.227750  1
  S  S30  1  0.465037  0.237288  0.410674  1
  S  S31  1  0.826614  0.054363  0.589326  1
  S  S32  1  0.304363  0.215037  0.727750  1
  S  S33  1  0.487287  0.576614  0.272250  1
