# generated using pymatgen
data_LiSc2BRh5
_symmetry_space_group_name_H-M   'P 1'
_cell_length_a   5.75482059
_cell_length_b   5.64441140
_cell_length_c   5.64441160
_cell_angle_alpha   61.29840182
_cell_angle_beta   59.35080811
_cell_angle_gamma   59.35079886
_symmetry_Int_Tables_number   1
_chemical_formula_structural   LiSc2BRh5
_chemical_formula_sum   'Li1 Sc2 B1 Rh5'
_cell_volume   129.54331882
_cell_formula_units_Z   1
loop_
 _symmetry_equiv_pos_site_id
 _symmetry_equiv_pos_as_xyz
  1  'x, y, z'
loop_
 _atom_site_type_symbol
 _atom_site_label
 _atom_site_symmetry_multiplicity
 _atom_site_fract_x
 _atom_site_fract_y
 _atom_site_fract_z
 _atom_site_occupancy
  Li  Li0  1  0.728833  0.271168  0.271168  1
  Sc  Sc1  1  0.249096  0.250904  0.250904  1
  Sc  Sc2  1  0.749096  0.750904  0.750904  1
  B  B3  1  0.007090  0.992910  0.992910  1
  Rh  Rh4  1  0.254023  0.745978  0.254536  1
  Rh  Rh5  1  0.745463  0.745976  0.254538  1
  Rh  Rh6  1  0.254023  0.254536  0.745978  1
  Rh  Rh7  1  0.745463  0.254538  0.745976  1
  Rh  Rh8  1  0.266915  0.733086  0.733086  1
