# generated using pymatgen
data_Tb8LuScPb8
_symmetry_space_group_name_H-M   'P 1'
_cell_length_a   8.12362800
_cell_length_b   8.23731700
_cell_length_c   15.65039100
_cell_angle_alpha   90.00000000
_cell_angle_beta   90.00000000
_cell_angle_gamma   90.00000000
_symmetry_Int_Tables_number   1
_chemical_formula_structural   Tb8LuScPb8
_chemical_formula_sum   'Tb16 Lu2 Sc2 Pb16'
_cell_volume   1047.27563427
_cell_formula_units_Z   2
loop_
 _symmetry_equiv_pos_site_id
 _symmetry_equiv_pos_as_xyz
  1  'x, y, z'
loop_
 _atom_site_type_symbol
 _atom_site_label
 _atom_site_symmetry_multiplicity
 _atom_site_fract_x
 _atom_site_fract_y
 _atom_site_fract_z
 _atom_site_occupancy
  Tb  Tb0  1  0.627246  0.156791  0.622292  1
  Tb  Tb1  1  0.127246  0.343209  0.877708  1
  Tb  Tb2  1  0.372503  0.842791  0.120147  1
  Tb  Tb3  1  0.872503  0.657209  0.379853  1
  Tb  Tb4  1  0.372503  0.842791  0.379853  1
  Tb  Tb5  1  0.872503  0.657209  0.120147  1
  Tb  Tb6  1  0.627246  0.156791  0.877708  1
  Tb  Tb7  1  0.127246  0.343209  0.622292  1
  Tb  Tb8  1  0.468426  0.678453  0.599074  1
  Tb  Tb9  1  0.968426  0.821547  0.900926  1
  Tb  Tb10  1  0.530971  0.321920  0.097504  1
  Tb  Tb11  1  0.030971  0.178080  0.402496  1
  Tb  Tb12  1  0.530971  0.321920  0.402496  1
  Tb  Tb13  1  0.030971  0.178080  0.097504  1
  Tb  Tb14  1  0.468426  0.678453  0.900926  1
  Tb  Tb15  1  0.968426  0.821547  0.599074  1
  Lu  Lu16  1  0.204628  0.505006  0.250000  1
  Lu  Lu17  1  0.704628  0.994994  0.250000  1
  Sc  Sc18  1  0.795002  0.495034  0.750000  1
  Sc  Sc19  1  0.295002  0.004966  0.750000  1
  Pb  Pb20  1  0.715626  0.966581  0.455974  1
  Pb  Pb21  1  0.215626  0.533419  0.044026  1
  Pb  Pb22  1  0.283795  0.033013  0.953165  1
  Pb  Pb23  1  0.783795  0.466987  0.546835  1
  Pb  Pb24  1  0.283795  0.033013  0.546835  1
  Pb  Pb25  1  0.783795  0.466987  0.953165  1
  Pb  Pb26  1  0.715626  0.966581  0.044026  1
  Pb  Pb27  1  0.215626  0.533419  0.455974  1
  Pb  Pb28  1  0.435783  0.376653  0.750000  1
  Pb  Pb29  1  0.935783  0.123347  0.750000  1
  Pb  Pb30  1  0.567214  0.624560  0.250000  1
  Pb  Pb31  1  0.067214  0.875440  0.250000  1
  Pb  Pb32  1  0.657904  0.841638  0.750000  1
  Pb  Pb33  1  0.157904  0.658362  0.750000  1
  Pb  Pb34  1  0.342339  0.155676  0.250000  1
  Pb  Pb35  1  0.842339  0.344324  0.250000  1
