# generated using pymatgen
data_Tm8Mg2Zn3NiSb2
_symmetry_space_group_name_H-M   'P 1'
_cell_length_a   8.39079337
_cell_length_b   8.39079337
_cell_length_c   8.45320739
_cell_angle_alpha   126.20419942
_cell_angle_beta   126.20419081
_cell_angle_gamma   79.04040845
_symmetry_Int_Tables_number   1
_chemical_formula_structural   Tm8Mg2Zn3NiSb2
_chemical_formula_sum   'Tm8 Mg2 Zn3 Ni1 Sb2'
_cell_volume   375.81528480
_cell_formula_units_Z   1
loop_
 _symmetry_equiv_pos_site_id
 _symmetry_equiv_pos_as_xyz
  1  'x, y, z'
loop_
 _atom_site_type_symbol
 _atom_site_label
 _atom_site_symmetry_multiplicity
 _atom_site_fract_x
 _atom_site_fract_y
 _atom_site_fract_z
 _atom_site_occupancy
  Tm  Tm0  1  0.789278  0.303331  0.814050  1
  Tm  Tm1  1  0.196669  0.710722  0.185950  1
  Tm  Tm2  1  0.475228  0.989281  0.185950  1
  Tm  Tm3  1  0.309844  0.463987  0.500000  1
  Tm  Tm4  1  0.036013  0.190156  0.500000  1
  Tm  Tm5  1  0.510719  0.024772  0.814050  1
  Tm  Tm6  1  0.698562  0.518820  0.500000  1
  Tm  Tm7  1  0.981180  0.801438  0.500000  1
  Mg  Mg8  1  0.999607  0.000525  0.000132  1
  Mg  Mg9  1  0.499475  0.500393  0.999868  1
  Zn  Zn10  1  0.134801  0.631504  0.766304  1
  Zn  Zn11  1  0.868496  0.365199  0.233696  1
  Zn  Zn12  1  0.630363  0.869637  0.500000  1
  Ni  Ni13  1  0.380018  0.119982  0.500000  1
  Sb  Sb14  1  0.244874  0.255126  0.000000  1
  Sb  Sb15  1  0.744874  0.755126  0.000000  1
