# generated using pymatgen
data_Yb2BeRhCl
_symmetry_space_group_name_H-M   'P 1'
_cell_length_a   3.84152400
_cell_length_b   3.84152318
_cell_length_c   16.39270500
_cell_angle_alpha   90.00000000
_cell_angle_beta   90.00000000
_cell_angle_gamma   119.99998987
_symmetry_Int_Tables_number   1
_chemical_formula_structural   Yb2BeRhCl
_chemical_formula_sum   'Yb4 Be2 Rh2 Cl2'
_cell_volume   209.50206500
_cell_formula_units_Z   2
loop_
 _symmetry_equiv_pos_site_id
 _symmetry_equiv_pos_as_xyz
  1  'x, y, z'
loop_
 _atom_site_type_symbol
 _atom_site_label
 _atom_site_symmetry_multiplicity
 _atom_site_fract_x
 _atom_site_fract_y
 _atom_site_fract_z
 _atom_site_occupancy
  Yb  Yb0  1  0.000000  0.000000  0.619692  1
  Yb  Yb1  1  0.000000  0.000000  0.379465  1
  Yb  Yb2  1  0.000000  0.000000  0.119692  1
  Yb  Yb3  1  0.000000  0.000000  0.879465  1
  Be  Be4  1  0.666667  0.333333  0.500733  1
  Be  Be5  1  0.333333  0.666667  0.000733  1
  Rh  Rh6  1  0.666667  0.333333  0.998832  1
  Rh  Rh7  1  0.333333  0.666667  0.498832  1
  Cl  Cl8  1  0.666667  0.333333  0.251276  1
  Cl  Cl9  1  0.333333  0.666667  0.751276  1
