# generated using pymatgen
data_TbYbDyNi19B10
_symmetry_space_group_name_H-M   'P 1'
_cell_length_a   7.85896143
_cell_length_b   7.85896240
_cell_length_c   5.75085809
_cell_angle_alpha   88.88846930
_cell_angle_beta   88.88846032
_cell_angle_gamma   67.32141585
_symmetry_Int_Tables_number   1
_chemical_formula_structural   TbYbDyNi19B10
_chemical_formula_sum   'Tb1 Yb1 Dy1 Ni19 B10'
_cell_volume   327.64022087
_cell_formula_units_Z   1
loop_
 _symmetry_equiv_pos_site_id
 _symmetry_equiv_pos_as_xyz
  1  'x, y, z'
loop_
 _atom_site_type_symbol
 _atom_site_label
 _atom_site_symmetry_multiplicity
 _atom_site_fract_x
 _atom_site_fract_y
 _atom_site_fract_z
 _atom_site_occupancy
  Tb  Tb0  1  0.373934  0.373934  0.388511  1
  Yb  Yb1  1  0.999746  0.999746  0.000286  1
  Dy  Dy2  1  0.625691  0.625691  0.612869  1
  Ni  Ni3  1  0.622370  0.622370  0.125582  1
  Ni  Ni4  1  0.377797  0.377797  0.874683  1
  Ni  Ni5  1  0.837451  0.837451  0.703493  1
  Ni  Ni6  1  0.162466  0.162466  0.294663  1
  Ni  Ni7  1  0.818804  0.818804  0.269050  1
  Ni  Ni8  1  0.180861  0.180861  0.730393  1
  Ni  Ni9  1  0.000322  0.000322  0.500124  1
  Ni  Ni10  1  0.624108  0.121520  0.073875  1
  Ni  Ni11  1  0.375908  0.878442  0.926358  1
  Ni  Ni12  1  0.878442  0.375908  0.926358  1
  Ni  Ni13  1  0.121520  0.624108  0.073875  1
  Ni  Ni14  1  0.287678  0.771107  0.300829  1
  Ni  Ni15  1  0.712949  0.228418  0.699753  1
  Ni  Ni16  1  0.228418  0.712949  0.699753  1
  Ni  Ni17  1  0.771107  0.287678  0.300829  1
  Ni  Ni18  1  0.482627  0.954125  0.301550  1
  Ni  Ni19  1  0.517700  0.045162  0.698997  1
  Ni  Ni20  1  0.045162  0.517700  0.698997  1
  Ni  Ni21  1  0.954125  0.482627  0.301550  1
  B  B22  1  0.701571  0.063687  0.430924  1
  B  B23  1  0.299206  0.935914  0.568961  1
  B  B24  1  0.935914  0.299206  0.568961  1
  B  B25  1  0.063687  0.701571  0.430924  1
  B  B26  1  0.349215  0.142268  0.025220  1
  B  B27  1  0.651078  0.857647  0.973837  1
  B  B28  1  0.857647  0.651078  0.973837  1
  B  B29  1  0.142268  0.349215  0.025220  1
  B  B30  1  0.616700  0.383528  0.999872  1
  B  B31  1  0.383528  0.616700  0.999872  1
