# generated using pymatgen
data_Ac3BiBRh6
_symmetry_space_group_name_H-M   'P 1'
_cell_length_a   6.11933200
_cell_length_b   6.11933153
_cell_length_c   14.54741300
_cell_angle_alpha   90.00000000
_cell_angle_beta   90.00000000
_cell_angle_gamma   119.99999173
_symmetry_Int_Tables_number   1
_chemical_formula_structural   Ac3BiBRh6
_chemical_formula_sum   'Ac6 Bi2 B2 Rh12'
_cell_volume   471.76360712
_cell_formula_units_Z   2
loop_
 _symmetry_equiv_pos_site_id
 _symmetry_equiv_pos_as_xyz
  1  'x, y, z'
loop_
 _atom_site_type_symbol
 _atom_site_label
 _atom_site_symmetry_multiplicity
 _atom_site_fract_x
 _atom_site_fract_y
 _atom_site_fract_z
 _atom_site_occupancy
  Ac  Ac0  1  0.000000  0.000000  0.750000  1
  Ac  Ac1  1  0.000000  0.000000  0.250000  1
  Ac  Ac2  1  0.333333  0.666667  0.408004  1
  Ac  Ac3  1  0.666667  0.333333  0.908004  1
  Ac  Ac4  1  0.666667  0.333333  0.591996  1
  Ac  Ac5  1  0.333333  0.666667  0.091996  1
  Bi  Bi6  1  0.333333  0.666667  0.750000  1
  Bi  Bi7  1  0.666667  0.333333  0.250000  1
  B  B8  1  0.000000  0.000000  0.500000  1
  B  B9  1  0.000000  0.000000  0.000000  1
  Rh  Rh10  1  0.337419  0.168709  0.417366  1
  Rh  Rh11  1  0.831291  0.168709  0.417366  1
  Rh  Rh12  1  0.831291  0.662581  0.417366  1
  Rh  Rh13  1  0.168709  0.337419  0.917366  1
  Rh  Rh14  1  0.662581  0.831291  0.582634  1
  Rh  Rh15  1  0.662581  0.831291  0.917366  1
  Rh  Rh16  1  0.337419  0.168709  0.082634  1
  Rh  Rh17  1  0.168709  0.337419  0.582634  1
  Rh  Rh18  1  0.168709  0.831291  0.582634  1
  Rh  Rh19  1  0.831291  0.168709  0.082634  1
  Rh  Rh20  1  0.831291  0.662581  0.082634  1
  Rh  Rh21  1  0.168709  0.831291  0.917366  1
