# generated using pymatgen
data_Hf10Be2Sn5Sb
_symmetry_space_group_name_H-M   'P 1'
_cell_length_a   8.56134154
_cell_length_b   8.56134189
_cell_length_c   5.73528200
_cell_angle_alpha   90.00000000
_cell_angle_beta   90.00000000
_cell_angle_gamma   120.02630533
_symmetry_Int_Tables_number   1
_chemical_formula_structural   Hf10Be2Sn5Sb
_chemical_formula_sum   'Hf10 Be2 Sn5 Sb1'
_cell_volume   363.96019765
_cell_formula_units_Z   1
loop_
 _symmetry_equiv_pos_site_id
 _symmetry_equiv_pos_as_xyz
  1  'x, y, z'
loop_
 _atom_site_type_symbol
 _atom_site_label
 _atom_site_symmetry_multiplicity
 _atom_site_fract_x
 _atom_site_fract_y
 _atom_site_fract_z
 _atom_site_occupancy
  Hf  Hf0  1  0.749221  0.749221  0.750000  1
  Hf  Hf1  1  0.250016  0.000677  0.750000  1
  Hf  Hf2  1  0.000677  0.250016  0.750000  1
  Hf  Hf3  1  0.251635  0.251635  0.250000  1
  Hf  Hf4  1  0.749312  0.000430  0.250000  1
  Hf  Hf5  1  0.000430  0.749312  0.250000  1
  Hf  Hf6  1  0.665878  0.333175  0.000249  1
  Hf  Hf7  1  0.333175  0.665878  0.000249  1
  Hf  Hf8  1  0.333175  0.665878  0.499751  1
  Hf  Hf9  1  0.665878  0.333175  0.499751  1
  Be  Be10  1  0.999184  0.999184  0.001817  1
  Be  Be11  1  0.999184  0.999184  0.498183  1
  Sn  Sn12  1  0.609266  0.000152  0.750000  1
  Sn  Sn13  1  0.000152  0.609266  0.750000  1
  Sn  Sn14  1  0.610833  0.610833  0.250000  1
  Sn  Sn15  1  0.390854  0.999663  0.250000  1
  Sn  Sn16  1  0.999663  0.390854  0.250000  1
  Sb  Sb17  1  0.391468  0.391468  0.750000  1
