# generated using pymatgen
data_Er2Ga9Co2Pd
_symmetry_space_group_name_H-M   'P 1'
_cell_length_a   7.46786507
_cell_length_b   7.46786579
_cell_length_c   9.38974000
_cell_angle_alpha   90.00000000
_cell_angle_beta   90.00000000
_cell_angle_gamma   119.67551368
_symmetry_Int_Tables_number   1
_chemical_formula_structural   Er2Ga9Co2Pd
_chemical_formula_sum   'Er4 Ga18 Co4 Pd2'
_cell_volume   454.97541416
_cell_formula_units_Z   2
loop_
 _symmetry_equiv_pos_site_id
 _symmetry_equiv_pos_as_xyz
  1  'x, y, z'
loop_
 _atom_site_type_symbol
 _atom_site_label
 _atom_site_symmetry_multiplicity
 _atom_site_fract_x
 _atom_site_fract_y
 _atom_site_fract_z
 _atom_site_occupancy
  Er  Er0  1  0.503522  0.825975  0.750000  1
  Er  Er1  1  0.496478  0.174025  0.250000  1
  Er  Er2  1  0.174025  0.496478  0.250000  1
  Er  Er3  1  0.825975  0.503522  0.750000  1
  Ga  Ga4  1  0.165797  0.944821  0.750000  1
  Ga  Ga5  1  0.834203  0.055179  0.250000  1
  Ga  Ga6  1  0.055179  0.834203  0.250000  1
  Ga  Ga7  1  0.944821  0.165797  0.750000  1
  Ga  Ga8  1  0.637644  0.637644  0.250000  1
  Ga  Ga9  1  0.362356  0.362356  0.750000  1
  Ga  Ga10  1  0.157509  0.157509  0.064042  1
  Ga  Ga11  1  0.842491  0.842491  0.564042  1
  Ga  Ga12  1  0.842491  0.842491  0.935958  1
  Ga  Ga13  1  0.157509  0.157509  0.435958  1
  Ga  Ga14  1  0.497880  0.844383  0.075441  1
  Ga  Ga15  1  0.502120  0.155617  0.575441  1
  Ga  Ga16  1  0.155617  0.502120  0.924559  1
  Ga  Ga17  1  0.844383  0.497880  0.424559  1
  Ga  Ga18  1  0.502120  0.155617  0.924559  1
  Ga  Ga19  1  0.497880  0.844383  0.424559  1
  Ga  Ga20  1  0.844383  0.497880  0.075441  1
  Ga  Ga21  1  0.155617  0.502120  0.575441  1
  Co  Co22  1  0.170560  0.829440  0.000000  1
  Co  Co23  1  0.829440  0.170560  0.500000  1
  Co  Co24  1  0.829440  0.170560  0.000000  1
  Co  Co25  1  0.170560  0.829440  0.500000  1
  Pd  Pd26  1  0.500000  0.500000  0.500000  1
  Pd  Pd27  1  0.500000  0.500000  0.000000  1
