# generated using pymatgen
data_Ho8Lu10Sc2Si15Tc
_symmetry_space_group_name_H-M   'P 1'
_cell_length_a   7.20770203
_cell_length_b   7.62947044
_cell_length_c   14.23882700
_cell_angle_alpha   90.00000000
_cell_angle_beta   90.00000000
_cell_angle_gamma   90.15117439
_symmetry_Int_Tables_number   1
_chemical_formula_structural   Ho8Lu10Sc2Si15Tc
_chemical_formula_sum   'Ho8 Lu10 Sc2 Si15 Tc1'
_cell_volume   783.00389193
_cell_formula_units_Z   1
loop_
 _symmetry_equiv_pos_site_id
 _symmetry_equiv_pos_as_xyz
  1  'x, y, z'
loop_
 _atom_site_type_symbol
 _atom_site_label
 _atom_site_symmetry_multiplicity
 _atom_site_fract_x
 _atom_site_fract_y
 _atom_site_fract_z
 _atom_site_occupancy
  Ho  Ho0  1  0.016480  0.182966  0.097579  1
  Ho  Ho1  1  0.986120  0.827535  0.906616  1
  Ho  Ho2  1  0.484165  0.680079  0.905700  1
  Ho  Ho3  1  0.986120  0.827535  0.593384  1
  Ho  Ho4  1  0.515404  0.319295  0.097446  1
  Ho  Ho5  1  0.016480  0.182966  0.402421  1
  Ho  Ho6  1  0.515404  0.319295  0.402554  1
  Ho  Ho7  1  0.484165  0.680079  0.594300  1
  Lu  Lu8  1  0.154141  0.510576  0.750000  1
  Lu  Lu9  1  0.664768  0.989865  0.750000  1
  Lu  Lu10  1  0.310971  0.172503  0.626384  1
  Lu  Lu11  1  0.676769  0.825111  0.372569  1
  Lu  Lu12  1  0.176563  0.678294  0.372178  1
  Lu  Lu13  1  0.676769  0.825111  0.127431  1
  Lu  Lu14  1  0.834815  0.316096  0.625538  1
  Lu  Lu15  1  0.310971  0.172503  0.873616  1
  Lu  Lu16  1  0.834815  0.316096  0.874462  1
  Lu  Lu17  1  0.176563  0.678294  0.127822  1
  Sc  Sc18  1  0.841187  0.486369  0.250000  1
  Sc  Sc19  1  0.342282  0.015048  0.250000  1
  Si  Si20  1  0.978166  0.900947  0.250000  1
  Si  Si21  1  0.480432  0.599369  0.250000  1
  Si  Si22  1  0.526606  0.394964  0.750000  1
  Si  Si23  1  0.280087  0.864225  0.750000  1
  Si  Si24  1  0.715742  0.136520  0.250000  1
  Si  Si25  1  0.217304  0.363961  0.250000  1
  Si  Si26  1  0.771019  0.627180  0.750000  1
  Si  Si27  1  0.158493  0.473462  0.536017  1
  Si  Si28  1  0.845760  0.532444  0.459473  1
  Si  Si29  1  0.345223  0.969184  0.457716  1
  Si  Si30  1  0.845760  0.532444  0.040527  1
  Si  Si31  1  0.650371  0.031345  0.536775  1
  Si  Si32  1  0.158493  0.473462  0.963983  1
  Si  Si33  1  0.650371  0.031345  0.963225  1
  Si  Si34  1  0.345223  0.969184  0.042284  1
  Tc  Tc35  1  0.025998  0.094348  0.750000  1
