# generated using pymatgen
data_Ce4MgPb3
_symmetry_space_group_name_H-M   'P 1'
_cell_length_a   9.14890171
_cell_length_b   9.14890230
_cell_length_c   9.14890383
_cell_angle_alpha   96.72542510
_cell_angle_beta   96.72541543
_cell_angle_gamma   139.97621365
_symmetry_Int_Tables_number   1
_chemical_formula_structural   Ce4MgPb3
_chemical_formula_sum   'Ce8 Mg2 Pb6'
_cell_volume   462.74552053
_cell_formula_units_Z   2
loop_
 _symmetry_equiv_pos_site_id
 _symmetry_equiv_pos_as_xyz
  1  'x, y, z'
loop_
 _atom_site_type_symbol
 _atom_site_label
 _atom_site_symmetry_multiplicity
 _atom_site_fract_x
 _atom_site_fract_y
 _atom_site_fract_z
 _atom_site_occupancy
  Ce  Ce0  1  0.097926  0.234540  0.332464  1
  Ce  Ce1  1  0.902074  0.765460  0.667536  1
  Ce  Ce2  1  0.765460  0.097926  0.863386  1
  Ce  Ce3  1  0.402074  0.734540  0.136614  1
  Ce  Ce4  1  0.234540  0.902074  0.136614  1
  Ce  Ce5  1  0.597926  0.265460  0.863386  1
  Ce  Ce6  1  0.734540  0.597926  0.332464  1
  Ce  Ce7  1  0.265460  0.402074  0.667536  1
  Mg  Mg8  1  0.250000  0.750000  0.500000  1
  Mg  Mg9  1  0.750000  0.250000  0.500000  1
  Pb  Pb10  1  0.149678  0.649678  0.799356  1
  Pb  Pb11  1  0.850322  0.350322  0.200644  1
  Pb  Pb12  1  0.350322  0.149678  0.500000  1
  Pb  Pb13  1  0.649678  0.850322  0.500000  1
  Pb  Pb14  1  0.250000  0.250000  0.000000  1
  Pb  Pb15  1  0.750000  0.750000  0.000000  1
