# generated using pymatgen
data_TbDyThCo11B4
_symmetry_space_group_name_H-M   'P 1'
_cell_length_a   5.04551702
_cell_length_b   5.04723189
_cell_length_c   9.79374200
_cell_angle_alpha   89.99982842
_cell_angle_beta   90.00049862
_cell_angle_gamma   120.00085030
_symmetry_Int_Tables_number   1
_chemical_formula_structural   TbDyThCo11B4
_chemical_formula_sum   'Tb1 Dy1 Th1 Co11 B4'
_cell_volume   215.99042716
_cell_formula_units_Z   1
loop_
 _symmetry_equiv_pos_site_id
 _symmetry_equiv_pos_as_xyz
  1  'x, y, z'
loop_
 _atom_site_type_symbol
 _atom_site_label
 _atom_site_symmetry_multiplicity
 _atom_site_fract_x
 _atom_site_fract_y
 _atom_site_fract_z
 _atom_site_occupancy
  Tb  Tb0  1  0.999994  0.000004  0.656160  1
  Dy  Dy1  1  0.999984  0.000003  0.343681  1
  Th  Th2  1  0.000015  0.999998  0.000523  1
  Co  Co3  1  0.333251  0.666326  0.000040  1
  Co  Co4  1  0.666707  0.333664  0.000107  1
  Co  Co5  1  0.499887  0.999795  0.499792  1
  Co  Co6  1  0.499891  0.500098  0.499708  1
  Co  Co7  1  0.000197  0.500102  0.499786  1
  Co  Co8  1  0.500096  0.000214  0.204821  1
  Co  Co9  1  0.500097  0.499895  0.204869  1
  Co  Co10  1  0.999785  0.499903  0.204782  1
  Co  Co11  1  0.500116  0.000232  0.795470  1
  Co  Co12  1  0.500122  0.499876  0.795311  1
  Co  Co13  1  0.999777  0.499891  0.795421  1
  B  B14  1  0.333143  0.666756  0.349706  1
  B  B15  1  0.666835  0.333239  0.350176  1
  B  B16  1  0.666785  0.333382  0.649575  1
  B  B17  1  0.333219  0.666620  0.650076  1
