# generated using pymatgen
data_TbYHoAlC3
_symmetry_space_group_name_H-M   'P 1'
_cell_length_a   3.58035900
_cell_length_b   7.07468357
_cell_length_c   9.97807638
_cell_angle_alpha   90.01577744
_cell_angle_beta   90.00000000
_cell_angle_gamma   90.00000000
_symmetry_Int_Tables_number   1
_chemical_formula_structural   TbYHoAlC3
_chemical_formula_sum   'Tb2 Y2 Ho2 Al2 C6'
_cell_volume   252.74373692
_cell_formula_units_Z   2
loop_
 _symmetry_equiv_pos_site_id
 _symmetry_equiv_pos_as_xyz
  1  'x, y, z'
loop_
 _atom_site_type_symbol
 _atom_site_label
 _atom_site_symmetry_multiplicity
 _atom_site_fract_x
 _atom_site_fract_y
 _atom_site_fract_z
 _atom_site_occupancy
  Tb  Tb0  1  0.000000  0.749653  0.459070  1
  Tb  Tb1  1  0.000000  0.250347  0.540930  1
  Y  Y2  1  0.500000  0.990275  0.199093  1
  Y  Y3  1  0.500000  0.009725  0.800907  1
  Ho  Ho4  1  0.500000  0.512067  0.200259  1
  Ho  Ho5  1  0.500000  0.487933  0.799741  1
  Al  Al6  1  0.000000  0.749003  0.005379  1
  Al  Al7  1  0.000000  0.250997  0.994621  1
  C  C8  1  0.500000  0.508956  0.566216  1
  C  C9  1  0.500000  0.491044  0.433784  1
  C  C10  1  0.500000  0.990830  0.566036  1
  C  C11  1  0.500000  0.009170  0.433964  1
  C  C12  1  0.000000  0.747695  0.208008  1
  C  C13  1  0.000000  0.252305  0.791992  1
