# generated using pymatgen
data_Zr3Sc5Ta10VSi16Mo
_symmetry_space_group_name_H-M   'P 1'
_cell_length_a   6.87429138
_cell_length_b   6.87894922
_cell_length_c   12.67980500
_cell_angle_alpha   90.14874207
_cell_angle_beta   89.88282110
_cell_angle_gamma   89.99443216
_symmetry_Int_Tables_number   1
_chemical_formula_structural   Zr3Sc5Ta10VSi16Mo
_chemical_formula_sum   'Zr3 Sc5 Ta10 V1 Si16 Mo1'
_cell_volume   599.59808944
_cell_formula_units_Z   1
loop_
 _symmetry_equiv_pos_site_id
 _symmetry_equiv_pos_as_xyz
  1  'x, y, z'
loop_
 _atom_site_type_symbol
 _atom_site_label
 _atom_site_symmetry_multiplicity
 _atom_site_fract_x
 _atom_site_fract_y
 _atom_site_fract_z
 _atom_site_occupancy
  Zr  Zr0  1  0.000239  0.659182  0.031547  1
  Zr  Zr1  1  0.841063  0.502832  0.281020  1
  Zr  Zr2  1  0.158499  0.497468  0.781344  1
  Sc  Sc3  1  0.500522  0.840579  0.718138  1
  Sc  Sc4  1  0.497710  0.159866  0.220295  1
  Sc  Sc5  1  0.000105  0.341410  0.529060  1
  Sc  Sc6  1  0.660364  0.999871  0.969795  1
  Sc  Sc7  1  0.339960  0.000514  0.469219  1
  Ta  Ta8  1  0.168695  0.831118  0.249980  1
  Ta  Ta9  1  0.831662  0.171148  0.749769  1
  Ta  Ta10  1  0.671398  0.668753  0.499294  1
  Ta  Ta11  1  0.003697  0.151701  0.126016  1
  Ta  Ta12  1  0.348374  0.503919  0.375297  1
  Ta  Ta13  1  0.652275  0.494853  0.876406  1
  Ta  Ta14  1  0.506936  0.347880  0.623784  1
  Ta  Ta15  1  0.494844  0.653993  0.124402  1
  Ta  Ta16  1  0.995742  0.847842  0.626989  1
  Ta  Ta17  1  0.150686  0.005046  0.874461  1
  V  V18  1  0.847824  0.990853  0.373206  1
  Si  Si19  1  0.301967  0.960346  0.063784  1
  Si  Si20  1  0.545342  0.805793  0.316044  1
  Si  Si21  1  0.456738  0.197722  0.814452  1
  Si  Si22  1  0.801092  0.543548  0.684900  1
  Si  Si23  1  0.203071  0.452018  0.186267  1
  Si  Si24  1  0.702266  0.041317  0.559582  1
  Si  Si25  1  0.955690  0.298209  0.937186  1
  Si  Si26  1  0.041949  0.706224  0.436073  1
  Si  Si27  1  0.703547  0.361593  0.073080  1
  Si  Si28  1  0.128754  0.202008  0.323890  1
  Si  Si29  1  0.860637  0.794065  0.821828  1
  Si  Si30  1  0.207106  0.137632  0.676826  1
  Si  Si31  1  0.792195  0.867002  0.181586  1
  Si  Si32  1  0.294541  0.637514  0.571085  1
  Si  Si33  1  0.364334  0.706967  0.927865  1
  Si  Si34  1  0.639693  0.286760  0.425659  1
  Mo  Mo35  1  0.330480  0.332455  0.999878  1
