# generated using pymatgen
data_Y6InNiRu
_symmetry_space_group_name_H-M   'P 1'
_cell_length_a   8.57940848
_cell_length_b   8.57940878
_cell_length_c   8.57940820
_cell_angle_alpha   106.11132999
_cell_angle_beta   109.97436792
_cell_angle_gamma   112.38917976
_symmetry_Int_Tables_number   1
_chemical_formula_structural   Y6InNiRu
_chemical_formula_sum   'Y12 In2 Ni2 Ru2'
_cell_volume   484.65361378
_cell_formula_units_Z   2
loop_
 _symmetry_equiv_pos_site_id
 _symmetry_equiv_pos_as_xyz
  1  'x, y, z'
loop_
 _atom_site_type_symbol
 _atom_site_label
 _atom_site_symmetry_multiplicity
 _atom_site_fract_x
 _atom_site_fract_y
 _atom_site_fract_z
 _atom_site_occupancy
  Y  Y0  1  0.699419  0.260179  0.959597  1
  Y  Y1  1  0.300581  0.739821  0.040403  1
  Y  Y2  1  0.699419  0.739821  0.439241  1
  Y  Y3  1  0.300581  0.260179  0.560759  1
  Y  Y4  1  0.814748  0.142605  0.327856  1
  Y  Y5  1  0.814748  0.486892  0.672144  1
  Y  Y6  1  0.185252  0.857395  0.672144  1
  Y  Y7  1  0.185252  0.513108  0.327856  1
  Y  Y8  1  0.598051  0.780553  0.817497  1
  Y  Y9  1  0.963056  0.780553  0.182503  1
  Y  Y10  1  0.036944  0.219447  0.817497  1
  Y  Y11  1  0.401949  0.219447  0.182503  1
  In  In12  1  0.500000  0.500000  0.000000  1
  In  In13  1  0.500000  0.000000  0.500000  1
  Ni  Ni14  1  0.000000  0.114618  0.114618  1
  Ni  Ni15  1  0.000000  0.885382  0.885382  1
  Ru  Ru16  1  0.832866  0.500000  0.332866  1
  Ru  Ru17  1  0.167134  0.500000  0.667134  1
