# generated using pymatgen
data_CaHo(Ga3Ni)6
_symmetry_space_group_name_H-M   'P 1'
_cell_length_a   10.16401979
_cell_length_b   10.16401954
_cell_length_c   10.16401784
_cell_angle_alpha   41.99710124
_cell_angle_beta   41.99709541
_cell_angle_gamma   41.99710530
_symmetry_Int_Tables_number   1
_chemical_formula_structural   CaHo(Ga3Ni)6
_chemical_formula_sum   'Ca1 Ho1 Ga18 Ni6'
_cell_volume   425.21566251
_cell_formula_units_Z   1
loop_
 _symmetry_equiv_pos_site_id
 _symmetry_equiv_pos_as_xyz
  1  'x, y, z'
loop_
 _atom_site_type_symbol
 _atom_site_label
 _atom_site_symmetry_multiplicity
 _atom_site_fract_x
 _atom_site_fract_y
 _atom_site_fract_z
 _atom_site_occupancy
  Ca  Ca0  1  0.166906  0.166906  0.166906  1
  Ho  Ho1  1  0.833213  0.833213  0.833213  1
  Ga  Ga2  1  0.051414  0.051414  0.051414  1
  Ga  Ga3  1  0.706901  0.503671  0.289458  1
  Ga  Ga4  1  0.666914  0.334009  0.999098  1
  Ga  Ga5  1  0.104855  0.431625  0.763339  1
  Ga  Ga6  1  0.431625  0.763339  0.104855  1
  Ga  Ga7  1  0.385643  0.385643  0.385643  1
  Ga  Ga8  1  0.334009  0.999098  0.666914  1
  Ga  Ga9  1  0.613725  0.613725  0.613725  1
  Ga  Ga10  1  0.237497  0.565545  0.897189  1
  Ga  Ga11  1  0.565545  0.897189  0.237497  1
  Ga  Ga12  1  0.503671  0.289458  0.706901  1
  Ga  Ga13  1  0.763339  0.104855  0.431625  1
  Ga  Ga14  1  0.949347  0.949347  0.949347  1
  Ga  Ga15  1  0.289458  0.706901  0.503671  1
  Ga  Ga16  1  0.999098  0.666914  0.334009  1
  Ga  Ga17  1  0.716890  0.716890  0.716890  1
  Ga  Ga18  1  0.282637  0.282637  0.282637  1
  Ga  Ga19  1  0.897189  0.237497  0.565545  1
  Ni  Ni20  1  0.241762  0.920696  0.584883  1
  Ni  Ni21  1  0.920696  0.584883  0.241762  1
  Ni  Ni22  1  0.755946  0.420862  0.075978  1
  Ni  Ni23  1  0.075978  0.755946  0.420862  1
  Ni  Ni24  1  0.420862  0.075978  0.755946  1
  Ni  Ni25  1  0.584883  0.241762  0.920696  1
