# generated using pymatgen
data_Cs6AlFeSe6
_symmetry_space_group_name_H-M   'P 1'
_cell_length_a   11.00523710
_cell_length_b   11.00523718
_cell_length_c   14.16725100
_cell_angle_alpha   90.00000000
_cell_angle_beta   90.00000000
_cell_angle_gamma   138.75111998
_symmetry_Int_Tables_number   1
_chemical_formula_structural   Cs6AlFeSe6
_chemical_formula_sum   'Cs12 Al2 Fe2 Se12'
_cell_volume   1131.32653132
_cell_formula_units_Z   2
loop_
 _symmetry_equiv_pos_site_id
 _symmetry_equiv_pos_as_xyz
  1  'x, y, z'
loop_
 _atom_site_type_symbol
 _atom_site_label
 _atom_site_symmetry_multiplicity
 _atom_site_fract_x
 _atom_site_fract_y
 _atom_site_fract_z
 _atom_site_occupancy
  Cs  Cs0  1  0.867235  0.866654  0.679848  1
  Cs  Cs1  1  0.133346  0.132765  0.320152  1
  Cs  Cs2  1  0.633346  0.632765  0.179848  1
  Cs  Cs3  1  0.367235  0.366654  0.820152  1
  Cs  Cs4  1  0.165491  0.518441  0.126305  1
  Cs  Cs5  1  0.481559  0.834509  0.873695  1
  Cs  Cs6  1  0.981559  0.334509  0.626305  1
  Cs  Cs7  1  0.665491  0.018441  0.373695  1
  Cs  Cs8  1  0.839918  0.485660  0.875474  1
  Cs  Cs9  1  0.514340  0.160082  0.124526  1
  Cs  Cs10  1  0.014340  0.660082  0.375474  1
  Cs  Cs11  1  0.339918  0.985660  0.624526  1
  Al  Al12  1  0.920582  0.079418  0.000000  1
  Al  Al13  1  0.420582  0.579418  0.500000  1
  Fe  Fe14  1  0.078799  0.921201  0.000000  1
  Fe  Fe15  1  0.578799  0.421201  0.500000  1
  Se  Se16  1  0.290323  0.291740  0.564669  1
  Se  Se17  1  0.708260  0.709677  0.435331  1
  Se  Se18  1  0.208260  0.209677  0.064669  1
  Se  Se19  1  0.790323  0.791740  0.935331  1
  Se  Se20  1  0.722078  0.011696  0.119800  1
  Se  Se21  1  0.988304  0.277922  0.880200  1
  Se  Se22  1  0.488304  0.777922  0.619800  1
  Se  Se23  1  0.222078  0.511696  0.380200  1
  Se  Se24  1  0.277140  0.987374  0.881334  1
  Se  Se25  1  0.012626  0.722860  0.118666  1
  Se  Se26  1  0.512626  0.222860  0.381334  1
  Se  Se27  1  0.777140  0.487374  0.618666  1
