# generated using pymatgen
data_CaPr2Dy4FeI12
_symmetry_space_group_name_H-M   'P 1'
_cell_length_a   9.89639830
_cell_length_b   9.76317928
_cell_length_c   9.91373814
_cell_angle_alpha   106.54176465
_cell_angle_beta   106.85617282
_cell_angle_gamma   107.59096963
_symmetry_Int_Tables_number   1
_chemical_formula_structural   CaPr2Dy4FeI12
_chemical_formula_sum   'Ca1 Pr2 Dy4 Fe1 I12'
_cell_volume   797.74785652
_cell_formula_units_Z   1
loop_
 _symmetry_equiv_pos_site_id
 _symmetry_equiv_pos_as_xyz
  1  'x, y, z'
loop_
 _atom_site_type_symbol
 _atom_site_label
 _atom_site_symmetry_multiplicity
 _atom_site_fract_x
 _atom_site_fract_y
 _atom_site_fract_z
 _atom_site_occupancy
  Ca  Ca0  1  0.000000  0.000000  0.000000  1
  Pr  Pr1  1  0.590827  0.777184  0.523808  1
  Pr  Pr2  1  0.409173  0.222816  0.476192  1
  Dy  Dy3  1  0.802212  0.528196  0.598979  1
  Dy  Dy4  1  0.526568  0.598577  0.800563  1
  Dy  Dy5  1  0.197788  0.471804  0.401021  1
  Dy  Dy6  1  0.473432  0.401423  0.199437  1
  Fe  Fe7  1  0.500000  0.500000  0.500000  1
  I  I8  1  0.733191  0.191492  0.577623  1
  I  I9  1  0.964952  0.880807  0.657181  1
  I  I10  1  0.570982  0.719918  0.175485  1
  I  I11  1  0.123444  0.351814  0.046361  1
  I  I12  1  0.653247  0.957165  0.884400  1
  I  I13  1  0.876556  0.648186  0.953639  1
  I  I14  1  0.035048  0.119193  0.342819  1
  I  I15  1  0.817048  0.429150  0.279623  1
  I  I16  1  0.346753  0.042835  0.115600  1
  I  I17  1  0.266809  0.808508  0.422377  1
  I  I18  1  0.182952  0.570850  0.720377  1
  I  I19  1  0.429018  0.280082  0.824515  1
