# generated using pymatgen
data_Ba4La2TaSbO12
_symmetry_space_group_name_H-M   'P 1'
_cell_length_a   6.14759910
_cell_length_b   6.14968966
_cell_length_c   10.70857490
_cell_angle_alpha   90.37283637
_cell_angle_beta   106.42063843
_cell_angle_gamma   119.52781274
_symmetry_Int_Tables_number   1
_chemical_formula_structural   Ba4La2TaSbO12
_chemical_formula_sum   'Ba4 La2 Ta1 Sb1 O12'
_cell_volume   332.69798200
_cell_formula_units_Z   1
loop_
 _symmetry_equiv_pos_site_id
 _symmetry_equiv_pos_as_xyz
  1  'x, y, z'
loop_
 _atom_site_type_symbol
 _atom_site_label
 _atom_site_symmetry_multiplicity
 _atom_site_fract_x
 _atom_site_fract_y
 _atom_site_fract_z
 _atom_site_occupancy
  Ba  Ba0  1  0.246398  0.125524  0.875337  1
  Ba  Ba1  1  0.251155  0.628418  0.377584  1
  Ba  Ba2  1  0.748845  0.371582  0.622416  1
  Ba  Ba3  1  0.753602  0.874476  0.124663  1
  La  La4  1  0.500060  0.750033  0.751020  1
  La  La5  1  0.499940  0.249967  0.248980  1
  Ta  Ta6  1  0.000000  0.000000  0.500000  1
  Sb  Sb7  1  0.000000  0.500000  0.000000  1
  O  O8  1  0.823296  0.909008  0.640268  1
  O  O9  1  0.822272  0.409317  0.140662  1
  O  O10  1  0.177728  0.590683  0.859338  1
  O  O11  1  0.176704  0.090992  0.359732  1
  O  O12  1  0.770095  0.133283  0.906984  1
  O  O13  1  0.771992  0.633482  0.408319  1
  O  O14  1  0.228008  0.366518  0.591681  1
  O  O15  1  0.229905  0.866717  0.093016  1
  O  O16  1  0.279161  0.930063  0.608427  1
  O  O17  1  0.277227  0.426967  0.109284  1
  O  O18  1  0.722773  0.573033  0.890716  1
  O  O19  1  0.720839  0.069937  0.391573  1
