# generated using pymatgen
data_Zr2Sc2Cr3Re5
_symmetry_space_group_name_H-M   'P 1'
_cell_length_a   5.15809174
_cell_length_b   5.21832487
_cell_length_c   8.56535836
_cell_angle_alpha   90.07043809
_cell_angle_beta   89.92341943
_cell_angle_gamma   120.10190775
_symmetry_Int_Tables_number   1
_chemical_formula_structural   Zr2Sc2Cr3Re5
_chemical_formula_sum   'Zr2 Sc2 Cr3 Re5'
_cell_volume   199.45685980
_cell_formula_units_Z   1
loop_
 _symmetry_equiv_pos_site_id
 _symmetry_equiv_pos_as_xyz
  1  'x, y, z'
loop_
 _atom_site_type_symbol
 _atom_site_label
 _atom_site_symmetry_multiplicity
 _atom_site_fract_x
 _atom_site_fract_y
 _atom_site_fract_z
 _atom_site_occupancy
  Zr  Zr0  1  0.666705  0.333013  0.561047  1
  Zr  Zr1  1  0.334435  0.667334  0.061219  1
  Sc  Sc2  1  0.334645  0.667324  0.437413  1
  Sc  Sc3  1  0.666607  0.332767  0.938859  1
  Cr  Cr4  1  0.662724  0.832294  0.750256  1
  Cr  Cr5  1  0.340800  0.168989  0.250230  1
  Cr  Cr6  1  0.827153  0.170022  0.250144  1
  Re  Re7  1  0.172615  0.344107  0.750077  1
  Re  Re8  1  0.171881  0.831013  0.750135  1
  Re  Re9  1  0.824524  0.649181  0.250198  1
  Re  Re10  1  0.998256  0.001227  0.493741  1
  Re  Re11  1  0.999657  0.002729  0.006680  1
