# generated using pymatgen
data_Zr5(InBi)2
_symmetry_space_group_name_H-M   'P 1'
_cell_length_a   8.95724239
_cell_length_b   8.95724394
_cell_length_c   5.99471300
_cell_angle_alpha   90.00000000
_cell_angle_beta   90.00000000
_cell_angle_gamma   119.56997771
_symmetry_Int_Tables_number   1
_chemical_formula_structural   Zr5(InBi)2
_chemical_formula_sum   'Zr10 In4 Bi4'
_cell_volume   418.32457108
_cell_formula_units_Z   2
loop_
 _symmetry_equiv_pos_site_id
 _symmetry_equiv_pos_as_xyz
  1  'x, y, z'
loop_
 _atom_site_type_symbol
 _atom_site_label
 _atom_site_symmetry_multiplicity
 _atom_site_fract_x
 _atom_site_fract_y
 _atom_site_fract_z
 _atom_site_occupancy
  Zr  Zr0  1  0.722056  0.722056  0.750000  1
  Zr  Zr1  1  0.279800  0.001179  0.750000  1
  Zr  Zr2  1  0.001179  0.279800  0.750000  1
  Zr  Zr3  1  0.284588  0.284588  0.250000  1
  Zr  Zr4  1  0.714666  0.002926  0.250000  1
  Zr  Zr5  1  0.002926  0.714666  0.250000  1
  Zr  Zr6  1  0.666797  0.330757  0.004243  1
  Zr  Zr7  1  0.330757  0.666797  0.004243  1
  Zr  Zr8  1  0.330757  0.666797  0.495757  1
  Zr  Zr9  1  0.666797  0.330757  0.495757  1
  In  In10  1  0.376953  0.000078  0.250000  1
  In  In11  1  0.000078  0.376953  0.250000  1
  In  In12  1  0.001871  0.001871  0.005554  1
  In  In13  1  0.001871  0.001871  0.494446  1
  Bi  Bi14  1  0.385410  0.385410  0.750000  1
  Bi  Bi15  1  0.614132  0.999818  0.750000  1
  Bi  Bi16  1  0.999818  0.614132  0.750000  1
  Bi  Bi17  1  0.619543  0.619543  0.250000  1
