# generated using pymatgen
data_Tb2Pr2Nd2CoBr10
_symmetry_space_group_name_H-M   'P 1'
_cell_length_a   7.52666716
_cell_length_b   9.42916747
_cell_length_c   9.54544826
_cell_angle_alpha   108.20533610
_cell_angle_beta   95.38787573
_cell_angle_gamma   104.75663868
_symmetry_Int_Tables_number   1
_chemical_formula_structural   Tb2Pr2Nd2CoBr10
_chemical_formula_sum   'Tb2 Pr2 Nd2 Co1 Br10'
_cell_volume   611.10832010
_cell_formula_units_Z   1
loop_
 _symmetry_equiv_pos_site_id
 _symmetry_equiv_pos_as_xyz
  1  'x, y, z'
loop_
 _atom_site_type_symbol
 _atom_site_label
 _atom_site_symmetry_multiplicity
 _atom_site_fract_x
 _atom_site_fract_y
 _atom_site_fract_z
 _atom_site_occupancy
  Tb  Tb0  1  0.349343  0.125277  0.670962  1
  Tb  Tb1  1  0.650657  0.874723  0.329038  1
  Pr  Pr2  1  0.033769  0.714133  0.407877  1
  Pr  Pr3  1  0.966231  0.285867  0.592123  1
  Nd  Nd4  1  0.867990  0.950058  0.745451  1
  Nd  Nd5  1  0.132010  0.049942  0.254549  1
  Co  Co6  1  0.000000  0.000000  0.500000  1
  Br  Br7  1  0.451646  0.824713  0.580206  1
  Br  Br8  1  0.548354  0.175287  0.419794  1
  Br  Br9  1  0.912640  0.631382  0.672301  1
  Br  Br10  1  0.087360  0.368618  0.327699  1
  Br  Br11  1  0.246188  0.079126  0.942731  1
  Br  Br12  1  0.753812  0.920874  0.057269  1
  Br  Br13  1  0.351310  0.437380  0.765694  1
  Br  Br14  1  0.648690  0.562620  0.234306  1
  Br  Br15  1  0.758031  0.244201  0.841221  1
  Br  Br16  1  0.241969  0.755799  0.158779  1
