# generated using pymatgen
data_HoEr3(SiIr)4
_symmetry_space_group_name_H-M   'P 1'
_cell_length_a   4.22012100
_cell_length_b   6.81806248
_cell_length_c   7.43277352
_cell_angle_alpha   89.95714343
_cell_angle_beta   90.00000000
_cell_angle_gamma   90.00000000
_symmetry_Int_Tables_number   1
_chemical_formula_structural   HoEr3(SiIr)4
_chemical_formula_sum   'Ho1 Er3 Si4 Ir4'
_cell_volume   213.86349417
_cell_formula_units_Z   1
loop_
 _symmetry_equiv_pos_site_id
 _symmetry_equiv_pos_as_xyz
  1  'x, y, z'
loop_
 _atom_site_type_symbol
 _atom_site_label
 _atom_site_symmetry_multiplicity
 _atom_site_fract_x
 _atom_site_fract_y
 _atom_site_fract_z
 _atom_site_occupancy
  Ho  Ho0  1  0.250000  0.502110  0.186990  1
  Er  Er1  1  0.750000  0.498202  0.812338  1
  Er  Er2  1  0.250000  0.002015  0.312825  1
  Er  Er3  1  0.750000  0.998152  0.687302  1
  Si  Si4  1  0.250000  0.797511  0.888970  1
  Si  Si5  1  0.250000  0.297195  0.610864  1
  Si  Si6  1  0.750000  0.202566  0.110343  1
  Si  Si7  1  0.750000  0.703166  0.389904  1
  Ir  Ir8  1  0.250000  0.657576  0.567690  1
  Ir  Ir9  1  0.250000  0.156923  0.932564  1
  Ir  Ir10  1  0.750000  0.842595  0.066759  1
  Ir  Ir11  1  0.750000  0.341990  0.433451  1
