# generated using pymatgen
data_Tb4Ho5Tm3ZnCo4Bi
_symmetry_space_group_name_H-M   'P 1'
_cell_length_a   8.34928879
_cell_length_b   8.35359004
_cell_length_c   8.34928904
_cell_angle_alpha   111.38790180
_cell_angle_beta   109.50142321
_cell_angle_gamma   107.52648332
_symmetry_Int_Tables_number   1
_chemical_formula_structural   Tb4Ho5Tm3ZnCo4Bi
_chemical_formula_sum   'Tb4 Ho5 Tm3 Zn1 Co4 Bi1'
_cell_volume   447.88733536
_cell_formula_units_Z   1
loop_
 _symmetry_equiv_pos_site_id
 _symmetry_equiv_pos_as_xyz
  1  'x, y, z'
loop_
 _atom_site_type_symbol
 _atom_site_label
 _atom_site_symmetry_multiplicity
 _atom_site_fract_x
 _atom_site_fract_y
 _atom_site_fract_z
 _atom_site_occupancy
  Tb  Tb0  1  0.816338  0.713751  0.531117  1
  Tb  Tb1  1  0.182920  0.286065  0.468472  1
  Tb  Tb2  1  0.182635  0.713751  0.897413  1
  Tb  Tb3  1  0.817592  0.286065  0.103145  1
  Ho  Ho4  1  0.314500  0.005517  0.691016  1
  Ho  Ho5  1  0.574969  0.780990  0.793332  1
  Ho  Ho6  1  0.425454  0.218747  0.207214  1
  Ho  Ho7  1  0.987658  0.780990  0.206020  1
  Ho  Ho8  1  0.011533  0.218747  0.793293  1
  Tm  Tm9  1  0.685506  0.375848  0.690344  1
  Tm  Tm10  1  0.314812  0.624244  0.309432  1
  Tm  Tm11  1  0.685369  0.995123  0.309754  1
  Zn  Zn12  1  0.000117  0.000070  0.999953  1
  Co  Co13  1  0.622960  0.999978  0.622207  1
  Co  Co14  1  0.377771  0.999978  0.377019  1
  Co  Co15  1  0.112649  0.612553  0.499904  1
  Co  Co16  1  0.886978  0.386986  0.500008  1
  Bi  Bi17  1  0.500240  0.500595  0.000355  1
