# generated using pymatgen
data_Pr6Al24Os3Rh5
_symmetry_space_group_name_H-M   'P 1'
_cell_length_a   8.89271900
_cell_length_b   8.93676443
_cell_length_c   9.70546729
_cell_angle_alpha   90.06843874
_cell_angle_beta   90.00000000
_cell_angle_gamma   119.83710154
_symmetry_Int_Tables_number   1
_chemical_formula_structural   Pr6Al24Os3Rh5
_chemical_formula_sum   'Pr6 Al24 Os3 Rh5'
_cell_volume   669.07082749
_cell_formula_units_Z   1
loop_
 _symmetry_equiv_pos_site_id
 _symmetry_equiv_pos_as_xyz
  1  'x, y, z'
loop_
 _atom_site_type_symbol
 _atom_site_label
 _atom_site_symmetry_multiplicity
 _atom_site_fract_x
 _atom_site_fract_y
 _atom_site_fract_z
 _atom_site_occupancy
  Pr  Pr0  1  0.189936  0.379872  0.250477  1
  Pr  Pr1  1  0.810064  0.620128  0.749523  1
  Pr  Pr2  1  0.619196  0.812192  0.250572  1
  Pr  Pr3  1  0.380804  0.187808  0.749428  1
  Pr  Pr4  1  0.192996  0.812192  0.250572  1
  Pr  Pr5  1  0.807004  0.187808  0.749428  1
  Al  Al6  1  0.333344  0.666690  0.019871  1
  Al  Al7  1  0.666656  0.333310  0.980129  1
  Al  Al8  1  0.665700  0.331399  0.520123  1
  Al  Al9  1  0.334300  0.668601  0.479877  1
  Al  Al10  1  0.163431  0.326861  0.574581  1
  Al  Al11  1  0.836569  0.673139  0.425419  1
  Al  Al12  1  0.671927  0.837588  0.574208  1
  Al  Al13  1  0.836717  0.673436  0.074645  1
  Al  Al14  1  0.328073  0.162412  0.425792  1
  Al  Al15  1  0.163283  0.326564  0.925355  1
  Al  Al16  1  0.165662  0.837588  0.574208  1
  Al  Al17  1  0.327513  0.164778  0.075273  1
  Al  Al18  1  0.834338  0.162412  0.425792  1
  Al  Al19  1  0.672487  0.835222  0.924727  1
  Al  Al20  1  0.837263  0.164778  0.075273  1
  Al  Al21  1  0.162737  0.835222  0.924727  1
  Al  Al22  1  0.563663  0.127326  0.250653  1
  Al  Al23  1  0.436337  0.872674  0.749347  1
  Al  Al24  1  0.874405  0.437894  0.249696  1
  Al  Al25  1  0.125595  0.562106  0.750304  1
  Al  Al26  1  0.563489  0.437894  0.249696  1
  Al  Al27  1  0.436511  0.562106  0.750304  1
  Al  Al28  1  0.001020  0.002040  0.250105  1
  Al  Al29  1  0.998980  0.997960  0.749895  1
  Os  Os30  1  0.500000  0.000000  0.500000  1
  Os  Os31  1  0.000000  0.000000  0.000000  1
  Os  Os32  1  0.000000  0.000000  0.500000  1
  Rh  Rh33  1  0.500000  0.000000  0.000000  1
  Rh  Rh34  1  0.000000  0.500000  0.000000  1
  Rh  Rh35  1  0.500000  0.500000  0.000000  1
  Rh  Rh36  1  0.000000  0.500000  0.500000  1
  Rh  Rh37  1  0.500000  0.500000  0.500000  1
