# generated using pymatgen
data_Ac7Nd(Y3Pb4)4
_symmetry_space_group_name_H-M   'P 1'
_cell_length_a   8.44756329
_cell_length_b   16.17553948
_cell_length_c   8.53896800
_cell_angle_alpha   89.94719045
_cell_angle_beta   89.79839592
_cell_angle_gamma   90.35942853
_symmetry_Int_Tables_number   1
_chemical_formula_structural   Ac7Nd(Y3Pb4)4
_chemical_formula_sum   'Ac7 Nd1 Y12 Pb16'
_cell_volume   1166.76713377
_cell_formula_units_Z   1
loop_
 _symmetry_equiv_pos_site_id
 _symmetry_equiv_pos_as_xyz
  1  'x, y, z'
loop_
 _atom_site_type_symbol
 _atom_site_label
 _atom_site_symmetry_multiplicity
 _atom_site_fract_x
 _atom_site_fract_y
 _atom_site_fract_z
 _atom_site_occupancy
  Ac  Ac0  1  0.982172  0.902221  0.822659  1
  Ac  Ac1  1  0.516019  0.094617  0.323527  1
  Ac  Ac2  1  0.017414  0.406878  0.179082  1
  Ac  Ac3  1  0.517760  0.406316  0.325317  1
  Ac  Ac4  1  0.017991  0.094864  0.175677  1
  Ac  Ac5  1  0.485495  0.904763  0.676652  1
  Ac  Ac6  1  0.982304  0.595412  0.821030  1
  Nd  Nd7  1  0.692072  0.250331  0.996398  1
  Y  Y8  1  0.642940  0.623569  0.157883  1
  Y  Y9  1  0.145778  0.874644  0.341371  1
  Y  Y10  1  0.356113  0.124530  0.840873  1
  Y  Y11  1  0.859201  0.378550  0.656800  1
  Y  Y12  1  0.359180  0.377680  0.840033  1
  Y  Y13  1  0.855320  0.123734  0.658543  1
  Y  Y14  1  0.643174  0.872993  0.157170  1
  Y  Y15  1  0.142756  0.622865  0.344032  1
  Y  Y16  1  0.475046  0.599662  0.678526  1
  Y  Y17  1  0.807669  0.748098  0.496069  1
  Y  Y18  1  0.308237  0.747837  0.003107  1
  Y  Y19  1  0.192507  0.251269  0.505489  1
  Pb  Pb20  1  0.691023  0.457654  0.952576  1
  Pb  Pb21  1  0.190895  0.044527  0.546410  1
  Pb  Pb22  1  0.308311  0.953835  0.044478  1
  Pb  Pb23  1  0.793892  0.547430  0.464100  1
  Pb  Pb24  1  0.309875  0.546021  0.038596  1
  Pb  Pb25  1  0.810696  0.954595  0.451855  1
  Pb  Pb26  1  0.691327  0.042697  0.954621  1
  Pb  Pb27  1  0.202603  0.459880  0.549339  1
  Pb  Pb28  1  0.448294  0.747352  0.370472  1
  Pb  Pb29  1  0.948703  0.748625  0.132742  1
  Pb  Pb30  1  0.551804  0.250531  0.630054  1
  Pb  Pb31  1  0.055381  0.251884  0.866245  1
  Pb  Pb32  1  0.666449  0.745156  0.848771  1
  Pb  Pb33  1  0.177962  0.748348  0.645690  1
  Pb  Pb34  1  0.324935  0.250395  0.146266  1
  Pb  Pb35  1  0.828699  0.250239  0.357549  1
