# generated using pymatgen
data_Tb10Pr6MgAg3Ir4
_symmetry_space_group_name_H-M   'P 1'
_cell_length_a   9.75345414
_cell_length_b   9.76219078
_cell_length_c   9.76219000
_cell_angle_alpha   59.99999586
_cell_angle_beta   59.97036033
_cell_angle_gamma   59.97036308
_symmetry_Int_Tables_number   1
_chemical_formula_structural   Tb10Pr6MgAg3Ir4
_chemical_formula_sum   'Tb10 Pr6 Mg1 Ag3 Ir4'
_cell_volume   656.96658359
_cell_formula_units_Z   1
loop_
 _symmetry_equiv_pos_site_id
 _symmetry_equiv_pos_as_xyz
  1  'x, y, z'
loop_
 _atom_site_type_symbol
 _atom_site_label
 _atom_site_symmetry_multiplicity
 _atom_site_fract_x
 _atom_site_fract_y
 _atom_site_fract_z
 _atom_site_occupancy
  Tb  Tb0  1  0.347183  0.347492  0.347492  1
  Tb  Tb1  1  0.347183  0.347492  0.957832  1
  Tb  Tb2  1  0.347183  0.957832  0.347492  1
  Tb  Tb3  1  0.947162  0.350947  0.350947  1
  Tb  Tb4  1  0.811120  0.187911  0.187911  1
  Tb  Tb5  1  0.184512  0.814565  0.814565  1
  Tb  Tb6  1  0.184512  0.814565  0.186359  1
  Tb  Tb7  1  0.811120  0.187911  0.813057  1
  Tb  Tb8  1  0.184512  0.186359  0.814565  1
  Tb  Tb9  1  0.811120  0.813057  0.187911  1
  Pr  Pr10  1  0.940442  0.560716  0.560716  1
  Pr  Pr11  1  0.559454  0.939722  0.939722  1
  Pr  Pr12  1  0.559454  0.939722  0.561102  1
  Pr  Pr13  1  0.940442  0.560716  0.938128  1
  Pr  Pr14  1  0.559454  0.561102  0.939722  1
  Pr  Pr15  1  0.940442  0.938128  0.560716  1
  Mg  Mg16  1  0.290299  0.569900  0.569900  1
  Ag  Ag17  1  0.580058  0.582153  0.582153  1
  Ag  Ag18  1  0.580058  0.582153  0.255636  1
  Ag  Ag19  1  0.580058  0.255636  0.582153  1
  Ir  Ir20  1  0.139585  0.142781  0.142781  1
  Ir  Ir21  1  0.139585  0.142781  0.574852  1
  Ir  Ir22  1  0.139585  0.574852  0.142781  1
  Ir  Ir23  1  0.575477  0.141507  0.141507  1
