# generated using pymatgen
data_Th4TiNb5Ge8
_symmetry_space_group_name_H-M   'P 1'
_cell_length_a   7.20005300
_cell_length_b   7.30868940
_cell_length_c   13.83880574
_cell_angle_alpha   90.03783070
_cell_angle_beta   90.00000000
_cell_angle_gamma   90.00000000
_symmetry_Int_Tables_number   1
_chemical_formula_structural   Th4TiNb5Ge8
_chemical_formula_sum   'Th8 Ti2 Nb10 Ge16'
_cell_volume   728.23863875
_cell_formula_units_Z   2
loop_
 _symmetry_equiv_pos_site_id
 _symmetry_equiv_pos_as_xyz
  1  'x, y, z'
loop_
 _atom_site_type_symbol
 _atom_site_label
 _atom_site_symmetry_multiplicity
 _atom_site_fract_x
 _atom_site_fract_y
 _atom_site_fract_z
 _atom_site_occupancy
  Th  Th0  1  0.493978  0.329483  0.093840  1
  Th  Th1  1  0.993978  0.170517  0.406160  1
  Th  Th2  1  0.504772  0.672693  0.594983  1
  Th  Th3  1  0.004772  0.827307  0.905017  1
  Th  Th4  1  0.506899  0.669109  0.904829  1
  Th  Th5  1  0.006899  0.830891  0.595171  1
  Th  Th6  1  0.493139  0.329524  0.406324  1
  Th  Th7  1  0.993139  0.170476  0.093676  1
  Ti  Ti8  1  0.838545  0.333223  0.626306  1
  Ti  Ti9  1  0.338545  0.166777  0.873694  1
  Nb  Nb10  1  0.667396  0.006126  0.750344  1
  Nb  Nb11  1  0.167396  0.493874  0.749656  1
  Nb  Nb12  1  0.333398  0.990816  0.249872  1
  Nb  Nb13  1  0.833398  0.509184  0.250128  1
  Nb  Nb14  1  0.161383  0.665906  0.125173  1
  Nb  Nb15  1  0.661383  0.834094  0.374827  1
  Nb  Nb16  1  0.161018  0.666330  0.374579  1
  Nb  Nb17  1  0.661018  0.833670  0.125421  1
  Nb  Nb18  1  0.838604  0.332722  0.874688  1
  Nb  Nb19  1  0.338604  0.167278  0.625312  1
  Ge  Ge20  1  0.808415  0.625326  0.748236  1
  Ge  Ge21  1  0.308415  0.874674  0.751764  1
  Ge  Ge22  1  0.190609  0.371521  0.249998  1
  Ge  Ge23  1  0.690609  0.128479  0.250002  1
  Ge  Ge24  1  0.538847  0.363541  0.750289  1
  Ge  Ge25  1  0.038847  0.136459  0.749711  1
  Ge  Ge26  1  0.462294  0.633087  0.250057  1
  Ge  Ge27  1  0.962294  0.866913  0.249943  1
  Ge  Ge28  1  0.672567  0.050034  0.546484  1
  Ge  Ge29  1  0.172567  0.449966  0.953516  1
  Ge  Ge30  1  0.329612  0.953974  0.044208  1
  Ge  Ge31  1  0.829612  0.546026  0.455792  1
  Ge  Ge32  1  0.330594  0.953355  0.455181  1
  Ge  Ge33  1  0.830594  0.546645  0.044819  1
  Ge  Ge34  1  0.667929  0.046156  0.953889  1
  Ge  Ge35  1  0.167929  0.453844  0.546111  1
