# generated using pymatgen
data_Hf(NbS2)5
_symmetry_space_group_name_H-M   'P 1'
_cell_length_a   5.84860884
_cell_length_b   7.35048897
_cell_length_c   8.11437365
_cell_angle_alpha   109.78325445
_cell_angle_beta   97.07282703
_cell_angle_gamma   105.18333710
_symmetry_Int_Tables_number   1
_chemical_formula_structural   Hf(NbS2)5
_chemical_formula_sum   'Hf1 Nb5 S10'
_cell_volume   308.05683277
_cell_formula_units_Z   1
loop_
 _symmetry_equiv_pos_site_id
 _symmetry_equiv_pos_as_xyz
  1  'x, y, z'
loop_
 _atom_site_type_symbol
 _atom_site_label
 _atom_site_symmetry_multiplicity
 _atom_site_fract_x
 _atom_site_fract_y
 _atom_site_fract_z
 _atom_site_occupancy
  Hf  Hf0  1  0.669213  0.514699  0.988918  1
  Nb  Nb1  1  0.004037  0.997397  0.001506  1
  Nb  Nb2  1  0.598635  0.203310  0.203935  1
  Nb  Nb3  1  0.197641  0.399495  0.398347  1
  Nb  Nb4  1  0.796742  0.598241  0.602408  1
  Nb  Nb5  1  0.401327  0.794852  0.799405  1
  S  S6  1  0.234033  0.052467  0.300561  1
  S  S7  1  0.045814  0.645375  0.902477  1
  S  S8  1  0.833717  0.250858  0.498499  1
  S  S9  1  0.634274  0.857649  0.110790  1
  S  S10  1  0.421279  0.433166  0.690643  1
  S  S11  1  0.899672  0.556547  0.301995  1
  S  S12  1  0.700589  0.148346  0.898853  1
  S  S13  1  0.499011  0.748656  0.502748  1
  S  S14  1  0.297691  0.351747  0.097711  1
  S  S15  1  0.099126  0.944797  0.702804  1
