# generated using pymatgen
data_Dy19Mg(Sn5Pb3)2
_symmetry_space_group_name_H-M   'P 1'
_cell_length_a   8.07569100
_cell_length_b   8.20801406
_cell_length_c   15.53092100
_cell_angle_alpha   90.04638521
_cell_angle_beta   90.00086557
_cell_angle_gamma   89.95646910
_symmetry_Int_Tables_number   1
_chemical_formula_structural   Dy19Mg(Sn5Pb3)2
_chemical_formula_sum   'Dy19 Mg1 Sn10 Pb6'
_cell_volume   1029.47244748
_cell_formula_units_Z   1
loop_
 _symmetry_equiv_pos_site_id
 _symmetry_equiv_pos_as_xyz
  1  'x, y, z'
loop_
 _atom_site_type_symbol
 _atom_site_label
 _atom_site_symmetry_multiplicity
 _atom_site_fract_x
 _atom_site_fract_y
 _atom_site_fract_z
 _atom_site_occupancy
  Dy  Dy0  1  0.365380  0.835995  0.875648  1
  Dy  Dy1  1  0.872536  0.660431  0.624814  1
  Dy  Dy2  1  0.630269  0.160702  0.376384  1
  Dy  Dy3  1  0.130162  0.337150  0.123475  1
  Dy  Dy4  1  0.633329  0.163344  0.123372  1
  Dy  Dy5  1  0.133215  0.334605  0.376796  1
  Dy  Dy6  1  0.365324  0.837613  0.623422  1
  Dy  Dy7  1  0.872310  0.658832  0.876143  1
  Dy  Dy8  1  0.523082  0.323840  0.901376  1
  Dy  Dy9  1  0.026460  0.180219  0.599116  1
  Dy  Dy10  1  0.476763  0.681039  0.400499  1
  Dy  Dy11  1  0.976459  0.819040  0.100244  1
  Dy  Dy12  1  0.480238  0.676404  0.099264  1
  Dy  Dy13  1  0.979815  0.823586  0.399941  1
  Dy  Dy14  1  0.519641  0.320831  0.599018  1
  Dy  Dy15  1  0.023020  0.183498  0.900556  1
  Dy  Dy16  1  0.696576  0.997781  0.749923  1
  Dy  Dy17  1  0.800705  0.497115  0.248681  1
  Dy  Dy18  1  0.300916  0.002855  0.251251  1
  Mg  Mg19  1  0.199185  0.502905  0.750018  1
  Sn  Sn20  1  0.291862  0.035764  0.458721  1
  Sn  Sn21  1  0.792502  0.462771  0.041105  1
  Sn  Sn22  1  0.561694  0.616114  0.749635  1
  Sn  Sn23  1  0.064375  0.887131  0.750310  1
  Sn  Sn24  1  0.435174  0.381908  0.250138  1
  Sn  Sn25  1  0.935664  0.118577  0.249878  1
  Sn  Sn26  1  0.330067  0.149799  0.750485  1
  Sn  Sn27  1  0.824838  0.351606  0.749564  1
  Sn  Sn28  1  0.669549  0.851134  0.249937  1
  Sn  Sn29  1  0.170151  0.646812  0.250058  1
  Pb  Pb30  1  0.291097  0.035934  0.041154  1
  Pb  Pb31  1  0.791737  0.462579  0.458938  1
  Pb  Pb32  1  0.709459  0.962851  0.541760  1
  Pb  Pb33  1  0.209153  0.538222  0.959252  1
  Pb  Pb34  1  0.708876  0.963079  0.957957  1
  Pb  Pb35  1  0.208419  0.537937  0.541166  1
