# generated using pymatgen
data_Sr9Ho6Lu5Pb16
_symmetry_space_group_name_H-M   'P 1'
_cell_length_a   8.17917631
_cell_length_b   8.70030442
_cell_length_c   16.33767000
_cell_angle_alpha   90.01185388
_cell_angle_beta   90.04306723
_cell_angle_gamma   90.04105821
_symmetry_Int_Tables_number   1
_chemical_formula_structural   Sr9Ho6Lu5Pb16
_chemical_formula_sum   'Sr9 Ho6 Lu5 Pb16'
_cell_volume   1162.60957331
_cell_formula_units_Z   1
loop_
 _symmetry_equiv_pos_site_id
 _symmetry_equiv_pos_as_xyz
  1  'x, y, z'
loop_
 _atom_site_type_symbol
 _atom_site_label
 _atom_site_symmetry_multiplicity
 _atom_site_fract_x
 _atom_site_fract_y
 _atom_site_fract_z
 _atom_site_occupancy
  Sr  Sr0  1  0.495935  0.678613  0.594504  1
  Sr  Sr1  1  0.996356  0.819989  0.905585  1
  Sr  Sr2  1  0.499645  0.318422  0.090299  1
  Sr  Sr3  1  0.000847  0.182814  0.412309  1
  Sr  Sr4  1  0.499903  0.318316  0.410367  1
  Sr  Sr5  1  0.001444  0.183219  0.087041  1
  Sr  Sr6  1  0.496690  0.678565  0.905377  1
  Sr  Sr7  1  0.996530  0.820409  0.594593  1
  Sr  Sr8  1  0.670955  0.012244  0.250472  1
  Ho  Ho9  1  0.326800  0.839774  0.119802  1
  Ho  Ho10  1  0.828867  0.661015  0.380190  1
  Ho  Ho11  1  0.327907  0.839165  0.380015  1
  Ho  Ho12  1  0.829753  0.661456  0.120020  1
  Ho  Ho13  1  0.675320  0.156773  0.872538  1
  Ho  Ho14  1  0.173563  0.344665  0.626469  1
  Lu  Lu15  1  0.674381  0.155005  0.628736  1
  Lu  Lu16  1  0.173517  0.345762  0.872264  1
  Lu  Lu17  1  0.836998  0.501817  0.749875  1
  Lu  Lu18  1  0.338704  0.998691  0.750007  1
  Lu  Lu19  1  0.167893  0.495282  0.249627  1
  Pb  Pb20  1  0.671568  0.956121  0.462760  1
  Pb  Pb21  1  0.172885  0.540684  0.042282  1
  Pb  Pb22  1  0.325076  0.044107  0.951889  1
  Pb  Pb23  1  0.824420  0.455976  0.547654  1
  Pb  Pb24  1  0.328744  0.042084  0.547956  1
  Pb  Pb25  1  0.829142  0.458242  0.952400  1
  Pb  Pb26  1  0.669425  0.955895  0.038631  1
  Pb  Pb27  1  0.171290  0.540894  0.456411  1
  Pb  Pb28  1  0.479894  0.363870  0.749751  1
  Pb  Pb29  1  0.981993  0.133153  0.750170  1
  Pb  Pb30  1  0.521402  0.626764  0.249817  1
  Pb  Pb31  1  0.035563  0.852282  0.250033  1
  Pb  Pb32  1  0.697097  0.854012  0.749876  1
  Pb  Pb33  1  0.196187  0.645714  0.750304  1
  Pb  Pb34  1  0.277883  0.138955  0.249934  1
  Pb  Pb35  1  0.805419  0.379254  0.250041  1
