# generated using pymatgen
data_Th10TcGeSb6
_symmetry_space_group_name_H-M   'P 1'
_cell_length_a   9.51687300
_cell_length_b   9.51687257
_cell_length_c   6.54053300
_cell_angle_alpha   90.00000000
_cell_angle_beta   90.00000000
_cell_angle_gamma   120.00000496
_symmetry_Int_Tables_number   1
_chemical_formula_structural   Th10TcGeSb6
_chemical_formula_sum   'Th10 Tc1 Ge1 Sb6'
_cell_volume   513.01761733
_cell_formula_units_Z   1
loop_
 _symmetry_equiv_pos_site_id
 _symmetry_equiv_pos_as_xyz
  1  'x, y, z'
loop_
 _atom_site_type_symbol
 _atom_site_label
 _atom_site_symmetry_multiplicity
 _atom_site_fract_x
 _atom_site_fract_y
 _atom_site_fract_z
 _atom_site_occupancy
  Th  Th0  1  0.666667  0.333333  0.000000  1
  Th  Th1  1  0.333333  0.666667  0.000000  1
  Th  Th2  1  0.333333  0.666667  0.500000  1
  Th  Th3  1  0.666667  0.333333  0.500000  1
  Th  Th4  1  0.745466  0.745466  0.758728  1
  Th  Th5  1  0.254534  0.000000  0.758728  1
  Th  Th6  1  0.000000  0.254534  0.758728  1
  Th  Th7  1  0.254534  0.254534  0.241272  1
  Th  Th8  1  0.745466  0.000000  0.241272  1
  Th  Th9  1  0.000000  0.745466  0.241272  1
  Tc  Tc10  1  0.000000  0.000000  0.000000  1
  Ge  Ge11  1  0.000000  0.000000  0.500000  1
  Sb  Sb12  1  0.389068  0.389068  0.748620  1
  Sb  Sb13  1  0.610932  0.000000  0.748620  1
  Sb  Sb14  1  0.000000  0.610932  0.748620  1
  Sb  Sb15  1  0.610932  0.610932  0.251380  1
  Sb  Sb16  1  0.389068  0.000000  0.251380  1
  Sb  Sb17  1  0.000000  0.389068  0.251380  1
