# generated using pymatgen
data_Lu3Ta3C5
_symmetry_space_group_name_H-M   'P 1'
_cell_length_a   5.75163594
_cell_length_b   5.70860127
_cell_length_c   5.67232400
_cell_angle_alpha   80.48486262
_cell_angle_beta   82.18075042
_cell_angle_gamma   120.68762412
_symmetry_Int_Tables_number   1
_chemical_formula_structural   Lu3Ta3C5
_chemical_formula_sum   'Lu3 Ta3 C5'
_cell_volume   152.53182374
_cell_formula_units_Z   1
loop_
 _symmetry_equiv_pos_site_id
 _symmetry_equiv_pos_as_xyz
  1  'x, y, z'
loop_
 _atom_site_type_symbol
 _atom_site_label
 _atom_site_symmetry_multiplicity
 _atom_site_fract_x
 _atom_site_fract_y
 _atom_site_fract_z
 _atom_site_occupancy
  Lu  Lu0  1  0.758551  0.750516  0.749435  1
  Lu  Lu1  1  0.244836  0.250075  0.249182  1
  Lu  Lu2  1  0.096413  0.424922  0.750094  1
  Ta  Ta3  1  0.542868  0.905171  0.261751  1
  Ta  Ta4  1  0.902019  0.553200  0.261680  1
  Ta  Ta5  1  0.451080  0.095869  0.739607  1
  C  C6  1  0.520977  0.506242  0.487014  1
  C  C7  1  0.663503  0.315679  0.008758  1
  C  C8  1  0.326348  0.692502  0.007418  1
  C  C9  1  0.810861  0.172334  0.495328  1
  C  C10  1  0.182545  0.833489  0.489736  1
