# generated using pymatgen
data_YSc(Re2Si)4
_symmetry_space_group_name_H-M   'P 1'
_cell_length_a   7.36667695
_cell_length_b   7.36667665
_cell_length_c   4.13688100
_cell_angle_alpha   90.00000000
_cell_angle_beta   90.00000000
_cell_angle_gamma   91.29600625
_symmetry_Int_Tables_number   1
_chemical_formula_structural   YSc(Re2Si)4
_chemical_formula_sum   'Y1 Sc1 Re8 Si4'
_cell_volume   224.44252692
_cell_formula_units_Z   1
loop_
 _symmetry_equiv_pos_site_id
 _symmetry_equiv_pos_as_xyz
  1  'x, y, z'
loop_
 _atom_site_type_symbol
 _atom_site_label
 _atom_site_symmetry_multiplicity
 _atom_site_fract_x
 _atom_site_fract_y
 _atom_site_fract_z
 _atom_site_occupancy
  Y  Y0  1  0.000000  0.000000  0.500000  1
  Sc  Sc1  1  0.500000  0.500000  0.000000  1
  Re  Re2  1  0.654149  0.900117  0.000000  1
  Re  Re3  1  0.160349  0.589327  0.500000  1
  Re  Re4  1  0.099883  0.345851  0.000000  1
  Re  Re5  1  0.900117  0.654149  0.000000  1
  Re  Re6  1  0.410673  0.839651  0.500000  1
  Re  Re7  1  0.589327  0.160349  0.500000  1
  Re  Re8  1  0.345851  0.099883  0.000000  1
  Re  Re9  1  0.839651  0.410673  0.500000  1
  Si  Si10  1  0.212313  0.787687  0.000000  1
  Si  Si11  1  0.787687  0.212313  0.000000  1
  Si  Si12  1  0.702323  0.702323  0.500000  1
  Si  Si13  1  0.297677  0.297677  0.500000  1
