# generated using pymatgen
data_Ce2Co5C3
_symmetry_space_group_name_H-M   'P 1'
_cell_length_a   8.23817200
_cell_length_b   8.23817200
_cell_length_c   3.82365600
_cell_angle_alpha   90.00000000
_cell_angle_beta   90.00000000
_cell_angle_gamma   90.00000000
_symmetry_Int_Tables_number   1
_chemical_formula_structural   Ce2Co5C3
_chemical_formula_sum   'Ce4 Co10 C6'
_cell_volume   259.50188908
_cell_formula_units_Z   2
loop_
 _symmetry_equiv_pos_site_id
 _symmetry_equiv_pos_as_xyz
  1  'x, y, z'
loop_
 _atom_site_type_symbol
 _atom_site_label
 _atom_site_symmetry_multiplicity
 _atom_site_fract_x
 _atom_site_fract_y
 _atom_site_fract_z
 _atom_site_occupancy
  Ce  Ce0  1  0.337758  0.837758  0.000000  1
  Ce  Ce1  1  0.662242  0.162242  0.000000  1
  Ce  Ce2  1  0.162242  0.337758  0.000000  1
  Ce  Ce3  1  0.837758  0.662242  0.000000  1
  Co  Co4  1  0.579992  0.711968  0.500000  1
  Co  Co5  1  0.420008  0.288032  0.500000  1
  Co  Co6  1  0.920008  0.211968  0.500000  1
  Co  Co7  1  0.079992  0.788032  0.500000  1
  Co  Co8  1  0.711968  0.420008  0.500000  1
  Co  Co9  1  0.288032  0.579992  0.500000  1
  Co  Co10  1  0.211968  0.079992  0.500000  1
  Co  Co11  1  0.788032  0.920008  0.500000  1
  Co  Co12  1  0.500000  0.500000  0.000000  1
  Co  Co13  1  0.000000  0.000000  0.000000  1
  C  C14  1  0.500000  0.500000  0.500000  1
  C  C15  1  0.000000  0.000000  0.500000  1
  C  C16  1  0.058838  0.558838  0.500000  1
  C  C17  1  0.941162  0.441162  0.500000  1
  C  C18  1  0.441162  0.058838  0.500000  1
  C  C19  1  0.558838  0.941162  0.500000  1
