# generated using pymatgen
data_Yb5Er(OsO6)3
_symmetry_space_group_name_H-M   'P 1'
_cell_length_a   9.01505005
_cell_length_b   9.01504966
_cell_length_c   5.24551173
_cell_angle_alpha   90.32527319
_cell_angle_beta   89.67473045
_cell_angle_gamma   119.83746254
_symmetry_Int_Tables_number   1
_chemical_formula_structural   Yb5Er(OsO6)3
_chemical_formula_sum   'Yb5 Er1 Os3 O18'
_cell_volume   369.78934134
_cell_formula_units_Z   1
loop_
 _symmetry_equiv_pos_site_id
 _symmetry_equiv_pos_as_xyz
  1  'x, y, z'
loop_
 _atom_site_type_symbol
 _atom_site_label
 _atom_site_symmetry_multiplicity
 _atom_site_fract_x
 _atom_site_fract_y
 _atom_site_fract_z
 _atom_site_occupancy
  Yb  Yb0  1  0.000267  0.280219  0.497798  1
  Yb  Yb1  1  0.280219  0.000267  0.502202  1
  Yb  Yb2  1  0.381031  0.381031  0.000000  1
  Yb  Yb3  1  0.993599  0.619138  0.002230  1
  Yb  Yb4  1  0.619138  0.993599  0.997770  1
  Er  Er5  1  0.718205  0.718205  0.500000  1
  Os  Os6  1  0.665616  0.329681  0.505558  1
  Os  Os7  1  0.329681  0.665616  0.494442  1
  Os  Os8  1  0.004614  0.004614  0.000000  1
  O  O9  1  0.758657  0.232428  0.718464  1
  O  O10  1  0.770162  0.534112  0.711644  1
  O  O11  1  0.471006  0.243155  0.712966  1
  O  O12  1  0.534112  0.770162  0.288356  1
  O  O13  1  0.243155  0.471006  0.287034  1
  O  O14  1  0.232428  0.758657  0.281536  1
  O  O15  1  0.594228  0.456945  0.301273  1
  O  O16  1  0.545619  0.139488  0.297960  1
  O  O17  1  0.861423  0.406251  0.302795  1
  O  O18  1  0.070776  0.877135  0.797397  1
  O  O19  1  0.122364  0.195068  0.790690  1
  O  O20  1  0.804560  0.924252  0.783772  1
  O  O21  1  0.195068  0.122364  0.209310  1
  O  O22  1  0.924252  0.804560  0.216228  1
  O  O23  1  0.877135  0.070776  0.202603  1
  O  O24  1  0.456945  0.594228  0.698727  1
  O  O25  1  0.406251  0.861423  0.697205  1
  O  O26  1  0.139488  0.545619  0.702040  1
