# generated using pymatgen
data_Y4GaSn7Rh16
_symmetry_space_group_name_H-M   'P 1'
_cell_length_a   4.37304600
_cell_length_b   9.67892782
_cell_length_c   11.84336215
_cell_angle_alpha   90.32012506
_cell_angle_beta   90.00000000
_cell_angle_gamma   90.00000000
_symmetry_Int_Tables_number   1
_chemical_formula_structural   Y4GaSn7Rh16
_chemical_formula_sum   'Y4 Ga1 Sn7 Rh16'
_cell_volume   501.27901900
_cell_formula_units_Z   1
loop_
 _symmetry_equiv_pos_site_id
 _symmetry_equiv_pos_as_xyz
  1  'x, y, z'
loop_
 _atom_site_type_symbol
 _atom_site_label
 _atom_site_symmetry_multiplicity
 _atom_site_fract_x
 _atom_site_fract_y
 _atom_site_fract_z
 _atom_site_occupancy
  Y  Y0  1  0.250000  0.156234  0.822643  1
  Y  Y1  1  0.250000  0.348600  0.331583  1
  Y  Y2  1  0.750000  0.848041  0.173962  1
  Y  Y3  1  0.750000  0.636207  0.674676  1
  Ga  Ga4  1  0.250000  0.412003  0.635785  1
  Sn  Sn5  1  0.250000  0.085618  0.137997  1
  Sn  Sn6  1  0.750000  0.585052  0.364584  1
  Sn  Sn7  1  0.750000  0.914402  0.859598  1
  Sn  Sn8  1  0.250000  0.617432  0.062246  1
  Sn  Sn9  1  0.250000  0.882583  0.564503  1
  Sn  Sn10  1  0.750000  0.383065  0.935630  1
  Sn  Sn11  1  0.750000  0.119973  0.437697  1
  Rh  Rh12  1  0.250000  0.612599  0.502188  1
  Rh  Rh13  1  0.250000  0.882382  0.994380  1
  Rh  Rh14  1  0.750000  0.384745  0.508713  1
  Rh  Rh15  1  0.750000  0.117885  0.003305  1
  Rh  Rh16  1  0.250000  0.708277  0.277499  1
  Rh  Rh17  1  0.250000  0.784111  0.773706  1
  Rh  Rh18  1  0.750000  0.298518  0.721811  1
  Rh  Rh19  1  0.750000  0.212342  0.225317  1
  Rh  Rh20  1  0.250000  0.174109  0.567297  1
  Rh  Rh21  1  0.250000  0.333754  0.064397  1
  Rh  Rh22  1  0.750000  0.834808  0.434933  1
  Rh  Rh23  1  0.750000  0.665609  0.933379  1
  Rh  Rh24  1  0.250000  0.996314  0.344810  1
  Rh  Rh25  1  0.250000  0.499259  0.836155  1
  Rh  Rh26  1  0.750000  0.009227  0.654929  1
  Rh  Rh27  1  0.750000  0.496849  0.156274  1
