# generated using pymatgen
data_La4SnHg7O4
_symmetry_space_group_name_H-M   'P 1'
_cell_length_a   5.89834168
_cell_length_b   5.86613310
_cell_length_c   11.14060346
_cell_angle_alpha   89.53323824
_cell_angle_beta   95.77933284
_cell_angle_gamma   89.92840126
_symmetry_Int_Tables_number   1
_chemical_formula_structural   La4SnHg7O4
_chemical_formula_sum   'La4 Sn1 Hg7 O4'
_cell_volume   383.49711277
_cell_formula_units_Z   1
loop_
 _symmetry_equiv_pos_site_id
 _symmetry_equiv_pos_as_xyz
  1  'x, y, z'
loop_
 _atom_site_type_symbol
 _atom_site_label
 _atom_site_symmetry_multiplicity
 _atom_site_fract_x
 _atom_site_fract_y
 _atom_site_fract_z
 _atom_site_occupancy
  La  La0  1  0.519521  0.180491  0.105521  1
  La  La1  1  0.019617  0.680507  0.104994  1
  La  La2  1  0.979969  0.183063  0.893684  1
  La  La3  1  0.479724  0.683322  0.892910  1
  Sn  Sn4  1  0.531764  0.161916  0.424538  1
  Hg  Hg5  1  0.033108  0.658284  0.414128  1
  Hg  Hg6  1  0.974701  0.163287  0.582292  1
  Hg  Hg7  1  0.470517  0.669572  0.581844  1
  Hg  Hg8  1  0.546160  0.670953  0.297823  1
  Hg  Hg9  1  0.037483  0.168598  0.295046  1
  Hg  Hg10  1  0.956794  0.672929  0.703369  1
  Hg  Hg11  1  0.452601  0.178968  0.706004  1
  O  O12  1  0.750530  0.930154  0.999393  1
  O  O13  1  0.248590  0.931417  0.999520  1
  O  O14  1  0.750406  0.433882  0.999562  1
  O  O15  1  0.248526  0.432618  0.999375  1
