# generated using pymatgen
data_Pu4Ta3NbN8
_symmetry_space_group_name_H-M   'P 1'
_cell_length_a   3.28702700
_cell_length_b   5.69119936
_cell_length_c   10.96310449
_cell_angle_alpha   90.06945195
_cell_angle_beta   90.00000000
_cell_angle_gamma   90.00000000
_symmetry_Int_Tables_number   1
_chemical_formula_structural   Pu4Ta3NbN8
_chemical_formula_sum   'Pu4 Ta3 Nb1 N8'
_cell_volume   205.08802587
_cell_formula_units_Z   1
loop_
 _symmetry_equiv_pos_site_id
 _symmetry_equiv_pos_as_xyz
  1  'x, y, z'
loop_
 _atom_site_type_symbol
 _atom_site_label
 _atom_site_symmetry_multiplicity
 _atom_site_fract_x
 _atom_site_fract_y
 _atom_site_fract_z
 _atom_site_occupancy
  Pu  Pu0  1  0.250000  0.581912  0.860495  1
  Pu  Pu1  1  0.750000  0.417551  0.139986  1
  Pu  Pu2  1  0.750000  0.920800  0.360903  1
  Pu  Pu3  1  0.250000  0.081789  0.639206  1
  Ta  Ta4  1  0.250000  0.918211  0.105388  1
  Ta  Ta5  1  0.750000  0.081494  0.893443  1
  Ta  Ta6  1  0.750000  0.579908  0.605351  1
  Nb  Nb7  1  0.250000  0.419976  0.395017  1
  N  N8  1  0.250000  0.661255  0.243118  1
  N  N9  1  0.750000  0.340393  0.755537  1
  N  N10  1  0.750000  0.838983  0.745015  1
  N  N11  1  0.250000  0.157758  0.252897  1
  N  N12  1  0.250000  0.750489  0.508632  1
  N  N13  1  0.750000  0.249721  0.495988  1
  N  N14  1  0.750000  0.755069  0.007446  1
  N  N15  1  0.250000  0.244688  0.991578  1
