# generated using pymatgen
data_SmTmZr2(Al8Pt3)3
_symmetry_space_group_name_H-M   'P 1'
_cell_length_a   7.50783522
_cell_length_b   7.51540281
_cell_length_c   13.05328800
_cell_angle_alpha   84.53030941
_cell_angle_beta   78.96920047
_cell_angle_gamma   59.94576924
_symmetry_Int_Tables_number   1
_chemical_formula_structural   SmTmZr2(Al8Pt3)3
_chemical_formula_sum   'Sm1 Tm1 Zr2 Al24 Pt9'
_cell_volume   625.72141078
_cell_formula_units_Z   1
loop_
 _symmetry_equiv_pos_site_id
 _symmetry_equiv_pos_as_xyz
  1  'x, y, z'
loop_
 _atom_site_type_symbol
 _atom_site_label
 _atom_site_symmetry_multiplicity
 _atom_site_fract_x
 _atom_site_fract_y
 _atom_site_fract_z
 _atom_site_occupancy
  Sm  Sm0  1  0.733081  0.498395  0.809051  1
  Tm  Tm1  1  0.266042  0.501318  0.193036  1
  Zr  Zr2  1  0.393722  0.167789  0.810003  1
  Zr  Zr3  1  0.606147  0.832721  0.189972  1
  Al  Al4  1  0.681033  0.836943  0.944718  1
  Al  Al5  1  0.318404  0.164531  0.057241  1
  Al  Al6  1  0.146149  0.832947  0.562564  1
  Al  Al7  1  0.854204  0.166834  0.436728  1
  Al  Al8  1  0.479977  0.166865  0.560682  1
  Al  Al9  1  0.520247  0.833087  0.438519  1
  Al  Al10  1  0.220751  0.163401  0.326594  1
  Al  Al11  1  0.779937  0.836868  0.671812  1
  Al  Al12  1  0.436325  0.504406  0.671835  1
  Al  Al13  1  0.563655  0.495656  0.326516  1
  Al  Al14  1  0.111903  0.159710  0.670466  1
  Al  Al15  1  0.889302  0.839649  0.327828  1
  Al  Al16  1  0.351729  0.497250  0.943673  1
  Al  Al17  1  0.645550  0.503368  0.059079  1
  Al  Al18  1  0.018762  0.166903  0.952400  1
  Al  Al19  1  0.981699  0.831790  0.049828  1
  Al  Al20  1  0.186866  0.499615  0.440217  1
  Al  Al21  1  0.813537  0.500335  0.559018  1
  Al  Al22  1  0.733180  0.159350  0.183697  1
  Al  Al23  1  0.264963  0.842317  0.816232  1
  Al  Al24  1  0.067023  0.626679  0.815113  1
  Al  Al25  1  0.934888  0.373437  0.184836  1
  Al  Al26  1  0.850876  0.039418  0.815688  1
  Al  Al27  1  0.149455  0.958299  0.184231  1
  Pt  Pt28  1  0.120948  0.491084  0.638622  1
  Pt  Pt29  1  0.880599  0.508991  0.360544  1
  Pt  Pt30  1  0.656693  0.172717  0.999976  1
  Pt  Pt31  1  0.342681  0.827472  0.000724  1
  Pt  Pt32  1  0.536891  0.167110  0.361151  1
  Pt  Pt33  1  0.462314  0.833856  0.637871  1
  Pt  Pt34  1  0.778728  0.175128  0.637100  1
  Pt  Pt35  1  0.221818  0.823475  0.361992  1
  Pt  Pt36  1  0.999921  0.500284  0.000444  1
