# generated using pymatgen
data_Ho16ErTm3Pt16
_symmetry_space_group_name_H-M   'P 1'
_cell_length_a   7.44002800
_cell_length_b   7.54138000
_cell_length_c   14.68614700
_cell_angle_alpha   90.00000000
_cell_angle_beta   90.00000000
_cell_angle_gamma   89.99839376
_symmetry_Int_Tables_number   1
_chemical_formula_structural   Ho16ErTm3Pt16
_chemical_formula_sum   'Ho16 Er1 Tm3 Pt16'
_cell_volume   824.01148650
_cell_formula_units_Z   1
loop_
 _symmetry_equiv_pos_site_id
 _symmetry_equiv_pos_as_xyz
  1  'x, y, z'
loop_
 _atom_site_type_symbol
 _atom_site_label
 _atom_site_symmetry_multiplicity
 _atom_site_fract_x
 _atom_site_fract_y
 _atom_site_fract_z
 _atom_site_occupancy
  Ho  Ho0  1  0.656688  0.167985  0.622504  1
  Ho  Ho1  1  0.156761  0.331937  0.877495  1
  Ho  Ho2  1  0.343293  0.831955  0.122531  1
  Ho  Ho3  1  0.843287  0.668030  0.377467  1
  Ho  Ho4  1  0.343293  0.831955  0.377469  1
  Ho  Ho5  1  0.843287  0.668030  0.122533  1
  Ho  Ho6  1  0.656688  0.167985  0.877496  1
  Ho  Ho7  1  0.156761  0.331937  0.622505  1
  Ho  Ho8  1  0.501904  0.679953  0.593080  1
  Ho  Ho9  1  0.001964  0.820102  0.906913  1
  Ho  Ho10  1  0.498070  0.320065  0.093120  1
  Ho  Ho11  1  0.998056  0.179933  0.406879  1
  Ho  Ho12  1  0.498070  0.320065  0.406880  1
  Ho  Ho13  1  0.998056  0.179933  0.093121  1
  Ho  Ho14  1  0.501904  0.679953  0.906920  1
  Ho  Ho15  1  0.001964  0.820102  0.593087  1
  Er  Er16  1  0.818934  0.512308  0.750000  1
  Tm  Tm17  1  0.318905  0.987722  0.750000  1
  Tm  Tm18  1  0.181101  0.487747  0.250000  1
  Tm  Tm19  1  0.681092  0.012252  0.250000  1
  Pt  Pt20  1  0.683860  0.968191  0.457923  1
  Pt  Pt21  1  0.183862  0.531802  0.042074  1
  Pt  Pt22  1  0.316131  0.031812  0.957925  1
  Pt  Pt23  1  0.816139  0.468186  0.542029  1
  Pt  Pt24  1  0.316131  0.031812  0.542075  1
  Pt  Pt25  1  0.816139  0.468186  0.957971  1
  Pt  Pt26  1  0.683860  0.968191  0.042077  1
  Pt  Pt27  1  0.183862  0.531802  0.457926  1
  Pt  Pt28  1  0.454225  0.388047  0.750000  1
  Pt  Pt29  1  0.954443  0.111799  0.750000  1
  Pt  Pt30  1  0.545601  0.611876  0.250000  1
  Pt  Pt31  1  0.045595  0.888104  0.250000  1
  Pt  Pt32  1  0.681640  0.855702  0.750000  1
  Pt  Pt33  1  0.181875  0.644554  0.750000  1
  Pt  Pt34  1  0.318276  0.144478  0.250000  1
  Pt  Pt35  1  0.818285  0.355508  0.250000  1
