# generated using pymatgen
data_Tb5Tm11(InRu)4
_symmetry_space_group_name_H-M   'P 1'
_cell_length_a   9.62538005
_cell_length_b   9.62299254
_cell_length_c   9.62316410
_cell_angle_alpha   59.40570328
_cell_angle_beta   59.30742007
_cell_angle_gamma   59.30714886
_symmetry_Int_Tables_number   1
_chemical_formula_structural   Tb5Tm11(InRu)4
_chemical_formula_sum   'Tb5 Tm11 In4 Ru4'
_cell_volume   620.80660607
_cell_formula_units_Z   1
loop_
 _symmetry_equiv_pos_site_id
 _symmetry_equiv_pos_as_xyz
  1  'x, y, z'
loop_
 _atom_site_type_symbol
 _atom_site_label
 _atom_site_symmetry_multiplicity
 _atom_site_fract_x
 _atom_site_fract_y
 _atom_site_fract_z
 _atom_site_occupancy
  Tb  Tb0  1  0.059718  0.060310  0.440385  1
  Tb  Tb1  1  0.442020  0.059900  0.441219  1
  Tb  Tb2  1  0.059719  0.440389  0.060309  1
  Tb  Tb3  1  0.044004  0.651369  0.651391  1
  Tb  Tb4  1  0.442032  0.441229  0.059891  1
  Tm  Tm5  1  0.652039  0.043418  0.651543  1
  Tm  Tm6  1  0.189524  0.813349  0.189512  1
  Tm  Tm7  1  0.189511  0.189510  0.813358  1
  Tm  Tm8  1  0.810023  0.810056  0.190650  1
  Tm  Tm9  1  0.443874  0.056989  0.056991  1
  Tm  Tm10  1  0.812750  0.190123  0.190115  1
  Tm  Tm11  1  0.058671  0.443124  0.443123  1
  Tm  Tm12  1  0.810019  0.190660  0.810047  1
  Tm  Tm13  1  0.190420  0.810550  0.810545  1
  Tm  Tm14  1  0.652052  0.651539  0.043410  1
  Tm  Tm15  1  0.650502  0.650744  0.650746  1
  In  In16  1  0.417630  0.417299  0.417321  1
  In  In17  1  0.746529  0.418534  0.418532  1
  In  In18  1  0.419760  0.747173  0.416439  1
  In  In19  1  0.419761  0.416441  0.747173  1
  Ru  Ru20  1  0.855528  0.856968  0.420649  1
  Ru  Ru21  1  0.856175  0.862264  0.862261  1
  Ru  Ru22  1  0.422227  0.857412  0.857420  1
  Ru  Ru23  1  0.855514  0.420650  0.856972  1
