# generated using pymatgen
data_Nd8Ho12Ga15Ge
_symmetry_space_group_name_H-M   'P 1'
_cell_length_a   7.59669500
_cell_length_b   7.96080564
_cell_length_c   15.30293800
_cell_angle_alpha   90.00000000
_cell_angle_beta   90.00000000
_cell_angle_gamma   89.84630289
_symmetry_Int_Tables_number   1
_chemical_formula_structural   Nd8Ho12Ga15Ge
_chemical_formula_sum   'Nd8 Ho12 Ga15 Ge1'
_cell_volume   925.45427823
_cell_formula_units_Z   1
loop_
 _symmetry_equiv_pos_site_id
 _symmetry_equiv_pos_as_xyz
  1  'x, y, z'
loop_
 _atom_site_type_symbol
 _atom_site_label
 _atom_site_symmetry_multiplicity
 _atom_site_fract_x
 _atom_site_fract_y
 _atom_site_fract_z
 _atom_site_occupancy
  Nd  Nd0  1  0.978491  0.820172  0.094998  1
  Nd  Nd1  1  0.478116  0.679516  0.405725  1
  Nd  Nd2  1  0.521529  0.320182  0.906226  1
  Nd  Nd3  1  0.020355  0.177395  0.595469  1
  Nd  Nd4  1  0.020355  0.177395  0.904531  1
  Nd  Nd5  1  0.521529  0.320182  0.593774  1
  Nd  Nd6  1  0.478116  0.679516  0.094275  1
  Nd  Nd7  1  0.978491  0.820172  0.405002  1
  Ho  Ho8  1  0.655968  0.988396  0.250000  1
  Ho  Ho9  1  0.156498  0.512484  0.250000  1
  Ho  Ho10  1  0.845092  0.489087  0.750000  1
  Ho  Ho11  1  0.344220  0.012533  0.750000  1
  Ho  Ho12  1  0.680561  0.825940  0.877823  1
  Ho  Ho13  1  0.177341  0.677711  0.621648  1
  Ho  Ho14  1  0.820570  0.324736  0.120801  1
  Ho  Ho15  1  0.319696  0.174697  0.378643  1
  Ho  Ho16  1  0.319696  0.174697  0.121357  1
  Ho  Ho17  1  0.820570  0.324736  0.379199  1
  Ho  Ho18  1  0.177341  0.677711  0.878352  1
  Ho  Ho19  1  0.680561  0.825940  0.622177  1
  Ga  Ga20  1  0.767348  0.621881  0.250000  1
  Ga  Ga21  1  0.267979  0.877695  0.250000  1
  Ga  Ga22  1  0.731306  0.123333  0.750000  1
  Ga  Ga23  1  0.233667  0.377851  0.750000  1
  Ga  Ga24  1  0.025337  0.113033  0.250000  1
  Ga  Ga25  1  0.526652  0.387165  0.250000  1
  Ga  Ga26  1  0.473913  0.613365  0.750000  1
  Ga  Ga27  1  0.849160  0.531266  0.957752  1
  Ga  Ga28  1  0.348773  0.968249  0.542056  1
  Ga  Ga29  1  0.651788  0.029838  0.040674  1
  Ga  Ga30  1  0.152265  0.468899  0.459661  1
  Ga  Ga31  1  0.152265  0.468899  0.040339  1
  Ga  Ga32  1  0.651788  0.029838  0.459326  1
  Ga  Ga33  1  0.348773  0.968249  0.957944  1
  Ga  Ga34  1  0.849160  0.531266  0.542248  1
  Ge  Ge35  1  0.974726  0.885972  0.750000  1
