# generated using pymatgen
data_Sr5ThPa2O12
_symmetry_space_group_name_H-M   'P 1'
_cell_length_a   6.10601006
_cell_length_b   6.28494374
_cell_length_c   8.77299103
_cell_angle_alpha   89.99769277
_cell_angle_beta   89.84037184
_cell_angle_gamma   90.08765448
_symmetry_Int_Tables_number   1
_chemical_formula_structural   Sr5ThPa2O12
_chemical_formula_sum   'Sr5 Th1 Pa2 O12'
_cell_volume   336.66998570
_cell_formula_units_Z   1
loop_
 _symmetry_equiv_pos_site_id
 _symmetry_equiv_pos_as_xyz
  1  'x, y, z'
loop_
 _atom_site_type_symbol
 _atom_site_label
 _atom_site_symmetry_multiplicity
 _atom_site_fract_x
 _atom_site_fract_y
 _atom_site_fract_z
 _atom_site_occupancy
  Sr  Sr0  1  0.000000  0.000000  0.000000  1
  Sr  Sr1  1  0.985046  0.449439  0.237963  1
  Sr  Sr2  1  0.513883  0.956548  0.242413  1
  Sr  Sr3  1  0.486117  0.043452  0.757587  1
  Sr  Sr4  1  0.014954  0.550561  0.762037  1
  Th  Th5  1  0.500000  0.500000  0.500000  1
  Pa  Pa6  1  0.500000  0.500000  0.000000  1
  Pa  Pa7  1  0.000000  0.000000  0.500000  1
  O  O8  1  0.881603  0.947788  0.723508  1
  O  O9  1  0.798799  0.713148  0.427595  1
  O  O10  1  0.789143  0.674427  0.052103  1
  O  O11  1  0.712106  0.201993  0.435860  1
  O  O12  1  0.672925  0.214294  0.061943  1
  O  O13  1  0.615490  0.450362  0.749940  1
  O  O14  1  0.384510  0.549638  0.250060  1
  O  O15  1  0.327075  0.785706  0.938057  1
  O  O16  1  0.287894  0.798007  0.564140  1
  O  O17  1  0.210857  0.325573  0.947897  1
  O  O18  1  0.201201  0.286852  0.572405  1
  O  O19  1  0.118397  0.052212  0.276492  1
