# generated using pymatgen
data_TbYb6Lu(Si4Mo3)4
_symmetry_space_group_name_H-M   'P 1'
_cell_length_a   6.72670107
_cell_length_b   6.93018088
_cell_length_c   13.01717471
_cell_angle_alpha   89.84915511
_cell_angle_beta   90.00036706
_cell_angle_gamma   89.96559481
_symmetry_Int_Tables_number   1
_chemical_formula_structural   TbYb6Lu(Si4Mo3)4
_chemical_formula_sum   'Tb1 Yb6 Lu1 Si16 Mo12'
_cell_volume   606.82274196
_cell_formula_units_Z   1
loop_
 _symmetry_equiv_pos_site_id
 _symmetry_equiv_pos_as_xyz
  1  'x, y, z'
loop_
 _atom_site_type_symbol
 _atom_site_label
 _atom_site_symmetry_multiplicity
 _atom_site_fract_x
 _atom_site_fract_y
 _atom_site_fract_z
 _atom_site_occupancy
  Tb  Tb0  1  0.499810  0.332086  0.406840  1
  Yb  Yb1  1  0.498197  0.334584  0.090368  1
  Yb  Yb2  1  0.998095  0.165354  0.409620  1
  Yb  Yb3  1  0.501312  0.667974  0.592883  1
  Yb  Yb4  1  0.000932  0.831279  0.907812  1
  Yb  Yb5  1  0.500974  0.667344  0.909041  1
  Yb  Yb6  1  0.001583  0.832931  0.591698  1
  Lu  Lu7  1  0.998447  0.169393  0.093182  1
  Si  Si8  1  0.658679  0.041621  0.545711  1
  Si  Si9  1  0.158602  0.456924  0.955338  1
  Si  Si10  1  0.339127  0.958658  0.045741  1
  Si  Si11  1  0.842002  0.544086  0.454445  1
  Si  Si12  1  0.341118  0.955203  0.454695  1
  Si  Si13  1  0.841443  0.541912  0.045275  1
  Si  Si14  1  0.660347  0.041917  0.955195  1
  Si  Si15  1  0.159168  0.457934  0.545818  1
  Si  Si16  1  0.535369  0.372973  0.751015  1
  Si  Si17  1  0.035234  0.126322  0.749647  1
  Si  Si18  1  0.464450  0.632185  0.248498  1
  Si  Si19  1  0.965014  0.870295  0.249937  1
  Si  Si20  1  0.800827  0.629742  0.750239  1
  Si  Si21  1  0.300765  0.869574  0.750520  1
  Si  Si22  1  0.196605  0.368566  0.248913  1
  Si  Si23  1  0.699010  0.130726  0.248736  1
  Mo  Mo24  1  0.833900  0.331596  0.627296  1
  Mo  Mo25  1  0.333733  0.168203  0.873419  1
  Mo  Mo26  1  0.165641  0.667518  0.126264  1
  Mo  Mo27  1  0.665995  0.833446  0.372636  1
  Mo  Mo28  1  0.167403  0.666237  0.372190  1
  Mo  Mo29  1  0.668659  0.834504  0.126540  1
  Mo  Mo30  1  0.836275  0.329513  0.873881  1
  Mo  Mo31  1  0.335772  0.169049  0.627155  1
  Mo  Mo32  1  0.661717  0.008562  0.750373  1
  Mo  Mo33  1  0.161609  0.490609  0.750428  1
  Mo  Mo34  1  0.335522  0.996045  0.249691  1
  Mo  Mo35  1  0.836667  0.505138  0.248957  1
