# generated using pymatgen
data_K4Ba2SrEuSb4
_symmetry_space_group_name_H-M   'P 1'
_cell_length_a   5.43279200
_cell_length_b   8.83195228
_cell_length_c   10.44187828
_cell_angle_alpha   90.43030089
_cell_angle_beta   90.00000000
_cell_angle_gamma   90.00000000
_symmetry_Int_Tables_number   1
_chemical_formula_structural   K4Ba2SrEuSb4
_chemical_formula_sum   'K4 Ba2 Sr1 Eu1 Sb4'
_cell_volume   501.00974153
_cell_formula_units_Z   1
loop_
 _symmetry_equiv_pos_site_id
 _symmetry_equiv_pos_as_xyz
  1  'x, y, z'
loop_
 _atom_site_type_symbol
 _atom_site_label
 _atom_site_symmetry_multiplicity
 _atom_site_fract_x
 _atom_site_fract_y
 _atom_site_fract_z
 _atom_site_occupancy
  K  K0  1  0.500000  0.028481  0.412846  1
  K  K1  1  0.000000  0.345778  0.340413  1
  K  K2  1  0.500000  0.526000  0.584965  1
  K  K3  1  0.000000  0.843277  0.658743  1
  Ba  Ba4  1  0.000000  0.993866  0.063312  1
  Ba  Ba5  1  0.000000  0.496059  0.942098  1
  Sr  Sr6  1  0.500000  0.149188  0.815078  1
  Eu  Eu7  1  0.500000  0.647579  0.183514  1
  Sb  Sb8  1  0.000000  0.255344  0.668536  1
  Sb  Sb9  1  0.500000  0.278596  0.117517  1
  Sb  Sb10  1  0.000000  0.752335  0.324977  1
  Sb  Sb11  1  0.500000  0.774697  0.888002  1
