# generated using pymatgen
data_Pr2SiPt8
_symmetry_space_group_name_H-M   'P 1'
_cell_length_a   4.32387900
_cell_length_b   9.27491870
_cell_length_c   9.27491901
_cell_angle_alpha   145.84309876
_cell_angle_beta   90.00000000
_cell_angle_gamma   90.00000000
_symmetry_Int_Tables_number   1
_chemical_formula_structural   Pr2SiPt8
_chemical_formula_sum   'Pr2 Si1 Pt8'
_cell_volume   208.83987439
_cell_formula_units_Z   1
loop_
 _symmetry_equiv_pos_site_id
 _symmetry_equiv_pos_as_xyz
  1  'x, y, z'
loop_
 _atom_site_type_symbol
 _atom_site_label
 _atom_site_symmetry_multiplicity
 _atom_site_fract_x
 _atom_site_fract_y
 _atom_site_fract_z
 _atom_site_occupancy
  Pr  Pr0  1  0.500000  0.616766  0.372271  1
  Pr  Pr1  1  0.500000  0.372271  0.616766  1
  Si  Si2  1  0.000000  0.224693  0.224693  1
  Pt  Pt3  1  0.000000  0.885501  0.108434  1
  Pt  Pt4  1  0.500000  0.789391  0.193183  1
  Pt  Pt5  1  0.000000  0.987989  0.489361  1
  Pt  Pt6  1  0.000000  0.642190  0.642190  1
  Pt  Pt7  1  0.500000  0.193183  0.789391  1
  Pt  Pt8  1  0.000000  0.108434  0.885501  1
  Pt  Pt9  1  0.000000  0.489361  0.987989  1
  Pt  Pt10  1  0.500000  0.003805  0.003805  1
