# generated using pymatgen
data_LuMgNi6P7Ru6
_symmetry_space_group_name_H-M   'P 1'
_cell_length_a   9.28325000
_cell_length_b   9.28324921
_cell_length_c   3.66359100
_cell_angle_alpha   90.00000000
_cell_angle_beta   90.00000000
_cell_angle_gamma   119.99999567
_symmetry_Int_Tables_number   1
_chemical_formula_structural   LuMgNi6P7Ru6
_chemical_formula_sum   'Lu1 Mg1 Ni6 P7 Ru6'
_cell_volume   273.42466574
_cell_formula_units_Z   1
loop_
 _symmetry_equiv_pos_site_id
 _symmetry_equiv_pos_as_xyz
  1  'x, y, z'
loop_
 _atom_site_type_symbol
 _atom_site_label
 _atom_site_symmetry_multiplicity
 _atom_site_fract_x
 _atom_site_fract_y
 _atom_site_fract_z
 _atom_site_occupancy
  Lu  Lu0  1  0.666667  0.333333  0.500000  1
  Mg  Mg1  1  0.333333  0.666667  0.000000  1
  Ni  Ni2  1  0.161201  0.281119  0.000000  1
  Ni  Ni3  1  0.718881  0.880081  0.000000  1
  Ni  Ni4  1  0.119919  0.838799  0.000000  1
  Ni  Ni5  1  0.432617  0.070172  0.000000  1
  Ni  Ni6  1  0.929828  0.362445  0.000000  1
  Ni  Ni7  1  0.637555  0.567383  0.000000  1
  P  P8  1  0.119666  0.405236  0.500000  1
  P  P9  1  0.594764  0.714428  0.500000  1
  P  P10  1  0.285572  0.880334  0.500000  1
  P  P11  1  0.414407  0.297396  0.000000  1
  P  P12  1  0.702604  0.117011  0.000000  1
  P  P13  1  0.882989  0.585593  0.000000  1
  P  P14  1  0.000000  0.000000  0.000000  1
  Ru  Ru15  1  0.390933  0.442578  0.500000  1
  Ru  Ru16  1  0.557422  0.948355  0.500000  1
  Ru  Ru17  1  0.051645  0.609067  0.500000  1
  Ru  Ru18  1  0.210009  0.086940  0.500000  1
  Ru  Ru19  1  0.913060  0.123068  0.500000  1
  Ru  Ru20  1  0.876932  0.789991  0.500000  1
