# generated using pymatgen
data_YbPa7Cd3Pt8Pb
_symmetry_space_group_name_H-M   'P 1'
_cell_length_a   7.85549041
_cell_length_b   7.86298956
_cell_length_c   7.30231711
_cell_angle_alpha   89.93697326
_cell_angle_beta   89.99612352
_cell_angle_gamma   90.54150445
_symmetry_Int_Tables_number   1
_chemical_formula_structural   YbPa7Cd3Pt8Pb
_chemical_formula_sum   'Yb1 Pa7 Cd3 Pt8 Pb1'
_cell_volume   451.02646967
_cell_formula_units_Z   1
loop_
 _symmetry_equiv_pos_site_id
 _symmetry_equiv_pos_as_xyz
  1  'x, y, z'
loop_
 _atom_site_type_symbol
 _atom_site_label
 _atom_site_symmetry_multiplicity
 _atom_site_fract_x
 _atom_site_fract_y
 _atom_site_fract_z
 _atom_site_occupancy
  Yb  Yb0  1  0.178786  0.826898  0.501991  1
  Pa  Pa1  1  0.675360  0.676768  0.999151  1
  Pa  Pa2  1  0.333901  0.332551  0.499910  1
  Pa  Pa3  1  0.826023  0.172110  0.499932  1
  Pa  Pa4  1  0.662946  0.668243  0.501370  1
  Pa  Pa5  1  0.325639  0.322769  0.999198  1
  Pa  Pa6  1  0.833732  0.162498  0.998509  1
  Pa  Pa7  1  0.168493  0.833446  0.999171  1
  Cd  Cd8  1  0.494442  0.998754  0.747049  1
  Cd  Cd9  1  0.494280  0.997508  0.253215  1
  Cd  Cd10  1  0.001431  0.506167  0.745331  1
  Pt  Pt11  1  0.862928  0.871555  0.744376  1
  Pt  Pt12  1  0.128714  0.138417  0.745227  1
  Pt  Pt13  1  0.635287  0.365178  0.758284  1
  Pt  Pt14  1  0.629533  0.361388  0.239521  1
  Pt  Pt15  1  0.380010  0.627484  0.233339  1
  Pt  Pt16  1  0.131276  0.131431  0.253393  1
  Pt  Pt17  1  0.860615  0.874986  0.256753  1
  Pt  Pt18  1  0.375001  0.625148  0.767104  1
  Pb  Pb19  1  0.001603  0.506701  0.257175  1
