# generated using pymatgen
data_Ta3B2Os2Ru3
_symmetry_space_group_name_H-M   'P 1'
_cell_length_a   9.46838100
_cell_length_b   9.55606800
_cell_length_c   3.01058500
_cell_angle_alpha   90.00000000
_cell_angle_beta   90.00000000
_cell_angle_gamma   90.00000000
_symmetry_Int_Tables_number   1
_chemical_formula_structural   Ta3B2Os2Ru3
_chemical_formula_sum   'Ta6 B4 Os4 Ru6'
_cell_volume   272.39921407
_cell_formula_units_Z   2
loop_
 _symmetry_equiv_pos_site_id
 _symmetry_equiv_pos_as_xyz
  1  'x, y, z'
loop_
 _atom_site_type_symbol
 _atom_site_label
 _atom_site_symmetry_multiplicity
 _atom_site_fract_x
 _atom_site_fract_y
 _atom_site_fract_z
 _atom_site_occupancy
  Ta  Ta0  1  0.823724  0.676566  0.000000  1
  Ta  Ta1  1  0.176276  0.323434  0.000000  1
  Ta  Ta2  1  0.323724  0.823434  0.000000  1
  Ta  Ta3  1  0.676276  0.176566  0.000000  1
  Ta  Ta4  1  0.500000  0.500000  0.000000  1
  Ta  Ta5  1  0.000000  0.000000  0.000000  1
  B  B6  1  0.621206  0.878690  0.000000  1
  B  B7  1  0.378794  0.121310  0.000000  1
  B  B8  1  0.121206  0.621310  0.000000  1
  B  B9  1  0.878794  0.378690  0.000000  1
  Os  Os10  1  0.571540  0.719501  0.500000  1
  Os  Os11  1  0.428460  0.280499  0.500000  1
  Os  Os12  1  0.071540  0.780499  0.500000  1
  Os  Os13  1  0.928460  0.219501  0.500000  1
  Ru  Ru14  1  0.281693  0.570829  0.500000  1
  Ru  Ru15  1  0.718307  0.429171  0.500000  1
  Ru  Ru16  1  0.218307  0.070829  0.500000  1
  Ru  Ru17  1  0.781693  0.929171  0.500000  1
  Ru  Ru18  1  0.500000  0.000000  0.500000  1
  Ru  Ru19  1  0.000000  0.500000  0.500000  1
