# generated using pymatgen
data_Ba5La(Sn4Sb)2
_symmetry_space_group_name_H-M   'P 1'
_cell_length_a   9.25922285
_cell_length_b   9.25922232
_cell_length_c   9.31790100
_cell_angle_alpha   119.79190393
_cell_angle_beta   119.79190207
_cell_angle_gamma   90.00000449
_symmetry_Int_Tables_number   1
_chemical_formula_structural   Ba5La(Sn4Sb)2
_chemical_formula_sum   'Ba5 La1 Sn8 Sb2'
_cell_volume   568.40965656
_cell_formula_units_Z   1
loop_
 _symmetry_equiv_pos_site_id
 _symmetry_equiv_pos_as_xyz
  1  'x, y, z'
loop_
 _atom_site_type_symbol
 _atom_site_label
 _atom_site_symmetry_multiplicity
 _atom_site_fract_x
 _atom_site_fract_y
 _atom_site_fract_z
 _atom_site_occupancy
  Ba  Ba0  1  0.750000  0.750000  0.500000  1
  Ba  Ba1  1  0.663442  0.163442  0.000000  1
  Ba  Ba2  1  0.336558  0.836558  0.000000  1
  Ba  Ba3  1  0.836558  0.663442  0.000000  1
  Ba  Ba4  1  0.163442  0.336558  0.000000  1
  La  La5  1  0.250000  0.250000  0.500000  1
  Sn  Sn6  1  0.333133  0.839045  0.386746  1
  Sn  Sn7  1  0.660955  0.166867  0.613254  1
  Sn  Sn8  1  0.053614  0.547702  0.386746  1
  Sn  Sn9  1  0.547702  0.333133  0.386746  1
  Sn  Sn10  1  0.166867  0.952298  0.613254  1
  Sn  Sn11  1  0.952298  0.446386  0.613254  1
  Sn  Sn12  1  0.446386  0.660955  0.613254  1
  Sn  Sn13  1  0.839045  0.053614  0.386746  1
  Sb  Sb14  1  0.011130  0.011130  0.022260  1
  Sb  Sb15  1  0.488870  0.488870  0.977740  1
