# generated using pymatgen
data_Dy5Lu3Tc2(B12Os)2
_symmetry_space_group_name_H-M   'P 1'
_cell_length_a   3.64336300
_cell_length_b   9.10729014
_cell_length_c   11.49881819
_cell_angle_alpha   89.94949047
_cell_angle_beta   90.00000000
_cell_angle_gamma   90.00000000
_symmetry_Int_Tables_number   1
_chemical_formula_structural   Dy5Lu3Tc2(B12Os)2
_chemical_formula_sum   'Dy5 Lu3 Tc2 B24 Os2'
_cell_volume   381.54402301
_cell_formula_units_Z   1
loop_
 _symmetry_equiv_pos_site_id
 _symmetry_equiv_pos_as_xyz
  1  'x, y, z'
loop_
 _atom_site_type_symbol
 _atom_site_label
 _atom_site_symmetry_multiplicity
 _atom_site_fract_x
 _atom_site_fract_y
 _atom_site_fract_z
 _atom_site_occupancy
  Dy  Dy0  1  0.000000  0.324446  0.415312  1
  Dy  Dy1  1  0.000000  0.675453  0.585194  1
  Dy  Dy2  1  0.000000  0.820239  0.087026  1
  Dy  Dy3  1  0.000000  0.179704  0.912502  1
  Dy  Dy4  1  0.000000  0.942096  0.371535  1
  Lu  Lu5  1  0.000000  0.058309  0.629604  1
  Lu  Lu6  1  0.000000  0.444026  0.129314  1
  Lu  Lu7  1  0.000000  0.556005  0.870358  1
  Tc  Tc8  1  0.000000  0.637257  0.319376  1
  Tc  Tc9  1  0.000000  0.361338  0.680688  1
  B  B10  1  0.500000  0.552688  0.432792  1
  B  B11  1  0.500000  0.446460  0.567478  1
  B  B12  1  0.500000  0.054275  0.066766  1
  B  B13  1  0.500000  0.945959  0.932692  1
  B  B14  1  0.500000  0.748039  0.418806  1
  B  B15  1  0.500000  0.250373  0.581529  1
  B  B16  1  0.500000  0.250664  0.081232  1
  B  B17  1  0.500000  0.749720  0.918502  1
  B  B18  1  0.500000  0.790693  0.264971  1
  B  B19  1  0.500000  0.207884  0.734657  1
  B  B20  1  0.500000  0.292217  0.233892  1
  B  B21  1  0.500000  0.708418  0.765876  1
  B  B22  1  0.500000  0.629848  0.184354  1
  B  B23  1  0.500000  0.369694  0.815389  1
  B  B24  1  0.500000  0.131414  0.313868  1
  B  B25  1  0.500000  0.869917  0.685686  1
  B  B26  1  0.500000  0.983197  0.211641  1
  B  B27  1  0.500000  0.017572  0.787417  1
  B  B28  1  0.500000  0.481744  0.286627  1
  B  B29  1  0.500000  0.517956  0.713239  1
  B  B30  1  0.500000  0.600753  0.027522  1
  B  B31  1  0.500000  0.399228  0.972221  1
  B  B32  1  0.500000  0.103031  0.472878  1
  B  B33  1  0.500000  0.898371  0.529877  1
  Os  Os34  1  0.000000  0.139139  0.178006  1
  Os  Os35  1  0.000000  0.861873  0.821172  1
