# generated using pymatgen
data_Pr3Dy(LuPb)6
_symmetry_space_group_name_H-M   'P 1'
_cell_length_a   9.07334263
_cell_length_b   9.13572520
_cell_length_c   6.62410500
_cell_angle_alpha   90.00000000
_cell_angle_beta   90.00000000
_cell_angle_gamma   120.42077947
_symmetry_Int_Tables_number   1
_chemical_formula_structural   Pr3Dy(LuPb)6
_chemical_formula_sum   'Pr3 Dy1 Lu6 Pb6'
_cell_volume   473.49030032
_cell_formula_units_Z   1
loop_
 _symmetry_equiv_pos_site_id
 _symmetry_equiv_pos_as_xyz
  1  'x, y, z'
loop_
 _atom_site_type_symbol
 _atom_site_label
 _atom_site_symmetry_multiplicity
 _atom_site_fract_x
 _atom_site_fract_y
 _atom_site_fract_z
 _atom_site_occupancy
  Pr  Pr0  1  0.234650  0.236622  0.750000  1
  Pr  Pr1  1  0.236047  0.997842  0.250000  1
  Pr  Pr2  1  0.765741  0.764910  0.250000  1
  Dy  Dy3  1  0.762727  0.000912  0.750000  1
  Lu  Lu4  1  0.334467  0.667601  0.999551  1
  Lu  Lu5  1  0.666387  0.332568  0.999547  1
  Lu  Lu6  1  0.999386  0.757533  0.750000  1
  Lu  Lu7  1  0.999190  0.242318  0.250000  1
  Lu  Lu8  1  0.334467  0.667601  0.500449  1
  Lu  Lu9  1  0.666387  0.332568  0.500453  1
  Pb  Pb10  1  0.997438  0.400531  0.750000  1
  Pb  Pb11  1  0.393699  0.397993  0.250000  1
  Pb  Pb12  1  0.605919  0.003727  0.250000  1
  Pb  Pb13  1  0.607758  0.606643  0.750000  1
  Pb  Pb14  1  0.396225  0.996230  0.750000  1
  Pb  Pb15  1  0.999513  0.594400  0.250000  1
