# generated using pymatgen
data_ThMnH5
_symmetry_space_group_name_H-M   'P 1'
_cell_length_a   4.44815300
_cell_length_b   4.63081500
_cell_length_c   11.70314200
_cell_angle_alpha   90.00000000
_cell_angle_beta   90.00000000
_cell_angle_gamma   90.00000000
_symmetry_Int_Tables_number   1
_chemical_formula_structural   ThMnH5
_chemical_formula_sum   'Th4 Mn4 H20'
_cell_volume   241.06803224
_cell_formula_units_Z   4
loop_
 _symmetry_equiv_pos_site_id
 _symmetry_equiv_pos_as_xyz
  1  'x, y, z'
loop_
 _atom_site_type_symbol
 _atom_site_label
 _atom_site_symmetry_multiplicity
 _atom_site_fract_x
 _atom_site_fract_y
 _atom_site_fract_z
 _atom_site_occupancy
  Th  Th0  1  0.272808  0.172544  0.645993  1
  Th  Th1  1  0.772808  0.327456  0.354007  1
  Th  Th2  1  0.227192  0.827456  0.145993  1
  Th  Th3  1  0.727192  0.672544  0.854007  1
  Mn  Mn4  1  0.312620  0.166302  0.908662  1
  Mn  Mn5  1  0.812620  0.333698  0.091338  1
  Mn  Mn6  1  0.187380  0.833698  0.408662  1
  Mn  Mn7  1  0.687380  0.666302  0.591338  1
  H  H8  1  0.540795  0.412073  0.518122  1
  H  H9  1  0.040795  0.087927  0.481878  1
  H  H10  1  0.959205  0.587927  0.018122  1
  H  H11  1  0.459205  0.912073  0.981878  1
  H  H12  1  0.180194  0.928012  0.819502  1
  H  H13  1  0.680194  0.571988  0.180498  1
  H  H14  1  0.319806  0.071988  0.319502  1
  H  H15  1  0.819806  0.428012  0.680498  1
  H  H16  1  0.204891  0.441775  0.827045  1
  H  H17  1  0.704891  0.058225  0.172955  1
  H  H18  1  0.295109  0.558225  0.327045  1
  H  H19  1  0.795109  0.941775  0.672955  1
  H  H20  1  0.607219  0.169073  0.826030  1
  H  H21  1  0.107219  0.330927  0.173970  1
  H  H22  1  0.892781  0.830927  0.326030  1
  H  H23  1  0.392781  0.669073  0.673970  1
  H  H24  1  0.988543  0.094584  0.994011  1
  H  H25  1  0.488543  0.405416  0.005989  1
  H  H26  1  0.511457  0.905416  0.494011  1
  H  H27  1  0.011457  0.594584  0.505989  1
