# generated using pymatgen
data_YbEuCd2(GeO4)2
_symmetry_space_group_name_H-M   'P 1'
_cell_length_a   5.31875900
_cell_length_b   6.80516100
_cell_length_c   11.72244400
_cell_angle_alpha   90.00000000
_cell_angle_beta   90.00000000
_cell_angle_gamma   90.00000000
_symmetry_Int_Tables_number   1
_chemical_formula_structural   YbEuCd2(GeO4)2
_chemical_formula_sum   'Yb2 Eu2 Cd4 Ge4 O16'
_cell_volume   424.29399322
_cell_formula_units_Z   2
loop_
 _symmetry_equiv_pos_site_id
 _symmetry_equiv_pos_as_xyz
  1  'x, y, z'
loop_
 _atom_site_type_symbol
 _atom_site_label
 _atom_site_symmetry_multiplicity
 _atom_site_fract_x
 _atom_site_fract_y
 _atom_site_fract_z
 _atom_site_occupancy
  Yb  Yb0  1  0.508531  0.250000  0.223778  1
  Yb  Yb1  1  0.008531  0.750000  0.276222  1
  Eu  Eu2  1  0.492675  0.750000  0.781411  1
  Eu  Eu3  1  0.992675  0.250000  0.718589  1
  Cd  Cd4  1  0.498762  0.502500  0.487437  1
  Cd  Cd5  1  0.998762  0.497500  0.012563  1
  Cd  Cd6  1  0.498762  0.997500  0.487437  1
  Cd  Cd7  1  0.998762  0.002500  0.012563  1
  Ge  Ge8  1  0.930053  0.750000  0.585477  1
  Ge  Ge9  1  0.430053  0.250000  0.914523  1
  Ge  Ge10  1  0.069739  0.250000  0.397374  1
  Ge  Ge11  1  0.569739  0.750000  0.102626  1
  O  O12  1  0.215650  0.457753  0.330127  1
  O  O13  1  0.715650  0.542247  0.169873  1
  O  O14  1  0.782865  0.955655  0.655063  1
  O  O15  1  0.282865  0.044345  0.844937  1
  O  O16  1  0.782865  0.544345  0.655063  1
  O  O17  1  0.282865  0.455655  0.844937  1
  O  O18  1  0.215650  0.042247  0.330127  1
  O  O19  1  0.715650  0.957753  0.169873  1
  O  O20  1  0.788528  0.750000  0.445622  1
  O  O21  1  0.288528  0.250000  0.054378  1
  O  O22  1  0.215849  0.250000  0.538077  1
  O  O23  1  0.715849  0.750000  0.961923  1
  O  O24  1  0.235875  0.750000  0.101337  1
  O  O25  1  0.735875  0.250000  0.398663  1
  O  O26  1  0.764195  0.250000  0.911435  1
  O  O27  1  0.264195  0.750000  0.588565  1
