# generated using pymatgen
data_Tm4Lu(RuO6)2
_symmetry_space_group_name_H-M   'P 1'
_cell_length_a   6.75020047
_cell_length_b   6.75020066
_cell_length_c   7.34315000
_cell_angle_alpha   73.97403535
_cell_angle_beta   73.97403620
_cell_angle_gamma   49.38356294
_symmetry_Int_Tables_number   1
_chemical_formula_structural   Tm4Lu(RuO6)2
_chemical_formula_sum   'Tm4 Lu1 Ru2 O12'
_cell_volume   241.97496211
_cell_formula_units_Z   1
loop_
 _symmetry_equiv_pos_site_id
 _symmetry_equiv_pos_as_xyz
  1  'x, y, z'
loop_
 _atom_site_type_symbol
 _atom_site_label
 _atom_site_symmetry_multiplicity
 _atom_site_fract_x
 _atom_site_fract_y
 _atom_site_fract_z
 _atom_site_occupancy
  Tm  Tm0  1  0.801369  0.801369  0.358822  1
  Tm  Tm1  1  0.198631  0.198631  0.641178  1
  Tm  Tm2  1  0.186801  0.186801  0.174463  1
  Tm  Tm3  1  0.813199  0.813199  0.825537  1
  Lu  Lu4  1  0.500000  0.500000  0.500000  1
  Ru  Ru5  1  0.278131  0.721869  0.000000  1
  Ru  Ru6  1  0.721869  0.278131  0.000000  1
  O  O7  1  0.414991  0.921593  0.911930  1
  O  O8  1  0.078407  0.585009  0.088070  1
  O  O9  1  0.585009  0.078407  0.088070  1
  O  O10  1  0.921593  0.414991  0.911930  1
  O  O11  1  0.599308  0.098013  0.570627  1
  O  O12  1  0.901987  0.400692  0.429373  1
  O  O13  1  0.400692  0.901987  0.429373  1
  O  O14  1  0.001276  0.001276  0.820029  1
  O  O15  1  0.998724  0.998724  0.179971  1
  O  O16  1  0.497586  0.497586  0.795504  1
  O  O17  1  0.502414  0.502414  0.204496  1
  O  O18  1  0.098013  0.599308  0.570627  1
