# generated using pymatgen
data_UNbCl10
_symmetry_space_group_name_H-M   'P 1'
_cell_length_a   11.07125600
_cell_length_b   8.58712227
_cell_length_c   12.23341357
_cell_angle_alpha   45.79949720
_cell_angle_beta   90.00000000
_cell_angle_gamma   90.00000000
_symmetry_Int_Tables_number   1
_chemical_formula_structural   UNbCl10
_chemical_formula_sum   'U2 Nb2 Cl20'
_cell_volume   833.78388658
_cell_formula_units_Z   2
loop_
 _symmetry_equiv_pos_site_id
 _symmetry_equiv_pos_as_xyz
  1  'x, y, z'
loop_
 _atom_site_type_symbol
 _atom_site_label
 _atom_site_symmetry_multiplicity
 _atom_site_fract_x
 _atom_site_fract_y
 _atom_site_fract_z
 _atom_site_occupancy
  U  U0  1  0.129109  0.101361  0.349812  1
  U  U1  1  0.629109  0.898639  0.150188  1
  Nb  Nb2  1  0.360904  0.108983  0.839052  1
  Nb  Nb3  1  0.860904  0.891017  0.660948  1
  Cl  Cl4  1  0.377838  0.280204  0.591436  1
  Cl  Cl5  1  0.101513  0.899366  0.641246  1
  Cl  Cl6  1  0.380458  0.423513  0.787973  1
  Cl  Cl7  1  0.625294  0.546408  0.223811  1
  Cl  Cl8  1  0.121260  0.290029  0.077837  1
  Cl  Cl9  1  0.877838  0.719796  0.908564  1
  Cl  Cl10  1  0.619057  0.258341  0.065147  1
  Cl  Cl11  1  0.119057  0.741659  0.434853  1
  Cl  Cl12  1  0.657584  0.919103  0.625421  1
  Cl  Cl13  1  0.887831  0.091864  0.371536  1
  Cl  Cl14  1  0.886397  0.236458  0.564613  1
  Cl  Cl15  1  0.880458  0.576487  0.712027  1
  Cl  Cl16  1  0.852754  0.920564  0.123297  1
  Cl  Cl17  1  0.125294  0.453592  0.276189  1
  Cl  Cl18  1  0.601513  0.100634  0.858754  1
  Cl  Cl19  1  0.387831  0.908136  0.128464  1
  Cl  Cl20  1  0.352754  0.079436  0.376703  1
  Cl  Cl21  1  0.386397  0.763542  0.935387  1
  Cl  Cl22  1  0.621260  0.709971  0.422163  1
  Cl  Cl23  1  0.157584  0.080897  0.874579  1
