# generated using pymatgen
data_Sr10Fe5Rh4WO30
_symmetry_space_group_name_H-M   'P 1'
_cell_length_a   5.62937649
_cell_length_b   7.91226881
_cell_length_c   14.85359839
_cell_angle_alpha   105.43930605
_cell_angle_beta   100.11601649
_cell_angle_gamma   90.01141782
_symmetry_Int_Tables_number   1
_chemical_formula_structural   Sr10Fe5Rh4WO30
_chemical_formula_sum   'Sr10 Fe5 Rh4 W1 O30'
_cell_volume   627.03808180
_cell_formula_units_Z   1
loop_
 _symmetry_equiv_pos_site_id
 _symmetry_equiv_pos_as_xyz
  1  'x, y, z'
loop_
 _atom_site_type_symbol
 _atom_site_label
 _atom_site_symmetry_multiplicity
 _atom_site_fract_x
 _atom_site_fract_y
 _atom_site_fract_z
 _atom_site_occupancy
  Sr  Sr0  1  0.100428  0.346856  0.205539  1
  Sr  Sr1  1  0.700650  0.951922  0.400843  1
  Sr  Sr2  1  0.300397  0.549046  0.598394  1
  Sr  Sr3  1  0.898222  0.141238  0.794513  1
  Sr  Sr4  1  0.499905  0.762416  0.000549  1
  Sr  Sr5  1  0.500095  0.237584  0.999451  1
  Sr  Sr6  1  0.101778  0.858762  0.205487  1
  Sr  Sr7  1  0.699603  0.450954  0.401606  1
  Sr  Sr8  1  0.299350  0.048078  0.599157  1
  Sr  Sr9  1  0.899572  0.653144  0.794461  1
  Fe  Fe10  1  0.000000  0.000000  0.000000  1
  Fe  Fe11  1  0.601035  0.601537  0.201872  1
  Fe  Fe12  1  0.201331  0.200943  0.402054  1
  Fe  Fe13  1  0.798669  0.799057  0.597946  1
  Fe  Fe14  1  0.398965  0.398463  0.798128  1
  Rh  Rh15  1  0.600481  0.100724  0.200764  1
  Rh  Rh16  1  0.199553  0.699328  0.399342  1
  Rh  Rh17  1  0.800447  0.300672  0.600658  1
  Rh  Rh18  1  0.399519  0.899276  0.799236  1
  W  W19  1  0.000000  0.500000  0.000000  1
  O  O20  1  0.301445  0.048959  0.099229  1
  O  O21  1  0.903074  0.651608  0.298688  1
  O  O22  1  0.502952  0.254885  0.501225  1
  O  O23  1  0.102468  0.851026  0.700012  1
  O  O24  1  0.707189  0.449093  0.903645  1
  O  O25  1  0.292811  0.550907  0.096355  1
  O  O26  1  0.897532  0.148974  0.299988  1
  O  O27  1  0.497048  0.745115  0.498775  1
  O  O28  1  0.096926  0.348392  0.701312  1
  O  O29  1  0.698555  0.951041  0.900771  1
  O  O30  1  0.568247  0.857783  0.213416  1
  O  O31  1  0.165729  0.457229  0.412920  1
  O  O32  1  0.766655  0.056774  0.612943  1
  O  O33  1  0.371151  0.658703  0.817104  1
  O  O34  1  0.973507  0.265200  0.016420  1
  O  O35  1  0.628849  0.341297  0.182896  1
  O  O36  1  0.233345  0.943226  0.387057  1
  O  O37  1  0.834271  0.542771  0.587080  1
  O  O38  1  0.431753  0.142217  0.786584  1
  O  O39  1  0.026493  0.734800  0.983580  1
  O  O40  1  0.195638  0.413086  0.903126  1
  O  O41  1  0.802302  0.012730  0.100583  1
  O  O42  1  0.398281  0.612262  0.299251  1
  O  O43  1  0.001351  0.213681  0.501719  1
  O  O44  1  0.598957  0.814331  0.700248  1
  O  O45  1  0.401043  0.185669  0.299752  1
  O  O46  1  0.998649  0.786319  0.498281  1
  O  O47  1  0.601719  0.387738  0.700749  1
  O  O48  1  0.197698  0.987270  0.899417  1
  O  O49  1  0.804362  0.586914  0.096874  1
