# generated using pymatgen
data_La8Er12Ga13Ge3
_symmetry_space_group_name_H-M   'P 1'
_cell_length_a   7.67243772
_cell_length_b   8.03711815
_cell_length_c   15.25435300
_cell_angle_alpha   90.03227964
_cell_angle_beta   89.91872854
_cell_angle_gamma   90.05631412
_symmetry_Int_Tables_number   1
_chemical_formula_structural   La8Er12Ga13Ge3
_chemical_formula_sum   'La8 Er12 Ga13 Ge3'
_cell_volume   940.64727435
_cell_formula_units_Z   1
loop_
 _symmetry_equiv_pos_site_id
 _symmetry_equiv_pos_as_xyz
  1  'x, y, z'
loop_
 _atom_site_type_symbol
 _atom_site_label
 _atom_site_symmetry_multiplicity
 _atom_site_fract_x
 _atom_site_fract_y
 _atom_site_fract_z
 _atom_site_occupancy
  La  La0  1  0.978722  0.819541  0.094365  1
  La  La1  1  0.478676  0.680840  0.406089  1
  La  La2  1  0.521194  0.322188  0.905334  1
  La  La3  1  0.020960  0.179907  0.594048  1
  La  La4  1  0.021437  0.176147  0.905137  1
  La  La5  1  0.520829  0.322007  0.594869  1
  La  La6  1  0.479186  0.679044  0.095346  1
  La  La7  1  0.979242  0.821674  0.405204  1
  Er  Er8  1  0.653768  0.990020  0.250350  1
  Er  Er9  1  0.153581  0.509227  0.249324  1
  Er  Er10  1  0.846329  0.490129  0.750133  1
  Er  Er11  1  0.347450  0.010040  0.750831  1
  Er  Er12  1  0.679675  0.824092  0.876807  1
  Er  Er13  1  0.180019  0.674801  0.622631  1
  Er  Er14  1  0.820130  0.326062  0.123004  1
  Er  Er15  1  0.320018  0.174299  0.377671  1
  Er  Er16  1  0.319660  0.174765  0.122365  1
  Er  Er17  1  0.818302  0.324316  0.378541  1
  Er  Er18  1  0.180899  0.675298  0.877239  1
  Er  Er19  1  0.681276  0.825098  0.621671  1
  Ga  Ga20  1  0.768755  0.620221  0.250979  1
  Ga  Ga21  1  0.268463  0.880450  0.250576  1
  Ga  Ga22  1  0.730319  0.119832  0.749478  1
  Ga  Ga23  1  0.230977  0.379199  0.749083  1
  Ga  Ga24  1  0.022693  0.114601  0.249710  1
  Ga  Ga25  1  0.523236  0.385400  0.252411  1
  Ga  Ga26  1  0.476432  0.614809  0.749848  1
  Ga  Ga27  1  0.976871  0.885455  0.748261  1
  Ga  Ga28  1  0.851180  0.532919  0.957554  1
  Ga  Ga29  1  0.348590  0.967975  0.542455  1
  Ga  Ga30  1  0.650944  0.033579  0.041529  1
  Ga  Ga31  1  0.150143  0.467543  0.457631  1
  Ga  Ga32  1  0.149282  0.466918  0.041087  1
  Ge  Ge33  1  0.649756  0.031900  0.458368  1
  Ge  Ge34  1  0.350415  0.967475  0.958040  1
  Ge  Ge35  1  0.850590  0.532228  0.542032  1
