# generated using pymatgen
data_Tb3PaIn2CuNi3
_symmetry_space_group_name_H-M   'P 1'
_cell_length_a   7.50846188
_cell_length_b   7.50846181
_cell_length_c   3.60024800
_cell_angle_alpha   90.00000000
_cell_angle_beta   90.00000000
_cell_angle_gamma   91.74260938
_symmetry_Int_Tables_number   1
_chemical_formula_structural   Tb3PaIn2CuNi3
_chemical_formula_sum   'Tb3 Pa1 In2 Cu1 Ni3'
_cell_volume   202.87730923
_cell_formula_units_Z   1
loop_
 _symmetry_equiv_pos_site_id
 _symmetry_equiv_pos_as_xyz
  1  'x, y, z'
loop_
 _atom_site_type_symbol
 _atom_site_label
 _atom_site_symmetry_multiplicity
 _atom_site_fract_x
 _atom_site_fract_y
 _atom_site_fract_z
 _atom_site_occupancy
  Tb  Tb0  1  0.331575  0.831575  0.500000  1
  Tb  Tb1  1  0.175117  0.319189  0.500000  1
  Tb  Tb2  1  0.819189  0.675117  0.500000  1
  Pa  Pa3  1  0.672015  0.172015  0.500000  1
  In  In4  1  0.498099  0.503261  0.000000  1
  In  In5  1  0.003261  0.998099  0.000000  1
  Cu  Cu6  1  0.111752  0.611752  0.000000  1
  Ni  Ni7  1  0.859255  0.359255  0.000000  1
  Ni  Ni8  1  0.632173  0.897565  0.000000  1
  Ni  Ni9  1  0.397565  0.132173  0.000000  1
