# generated using pymatgen
data_SrPrSm5OsBr12
_symmetry_space_group_name_H-M   'P 1'
_cell_length_a   9.55531290
_cell_length_b   9.46240954
_cell_length_c   9.46115795
_cell_angle_alpha   105.99672886
_cell_angle_beta   105.91309235
_cell_angle_gamma   106.55702936
_symmetry_Int_Tables_number   1
_chemical_formula_structural   SrPrSm5OsBr12
_chemical_formula_sum   'Sr1 Pr1 Sm5 Os1 Br12'
_cell_volume   728.18658586
_cell_formula_units_Z   1
loop_
 _symmetry_equiv_pos_site_id
 _symmetry_equiv_pos_as_xyz
  1  'x, y, z'
loop_
 _atom_site_type_symbol
 _atom_site_label
 _atom_site_symmetry_multiplicity
 _atom_site_fract_x
 _atom_site_fract_y
 _atom_site_fract_z
 _atom_site_occupancy
  Sr  Sr0  1  0.500153  0.499661  0.500558  1
  Pr  Pr1  1  0.101161  0.310399  0.017992  1
  Sm  Sm2  1  0.316049  0.020782  0.104382  1
  Sm  Sm3  1  0.018649  0.099164  0.304624  1
  Sm  Sm4  1  0.980781  0.898553  0.694430  1
  Sm  Sm5  1  0.683799  0.979903  0.895714  1
  Sm  Sm6  1  0.899577  0.694834  0.981258  1
  Os  Os7  1  0.999911  0.000402  0.999383  1
  Br  Br8  1  0.219035  0.684423  0.073187  1
  Br  Br9  1  0.452188  0.364694  0.149476  1
  Br  Br10  1  0.680717  0.072161  0.218828  1
  Br  Br11  1  0.928243  0.780905  0.319261  1
  Br  Br12  1  0.148633  0.446896  0.370718  1
  Br  Br13  1  0.362374  0.144771  0.444940  1
  Br  Br14  1  0.637466  0.854453  0.554823  1
  Br  Br15  1  0.852414  0.553334  0.636182  1
  Br  Br16  1  0.070203  0.213731  0.672883  1
  Br  Br17  1  0.319241  0.927286  0.781066  1
  Br  Br18  1  0.554646  0.635243  0.854213  1
  Br  Br19  1  0.774760  0.318407  0.926081  1
