# generated using pymatgen
data_La5PrNpO12
_symmetry_space_group_name_H-M   'P 1'
_cell_length_a   6.90597354
_cell_length_b   6.90101578
_cell_length_c   6.91231879
_cell_angle_alpha   98.67984735
_cell_angle_beta   98.65634971
_cell_angle_gamma   98.50059668
_symmetry_Int_Tables_number   1
_chemical_formula_structural   La5PrNpO12
_chemical_formula_sum   'La5 Pr1 Np1 O12'
_cell_volume   317.00697310
_cell_formula_units_Z   1
loop_
 _symmetry_equiv_pos_site_id
 _symmetry_equiv_pos_as_xyz
  1  'x, y, z'
loop_
 _atom_site_type_symbol
 _atom_site_label
 _atom_site_symmetry_multiplicity
 _atom_site_fract_x
 _atom_site_fract_y
 _atom_site_fract_z
 _atom_site_occupancy
  La  La0  1  0.606000  0.144276  0.310013  1
  La  La1  1  0.393324  0.855262  0.689513  1
  La  La2  1  0.689552  0.393780  0.856092  1
  La  La3  1  0.856064  0.689493  0.393043  1
  La  La4  1  0.144381  0.310864  0.606782  1
  Pr  Pr5  1  0.311320  0.609457  0.144299  1
  Np  Np6  1  0.000578  0.000239  0.000391  1
  O  O7  1  0.437549  0.176973  0.593188  1
  O  O8  1  0.931711  0.704965  0.041880  1
  O  O9  1  0.176447  0.592245  0.436438  1
  O  O10  1  0.822447  0.407016  0.562817  1
  O  O11  1  0.561596  0.822236  0.405374  1
  O  O12  1  0.590866  0.437428  0.177047  1
  O  O13  1  0.406336  0.563013  0.822377  1
  O  O14  1  0.958026  0.068872  0.294353  1
  O  O15  1  0.041788  0.930938  0.705746  1
  O  O16  1  0.705605  0.042102  0.930769  1
  O  O17  1  0.070828  0.295680  0.960224  1
  O  O18  1  0.295583  0.955160  0.069653  1
