# generated using pymatgen
data_La20ZnBi8Rh3
_symmetry_space_group_name_H-M   'P 1'
_cell_length_a   8.49623006
_cell_length_b   9.46766900
_cell_length_c   13.03499501
_cell_angle_alpha   90.00000000
_cell_angle_beta   90.16415460
_cell_angle_gamma   90.00000000
_symmetry_Int_Tables_number   1
_chemical_formula_structural   La20ZnBi8Rh3
_chemical_formula_sum   'La20 Zn1 Bi8 Rh3'
_cell_volume   1048.52409928
_cell_formula_units_Z   1
loop_
 _symmetry_equiv_pos_site_id
 _symmetry_equiv_pos_as_xyz
  1  'x, y, z'
loop_
 _atom_site_type_symbol
 _atom_site_label
 _atom_site_symmetry_multiplicity
 _atom_site_fract_x
 _atom_site_fract_y
 _atom_site_fract_z
 _atom_site_occupancy
  La  La0  1  0.337105  0.750000  0.713885  1
  La  La1  1  0.651913  0.250000  0.293877  1
  La  La2  1  0.847054  0.250000  0.794813  1
  La  La3  1  0.150525  0.750000  0.204586  1
  La  La4  1  0.875859  0.750000  0.804647  1
  La  La5  1  0.124339  0.250000  0.196088  1
  La  La6  1  0.374002  0.250000  0.696601  1
  La  La7  1  0.636062  0.750000  0.292940  1
  La  La8  1  0.687700  0.526202  0.563073  1
  La  La9  1  0.314825  0.451857  0.438045  1
  La  La10  1  0.181712  0.461189  0.937249  1
  La  La11  1  0.314825  0.048143  0.438045  1
  La  La12  1  0.817525  0.539946  0.064377  1
  La  La13  1  0.687700  0.973798  0.563073  1
  La  La14  1  0.817525  0.960054  0.064377  1
  La  La15  1  0.181712  0.038811  0.937249  1
  La  La16  1  0.037893  0.750000  0.500894  1
  La  La17  1  0.959769  0.250000  0.499905  1
  La  La18  1  0.551755  0.250000  0.003699  1
  La  La19  1  0.455751  0.750000  0.997667  1
  Zn  Zn20  1  0.426848  0.750000  0.484546  1
  Bi  Bi21  1  0.571627  0.506221  0.826821  1
  Bi  Bi22  1  0.423435  0.493968  0.174199  1
  Bi  Bi23  1  0.073545  0.492563  0.673285  1
  Bi  Bi24  1  0.423435  0.006032  0.174199  1
  Bi  Bi25  1  0.926873  0.506442  0.326305  1
  Bi  Bi26  1  0.571627  0.993779  0.826821  1
  Bi  Bi27  1  0.926873  0.993558  0.326305  1
  Bi  Bi28  1  0.073545  0.007437  0.673285  1
  Rh  Rh29  1  0.073872  0.750000  0.986460  1
  Rh  Rh30  1  0.924406  0.250000  0.010238  1
  Rh  Rh31  1  0.578361  0.250000  0.512443  1
