# generated using pymatgen
data_NdCuPtO4
_symmetry_space_group_name_H-M   'P 1'
_cell_length_a   6.59138102
_cell_length_b   6.59138155
_cell_length_c   6.46240798
_cell_angle_alpha   127.67645296
_cell_angle_beta   125.06497945
_cell_angle_gamma   80.64759799
_symmetry_Int_Tables_number   1
_chemical_formula_structural   NdCuPtO4
_chemical_formula_sum   'Nd2 Cu2 Pt2 O8'
_cell_volume   174.00635549
_cell_formula_units_Z   2
loop_
 _symmetry_equiv_pos_site_id
 _symmetry_equiv_pos_as_xyz
  1  'x, y, z'
loop_
 _atom_site_type_symbol
 _atom_site_label
 _atom_site_symmetry_multiplicity
 _atom_site_fract_x
 _atom_site_fract_y
 _atom_site_fract_z
 _atom_site_occupancy
  Nd  Nd0  1  0.999816  0.999816  0.000000  1
  Nd  Nd1  1  0.750184  0.250184  0.500000  1
  Cu  Cu2  1  0.875000  0.625000  0.250000  1
  Cu  Cu3  1  0.375000  0.625000  0.750000  1
  Pt  Pt4  1  0.375000  0.125000  0.750000  1
  Pt  Pt5  1  0.375000  0.625000  0.250000  1
  O  O6  1  0.153151  0.601668  0.847962  1
  O  O7  1  0.753706  0.305189  0.152038  1
  O  O8  1  0.596849  0.648332  0.652038  1
  O  O9  1  0.996294  0.944811  0.347962  1
  O  O10  1  0.344706  0.976778  0.930862  1
  O  O11  1  0.045916  0.413844  0.069138  1
  O  O12  1  0.704084  0.836156  0.430862  1
  O  O13  1  0.405294  0.273222  0.569138  1
