# generated using pymatgen
data_Tm2Si3Ir
_symmetry_space_group_name_H-M   'P 1'
_cell_length_a   8.13897500
_cell_length_b   8.13897465
_cell_length_c   7.77221900
_cell_angle_alpha   90.00000000
_cell_angle_beta   90.00000000
_cell_angle_gamma   119.99999734
_symmetry_Int_Tables_number   1
_chemical_formula_structural   Tm2Si3Ir
_chemical_formula_sum   'Tm8 Si12 Ir4'
_cell_volume   445.87701313
_cell_formula_units_Z   4
loop_
 _symmetry_equiv_pos_site_id
 _symmetry_equiv_pos_as_xyz
  1  'x, y, z'
loop_
 _atom_site_type_symbol
 _atom_site_label
 _atom_site_symmetry_multiplicity
 _atom_site_fract_x
 _atom_site_fract_y
 _atom_site_fract_z
 _atom_site_occupancy
  Tm  Tm0  1  0.512034  0.024066  0.250000  1
  Tm  Tm1  1  0.487966  0.975934  0.750000  1
  Tm  Tm2  1  0.975934  0.487966  0.250000  1
  Tm  Tm3  1  0.024066  0.512034  0.750000  1
  Tm  Tm4  1  0.512034  0.487966  0.250000  1
  Tm  Tm5  1  0.487966  0.512034  0.750000  1
  Tm  Tm6  1  0.000000  0.000000  0.250000  1
  Tm  Tm7  1  0.000000  0.000000  0.750000  1
  Si  Si8  1  0.166682  0.333365  0.002834  1
  Si  Si9  1  0.833318  0.666635  0.997166  1
  Si  Si10  1  0.666635  0.833318  0.002834  1
  Si  Si11  1  0.833318  0.666635  0.502834  1
  Si  Si12  1  0.333365  0.166682  0.997166  1
  Si  Si13  1  0.166682  0.333365  0.497166  1
  Si  Si14  1  0.166682  0.833318  0.002834  1
  Si  Si15  1  0.333365  0.166682  0.502834  1
  Si  Si16  1  0.833318  0.166682  0.997166  1
  Si  Si17  1  0.666635  0.833318  0.497166  1
  Si  Si18  1  0.833318  0.166682  0.502834  1
  Si  Si19  1  0.166682  0.833318  0.497166  1
  Ir  Ir20  1  0.333333  0.666667  0.039086  1
  Ir  Ir21  1  0.666667  0.333333  0.960914  1
  Ir  Ir22  1  0.666667  0.333333  0.539086  1
  Ir  Ir23  1  0.333333  0.666667  0.460914  1
