# generated using pymatgen
data_Ni3Ag4IO8
_symmetry_space_group_name_H-M   'P 1'
_cell_length_a   5.37109516
_cell_length_b   6.26557255
_cell_length_c   7.35963944
_cell_angle_alpha   64.20071861
_cell_angle_beta   104.76614127
_cell_angle_gamma   89.98085724
_symmetry_Int_Tables_number   1
_chemical_formula_structural   Ni3Ag4IO8
_chemical_formula_sum   'Ni3 Ag4 I1 O8'
_cell_volume   213.85436070
_cell_formula_units_Z   1
loop_
 _symmetry_equiv_pos_site_id
 _symmetry_equiv_pos_as_xyz
  1  'x, y, z'
loop_
 _atom_site_type_symbol
 _atom_site_label
 _atom_site_symmetry_multiplicity
 _atom_site_fract_x
 _atom_site_fract_y
 _atom_site_fract_z
 _atom_site_occupancy
  Ni  Ni0  1  0.000453  0.013374  0.499931  1
  Ni  Ni1  1  0.500073  0.249607  0.500051  1
  Ni  Ni2  1  0.999555  0.487479  0.499928  1
  Ag  Ag3  1  0.998166  0.004327  0.990711  1
  Ag  Ag4  1  0.499913  0.249979  0.000029  1
  Ag  Ag5  1  0.001825  0.495782  0.009286  1
  Ag  Ag6  1  0.500082  0.749986  0.000002  1
  I  I7  1  0.499979  0.749884  0.500022  1
  O  O8  1  0.879412  0.664096  0.667723  1
  O  O9  1  0.396698  0.902673  0.666750  1
  O  O10  1  0.885207  0.166837  0.662430  1
  O  O11  1  0.396739  0.425770  0.666575  1
  O  O12  1  0.120525  0.835953  0.332276  1
  O  O13  1  0.603229  0.073981  0.333468  1
  O  O14  1  0.114846  0.333212  0.337552  1
  O  O15  1  0.603301  0.597062  0.333267  1
