# generated using pymatgen
data_Sr5LiMo2Br2N7
_symmetry_space_group_name_H-M   'P 1'
_cell_length_a   10.91460012
_cell_length_b   5.99912200
_cell_length_c   10.94347001
_cell_angle_alpha   90.00000000
_cell_angle_beta   94.48029400
_cell_angle_gamma   90.00000000
_symmetry_Int_Tables_number   1
_chemical_formula_structural   Sr5LiMo2Br2N7
_chemical_formula_sum   'Sr10 Li2 Mo4 Br4 N14'
_cell_volume   714.36711171
_cell_formula_units_Z   2
loop_
 _symmetry_equiv_pos_site_id
 _symmetry_equiv_pos_as_xyz
  1  'x, y, z'
loop_
 _atom_site_type_symbol
 _atom_site_label
 _atom_site_symmetry_multiplicity
 _atom_site_fract_x
 _atom_site_fract_y
 _atom_site_fract_z
 _atom_site_occupancy
  Sr  Sr0  1  0.200698  0.250000  0.120560  1
  Sr  Sr1  1  0.512915  0.750000  0.125706  1
  Sr  Sr2  1  0.807272  0.250000  0.305445  1
  Sr  Sr3  1  0.021666  0.750000  0.375091  1
  Sr  Sr4  1  0.378559  0.750000  0.443709  1
  Sr  Sr5  1  0.621442  0.250000  0.556291  1
  Sr  Sr6  1  0.978335  0.250000  0.624909  1
  Sr  Sr7  1  0.192728  0.750000  0.694554  1
  Sr  Sr8  1  0.487085  0.250000  0.874293  1
  Sr  Sr9  1  0.799302  0.750000  0.879440  1
  Li  Li10  1  0.673810  0.750000  0.377871  1
  Li  Li11  1  0.326190  0.250000  0.622129  1
  Mo  Mo12  1  0.476942  0.250000  0.271771  1
  Mo  Mo13  1  0.169099  0.250000  0.412416  1
  Mo  Mo14  1  0.830901  0.750000  0.587583  1
  Mo  Mo15  1  0.523057  0.750000  0.728229  1
  Br  Br16  1  0.212331  0.750000  0.139656  1
  Br  Br17  1  0.809437  0.750000  0.161862  1
  Br  Br18  1  0.190563  0.250000  0.838138  1
  Br  Br19  1  0.787669  0.250000  0.860344  1
  N  N20  1  0.446175  0.250000  0.101032  1
  N  N21  1  0.042951  0.250000  0.287530  1
  N  N22  1  0.560644  0.999141  0.331497  1
  N  N23  1  0.560644  0.500859  0.331497  1
  N  N24  1  0.317635  0.250000  0.332031  1
  N  N25  1  0.837012  0.502569  0.487085  1
  N  N26  1  0.837012  0.997432  0.487085  1
  N  N27  1  0.162988  0.002569  0.512916  1
  N  N28  1  0.162988  0.497433  0.512916  1
  N  N29  1  0.682365  0.750000  0.667968  1
  N  N30  1  0.439356  0.499141  0.668503  1
  N  N31  1  0.439356  0.000858  0.668503  1
  N  N32  1  0.957050  0.750000  0.712470  1
  N  N33  1  0.553825  0.750000  0.898967  1
