# generated using pymatgen
data_Dy4Cd3Au10
_symmetry_space_group_name_H-M   'P 1'
_cell_length_a   8.58826326
_cell_length_b   8.58826075
_cell_length_c   10.22907000
_cell_angle_alpha   90.00000000
_cell_angle_beta   90.00000000
_cell_angle_gamma   108.18549992
_symmetry_Int_Tables_number   1
_chemical_formula_structural   Dy4Cd3Au10
_chemical_formula_sum   'Dy8 Cd6 Au20'
_cell_volume   716.79285894
_cell_formula_units_Z   2
loop_
 _symmetry_equiv_pos_site_id
 _symmetry_equiv_pos_as_xyz
  1  'x, y, z'
loop_
 _atom_site_type_symbol
 _atom_site_label
 _atom_site_symmetry_multiplicity
 _atom_site_fract_x
 _atom_site_fract_y
 _atom_site_fract_z
 _atom_site_occupancy
  Dy  Dy0  1  0.698875  0.301125  0.000000  1
  Dy  Dy1  1  0.198875  0.801125  0.500000  1
  Dy  Dy2  1  0.804299  0.804299  0.297292  1
  Dy  Dy3  1  0.304299  0.304299  0.202708  1
  Dy  Dy4  1  0.801125  0.198875  0.500000  1
  Dy  Dy5  1  0.301125  0.698875  0.000000  1
  Dy  Dy6  1  0.695701  0.695701  0.797292  1
  Dy  Dy7  1  0.195701  0.195701  0.702708  1
  Cd  Cd8  1  0.521033  0.021033  0.250000  1
  Cd  Cd9  1  0.978967  0.478967  0.750000  1
  Cd  Cd10  1  0.000000  0.000000  0.000000  1
  Cd  Cd11  1  0.021033  0.521033  0.250000  1
  Cd  Cd12  1  0.478967  0.978967  0.750000  1
  Cd  Cd13  1  0.500000  0.500000  0.500000  1
  Au  Au14  1  0.148744  0.430387  0.489019  1
  Au  Au15  1  0.900254  0.900254  0.595374  1
  Au  Au16  1  0.569613  0.851256  0.510981  1
  Au  Au17  1  0.881699  0.163494  0.210552  1
  Au  Au18  1  0.381699  0.663494  0.289448  1
  Au  Au19  1  0.663494  0.381699  0.289448  1
  Au  Au20  1  0.400254  0.400254  0.904626  1
  Au  Au21  1  0.930387  0.648744  0.010981  1
  Au  Au22  1  0.336506  0.618301  0.710552  1
  Au  Au23  1  0.351256  0.069613  0.989019  1
  Au  Au24  1  0.599746  0.599746  0.095374  1
  Au  Au25  1  0.648744  0.930387  0.010981  1
  Au  Au26  1  0.099746  0.099746  0.404626  1
  Au  Au27  1  0.618301  0.336506  0.710552  1
  Au  Au28  1  0.118301  0.836506  0.789448  1
  Au  Au29  1  0.069613  0.351256  0.989019  1
  Au  Au30  1  0.851256  0.569613  0.510981  1
  Au  Au31  1  0.163494  0.881699  0.210552  1
  Au  Au32  1  0.430387  0.148744  0.489019  1
  Au  Au33  1  0.836506  0.118301  0.789448  1
