# generated using pymatgen
data_NaCe3Co12(P3Rh2)4
_symmetry_space_group_name_H-M   'P 1'
_cell_length_a   3.74636000
_cell_length_b   10.58781402
_cell_length_c   12.06819403
_cell_angle_alpha   90.00745477
_cell_angle_beta   90.00000000
_cell_angle_gamma   90.00000000
_symmetry_Int_Tables_number   1
_chemical_formula_structural   NaCe3Co12(P3Rh2)4
_chemical_formula_sum   'Na1 Ce3 Co12 P12 Rh8'
_cell_volume   478.69411929
_cell_formula_units_Z   1
loop_
 _symmetry_equiv_pos_site_id
 _symmetry_equiv_pos_as_xyz
  1  'x, y, z'
loop_
 _atom_site_type_symbol
 _atom_site_label
 _atom_site_symmetry_multiplicity
 _atom_site_fract_x
 _atom_site_fract_y
 _atom_site_fract_z
 _atom_site_occupancy
  Na  Na0  1  0.250000  0.585087  0.709158  1
  Ce  Ce1  1  0.250000  0.915143  0.209701  1
  Ce  Ce2  1  0.750000  0.414872  0.289250  1
  Ce  Ce3  1  0.750000  0.085320  0.791049  1
  Co  Co4  1  0.250000  0.220647  0.178307  1
  Co  Co5  1  0.250000  0.279843  0.676317  1
  Co  Co6  1  0.750000  0.780176  0.822369  1
  Co  Co7  1  0.750000  0.720229  0.322384  1
  Co  Co8  1  0.250000  0.882150  0.696539  1
  Co  Co9  1  0.250000  0.615729  0.197277  1
  Co  Co10  1  0.750000  0.117142  0.304300  1
  Co  Co11  1  0.750000  0.383093  0.801827  1
  Co  Co12  1  0.250000  0.468304  0.928983  1
  Co  Co13  1  0.250000  0.034776  0.431941  1
  Co  Co14  1  0.750000  0.536258  0.066096  1
  Co  Co15  1  0.750000  0.961885  0.570327  1
  P  P16  1  0.250000  0.420979  0.106318  1
  P  P17  1  0.250000  0.078312  0.609896  1
  P  P18  1  0.750000  0.579718  0.885139  1
  P  P19  1  0.750000  0.920618  0.391120  1
  P  P20  1  0.250000  0.281172  0.861461  1
  P  P21  1  0.250000  0.221324  0.363558  1
  P  P22  1  0.750000  0.720780  0.137723  1
  P  P23  1  0.750000  0.770968  0.638579  1
  P  P24  1  0.250000  0.606435  0.382995  1
  P  P25  1  0.250000  0.891105  0.879443  1
  P  P26  1  0.750000  0.399242  0.620976  1
  P  P27  1  0.750000  0.107644  0.120466  1
  Rh  Rh28  1  0.250000  0.712122  0.988853  1
  Rh  Rh29  1  0.250000  0.788905  0.488616  1
  Rh  Rh30  1  0.750000  0.289131  0.014095  1
  Rh  Rh31  1  0.750000  0.212083  0.515083  1
  Rh  Rh32  1  0.250000  0.405373  0.480884  1
  Rh  Rh33  1  0.250000  0.093436  0.979527  1
  Rh  Rh34  1  0.750000  0.592973  0.519136  1
  Rh  Rh35  1  0.750000  0.907025  0.020305  1
