# generated using pymatgen
data_CaGd6RhCl12
_symmetry_space_group_name_H-M   'P 1'
_cell_length_a   9.09655710
_cell_length_b   9.09655601
_cell_length_c   9.09655547
_cell_angle_alpha   106.90192556
_cell_angle_beta   106.90192799
_cell_angle_gamma   106.90191996
_symmetry_Int_Tables_number   1
_chemical_formula_structural   CaGd6RhCl12
_chemical_formula_sum   'Ca1 Gd6 Rh1 Cl12'
_cell_volume   628.53848154
_cell_formula_units_Z   1
loop_
 _symmetry_equiv_pos_site_id
 _symmetry_equiv_pos_as_xyz
  1  'x, y, z'
loop_
 _atom_site_type_symbol
 _atom_site_label
 _atom_site_symmetry_multiplicity
 _atom_site_fract_x
 _atom_site_fract_y
 _atom_site_fract_z
 _atom_site_occupancy
  Ca  Ca0  1  0.500000  0.500000  0.500000  1
  Gd  Gd1  1  0.321528  0.111395  0.021173  1
  Gd  Gd2  1  0.021173  0.321528  0.111395  1
  Gd  Gd3  1  0.111395  0.021173  0.321528  1
  Gd  Gd4  1  0.678472  0.888605  0.978827  1
  Gd  Gd5  1  0.978827  0.678472  0.888605  1
  Gd  Gd6  1  0.888605  0.978827  0.678472  1
  Rh  Rh7  1  0.000000  0.000000  0.000000  1
  Cl  Cl8  1  0.679420  0.210696  0.070038  1
  Cl  Cl9  1  0.070038  0.679420  0.210696  1
  Cl  Cl10  1  0.210696  0.070038  0.679420  1
  Cl  Cl11  1  0.320580  0.789304  0.929962  1
  Cl  Cl12  1  0.929962  0.320580  0.789304  1
  Cl  Cl13  1  0.789304  0.929962  0.320580  1
  Cl  Cl14  1  0.451424  0.166821  0.370628  1
  Cl  Cl15  1  0.370628  0.451424  0.166821  1
  Cl  Cl16  1  0.166821  0.370628  0.451424  1
  Cl  Cl17  1  0.548576  0.833179  0.629372  1
  Cl  Cl18  1  0.629372  0.548576  0.833179  1
  Cl  Cl19  1  0.833179  0.629372  0.548576  1
