# generated using pymatgen
data_ScPaNi2Pb
_symmetry_space_group_name_H-M   'P 1'
_cell_length_a   7.45608800
_cell_length_b   7.42570700
_cell_length_c   3.46611100
_cell_angle_alpha   90.00000000
_cell_angle_beta   90.00000000
_cell_angle_gamma   90.00000000
_symmetry_Int_Tables_number   1
_chemical_formula_structural   ScPaNi2Pb
_chemical_formula_sum   'Sc2 Pa2 Ni4 Pb2'
_cell_volume   191.90721405
_cell_formula_units_Z   2
loop_
 _symmetry_equiv_pos_site_id
 _symmetry_equiv_pos_as_xyz
  1  'x, y, z'
loop_
 _atom_site_type_symbol
 _atom_site_label
 _atom_site_symmetry_multiplicity
 _atom_site_fract_x
 _atom_site_fract_y
 _atom_site_fract_z
 _atom_site_occupancy
  Sc  Sc0  1  0.829863  0.667743  0.500000  1
  Sc  Sc1  1  0.329863  0.832257  0.500000  1
  Pa  Pa2  1  0.667953  0.166774  0.500000  1
  Pa  Pa3  1  0.167953  0.333226  0.500000  1
  Ni  Ni4  1  0.873972  0.368712  0.000000  1
  Ni  Ni5  1  0.373972  0.131288  0.000000  1
  Ni  Ni6  1  0.623402  0.891349  0.000000  1
  Ni  Ni7  1  0.123402  0.608651  0.000000  1
  Pb  Pb8  1  0.004809  0.974931  0.000000  1
  Pb  Pb9  1  0.504809  0.525069  0.000000  1
