# generated using pymatgen
data_Dy3Er5In3Os
_symmetry_space_group_name_H-M   'P 1'
_cell_length_a   10.33715600
_cell_length_b   10.33715626
_cell_length_c   7.06879500
_cell_angle_alpha   90.00000000
_cell_angle_beta   90.00000000
_cell_angle_gamma   119.99999917
_symmetry_Int_Tables_number   1
_chemical_formula_structural   Dy3Er5In3Os
_chemical_formula_sum   'Dy6 Er10 In6 Os2'
_cell_volume   654.15124756
_cell_formula_units_Z   2
loop_
 _symmetry_equiv_pos_site_id
 _symmetry_equiv_pos_as_xyz
  1  'x, y, z'
loop_
 _atom_site_type_symbol
 _atom_site_label
 _atom_site_symmetry_multiplicity
 _atom_site_fract_x
 _atom_site_fract_y
 _atom_site_fract_z
 _atom_site_occupancy
  Dy  Dy0  1  0.532854  0.065707  0.793707  1
  Dy  Dy1  1  0.934293  0.467146  0.793707  1
  Dy  Dy2  1  0.532854  0.467146  0.793707  1
  Dy  Dy3  1  0.467146  0.934293  0.293707  1
  Dy  Dy4  1  0.065707  0.532854  0.293707  1
  Dy  Dy5  1  0.467146  0.532854  0.293707  1
  Er  Er6  1  0.822805  0.645610  0.498753  1
  Er  Er7  1  0.354390  0.177195  0.498753  1
  Er  Er8  1  0.822805  0.177195  0.498753  1
  Er  Er9  1  0.177195  0.354390  0.998753  1
  Er  Er10  1  0.645610  0.822805  0.998753  1
  Er  Er11  1  0.177195  0.822805  0.998753  1
  Er  Er12  1  0.666667  0.333333  0.173126  1
  Er  Er13  1  0.333333  0.666667  0.673126  1
  Er  Er14  1  0.000000  0.000000  0.778036  1
  Er  Er15  1  0.000000  0.000000  0.278036  1
  In  In16  1  0.837144  0.674289  0.039962  1
  In  In17  1  0.325711  0.162856  0.039962  1
  In  In18  1  0.837144  0.162856  0.039962  1
  In  In19  1  0.162856  0.325711  0.539962  1
  In  In20  1  0.674289  0.837144  0.539962  1
  In  In21  1  0.162856  0.837144  0.539962  1
  Os  Os22  1  0.666667  0.333333  0.569522  1
  Os  Os23  1  0.333333  0.666667  0.069522  1
