# generated using pymatgen
data_Ho4Er2P13Rh20
_symmetry_space_group_name_H-M   'P 1'
_cell_length_a   13.32551002
_cell_length_b   13.32520108
_cell_length_c   3.91452200
_cell_angle_alpha   89.99702815
_cell_angle_beta   90.00324563
_cell_angle_gamma   119.99531448
_symmetry_Int_Tables_number   1
_chemical_formula_structural   Ho4Er2P13Rh20
_chemical_formula_sum   'Ho4 Er2 P13 Rh20'
_cell_volume   601.98751450
_cell_formula_units_Z   1
loop_
 _symmetry_equiv_pos_site_id
 _symmetry_equiv_pos_as_xyz
  1  'x, y, z'
loop_
 _atom_site_type_symbol
 _atom_site_label
 _atom_site_symmetry_multiplicity
 _atom_site_fract_x
 _atom_site_fract_y
 _atom_site_fract_z
 _atom_site_occupancy
  Ho  Ho0  1  0.529191  0.717512  0.248581  1
  Ho  Ho1  1  0.282474  0.811668  0.248583  1
  Ho  Ho2  1  0.188343  0.470797  0.248588  1
  Ho  Ho3  1  0.470871  0.282503  0.751422  1
  Er  Er4  1  0.717503  0.188364  0.751458  1
  Er  Er5  1  0.811655  0.529194  0.751409  1
  P  P6  1  0.526789  0.139612  0.250237  1
  P  P7  1  0.860265  0.387025  0.250318  1
  P  P8  1  0.613100  0.473425  0.250209  1
  P  P9  1  0.944430  0.713951  0.254333  1
  P  P10  1  0.285831  0.230416  0.254334  1
  P  P11  1  0.769494  0.055536  0.254313  1
  P  P12  1  0.387047  0.526563  0.749741  1
  P  P13  1  0.473432  0.860468  0.749773  1
  P  P14  1  0.139542  0.612972  0.749734  1
  P  P15  1  0.714152  0.769604  0.745703  1
  P  P16  1  0.230452  0.944598  0.745646  1
  P  P17  1  0.055416  0.285830  0.745694  1
  P  P18  1  0.999991  0.999997  0.999973  1
  Rh  Rh19  1  0.333318  0.666657  0.751685  1
  Rh  Rh20  1  0.920831  0.250429  0.253433  1
  Rh  Rh21  1  0.749596  0.670410  0.253441  1
  Rh  Rh22  1  0.329395  0.078876  0.253356  1
  Rh  Rh23  1  0.438468  0.022180  0.751288  1
  Rh  Rh24  1  0.977731  0.416201  0.751298  1
  Rh  Rh25  1  0.583863  0.561624  0.751296  1
  Rh  Rh26  1  0.666951  0.333389  0.248373  1
  Rh  Rh27  1  0.094551  0.187140  0.247924  1
  Rh  Rh28  1  0.812852  0.907425  0.247958  1
  Rh  Rh29  1  0.092574  0.905442  0.247908  1
  Rh  Rh30  1  0.021933  0.583721  0.248663  1
  Rh  Rh31  1  0.416213  0.438358  0.248713  1
  Rh  Rh32  1  0.561802  0.978077  0.248676  1
  Rh  Rh33  1  0.670644  0.921232  0.746575  1
  Rh  Rh34  1  0.078814  0.749414  0.746598  1
  Rh  Rh35  1  0.250510  0.329376  0.746571  1
  Rh  Rh36  1  0.905463  0.812875  0.752083  1
  Rh  Rh37  1  0.187141  0.092621  0.752049  1
  Rh  Rh38  1  0.907371  0.094519  0.752062  1
