# generated using pymatgen
data_Sr2Al(SiIr2)3
_symmetry_space_group_name_H-M   'P 1'
_cell_length_a   6.80096850
_cell_length_b   6.77237254
_cell_length_c   6.80096868
_cell_angle_alpha   129.73808829
_cell_angle_beta   115.77748994
_cell_angle_gamma   85.88431478
_symmetry_Int_Tables_number   1
_chemical_formula_structural   Sr2Al(SiIr2)3
_chemical_formula_sum   'Sr2 Al1 Si3 Ir6'
_cell_volume   207.06296434
_cell_formula_units_Z   1
loop_
 _symmetry_equiv_pos_site_id
 _symmetry_equiv_pos_as_xyz
  1  'x, y, z'
loop_
 _atom_site_type_symbol
 _atom_site_label
 _atom_site_symmetry_multiplicity
 _atom_site_fract_x
 _atom_site_fract_y
 _atom_site_fract_z
 _atom_site_occupancy
  Sr  Sr0  1  0.250158  0.977434  0.727276  1
  Sr  Sr1  1  0.750998  0.005824  0.254827  1
  Al  Al2  1  0.092875  0.308150  0.215275  1
  Si  Si3  1  0.938141  0.741601  0.803461  1
  Si  Si4  1  0.395442  0.618275  0.222833  1
  Si  Si5  1  0.571069  0.367486  0.796417  1
  Ir  Ir6  1  0.532683  0.495406  0.522644  1
  Ir  Ir7  1  0.972763  0.495406  0.962723  1
  Ir  Ir8  1  0.285697  0.997713  0.279786  1
  Ir  Ir9  1  0.717927  0.997713  0.712016  1
  Ir  Ir10  1  0.229410  0.497495  0.734658  1
  Ir  Ir11  1  0.762837  0.497495  0.268085  1
