# generated using pymatgen
data_Er3ZnCdIn3Ir
_symmetry_space_group_name_H-M   'P 1'
_cell_length_a   7.87914100
_cell_length_b   7.87914102
_cell_length_c   3.79952800
_cell_angle_alpha   90.00000000
_cell_angle_beta   90.00000000
_cell_angle_gamma   120.00000412
_symmetry_Int_Tables_number   1
_chemical_formula_structural   Er3ZnCdIn3Ir
_chemical_formula_sum   'Er3 Zn1 Cd1 In3 Ir1'
_cell_volume   204.27631218
_cell_formula_units_Z   1
loop_
 _symmetry_equiv_pos_site_id
 _symmetry_equiv_pos_as_xyz
  1  'x, y, z'
loop_
 _atom_site_type_symbol
 _atom_site_label
 _atom_site_symmetry_multiplicity
 _atom_site_fract_x
 _atom_site_fract_y
 _atom_site_fract_z
 _atom_site_occupancy
  Er  Er0  1  0.382893  0.964461  0.500000  1
  Er  Er1  1  0.035539  0.418432  0.500000  1
  Er  Er2  1  0.581568  0.617107  0.500000  1
  Zn  Zn3  1  0.000000  0.000000  0.500000  1
  Cd  Cd4  1  0.666667  0.333333  0.000000  1
  In  In5  1  0.740141  0.002388  0.000000  1
  In  In6  1  0.997612  0.737752  0.000000  1
  In  In7  1  0.262248  0.259859  0.000000  1
  Ir  Ir8  1  0.333333  0.666667  0.000000  1
