# generated using pymatgen
data_Y20Cd6FeTc
_symmetry_space_group_name_H-M   'P 1'
_cell_length_a   9.64142200
_cell_length_b   9.64142117
_cell_length_c   9.88663100
_cell_angle_alpha   90.00000000
_cell_angle_beta   90.00000000
_cell_angle_gamma   119.99999598
_symmetry_Int_Tables_number   1
_chemical_formula_structural   Y20Cd6FeTc
_chemical_formula_sum   'Y20 Cd6 Fe1 Tc1'
_cell_volume   795.90479539
_cell_formula_units_Z   1
loop_
 _symmetry_equiv_pos_site_id
 _symmetry_equiv_pos_as_xyz
  1  'x, y, z'
loop_
 _atom_site_type_symbol
 _atom_site_label
 _atom_site_symmetry_multiplicity
 _atom_site_fract_x
 _atom_site_fract_y
 _atom_site_fract_z
 _atom_site_occupancy
  Y  Y0  1  0.000000  0.000000  0.499514  1
  Y  Y1  1  0.000000  0.000000  0.000486  1
  Y  Y2  1  0.212660  0.787340  0.437345  1
  Y  Y3  1  0.212660  0.425320  0.437345  1
  Y  Y4  1  0.574680  0.787340  0.437345  1
  Y  Y5  1  0.790263  0.209737  0.558756  1
  Y  Y6  1  0.790263  0.580527  0.558756  1
  Y  Y7  1  0.419473  0.209737  0.558756  1
  Y  Y8  1  0.790263  0.209737  0.941244  1
  Y  Y9  1  0.790263  0.580527  0.941244  1
  Y  Y10  1  0.419473  0.209737  0.941244  1
  Y  Y11  1  0.212660  0.787340  0.062655  1
  Y  Y12  1  0.212660  0.425320  0.062655  1
  Y  Y13  1  0.574680  0.787340  0.062655  1
  Y  Y14  1  0.540030  0.459970  0.250000  1
  Y  Y15  1  0.540030  0.080062  0.250000  1
  Y  Y16  1  0.919938  0.459970  0.250000  1
  Y  Y17  1  0.459729  0.540271  0.750000  1
  Y  Y18  1  0.459729  0.919456  0.750000  1
  Y  Y19  1  0.080544  0.540271  0.750000  1
  Cd  Cd20  1  0.885882  0.114118  0.250000  1
  Cd  Cd21  1  0.885882  0.771764  0.250000  1
  Cd  Cd22  1  0.228236  0.114118  0.250000  1
  Cd  Cd23  1  0.114437  0.885563  0.750000  1
  Cd  Cd24  1  0.114437  0.228873  0.750000  1
  Cd  Cd25  1  0.771127  0.885563  0.750000  1
  Fe  Fe26  1  0.333333  0.666667  0.250000  1
  Tc  Tc27  1  0.666667  0.333333  0.750000  1
