# generated using pymatgen
data_Ba6DyNp3O14
_symmetry_space_group_name_H-M   'P 1'
_cell_length_a   11.30972200
_cell_length_b   11.30735836
_cell_length_c   6.09446100
_cell_angle_alpha   90.00000000
_cell_angle_beta   90.00000000
_cell_angle_gamma   147.98959102
_symmetry_Int_Tables_number   1
_chemical_formula_structural   Ba6DyNp3O14
_chemical_formula_sum   'Ba6 Dy1 Np3 O14'
_cell_volume   413.12771882
_cell_formula_units_Z   1
loop_
 _symmetry_equiv_pos_site_id
 _symmetry_equiv_pos_as_xyz
  1  'x, y, z'
loop_
 _atom_site_type_symbol
 _atom_site_label
 _atom_site_symmetry_multiplicity
 _atom_site_fract_x
 _atom_site_fract_y
 _atom_site_fract_z
 _atom_site_occupancy
  Ba  Ba0  1  0.051653  0.426168  0.750000  1
  Ba  Ba1  1  0.577405  0.952303  0.250000  1
  Ba  Ba2  1  0.948582  0.571473  0.250000  1
  Ba  Ba3  1  0.428045  0.052223  0.750000  1
  Ba  Ba4  1  0.750872  0.754749  0.250000  1
  Ba  Ba5  1  0.242878  0.246695  0.750000  1
  Dy  Dy6  1  0.151217  0.351184  0.250000  1
  Np  Np7  1  0.649735  0.846852  0.750000  1
  Np  Np8  1  0.847393  0.649665  0.750000  1
  Np  Np9  1  0.349819  0.153478  0.250000  1
  O  O10  1  0.909342  0.077139  0.996085  1
  O  O11  1  0.909342  0.077139  0.503915  1
  O  O12  1  0.394700  0.615938  0.505017  1
  O  O13  1  0.394700  0.615938  0.994983  1
  O  O14  1  0.982738  0.381633  0.250000  1
  O  O15  1  0.615732  0.012123  0.750000  1
  O  O16  1  0.383453  0.993348  0.250000  1
  O  O17  1  0.010270  0.617596  0.750000  1
  O  O18  1  0.612500  0.386890  0.998755  1
  O  O19  1  0.612500  0.386890  0.501245  1
  O  O20  1  0.085053  0.917126  0.502197  1
  O  O21  1  0.085053  0.917126  0.997803  1
  O  O22  1  0.680973  0.676941  0.750000  1
  O  O23  1  0.326042  0.319382  0.250000  1
