# generated using pymatgen
data_Er4ZrRe3F28
_symmetry_space_group_name_H-M   'P 1'
_cell_length_a   5.59976381
_cell_length_b   8.89866945
_cell_length_c   12.02692998
_cell_angle_alpha   62.70088132
_cell_angle_beta   89.96711592
_cell_angle_gamma   89.95526364
_symmetry_Int_Tables_number   1
_chemical_formula_structural   Er4ZrRe3F28
_chemical_formula_sum   'Er4 Zr1 Re3 F28'
_cell_volume   532.55884308
_cell_formula_units_Z   1
loop_
 _symmetry_equiv_pos_site_id
 _symmetry_equiv_pos_as_xyz
  1  'x, y, z'
loop_
 _atom_site_type_symbol
 _atom_site_label
 _atom_site_symmetry_multiplicity
 _atom_site_fract_x
 _atom_site_fract_y
 _atom_site_fract_z
 _atom_site_occupancy
  Er  Er0  1  0.759276  0.817169  0.762464  1
  Er  Er1  1  0.257061  0.186857  0.730242  1
  Er  Er2  1  0.241172  0.184422  0.238779  1
  Er  Er3  1  0.741868  0.812854  0.265926  1
  Zr  Zr4  1  0.755065  0.273895  0.956801  1
  Re  Re5  1  0.258902  0.727460  0.543178  1
  Re  Re6  1  0.240837  0.727172  0.043924  1
  Re  Re7  1  0.742296  0.274132  0.455394  1
  F  F8  1  0.441416  0.705484  0.916521  1
  F  F9  1  0.939640  0.295772  0.583473  1
  F  F10  1  0.537679  0.290671  0.085305  1
  F  F11  1  0.058262  0.705259  0.416544  1
  F  F12  1  0.440632  0.279890  0.541592  1
  F  F13  1  0.942361  0.728504  0.952423  1
  F  F14  1  0.558010  0.720976  0.455487  1
  F  F15  1  0.059348  0.273936  0.051631  1
  F  F16  1  0.778017  0.530222  0.858067  1
  F  F17  1  0.270801  0.477781  0.640188  1
  F  F18  1  0.219328  0.477654  0.144145  1
  F  F19  1  0.728976  0.523580  0.357231  1
  F  F20  1  0.756291  0.018208  0.060433  1
  F  F21  1  0.258386  0.977206  0.449471  1
  F  F22  1  0.247795  0.976228  0.946158  1
  F  F23  1  0.743925  0.024709  0.550808  1
  F  F24  1  0.970369  0.729008  0.638372  1
  F  F25  1  0.474045  0.269570  0.851011  1
  F  F26  1  0.033569  0.272281  0.362707  1
  F  F27  1  0.527176  0.724627  0.141755  1
  F  F28  1  0.046706  0.746909  0.175497  1
  F  F29  1  0.550559  0.254717  0.323496  1
  F  F30  1  0.963427  0.248995  0.825771  1
  F  F31  1  0.455741  0.746166  0.674407  1
  F  F32  1  0.421750  0.969670  0.237319  1
  F  F33  1  0.921622  0.026120  0.270346  1
  F  F34  1  0.577854  0.029994  0.763314  1
  F  F35  1  0.079837  0.971902  0.729822  1
