# generated using pymatgen
data_TaNb3Cr2(NiP2)2
_symmetry_space_group_name_H-M   'P 1'
_cell_length_a   3.56270100
_cell_length_b   6.22405234
_cell_length_c   7.24414795
_cell_angle_alpha   89.69239792
_cell_angle_beta   90.00000000
_cell_angle_gamma   90.00000000
_symmetry_Int_Tables_number   1
_chemical_formula_structural   TaNb3Cr2(NiP2)2
_chemical_formula_sum   'Ta1 Nb3 Cr2 Ni2 P4'
_cell_volume   160.63259084
_cell_formula_units_Z   1
loop_
 _symmetry_equiv_pos_site_id
 _symmetry_equiv_pos_as_xyz
  1  'x, y, z'
loop_
 _atom_site_type_symbol
 _atom_site_label
 _atom_site_symmetry_multiplicity
 _atom_site_fract_x
 _atom_site_fract_y
 _atom_site_fract_z
 _atom_site_occupancy
  Ta  Ta0  1  0.750000  0.465257  0.333187  1
  Nb  Nb1  1  0.250000  0.021989  0.825919  1
  Nb  Nb2  1  0.250000  0.533490  0.666222  1
  Nb  Nb3  1  0.750000  0.978430  0.173500  1
  Cr  Cr4  1  0.250000  0.142697  0.438916  1
  Cr  Cr5  1  0.750000  0.857757  0.560192  1
  Ni  Ni6  1  0.250000  0.639835  0.063229  1
  Ni  Ni7  1  0.750000  0.360639  0.939773  1
  P  P8  1  0.250000  0.272139  0.125372  1
  P  P9  1  0.250000  0.769555  0.367773  1
  P  P10  1  0.750000  0.728258  0.874423  1
  P  P11  1  0.750000  0.229952  0.631496  1
