# generated using pymatgen
data_Zr8IrPd3O2
_symmetry_space_group_name_H-M   'P 1'
_cell_length_a   8.90852032
_cell_length_b   8.88766495
_cell_length_c   8.88766522
_cell_angle_alpha   59.93635396
_cell_angle_beta   59.92235131
_cell_angle_gamma   59.92235231
_symmetry_Int_Tables_number   1
_chemical_formula_structural   Zr8IrPd3O2
_chemical_formula_sum   'Zr16 Ir2 Pd6 O4'
_cell_volume   496.75973587
_cell_formula_units_Z   2
loop_
 _symmetry_equiv_pos_site_id
 _symmetry_equiv_pos_as_xyz
  1  'x, y, z'
loop_
 _atom_site_type_symbol
 _atom_site_label
 _atom_site_symmetry_multiplicity
 _atom_site_fract_x
 _atom_site_fract_y
 _atom_site_fract_z
 _atom_site_occupancy
  Zr  Zr0  1  0.317840  0.681956  0.318084  1
  Zr  Zr1  1  0.932758  0.568586  0.932730  1
  Zr  Zr2  1  0.682120  0.318084  0.681956  1
  Zr  Zr3  1  0.679272  0.320728  0.320728  1
  Zr  Zr4  1  0.314764  0.685236  0.685236  1
  Zr  Zr5  1  0.629810  0.122227  0.122227  1
  Zr  Zr6  1  0.932758  0.932730  0.568586  1
  Zr  Zr7  1  0.682120  0.681956  0.318084  1
  Zr  Zr8  1  0.120957  0.638590  0.119495  1
  Zr  Zr9  1  0.120957  0.119495  0.638590  1
  Zr  Zr10  1  0.317840  0.318084  0.681956  1
  Zr  Zr11  1  0.125735  0.122227  0.122227  1
  Zr  Zr12  1  0.565926  0.568586  0.932730  1
  Zr  Zr13  1  0.566899  0.933101  0.933101  1
  Zr  Zr14  1  0.931908  0.568092  0.568092  1
  Zr  Zr15  1  0.565926  0.932730  0.568586  1
  Ir  Ir16  1  0.296149  0.901654  0.901654  1
  Ir  Ir17  1  0.900544  0.901654  0.901654  1
  Pd  Pd18  1  0.906687  0.912285  0.274343  1
  Pd  Pd19  1  0.339275  0.980693  0.340756  1
  Pd  Pd20  1  0.337460  0.339045  0.339045  1
  Pd  Pd21  1  0.984448  0.339045  0.339045  1
  Pd  Pd22  1  0.339275  0.340756  0.980693  1
  Pd  Pd23  1  0.906687  0.274343  0.912285  1
  O  O24  1  0.624908  0.624372  0.624372  1
  O  O25  1  0.126349  0.624372  0.624372  1
  O  O26  1  0.625314  0.623968  0.125405  1
  O  O27  1  0.625314  0.125405  0.623968  1
