# generated using pymatgen
data_Sc2Cd(CO3)4
_symmetry_space_group_name_H-M   'P 1'
_cell_length_a   6.15943296
_cell_length_b   9.82715409
_cell_length_c   7.95439800
_cell_angle_alpha   89.51853543
_cell_angle_beta   107.16766512
_cell_angle_gamma   89.91967274
_symmetry_Int_Tables_number   1
_chemical_formula_structural   Sc2Cd(CO3)4
_chemical_formula_sum   'Sc4 Cd2 C8 O24'
_cell_volume   460.00508354
_cell_formula_units_Z   2
loop_
 _symmetry_equiv_pos_site_id
 _symmetry_equiv_pos_as_xyz
  1  'x, y, z'
loop_
 _atom_site_type_symbol
 _atom_site_label
 _atom_site_symmetry_multiplicity
 _atom_site_fract_x
 _atom_site_fract_y
 _atom_site_fract_z
 _atom_site_occupancy
  Sc  Sc0  1  0.499952  0.749933  0.999962  1
  Sc  Sc1  1  0.500052  0.249997  0.999962  1
  Sc  Sc2  1  0.999949  0.000046  0.499998  1
  Sc  Sc3  1  0.999993  0.500059  0.499927  1
  Cd  Cd4  1  0.499998  0.249992  0.500010  1
  Cd  Cd5  1  0.500034  0.750016  0.500022  1
  C  C6  1  0.013989  0.246539  0.733814  1
  C  C7  1  0.013964  0.746519  0.733804  1
  C  C8  1  0.986032  0.253485  0.266180  1
  C  C9  1  0.986012  0.753481  0.266212  1
  C  C10  1  0.512688  0.000684  0.243800  1
  C  C11  1  0.512659  0.500673  0.243820  1
  C  C12  1  0.487322  0.499303  0.756185  1
  C  C13  1  0.487314  0.999296  0.756198  1
  O  O14  1  0.356309  0.447723  0.608487  1
  O  O15  1  0.356308  0.947731  0.608480  1
  O  O16  1  0.643676  0.052287  0.391517  1
  O  O17  1  0.643653  0.552269  0.391524  1
  O  O18  1  0.594361  0.422328  0.882134  1
  O  O19  1  0.594319  0.922309  0.882145  1
  O  O20  1  0.405711  0.077684  0.117857  1
  O  O21  1  0.405651  0.577659  0.117866  1
  O  O22  1  0.007993  0.382471  0.289508  1
  O  O23  1  0.007943  0.882464  0.289544  1
  O  O24  1  0.992071  0.117539  0.710526  1
  O  O25  1  0.991950  0.617534  0.710455  1
  O  O26  1  0.495890  0.368214  0.232467  1
  O  O27  1  0.495918  0.868223  0.232469  1
  O  O28  1  0.504093  0.131769  0.767541  1
  O  O29  1  0.504095  0.631771  0.767533  1
  O  O30  1  0.875094  0.328766  0.616647  1
  O  O31  1  0.875121  0.828813  0.616709  1
  O  O32  1  0.124909  0.171226  0.383303  1
  O  O33  1  0.124921  0.671233  0.383367  1
  O  O34  1  0.164506  0.298289  0.862866  1
  O  O35  1  0.164519  0.798226  0.862876  1
  O  O36  1  0.835509  0.201750  0.137121  1
  O  O37  1  0.835519  0.701703  0.137164  1
