# generated using pymatgen
data_Hf4Mn5CrGa2
_symmetry_space_group_name_H-M   'P 1'
_cell_length_a   4.96335889
_cell_length_b   4.98117879
_cell_length_c   8.27544000
_cell_angle_alpha   90.00000000
_cell_angle_beta   90.00000000
_cell_angle_gamma   120.11885448
_symmetry_Int_Tables_number   1
_chemical_formula_structural   Hf4Mn5CrGa2
_chemical_formula_sum   'Hf4 Mn5 Cr1 Ga2'
_cell_volume   176.97346427
_cell_formula_units_Z   1
loop_
 _symmetry_equiv_pos_site_id
 _symmetry_equiv_pos_as_xyz
  1  'x, y, z'
loop_
 _atom_site_type_symbol
 _atom_site_label
 _atom_site_symmetry_multiplicity
 _atom_site_fract_x
 _atom_site_fract_y
 _atom_site_fract_z
 _atom_site_occupancy
  Hf  Hf0  1  0.332280  0.666140  0.431561  1
  Hf  Hf1  1  0.666490  0.333245  0.567261  1
  Hf  Hf2  1  0.666490  0.333245  0.932739  1
  Hf  Hf3  1  0.332280  0.666140  0.068439  1
  Mn  Mn4  1  0.821710  0.174600  0.250000  1
  Mn  Mn5  1  0.821710  0.647109  0.250000  1
  Mn  Mn6  1  0.359070  0.179535  0.250000  1
  Mn  Mn7  1  0.177571  0.827221  0.750000  1
  Mn  Mn8  1  0.177571  0.350350  0.750000  1
  Cr  Cr9  1  0.643441  0.821720  0.750000  1
  Ga  Ga10  1  0.000695  0.000348  0.498556  1
  Ga  Ga11  1  0.000695  0.000348  0.001444  1
