# generated using pymatgen
data_Ho3Er3ScCo17P12
_symmetry_space_group_name_H-M   'P 1'
_cell_length_a   3.70251100
_cell_length_b   10.56328146
_cell_length_c   12.23637870
_cell_angle_alpha   90.06031173
_cell_angle_beta   90.00000000
_cell_angle_gamma   90.00000000
_symmetry_Int_Tables_number   1
_chemical_formula_structural   Ho3Er3ScCo17P12
_chemical_formula_sum   'Ho3 Er3 Sc1 Co17 P12'
_cell_volume   478.57265276
_cell_formula_units_Z   1
loop_
 _symmetry_equiv_pos_site_id
 _symmetry_equiv_pos_as_xyz
  1  'x, y, z'
loop_
 _atom_site_type_symbol
 _atom_site_label
 _atom_site_symmetry_multiplicity
 _atom_site_fract_x
 _atom_site_fract_y
 _atom_site_fract_z
 _atom_site_occupancy
  Ho  Ho0  1  0.000000  0.499969  0.527974  1
  Ho  Ho1  1  0.500000  0.000019  0.477266  1
  Ho  Ho2  1  0.000000  0.317687  0.795724  1
  Er  Er3  1  0.500000  0.821846  0.207588  1
  Er  Er4  1  0.500000  0.178170  0.207455  1
  Er  Er5  1  0.000000  0.682424  0.795706  1
  Sc  Sc6  1  0.500000  0.500014  0.152955  1
  Co  Co7  1  0.000000  0.500232  0.984602  1
  Co  Co8  1  0.500000  0.999835  0.013408  1
  Co  Co9  1  0.500000  0.294654  0.434167  1
  Co  Co10  1  0.500000  0.705354  0.434377  1
  Co  Co11  1  0.000000  0.201918  0.570418  1
  Co  Co12  1  0.000000  0.798043  0.570677  1
  Co  Co13  1  0.500000  0.879931  0.707605  1
  Co  Co14  1  0.500000  0.119818  0.707397  1
  Co  Co15  1  0.000000  0.623104  0.296214  1
  Co  Co16  1  0.000000  0.376794  0.296072  1
  Co  Co17  1  0.500000  0.326669  0.989960  1
  Co  Co18  1  0.500000  0.673543  0.989795  1
  Co  Co19  1  0.000000  0.161996  0.001723  1
  Co  Co20  1  0.000000  0.837791  0.001542  1
  Co  Co21  1  0.000000  0.999956  0.836563  1
  Co  Co22  1  0.500000  0.500356  0.703763  1
  Co  Co23  1  0.000000  0.999925  0.295640  1
  P  P24  1  0.500000  0.309662  0.618005  1
  P  P25  1  0.500000  0.690384  0.618359  1
  P  P26  1  0.000000  0.188295  0.385622  1
  P  P27  1  0.000000  0.811625  0.385812  1
  P  P28  1  0.500000  0.500343  0.883050  1
  P  P29  1  0.000000  0.999897  0.116510  1
  P  P30  1  0.500000  0.851407  0.888375  1
  P  P31  1  0.500000  0.148257  0.888582  1
  P  P32  1  0.000000  0.664016  0.102410  1
  P  P33  1  0.000000  0.336064  0.102252  1
  P  P34  1  0.500000  0.499999  0.358476  1
  P  P35  1  0.000000  0.000005  0.653955  1
