# generated using pymatgen
data_CaYRe7Si4W
_symmetry_space_group_name_H-M   'P 1'
_cell_length_a   7.12299811
_cell_length_b   7.69491503
_cell_length_c   4.19262000
_cell_angle_alpha   90.00000000
_cell_angle_beta   90.00000000
_cell_angle_gamma   90.09773886
_symmetry_Int_Tables_number   1
_chemical_formula_structural   CaYRe7Si4W
_chemical_formula_sum   'Ca1 Y1 Re7 Si4 W1'
_cell_volume   229.80079526
_cell_formula_units_Z   1
loop_
 _symmetry_equiv_pos_site_id
 _symmetry_equiv_pos_as_xyz
  1  'x, y, z'
loop_
 _atom_site_type_symbol
 _atom_site_label
 _atom_site_symmetry_multiplicity
 _atom_site_fract_x
 _atom_site_fract_y
 _atom_site_fract_z
 _atom_site_occupancy
  Ca  Ca0  1  0.500559  0.498313  0.000000  1
  Y  Y1  1  0.998952  0.999777  0.500000  1
  Re  Re2  1  0.155437  0.607266  0.500000  1
  Re  Re3  1  0.083383  0.340062  0.000000  1
  Re  Re4  1  0.918776  0.659314  0.000000  1
  Re  Re5  1  0.414512  0.840494  0.500000  1
  Re  Re6  1  0.585491  0.162293  0.500000  1
  Re  Re7  1  0.341761  0.108074  0.000000  1
  Re  Re8  1  0.846764  0.391741  0.500000  1
  Si  Si9  1  0.224266  0.806775  0.000000  1
  Si  Si10  1  0.778178  0.195847  0.000000  1
  Si  Si11  1  0.722361  0.689805  0.500000  1
  Si  Si12  1  0.278457  0.307565  0.500000  1
  W  W13  1  0.651105  0.892674  0.000000  1
