# generated using pymatgen
data_TbPr16Y3Si16
_symmetry_space_group_name_H-M   'P 1'
_cell_length_a   7.83241306
_cell_length_b   7.83241306
_cell_length_c   15.34826506
_cell_angle_alpha   89.99282488
_cell_angle_beta   90.00717512
_cell_angle_gamma   89.98797401
_symmetry_Int_Tables_number   1
_chemical_formula_structural   TbPr16Y3Si16
_chemical_formula_sum   'Tb1 Pr16 Y3 Si16'
_cell_volume   941.56528946
_cell_formula_units_Z   1
loop_
 _symmetry_equiv_pos_site_id
 _symmetry_equiv_pos_as_xyz
  1  'x, y, z'
loop_
 _atom_site_type_symbol
 _atom_site_label
 _atom_site_symmetry_multiplicity
 _atom_site_fract_x
 _atom_site_fract_y
 _atom_site_fract_z
 _atom_site_occupancy
  Tb  Tb0  1  0.309054  0.309054  0.000000  1
  Pr  Pr1  1  0.378420  0.013339  0.445182  1
  Pr  Pr2  1  0.486636  0.878513  0.695208  1
  Pr  Pr3  1  0.513341  0.121692  0.195177  1
  Pr  Pr4  1  0.878513  0.486636  0.304792  1
  Pr  Pr5  1  0.121692  0.513341  0.804823  1
  Pr  Pr6  1  0.621198  0.986962  0.945240  1
  Pr  Pr7  1  0.013339  0.378420  0.554818  1
  Pr  Pr8  1  0.986962  0.621198  0.054760  1
  Pr  Pr9  1  0.125363  0.975936  0.878701  1
  Pr  Pr10  1  0.524390  0.624840  0.128498  1
  Pr  Pr11  1  0.475643  0.374673  0.628554  1
  Pr  Pr12  1  0.624840  0.524390  0.871502  1
  Pr  Pr13  1  0.374673  0.475643  0.371446  1
  Pr  Pr14  1  0.874840  0.024460  0.378541  1
  Pr  Pr15  1  0.975936  0.125363  0.121299  1
  Pr  Pr16  1  0.024460  0.874840  0.621459  1
  Y  Y17  1  0.190501  0.809294  0.250023  1
  Y  Y18  1  0.809294  0.190501  0.749977  1
  Y  Y19  1  0.690530  0.690530  0.500000  1
  Si  Si20  1  0.188020  0.171944  0.708683  1
  Si  Si21  1  0.328024  0.688130  0.958807  1
  Si  Si22  1  0.672038  0.312073  0.458800  1
  Si  Si23  1  0.688130  0.328024  0.041193  1
  Si  Si24  1  0.312073  0.672038  0.541200  1
  Si  Si25  1  0.812098  0.828104  0.208748  1
  Si  Si26  1  0.171944  0.188020  0.291317  1
  Si  Si27  1  0.828104  0.812098  0.791252  1
  Si  Si28  1  0.286837  0.920896  0.063495  1
  Si  Si29  1  0.578976  0.786881  0.313532  1
  Si  Si30  1  0.421146  0.213038  0.813173  1
  Si  Si31  1  0.786881  0.578976  0.686468  1
  Si  Si32  1  0.213038  0.421146  0.186827  1
  Si  Si33  1  0.713172  0.078999  0.563486  1
  Si  Si34  1  0.920896  0.286837  0.936505  1
  Si  Si35  1  0.078999  0.713172  0.436514  1
