# generated using pymatgen
data_YTm2Al4Ni9B2
_symmetry_space_group_name_H-M   'P 1'
_cell_length_a   5.15747000
_cell_length_b   5.15746960
_cell_length_c   10.58902000
_cell_angle_alpha   90.00000000
_cell_angle_beta   90.00000000
_cell_angle_gamma   120.00001539
_symmetry_Int_Tables_number   1
_chemical_formula_structural   YTm2Al4Ni9B2
_chemical_formula_sum   'Y1 Tm2 Al4 Ni9 B2'
_cell_volume   243.92691327
_cell_formula_units_Z   1
loop_
 _symmetry_equiv_pos_site_id
 _symmetry_equiv_pos_as_xyz
  1  'x, y, z'
loop_
 _atom_site_type_symbol
 _atom_site_label
 _atom_site_symmetry_multiplicity
 _atom_site_fract_x
 _atom_site_fract_y
 _atom_site_fract_z
 _atom_site_occupancy
  Y  Y0  1  0.000000  0.000000  0.336648  1
  Tm  Tm1  1  0.000000  0.000000  0.662611  1
  Tm  Tm2  1  0.000000  0.000000  0.999515  1
  Al  Al3  1  0.666667  0.333333  0.684154  1
  Al  Al4  1  0.333333  0.666667  0.684154  1
  Al  Al5  1  0.333333  0.666667  0.316059  1
  Al  Al6  1  0.666667  0.333333  0.316059  1
  Ni  Ni7  1  0.500000  0.500000  0.870749  1
  Ni  Ni8  1  0.500000  0.000000  0.870749  1
  Ni  Ni9  1  0.000000  0.500000  0.870749  1
  Ni  Ni10  1  0.500000  0.500000  0.128928  1
  Ni  Ni11  1  0.500000  0.000000  0.128928  1
  Ni  Ni12  1  0.000000  0.500000  0.128928  1
  Ni  Ni13  1  0.500000  0.500000  0.500574  1
  Ni  Ni14  1  0.500000  0.000000  0.500574  1
  Ni  Ni15  1  0.000000  0.500000  0.500574  1
  B  B16  1  0.666667  0.333333  0.000025  1
  B  B17  1  0.333333  0.666667  0.000025  1
