# generated using pymatgen
data_Tb2NdTh(Ga3Ir)6
_symmetry_space_group_name_H-M   'P 1'
_cell_length_a   7.64676039
_cell_length_b   7.66023564
_cell_length_c   9.52553300
_cell_angle_alpha   90.00000000
_cell_angle_beta   90.00000000
_cell_angle_gamma   119.73001367
_symmetry_Int_Tables_number   1
_chemical_formula_structural   Tb2NdTh(Ga3Ir)6
_chemical_formula_sum   'Tb2 Nd1 Th1 Ga18 Ir6'
_cell_volume   484.52326591
_cell_formula_units_Z   1
loop_
 _symmetry_equiv_pos_site_id
 _symmetry_equiv_pos_as_xyz
  1  'x, y, z'
loop_
 _atom_site_type_symbol
 _atom_site_label
 _atom_site_symmetry_multiplicity
 _atom_site_fract_x
 _atom_site_fract_y
 _atom_site_fract_z
 _atom_site_occupancy
  Tb  Tb0  1  0.669355  0.997184  0.250000  1
  Tb  Tb1  1  0.330132  0.003282  0.750000  1
  Nd  Nd2  1  0.997653  0.668875  0.250000  1
  Th  Th3  1  0.002761  0.331125  0.750000  1
  Ga  Ga4  1  0.127554  0.126456  0.250000  1
  Ga  Ga5  1  0.870094  0.869713  0.750000  1
  Ga  Ga6  1  0.999724  0.332248  0.083479  1
  Ga  Ga7  1  0.000360  0.670856  0.919771  1
  Ga  Ga8  1  0.000360  0.670856  0.580229  1
  Ga  Ga9  1  0.336796  0.000774  0.421224  1
  Ga  Ga10  1  0.999724  0.332248  0.416521  1
  Ga  Ga11  1  0.660035  0.996168  0.577751  1
  Ga  Ga12  1  0.660035  0.996168  0.922249  1
  Ga  Ga13  1  0.336796  0.000774  0.078776  1
  Ga  Ga14  1  0.336475  0.331612  0.562269  1
  Ga  Ga15  1  0.666488  0.668404  0.436393  1
  Ga  Ga16  1  0.666488  0.668404  0.063607  1
  Ga  Ga17  1  0.336475  0.331612  0.937731  1
  Ga  Ga18  1  0.341335  0.547937  0.250000  1
  Ga  Ga19  1  0.657429  0.453562  0.750000  1
  Ga  Ga20  1  0.545437  0.336897  0.250000  1
  Ga  Ga21  1  0.457770  0.664105  0.750000  1
  Ir  Ir22  1  0.673726  0.329859  0.998487  1
  Ir  Ir23  1  0.326465  0.668233  0.998232  1
  Ir  Ir24  1  0.326465  0.668233  0.501768  1
  Ir  Ir25  1  0.673726  0.329859  0.501513  1
  Ir  Ir26  1  0.000171  0.002279  0.998304  1
  Ir  Ir27  1  0.000171  0.002279  0.501696  1
