# generated using pymatgen
data_TbLu2Al2Ga3Ni
_symmetry_space_group_name_H-M   'P 1'
_cell_length_a   6.80159035
_cell_length_b   6.84206702
_cell_length_c   4.22345400
_cell_angle_alpha   90.00000000
_cell_angle_beta   90.00000000
_cell_angle_gamma   119.49716048
_symmetry_Int_Tables_number   1
_chemical_formula_structural   TbLu2Al2Ga3Ni
_chemical_formula_sum   'Tb1 Lu2 Al2 Ga3 Ni1'
_cell_volume   171.07026039
_cell_formula_units_Z   1
loop_
 _symmetry_equiv_pos_site_id
 _symmetry_equiv_pos_as_xyz
  1  'x, y, z'
loop_
 _atom_site_type_symbol
 _atom_site_label
 _atom_site_symmetry_multiplicity
 _atom_site_fract_x
 _atom_site_fract_y
 _atom_site_fract_z
 _atom_site_occupancy
  Tb  Tb0  1  0.589458  0.998452  0.500000  1
  Lu  Lu1  1  0.406940  0.407628  0.500000  1
  Lu  Lu2  1  0.997777  0.593253  0.500000  1
  Al  Al3  1  0.231622  0.000847  0.000000  1
  Al  Al4  1  0.001906  0.232535  0.000000  1
  Ga  Ga5  1  0.668662  0.336012  0.000000  1
  Ga  Ga6  1  0.327725  0.662347  0.000000  1
  Ga  Ga7  1  0.764114  0.763579  0.000000  1
  Ni  Ni8  1  0.011794  0.005346  0.500000  1
