# generated using pymatgen
data_Ce3Th(Rh2Au)2
_symmetry_space_group_name_H-M   'P 1'
_cell_length_a   7.61754491
_cell_length_b   7.61754491
_cell_length_c   3.68930100
_cell_angle_alpha   90.00000000
_cell_angle_beta   90.00000000
_cell_angle_gamma   89.41603902
_symmetry_Int_Tables_number   1
_chemical_formula_structural   Ce3Th(Rh2Au)2
_chemical_formula_sum   'Ce3 Th1 Rh4 Au2'
_cell_volume   214.06791507
_cell_formula_units_Z   1
loop_
 _symmetry_equiv_pos_site_id
 _symmetry_equiv_pos_as_xyz
  1  'x, y, z'
loop_
 _atom_site_type_symbol
 _atom_site_label
 _atom_site_symmetry_multiplicity
 _atom_site_fract_x
 _atom_site_fract_y
 _atom_site_fract_z
 _atom_site_occupancy
  Ce  Ce0  1  0.325143  0.825143  0.500000  1
  Ce  Ce1  1  0.172776  0.328228  0.500000  1
  Ce  Ce2  1  0.828228  0.672776  0.500000  1
  Th  Th3  1  0.671738  0.171738  0.500000  1
  Rh  Rh4  1  0.135920  0.635920  0.000000  1
  Rh  Rh5  1  0.868541  0.368541  0.000000  1
  Rh  Rh6  1  0.634598  0.862937  0.000000  1
  Rh  Rh7  1  0.362937  0.134598  0.000000  1
  Au  Au8  1  0.000546  0.999574  0.000000  1
  Au  Au9  1  0.499574  0.500546  0.000000  1
