# generated using pymatgen
data_Sc17Re2Si16Mo
_symmetry_space_group_name_H-M   'P 1'
_cell_length_a   6.75580277
_cell_length_b   7.07504552
_cell_length_c   13.35224300
_cell_angle_alpha   90.00000000
_cell_angle_beta   90.00000000
_cell_angle_gamma   89.75750916
_symmetry_Int_Tables_number   1
_chemical_formula_structural   Sc17Re2Si16Mo
_chemical_formula_sum   'Sc17 Re2 Si16 Mo1'
_cell_volume   638.19961639
_cell_formula_units_Z   1
loop_
 _symmetry_equiv_pos_site_id
 _symmetry_equiv_pos_as_xyz
  1  'x, y, z'
loop_
 _atom_site_type_symbol
 _atom_site_label
 _atom_site_symmetry_multiplicity
 _atom_site_fract_x
 _atom_site_fract_y
 _atom_site_fract_z
 _atom_site_occupancy
  Sc  Sc0  1  0.353077  0.493746  0.250000  1
  Sc  Sc1  1  0.989389  0.679747  0.594519  1
  Sc  Sc2  1  0.012456  0.316975  0.405096  1
  Sc  Sc3  1  0.514920  0.180186  0.408288  1
  Sc  Sc4  1  0.012456  0.316975  0.094904  1
  Sc  Sc5  1  0.485779  0.819522  0.598215  1
  Sc  Sc6  1  0.989389  0.679747  0.905481  1
  Sc  Sc7  1  0.485779  0.819522  0.901785  1
  Sc  Sc8  1  0.514920  0.180186  0.091712  1
  Sc  Sc9  1  0.322426  0.325512  0.628645  1
  Sc  Sc10  1  0.678080  0.672852  0.377373  1
  Sc  Sc11  1  0.179562  0.834530  0.373319  1
  Sc  Sc12  1  0.678080  0.672852  0.122627  1
  Sc  Sc13  1  0.819913  0.168256  0.625708  1
  Sc  Sc14  1  0.322426  0.325512  0.871355  1
  Sc  Sc15  1  0.819913  0.168256  0.874292  1
  Sc  Sc16  1  0.179562  0.834530  0.126681  1
  Re  Re17  1  0.858512  0.002589  0.250000  1
  Re  Re18  1  0.646983  0.501680  0.750000  1
  Si  Si19  1  0.010524  0.403639  0.750000  1
  Si  Si20  1  0.976709  0.612024  0.250000  1
  Si  Si21  1  0.493819  0.908971  0.250000  1
  Si  Si22  1  0.515379  0.091639  0.750000  1
  Si  Si23  1  0.282024  0.641966  0.750000  1
  Si  Si24  1  0.724841  0.347920  0.250000  1
  Si  Si25  1  0.214545  0.142314  0.250000  1
  Si  Si26  1  0.782798  0.848880  0.750000  1
  Si  Si27  1  0.159133  0.027052  0.546117  1
  Si  Si28  1  0.843260  0.972448  0.453189  1
  Si  Si29  1  0.335777  0.535535  0.464541  1
  Si  Si30  1  0.843260  0.972448  0.046811  1
  Si  Si31  1  0.655899  0.473434  0.550689  1
  Si  Si32  1  0.159133  0.027052  0.953883  1
  Si  Si33  1  0.655899  0.473434  0.949311  1
  Si  Si34  1  0.335777  0.535535  0.035459  1
  Mo  Mo35  1  0.147601  0.992535  0.750000  1
