# generated using pymatgen
data_HfZrTe2P
_symmetry_space_group_name_H-M   'P 1'
_cell_length_a   10.58295067
_cell_length_b   10.58295046
_cell_length_c   10.58295101
_cell_angle_alpha   20.84874469
_cell_angle_beta   20.84874982
_cell_angle_gamma   20.84874150
_symmetry_Int_Tables_number   1
_chemical_formula_structural   HfZrTe2P
_chemical_formula_sum   'Hf1 Zr1 Te2 P1'
_cell_volume   131.45478253
_cell_formula_units_Z   1
loop_
 _symmetry_equiv_pos_site_id
 _symmetry_equiv_pos_as_xyz
  1  'x, y, z'
loop_
 _atom_site_type_symbol
 _atom_site_label
 _atom_site_symmetry_multiplicity
 _atom_site_fract_x
 _atom_site_fract_y
 _atom_site_fract_z
 _atom_site_occupancy
  Hf  Hf0  1  0.620708  0.620708  0.620708  1
  Zr  Zr1  1  0.379132  0.379132  0.379132  1
  Te  Te2  1  0.227229  0.227229  0.227229  1
  Te  Te3  1  0.773945  0.773945  0.773945  1
  P  P4  1  0.998985  0.998985  0.998985  1
