# generated using pymatgen
data_YbHoAl3Os
_symmetry_space_group_name_H-M   'P 1'
_cell_length_a   5.50554700
_cell_length_b   5.50554849
_cell_length_c   8.77930000
_cell_angle_alpha   90.00000000
_cell_angle_beta   90.00000000
_cell_angle_gamma   119.99999703
_symmetry_Int_Tables_number   1
_chemical_formula_structural   YbHoAl3Os
_chemical_formula_sum   'Yb2 Ho2 Al6 Os2'
_cell_volume   230.45790055
_cell_formula_units_Z   2
loop_
 _symmetry_equiv_pos_site_id
 _symmetry_equiv_pos_as_xyz
  1  'x, y, z'
loop_
 _atom_site_type_symbol
 _atom_site_label
 _atom_site_symmetry_multiplicity
 _atom_site_fract_x
 _atom_site_fract_y
 _atom_site_fract_z
 _atom_site_occupancy
  Yb  Yb0  1  0.333334  0.666667  0.554654  1
  Yb  Yb1  1  0.333334  0.666667  0.945346  1
  Ho  Ho2  1  0.666666  0.333333  0.050414  1
  Ho  Ho3  1  0.666666  0.333333  0.449586  1
  Al  Al4  1  0.161387  0.322773  0.250000  1
  Al  Al5  1  0.161387  0.838613  0.250000  1
  Al  Al6  1  0.677226  0.838613  0.250000  1
  Al  Al7  1  0.321361  0.160681  0.750000  1
  Al  Al8  1  0.839319  0.160681  0.750000  1
  Al  Al9  1  0.839319  0.678639  0.750000  1
  Os  Os10  1  0.000000  0.000000  0.998956  1
  Os  Os11  1  0.000000  0.000000  0.501044  1
