# generated using pymatgen
data_CeTm3(Co5As3)4
_symmetry_space_group_name_H-M   'P 1'
_cell_length_a   3.78376400
_cell_length_b   12.14239896
_cell_length_c   10.68780442
_cell_angle_alpha   89.99328762
_cell_angle_beta   90.00000000
_cell_angle_gamma   90.00000000
_symmetry_Int_Tables_number   1
_chemical_formula_structural   CeTm3(Co5As3)4
_chemical_formula_sum   'Ce1 Tm3 Co20 As12'
_cell_volume   491.04018417
_cell_formula_units_Z   1
loop_
 _symmetry_equiv_pos_site_id
 _symmetry_equiv_pos_as_xyz
  1  'x, y, z'
loop_
 _atom_site_type_symbol
 _atom_site_label
 _atom_site_symmetry_multiplicity
 _atom_site_fract_x
 _atom_site_fract_y
 _atom_site_fract_z
 _atom_site_occupancy
  Ce  Ce0  1  0.750000  0.201347  0.417925  1
  Tm  Tm1  1  0.750000  0.700963  0.081434  1
  Tm  Tm2  1  0.250000  0.298687  0.918697  1
  Tm  Tm3  1  0.250000  0.799514  0.581852  1
  Co  Co4  1  0.750000  0.697547  0.383940  1
  Co  Co5  1  0.250000  0.303689  0.614845  1
  Co  Co6  1  0.250000  0.802091  0.884902  1
  Co  Co7  1  0.750000  0.196851  0.114040  1
  Co  Co8  1  0.750000  0.990763  0.213997  1
  Co  Co9  1  0.250000  0.006231  0.787811  1
  Co  Co10  1  0.250000  0.508247  0.713459  1
  Co  Co11  1  0.750000  0.490396  0.287135  1
  Co  Co12  1  0.750000  0.677582  0.784570  1
  Co  Co13  1  0.250000  0.322192  0.215350  1
  Co  Co14  1  0.250000  0.822518  0.283909  1
  Co  Co15  1  0.750000  0.177891  0.716561  1
  Co  Co16  1  0.750000  0.930971  0.969576  1
  Co  Co17  1  0.250000  0.067723  0.027409  1
  Co  Co18  1  0.250000  0.570731  0.470342  1
  Co  Co19  1  0.750000  0.433445  0.531455  1
  Co  Co20  1  0.750000  0.986616  0.593077  1
  Co  Co21  1  0.250000  0.012978  0.407899  1
  Co  Co22  1  0.250000  0.512408  0.093007  1
  Co  Co23  1  0.750000  0.487353  0.907563  1
  As  As24  1  0.750000  0.616353  0.585359  1
  As  As25  1  0.250000  0.389460  0.414302  1
  As  As26  1  0.250000  0.885133  0.084865  1
  As  As27  1  0.750000  0.114412  0.914415  1
  As  As28  1  0.750000  0.889840  0.400179  1
  As  As29  1  0.250000  0.108563  0.604457  1
  As  As30  1  0.250000  0.609412  0.900554  1
  As  As31  1  0.750000  0.390078  0.099470  1
  As  As32  1  0.750000  0.869577  0.768947  1
  As  As33  1  0.250000  0.128030  0.226463  1
  As  As34  1  0.250000  0.629931  0.268324  1
  As  As35  1  0.750000  0.370475  0.731912  1
