# generated using pymatgen
data_LiPr4Nd(P2Ru3)6
_symmetry_space_group_name_H-M   'P 1'
_cell_length_a   12.74135819
_cell_length_b   12.56967856
_cell_length_c   4.01924700
_cell_angle_alpha   90.00000000
_cell_angle_beta   90.00000000
_cell_angle_gamma   119.55919673
_symmetry_Int_Tables_number   1
_chemical_formula_structural   LiPr4Nd(P2Ru3)6
_chemical_formula_sum   'Li1 Pr4 Nd1 P12 Ru18'
_cell_volume   559.92157071
_cell_formula_units_Z   1
loop_
 _symmetry_equiv_pos_site_id
 _symmetry_equiv_pos_as_xyz
  1  'x, y, z'
loop_
 _atom_site_type_symbol
 _atom_site_label
 _atom_site_symmetry_multiplicity
 _atom_site_fract_x
 _atom_site_fract_y
 _atom_site_fract_z
 _atom_site_occupancy
  Li  Li0  1  0.000033  0.562049  0.000000  1
  Pr  Pr1  1  0.000015  0.182650  0.500000  1
  Pr  Pr2  1  0.817505  0.814880  0.500000  1
  Pr  Pr3  1  0.182503  0.997358  0.500000  1
  Pr  Pr4  1  0.658999  0.329022  0.000000  1
  Nd  Nd5  1  0.341056  0.669987  0.000000  1
  P  P6  1  0.000053  0.803556  0.000000  1
  P  P7  1  0.184262  0.186320  0.000000  1
  P  P8  1  0.815712  0.001984  0.000000  1
  P  P9  1  0.692484  0.171459  0.500000  1
  P  P10  1  0.819062  0.520488  0.500000  1
  P  P11  1  0.471060  0.304989  0.500000  1
  P  P12  1  0.181272  0.701295  0.500000  1
  P  P13  1  0.528509  0.833570  0.500000  1
  P  P14  1  0.307578  0.479453  0.500000  1
  P  P15  1  0.000011  0.370562  0.000000  1
  P  P16  1  0.622935  0.623193  0.000000  1
  P  P17  1  0.377066  0.000268  0.000000  1
  Ru  Ru18  1  0.442883  0.444805  0.000000  1
  Ru  Ru19  1  0.557073  0.001852  0.000000  1
  Ru  Ru20  1  0.000091  0.707713  0.500000  1
  Ru  Ru21  1  0.281883  0.285223  0.500000  1
  Ru  Ru22  1  0.718036  0.003128  0.500000  1
  Ru  Ru23  1  0.805018  0.186804  0.000000  1
  Ru  Ru24  1  0.812742  0.617056  0.000000  1
  Ru  Ru25  1  0.373355  0.191099  0.000000  1
  Ru  Ru26  1  0.187453  0.804166  0.000000  1
  Ru  Ru27  1  0.626321  0.817532  0.000000  1
  Ru  Ru28  1  0.195153  0.382124  0.000000  1
  Ru  Ru29  1  0.877878  0.368858  0.500000  1
  Ru  Ru30  1  0.629114  0.508981  0.500000  1
  Ru  Ru31  1  0.490117  0.125970  0.500000  1
  Ru  Ru32  1  0.370897  0.879389  0.500000  1
  Ru  Ru33  1  0.509349  0.635844  0.500000  1
  Ru  Ru34  1  0.122524  0.491344  0.500000  1
  Ru  Ru35  1  0.999996  0.995032  0.000000  1
