# generated using pymatgen
data_La6V(SiSe7)2
_symmetry_space_group_name_H-M   'P 1'
_cell_length_a   10.80437200
_cell_length_b   10.80437233
_cell_length_c   6.07660400
_cell_angle_alpha   90.00000000
_cell_angle_beta   90.00000000
_cell_angle_gamma   119.99999900
_symmetry_Int_Tables_number   1
_chemical_formula_structural   La6V(SiSe7)2
_chemical_formula_sum   'La6 V1 Si2 Se14'
_cell_volume   614.31432389
_cell_formula_units_Z   1
loop_
 _symmetry_equiv_pos_site_id
 _symmetry_equiv_pos_as_xyz
  1  'x, y, z'
loop_
 _atom_site_type_symbol
 _atom_site_label
 _atom_site_symmetry_multiplicity
 _atom_site_fract_x
 _atom_site_fract_y
 _atom_site_fract_z
 _atom_site_occupancy
  La  La0  1  0.435167  0.457306  0.749180  1
  La  La1  1  0.022139  0.564833  0.749180  1
  La  La2  1  0.542694  0.977861  0.749180  1
  La  La3  1  0.897272  0.209455  0.250624  1
  La  La4  1  0.312183  0.102728  0.250624  1
  La  La5  1  0.790545  0.687817  0.250624  1
  V  V6  1  0.666667  0.333333  0.515035  1
  Si  Si7  1  0.333333  0.666667  0.164304  1
  Si  Si8  1  0.000000  0.000000  0.660047  1
  Se  Se9  1  0.333333  0.666667  0.536443  1
  Se  Se10  1  0.000000  0.000000  0.032176  1
  Se  Se11  1  0.510537  0.418631  0.277543  1
  Se  Se12  1  0.908094  0.489463  0.277543  1
  Se  Se13  1  0.581369  0.091906  0.277543  1
  Se  Se14  1  0.826081  0.251482  0.747503  1
  Se  Se15  1  0.425400  0.173919  0.747503  1
  Se  Se16  1  0.748518  0.574600  0.747503  1
  Se  Se17  1  0.557631  0.744768  0.018775  1
  Se  Se18  1  0.187137  0.442369  0.018775  1
  Se  Se19  1  0.255232  0.812863  0.018775  1
  Se  Se20  1  0.775776  0.920902  0.514799  1
  Se  Se21  1  0.145126  0.224224  0.514799  1
  Se  Se22  1  0.079098  0.854874  0.514799  1
