# generated using pymatgen
data_Zr3(Al2Co)4
_symmetry_space_group_name_H-M   'P 1'
_cell_length_a   8.59291012
_cell_length_b   8.59290934
_cell_length_c   8.59290989
_cell_angle_alpha   60.02042424
_cell_angle_beta   60.02042863
_cell_angle_gamma   60.02043624
_symmetry_Int_Tables_number   1
_chemical_formula_structural   Zr3(Al2Co)4
_chemical_formula_sum   'Zr6 Al16 Co8'
_cell_volume   448.85580709
_cell_formula_units_Z   2
loop_
 _symmetry_equiv_pos_site_id
 _symmetry_equiv_pos_as_xyz
  1  'x, y, z'
loop_
 _atom_site_type_symbol
 _atom_site_label
 _atom_site_symmetry_multiplicity
 _atom_site_fract_x
 _atom_site_fract_y
 _atom_site_fract_z
 _atom_site_occupancy
  Zr  Zr0  1  0.206328  0.206328  0.793888  1
  Zr  Zr1  1  0.793888  0.206328  0.206328  1
  Zr  Zr2  1  0.206328  0.793888  0.206328  1
  Zr  Zr3  1  0.794393  0.794393  0.204509  1
  Zr  Zr4  1  0.204509  0.794393  0.794393  1
  Zr  Zr5  1  0.794393  0.204509  0.794393  1
  Al  Al6  1  0.380395  0.380395  0.380395  1
  Al  Al7  1  0.380643  0.859216  0.380643  1
  Al  Al8  1  0.859216  0.380643  0.380643  1
  Al  Al9  1  0.380643  0.380643  0.859216  1
  Al  Al10  1  0.834381  0.496025  0.834381  1
  Al  Al11  1  0.496025  0.834381  0.834381  1
  Al  Al12  1  0.834381  0.834381  0.496025  1
  Al  Al13  1  0.165567  0.165567  0.165567  1
  Al  Al14  1  0.165893  0.503033  0.165893  1
  Al  Al15  1  0.503033  0.165893  0.165893  1
  Al  Al16  1  0.165893  0.165893  0.503033  1
  Al  Al17  1  0.619679  0.619679  0.619679  1
  Al  Al18  1  0.619419  0.140933  0.619419  1
  Al  Al19  1  0.140933  0.619419  0.619419  1
  Al  Al20  1  0.619419  0.619419  0.140933  1
  Al  Al21  1  0.833381  0.833381  0.833381  1
  Co  Co22  1  0.999957  0.999957  0.500501  1
  Co  Co23  1  0.500501  0.999957  0.999957  1
  Co  Co24  1  0.999957  0.500501  0.999957  1
  Co  Co25  1  0.499947  0.499947  0.000407  1
  Co  Co26  1  0.000407  0.499947  0.499947  1
  Co  Co27  1  0.499947  0.000407  0.499947  1
  Co  Co28  1  0.500110  0.500110  0.500110  1
  Co  Co29  1  0.000430  0.000430  0.000430  1
