# generated using pymatgen
data_HoNp3(B6Os)2
_symmetry_space_group_name_H-M   'P 1'
_cell_length_a   3.56782300
_cell_length_b   9.31973200
_cell_length_c   11.37898900
_cell_angle_alpha   90.00299107
_cell_angle_beta   90.00000000
_cell_angle_gamma   90.00000000
_symmetry_Int_Tables_number   1
_chemical_formula_structural   HoNp3(B6Os)2
_chemical_formula_sum   'Ho2 Np6 B24 Os4'
_cell_volume   378.36451743
_cell_formula_units_Z   2
loop_
 _symmetry_equiv_pos_site_id
 _symmetry_equiv_pos_as_xyz
  1  'x, y, z'
loop_
 _atom_site_type_symbol
 _atom_site_label
 _atom_site_symmetry_multiplicity
 _atom_site_fract_x
 _atom_site_fract_y
 _atom_site_fract_z
 _atom_site_occupancy
  Ho  Ho0  1  0.000000  0.337684  0.406980  1
  Ho  Ho1  1  0.000000  0.662316  0.593020  1
  Np  Np2  1  0.000000  0.837807  0.093646  1
  Np  Np3  1  0.000000  0.162193  0.906354  1
  Np  Np4  1  0.000000  0.958868  0.401303  1
  Np  Np5  1  0.000000  0.041132  0.598697  1
  Np  Np6  1  0.000000  0.459758  0.097748  1
  Np  Np7  1  0.000000  0.540242  0.902252  1
  B  B8  1  0.500000  0.552048  0.431665  1
  B  B9  1  0.500000  0.447952  0.568335  1
  B  B10  1  0.500000  0.051591  0.067958  1
  B  B11  1  0.500000  0.948409  0.932042  1
  B  B12  1  0.500000  0.743110  0.423556  1
  B  B13  1  0.500000  0.256890  0.576444  1
  B  B14  1  0.500000  0.243379  0.076459  1
  B  B15  1  0.500000  0.756621  0.923541  1
  B  B16  1  0.500000  0.805160  0.274320  1
  B  B17  1  0.500000  0.194840  0.725679  1
  B  B18  1  0.500000  0.305072  0.225418  1
  B  B19  1  0.500000  0.694928  0.774583  1
  B  B20  1  0.500000  0.646035  0.188539  1
  B  B21  1  0.500000  0.353965  0.811461  1
  B  B22  1  0.500000  0.145683  0.311907  1
  B  B23  1  0.500000  0.854317  0.688093  1
  B  B24  1  0.500000  0.988168  0.220956  1
  B  B25  1  0.500000  0.011832  0.779044  1
  B  B26  1  0.500000  0.488405  0.279383  1
  B  B27  1  0.500000  0.511595  0.720617  1
  B  B28  1  0.500000  0.644315  0.040002  1
  B  B29  1  0.500000  0.355685  0.959998  1
  B  B30  1  0.500000  0.143964  0.460171  1
  B  B31  1  0.500000  0.856036  0.539829  1
  Os  Os32  1  0.000000  0.644790  0.319254  1
  Os  Os33  1  0.000000  0.355210  0.680746  1
  Os  Os34  1  0.000000  0.146784  0.180288  1
  Os  Os35  1  0.000000  0.853216  0.819712  1
