# generated using pymatgen
data_Y2ErTm5(ReB6)4
_symmetry_space_group_name_H-M   'P 1'
_cell_length_a   3.65419700
_cell_length_b   9.12346904
_cell_length_c   11.50143903
_cell_angle_alpha   89.99039468
_cell_angle_beta   90.00003883
_cell_angle_gamma   89.99996492
_symmetry_Int_Tables_number   1
_chemical_formula_structural   Y2ErTm5(ReB6)4
_chemical_formula_sum   'Y2 Er1 Tm5 Re4 B24'
_cell_volume   383.44593220
_cell_formula_units_Z   1
loop_
 _symmetry_equiv_pos_site_id
 _symmetry_equiv_pos_as_xyz
  1  'x, y, z'
loop_
 _atom_site_type_symbol
 _atom_site_label
 _atom_site_symmetry_multiplicity
 _atom_site_fract_x
 _atom_site_fract_y
 _atom_site_fract_z
 _atom_site_occupancy
  Y  Y0  1  0.000000  0.322882  0.413889  1
  Y  Y1  1  0.000005  0.677070  0.586166  1
  Er  Er2  1  0.999994  0.823334  0.085990  1
  Tm  Tm3  1  0.000000  0.176635  0.913980  1
  Tm  Tm4  1  0.000001  0.943246  0.369946  1
  Tm  Tm5  1  0.000001  0.056815  0.630059  1
  Tm  Tm6  1  0.999999  0.443125  0.129431  1
  Tm  Tm7  1  0.000000  0.556801  0.870526  1
  Re  Re8  1  0.999994  0.639170  0.319799  1
  Re  Re9  1  0.000002  0.360716  0.680381  1
  Re  Re10  1  0.999999  0.138420  0.178874  1
  Re  Re11  1  0.000001  0.861763  0.820981  1
  B  B12  1  0.499999  0.553511  0.432513  1
  B  B13  1  0.500000  0.446396  0.567584  1
  B  B14  1  0.500000  0.053205  0.066537  1
  B  B15  1  0.499999  0.947096  0.933250  1
  B  B16  1  0.500001  0.750191  0.418023  1
  B  B17  1  0.500001  0.249799  0.582089  1
  B  B18  1  0.500000  0.249767  0.080658  1
  B  B19  1  0.499998  0.750292  0.919010  1
  B  B20  1  0.499999  0.792805  0.264833  1
  B  B21  1  0.500001  0.207092  0.735378  1
  B  B22  1  0.499999  0.292360  0.233960  1
  B  B23  1  0.500002  0.707675  0.765943  1
  B  B24  1  0.499997  0.630555  0.184572  1
  B  B25  1  0.500001  0.369224  0.815615  1
  B  B26  1  0.500001  0.129969  0.314439  1
  B  B27  1  0.500002  0.870155  0.685551  1
  B  B28  1  0.500000  0.981411  0.211794  1
  B  B29  1  0.499999  0.018879  0.788248  1
  B  B30  1  0.499999  0.481926  0.287175  1
  B  B31  1  0.500001  0.517973  0.712884  1
  B  B32  1  0.499998  0.599332  0.027672  1
  B  B33  1  0.500001  0.400345  0.972230  1
  B  B34  1  0.500001  0.098439  0.472525  1
  B  B35  1  0.500003  0.901626  0.527494  1
