# generated using pymatgen
data_LiNd16Cd3Pt4
_symmetry_space_group_name_H-M   'P 1'
_cell_length_a   10.01496555
_cell_length_b   10.01496572
_cell_length_c   10.01496543
_cell_angle_alpha   60.26245623
_cell_angle_beta   60.26245716
_cell_angle_gamma   60.26245791
_symmetry_Int_Tables_number   1
_chemical_formula_structural   LiNd16Cd3Pt4
_chemical_formula_sum   'Li1 Nd16 Cd3 Pt4'
_cell_volume   714.50576038
_cell_formula_units_Z   1
loop_
 _symmetry_equiv_pos_site_id
 _symmetry_equiv_pos_as_xyz
  1  'x, y, z'
loop_
 _atom_site_type_symbol
 _atom_site_label
 _atom_site_symmetry_multiplicity
 _atom_site_fract_x
 _atom_site_fract_y
 _atom_site_fract_z
 _atom_site_occupancy
  Li  Li0  1  0.572762  0.572762  0.572762  1
  Nd  Nd1  1  0.349683  0.349683  0.349683  1
  Nd  Nd2  1  0.350392  0.350392  0.948471  1
  Nd  Nd3  1  0.350392  0.948471  0.350392  1
  Nd  Nd4  1  0.948471  0.350392  0.350392  1
  Nd  Nd5  1  0.809118  0.192706  0.192706  1
  Nd  Nd6  1  0.188138  0.811142  0.811142  1
  Nd  Nd7  1  0.192706  0.809118  0.192706  1
  Nd  Nd8  1  0.811142  0.188138  0.811142  1
  Nd  Nd9  1  0.192706  0.192706  0.809118  1
  Nd  Nd10  1  0.811142  0.811142  0.188138  1
  Nd  Nd11  1  0.937960  0.564396  0.564396  1
  Nd  Nd12  1  0.562227  0.936240  0.936240  1
  Nd  Nd13  1  0.564396  0.937960  0.564396  1
  Nd  Nd14  1  0.936240  0.562227  0.936240  1
  Nd  Nd15  1  0.564396  0.564396  0.937960  1
  Nd  Nd16  1  0.936240  0.936240  0.562227  1
  Cd  Cd17  1  0.581912  0.581912  0.257255  1
  Cd  Cd18  1  0.581912  0.257255  0.581912  1
  Cd  Cd19  1  0.257255  0.581912  0.581912  1
  Pt  Pt20  1  0.143579  0.143579  0.143579  1
  Pt  Pt21  1  0.143319  0.143319  0.570595  1
  Pt  Pt22  1  0.143319  0.570595  0.143319  1
  Pt  Pt23  1  0.570595  0.143319  0.143319  1
