# generated using pymatgen
data_Tm4Lu6(GaBi)3
_symmetry_space_group_name_H-M   'P 1'
_cell_length_a   8.67332300
_cell_length_b   8.68901041
_cell_length_c   6.31538800
_cell_angle_alpha   90.00000000
_cell_angle_beta   90.00000000
_cell_angle_gamma   119.65804001
_symmetry_Int_Tables_number   1
_chemical_formula_structural   Tm4Lu6(GaBi)3
_chemical_formula_sum   'Tm4 Lu6 Ga3 Bi3'
_cell_volume   413.59255796
_cell_formula_units_Z   1
loop_
 _symmetry_equiv_pos_site_id
 _symmetry_equiv_pos_as_xyz
  1  'x, y, z'
loop_
 _atom_site_type_symbol
 _atom_site_label
 _atom_site_symmetry_multiplicity
 _atom_site_fract_x
 _atom_site_fract_y
 _atom_site_fract_z
 _atom_site_occupancy
  Tm  Tm0  1  0.980546  0.230208  0.250000  1
  Tm  Tm1  1  0.768285  0.767762  0.250000  1
  Tm  Tm2  1  0.242814  0.224281  0.750000  1
  Tm  Tm3  1  0.018406  0.775717  0.750000  1
  Lu  Lu4  1  0.335537  0.693054  0.004559  1
  Lu  Lu5  1  0.664313  0.315720  0.495549  1
  Lu  Lu6  1  0.664313  0.315720  0.004451  1
  Lu  Lu7  1  0.335537  0.693054  0.495441  1
  Lu  Lu8  1  0.231014  0.982486  0.250000  1
  Lu  Lu9  1  0.755881  0.001895  0.750000  1
  Ga  Ga10  1  0.603188  0.998521  0.250000  1
  Ga  Ga11  1  0.403296  0.005125  0.750000  1
  Ga  Ga12  1  0.993537  0.600940  0.250000  1
  Bi  Bi13  1  0.385618  0.391979  0.250000  1
  Bi  Bi14  1  0.608745  0.605052  0.750000  1
  Bi  Bi15  1  0.008968  0.398481  0.750000  1
