# generated using pymatgen
data_Y3Zn3Ge2Pt
_symmetry_space_group_name_H-M   'P 1'
_cell_length_a   6.95485500
_cell_length_b   6.95485466
_cell_length_c   4.27999300
_cell_angle_alpha   90.00000000
_cell_angle_beta   90.00000000
_cell_angle_gamma   119.99999688
_symmetry_Int_Tables_number   1
_chemical_formula_structural   Y3Zn3Ge2Pt
_chemical_formula_sum   'Y3 Zn3 Ge2 Pt1'
_cell_volume   179.28743021
_cell_formula_units_Z   1
loop_
 _symmetry_equiv_pos_site_id
 _symmetry_equiv_pos_as_xyz
  1  'x, y, z'
loop_
 _atom_site_type_symbol
 _atom_site_label
 _atom_site_symmetry_multiplicity
 _atom_site_fract_x
 _atom_site_fract_y
 _atom_site_fract_z
 _atom_site_occupancy
  Y  Y0  1  0.585950  0.585950  0.000000  1
  Y  Y1  1  0.414050  0.000000  0.000000  1
  Y  Y2  1  0.000000  0.414050  0.000000  1
  Zn  Zn3  1  0.236132  0.236132  0.500000  1
  Zn  Zn4  1  0.763868  0.000000  0.500000  1
  Zn  Zn5  1  0.000000  0.763868  0.500000  1
  Ge  Ge6  1  0.333333  0.666667  0.500000  1
  Ge  Ge7  1  0.666667  0.333333  0.500000  1
  Pt  Pt8  1  0.000000  0.000000  0.000000  1
