# generated using pymatgen
data_La2Al9PtRh2
_symmetry_space_group_name_H-M   'P 1'
_cell_length_a   7.70292637
_cell_length_b   7.70292635
_cell_length_c   9.65763609
_cell_angle_alpha   89.99210798
_cell_angle_beta   89.99210661
_cell_angle_gamma   119.41071538
_symmetry_Int_Tables_number   1
_chemical_formula_structural   La2Al9PtRh2
_chemical_formula_sum   'La4 Al18 Pt2 Rh4'
_cell_volume   499.18472614
_cell_formula_units_Z   2
loop_
 _symmetry_equiv_pos_site_id
 _symmetry_equiv_pos_as_xyz
  1  'x, y, z'
loop_
 _atom_site_type_symbol
 _atom_site_label
 _atom_site_symmetry_multiplicity
 _atom_site_fract_x
 _atom_site_fract_y
 _atom_site_fract_z
 _atom_site_occupancy
  La  La0  1  0.995672  0.669828  0.249502  1
  La  La1  1  0.004328  0.330172  0.750498  1
  La  La2  1  0.669828  0.995672  0.249502  1
  La  La3  1  0.330172  0.004328  0.750498  1
  Al  Al4  1  0.130981  0.130981  0.250289  1
  Al  Al5  1  0.869019  0.869019  0.749711  1
  Al  Al6  1  0.003551  0.330982  0.075511  1
  Al  Al7  1  0.996449  0.669018  0.924489  1
  Al  Al8  1  0.996224  0.664622  0.572683  1
  Al  Al9  1  0.335378  0.003776  0.427317  1
  Al  Al10  1  0.003776  0.335378  0.427317  1
  Al  Al11  1  0.664622  0.996224  0.572683  1
  Al  Al12  1  0.669018  0.996449  0.924489  1
  Al  Al13  1  0.330982  0.003551  0.075511  1
  Al  Al14  1  0.334320  0.334320  0.545226  1
  Al  Al15  1  0.665680  0.665680  0.454774  1
  Al  Al16  1  0.667631  0.667631  0.048565  1
  Al  Al17  1  0.332369  0.332369  0.951435  1
  Al  Al18  1  0.341315  0.544402  0.253455  1
  Al  Al19  1  0.658685  0.455598  0.746545  1
  Al  Al20  1  0.544402  0.341315  0.253455  1
  Al  Al21  1  0.455598  0.658685  0.746545  1
  Pt  Pt22  1  0.671207  0.328793  0.000000  1
  Pt  Pt23  1  0.328793  0.671207  0.000000  1
  Rh  Rh24  1  0.329277  0.670723  0.500000  1
  Rh  Rh25  1  0.670723  0.329277  0.500000  1
  Rh  Rh26  1  0.000000  0.000000  0.000000  1
  Rh  Rh27  1  0.000000  0.000000  0.500000  1
