# generated using pymatgen
data_NaLiZn10
_symmetry_space_group_name_H-M   'P 1'
_cell_length_a   8.38912040
_cell_length_b   8.38911950
_cell_length_c   8.38911940
_cell_angle_alpha   99.30774694
_cell_angle_beta   99.30773368
_cell_angle_gamma   132.57273937
_symmetry_Int_Tables_number   1
_chemical_formula_structural   NaLiZn10
_chemical_formula_sum   'Na2 Li2 Zn20'
_cell_volume   398.07446509
_cell_formula_units_Z   2
loop_
 _symmetry_equiv_pos_site_id
 _symmetry_equiv_pos_as_xyz
  1  'x, y, z'
loop_
 _atom_site_type_symbol
 _atom_site_label
 _atom_site_symmetry_multiplicity
 _atom_site_fract_x
 _atom_site_fract_y
 _atom_site_fract_z
 _atom_site_occupancy
  Na  Na0  1  0.000000  0.000000  0.000000  1
  Na  Na1  1  0.250000  0.750000  0.500000  1
  Li  Li2  1  0.750000  0.250000  0.500000  1
  Li  Li3  1  0.500000  0.500000  0.000000  1
  Zn  Zn4  1  0.125000  0.375000  0.750000  1
  Zn  Zn5  1  0.625000  0.875000  0.250000  1
  Zn  Zn6  1  0.625000  0.375000  0.750000  1
  Zn  Zn7  1  0.625000  0.375000  0.250000  1
  Zn  Zn8  1  0.185837  0.514878  0.086796  1
  Zn  Zn9  1  0.185837  0.099042  0.670960  1
  Zn  Zn10  1  0.764878  0.935837  0.586796  1
  Zn  Zn11  1  0.764878  0.178082  0.829040  1
  Zn  Zn12  1  0.428082  0.514878  0.329040  1
  Zn  Zn13  1  0.428082  0.099042  0.913204  1
  Zn  Zn14  1  0.349042  0.935837  0.170960  1
  Zn  Zn15  1  0.349042  0.178082  0.413204  1
  Zn  Zn16  1  0.064163  0.235122  0.413204  1
  Zn  Zn17  1  0.064163  0.650958  0.829040  1
  Zn  Zn18  1  0.485122  0.814163  0.913204  1
  Zn  Zn19  1  0.485122  0.571918  0.670960  1
  Zn  Zn20  1  0.821918  0.235122  0.170960  1
  Zn  Zn21  1  0.821918  0.650958  0.586796  1
  Zn  Zn22  1  0.900958  0.814163  0.329040  1
  Zn  Zn23  1  0.900958  0.571918  0.086796  1
