# generated using pymatgen
data_Zr7ScTi11Si16Mo
_symmetry_space_group_name_H-M   'P 1'
_cell_length_a   6.65963898
_cell_length_b   6.81023157
_cell_length_c   12.97453536
_cell_angle_alpha   90.00899129
_cell_angle_beta   89.94519432
_cell_angle_gamma   90.05041468
_symmetry_Int_Tables_number   1
_chemical_formula_structural   Zr7ScTi11Si16Mo
_chemical_formula_sum   'Zr7 Sc1 Ti11 Si16 Mo1'
_cell_volume   588.44246858
_cell_formula_units_Z   1
loop_
 _symmetry_equiv_pos_site_id
 _symmetry_equiv_pos_as_xyz
  1  'x, y, z'
loop_
 _atom_site_type_symbol
 _atom_site_label
 _atom_site_symmetry_multiplicity
 _atom_site_fract_x
 _atom_site_fract_y
 _atom_site_fract_z
 _atom_site_occupancy
  Zr  Zr0  1  0.500649  0.327692  0.097151  1
  Zr  Zr1  1  0.999907  0.174888  0.403984  1
  Zr  Zr2  1  0.499470  0.674093  0.595562  1
  Zr  Zr3  1  0.997618  0.824804  0.903692  1
  Zr  Zr4  1  0.499202  0.674453  0.904338  1
  Zr  Zr5  1  0.998303  0.826242  0.595949  1
  Zr  Zr6  1  0.498756  0.327186  0.403054  1
  Sc  Sc7  1  0.999123  0.173730  0.095324  1
  Ti  Ti8  1  0.836779  0.327199  0.626290  1
  Ti  Ti9  1  0.336809  0.172741  0.874005  1
  Ti  Ti10  1  0.165648  0.673077  0.125749  1
  Ti  Ti11  1  0.665505  0.826637  0.374360  1
  Ti  Ti12  1  0.164530  0.671033  0.374582  1
  Ti  Ti13  1  0.664606  0.826301  0.125759  1
  Ti  Ti14  1  0.835786  0.328516  0.874056  1
  Ti  Ti15  1  0.336528  0.172336  0.625758  1
  Ti  Ti16  1  0.663138  0.005515  0.749844  1
  Ti  Ti17  1  0.163224  0.495414  0.750003  1
  Ti  Ti18  1  0.337640  0.992841  0.250346  1
  Si  Si19  1  0.667932  0.038816  0.539526  1
  Si  Si20  1  0.168683  0.461125  0.960792  1
  Si  Si21  1  0.331396  0.963671  0.039696  1
  Si  Si22  1  0.831536  0.537831  0.460563  1
  Si  Si23  1  0.331904  0.962241  0.460566  1
  Si  Si24  1  0.832900  0.537038  0.040354  1
  Si  Si25  1  0.665870  0.037916  0.959699  1
  Si  Si26  1  0.168526  0.461490  0.539487  1
  Si  Si27  1  0.537530  0.380122  0.749945  1
  Si  Si28  1  0.037914  0.120252  0.750492  1
  Si  Si29  1  0.462815  0.619140  0.250309  1
  Si  Si30  1  0.964303  0.881680  0.249535  1
  Si  Si31  1  0.794657  0.632880  0.750100  1
  Si  Si32  1  0.294888  0.866788  0.749904  1
  Si  Si33  1  0.202964  0.363719  0.248911  1
  Si  Si34  1  0.705706  0.133146  0.249294  1
  Mo  Mo35  1  0.837254  0.507449  0.251019  1
