# generated using pymatgen
data_YbEr(Si7Rh3)2
_symmetry_space_group_name_H-M   'P 1'
_cell_length_a   7.97982356
_cell_length_b   7.97982458
_cell_length_c   7.97982500
_cell_angle_alpha   57.06917324
_cell_angle_beta   57.06916851
_cell_angle_gamma   57.06917044
_symmetry_Int_Tables_number   1
_chemical_formula_structural   YbEr(Si7Rh3)2
_chemical_formula_sum   'Yb1 Er1 Si14 Rh6'
_cell_volume   335.03349529
_cell_formula_units_Z   1
loop_
 _symmetry_equiv_pos_site_id
 _symmetry_equiv_pos_as_xyz
  1  'x, y, z'
loop_
 _atom_site_type_symbol
 _atom_site_label
 _atom_site_symmetry_multiplicity
 _atom_site_fract_x
 _atom_site_fract_y
 _atom_site_fract_z
 _atom_site_occupancy
  Yb  Yb0  1  0.500000  0.500000  0.500000  1
  Er  Er1  1  0.000000  0.000000  0.000000  1
  Si  Si2  1  0.750114  0.750114  0.750114  1
  Si  Si3  1  0.249886  0.249886  0.249886  1
  Si  Si4  1  0.850712  0.066113  0.672148  1
  Si  Si5  1  0.672148  0.850712  0.066113  1
  Si  Si6  1  0.066113  0.672148  0.850712  1
  Si  Si7  1  0.648406  0.827159  0.434598  1
  Si  Si8  1  0.434598  0.648406  0.827159  1
  Si  Si9  1  0.827159  0.434598  0.648406  1
  Si  Si10  1  0.172841  0.565402  0.351594  1
  Si  Si11  1  0.565402  0.351594  0.172841  1
  Si  Si12  1  0.351594  0.172841  0.565402  1
  Si  Si13  1  0.933887  0.327852  0.149288  1
  Si  Si14  1  0.327852  0.149288  0.933887  1
  Si  Si15  1  0.149288  0.933887  0.327852  1
  Rh  Rh16  1  0.069685  0.427933  0.751038  1
  Rh  Rh17  1  0.248962  0.930315  0.572067  1
  Rh  Rh18  1  0.572067  0.248962  0.930315  1
  Rh  Rh19  1  0.930315  0.572067  0.248962  1
  Rh  Rh20  1  0.427933  0.751038  0.069685  1
  Rh  Rh21  1  0.751038  0.069685  0.427933  1
