# generated using pymatgen
data_BaTl2SbPt
_symmetry_space_group_name_H-M   'P 1'
_cell_length_a   6.99289266
_cell_length_b   6.99289272
_cell_length_c   6.99289100
_cell_angle_alpha   137.77403678
_cell_angle_beta   137.77402514
_cell_angle_gamma   61.24924734
_symmetry_Int_Tables_number   1
_chemical_formula_structural   BaTl2SbPt
_chemical_formula_sum   'Ba1 Tl2 Sb1 Pt1'
_cell_volume   152.72154447
_cell_formula_units_Z   1
loop_
 _symmetry_equiv_pos_site_id
 _symmetry_equiv_pos_as_xyz
  1  'x, y, z'
loop_
 _atom_site_type_symbol
 _atom_site_label
 _atom_site_symmetry_multiplicity
 _atom_site_fract_x
 _atom_site_fract_y
 _atom_site_fract_z
 _atom_site_occupancy
  Ba  Ba0  1  0.002215  0.002215  0.000000  1
  Tl  Tl1  1  0.250494  0.750494  0.500000  1
  Tl  Tl2  1  0.750494  0.250494  0.500000  1
  Sb  Sb3  1  0.429733  0.429733  0.000000  1
  Pt  Pt4  1  0.646165  0.646165  0.000000  1
