# generated using pymatgen
data_Sr2Co3Si7Ir9
_symmetry_space_group_name_H-M   'P 1'
_cell_length_a   9.62949100
_cell_length_b   9.62949116
_cell_length_c   3.89001300
_cell_angle_alpha   90.00000000
_cell_angle_beta   90.00000000
_cell_angle_gamma   120.00000563
_symmetry_Int_Tables_number   1
_chemical_formula_structural   Sr2Co3Si7Ir9
_chemical_formula_sum   'Sr2 Co3 Si7 Ir9'
_cell_volume   312.38367537
_cell_formula_units_Z   1
loop_
 _symmetry_equiv_pos_site_id
 _symmetry_equiv_pos_as_xyz
  1  'x, y, z'
loop_
 _atom_site_type_symbol
 _atom_site_label
 _atom_site_symmetry_multiplicity
 _atom_site_fract_x
 _atom_site_fract_y
 _atom_site_fract_z
 _atom_site_occupancy
  Sr  Sr0  1  0.333333  0.666667  0.761916  1
  Sr  Sr1  1  0.666667  0.333333  0.261965  1
  Co  Co2  1  0.269881  0.116680  0.261899  1
  Co  Co3  1  0.846800  0.730119  0.261899  1
  Co  Co4  1  0.883320  0.153200  0.261899  1
  Si  Si5  1  0.000000  0.000000  0.261855  1
  Si  Si6  1  0.289675  0.892937  0.261892  1
  Si  Si7  1  0.603262  0.710325  0.261892  1
  Si  Si8  1  0.107063  0.396738  0.261892  1
  Si  Si9  1  0.716017  0.110903  0.761931  1
  Si  Si10  1  0.394886  0.283983  0.761931  1
  Si  Si11  1  0.889097  0.605114  0.761931  1
  Ir  Ir12  1  0.791400  0.908196  0.761862  1
  Ir  Ir13  1  0.116795  0.208600  0.761862  1
  Ir  Ir14  1  0.091804  0.883205  0.761862  1
  Ir  Ir15  1  0.055519  0.628264  0.261929  1
  Ir  Ir16  1  0.572746  0.944481  0.261929  1
  Ir  Ir17  1  0.371736  0.427254  0.261929  1
  Ir  Ir18  1  0.948491  0.381706  0.761909  1
  Ir  Ir19  1  0.433214  0.051509  0.761909  1
  Ir  Ir20  1  0.618294  0.566786  0.761909  1
