# generated using pymatgen
data_Cs4ZrS4
_symmetry_space_group_name_H-M   'P 1'
_cell_length_a   8.45486877
_cell_length_b   8.26046607
_cell_length_c   12.53965767
_cell_angle_alpha   78.99357904
_cell_angle_beta   71.86484429
_cell_angle_gamma   66.51418557
_symmetry_Int_Tables_number   1
_chemical_formula_structural   Cs4ZrS4
_chemical_formula_sum   'Cs8 Zr2 S8'
_cell_volume   761.08228977
_cell_formula_units_Z   2
loop_
 _symmetry_equiv_pos_site_id
 _symmetry_equiv_pos_as_xyz
  1  'x, y, z'
loop_
 _atom_site_type_symbol
 _atom_site_label
 _atom_site_symmetry_multiplicity
 _atom_site_fract_x
 _atom_site_fract_y
 _atom_site_fract_z
 _atom_site_occupancy
  Cs  Cs0  1  0.768662  0.245367  0.035527  1
  Cs  Cs1  1  0.582646  0.753431  0.157279  1
  Cs  Cs2  1  0.031155  0.787045  0.379183  1
  Cs  Cs3  1  0.498958  0.291585  0.434137  1
  Cs  Cs4  1  0.501004  0.708422  0.565884  1
  Cs  Cs5  1  0.968825  0.212955  0.620825  1
  Cs  Cs6  1  0.417351  0.246588  0.842721  1
  Cs  Cs7  1  0.231334  0.754650  0.964492  1
  Zr  Zr8  1  0.160968  0.267035  0.250747  1
  Zr  Zr9  1  0.839048  0.732956  0.749242  1
  S  S10  1  0.170263  0.113848  0.100212  1
  S  S11  1  0.336519  0.457405  0.188429  1
  S  S12  1  0.859131  0.443767  0.349887  1
  S  S13  1  0.304299  0.032903  0.377872  1
  S  S14  1  0.695719  0.967076  0.622119  1
  S  S15  1  0.140847  0.556209  0.650113  1
  S  S16  1  0.663484  0.542610  0.811576  1
  S  S17  1  0.829791  0.886149  0.899752  1
