# generated using pymatgen
data_Hf16FeCo3Pd4
_symmetry_space_group_name_H-M   'P 1'
_cell_length_a   8.64135579
_cell_length_b   8.64135619
_cell_length_c   8.64135655
_cell_angle_alpha   59.94400267
_cell_angle_beta   59.94400485
_cell_angle_gamma   59.94400399
_symmetry_Int_Tables_number   1
_chemical_formula_structural   Hf16FeCo3Pd4
_chemical_formula_sum   'Hf16 Fe1 Co3 Pd4'
_cell_volume   455.69976826
_cell_formula_units_Z   1
loop_
 _symmetry_equiv_pos_site_id
 _symmetry_equiv_pos_as_xyz
  1  'x, y, z'
loop_
 _atom_site_type_symbol
 _atom_site_label
 _atom_site_symmetry_multiplicity
 _atom_site_fract_x
 _atom_site_fract_y
 _atom_site_fract_z
 _atom_site_occupancy
  Hf  Hf0  1  0.181826  0.606063  0.606063  1
  Hf  Hf1  1  0.606063  0.181826  0.606063  1
  Hf  Hf2  1  0.606063  0.606063  0.181826  1
  Hf  Hf3  1  0.606137  0.606137  0.606137  1
  Hf  Hf4  1  0.812537  0.812537  0.187139  1
  Hf  Hf5  1  0.188404  0.188404  0.810622  1
  Hf  Hf6  1  0.812537  0.187139  0.812537  1
  Hf  Hf7  1  0.188404  0.810622  0.188404  1
  Hf  Hf8  1  0.187139  0.812537  0.812537  1
  Hf  Hf9  1  0.810622  0.188404  0.188404  1
  Hf  Hf10  1  0.439003  0.439003  0.062974  1
  Hf  Hf11  1  0.060719  0.060719  0.439134  1
  Hf  Hf12  1  0.439003  0.062974  0.439003  1
  Hf  Hf13  1  0.060719  0.439134  0.060719  1
  Hf  Hf14  1  0.062974  0.439003  0.439003  1
  Hf  Hf15  1  0.439134  0.060719  0.060719  1
  Fe  Fe16  1  0.394089  0.394089  0.394089  1
  Co  Co17  1  0.817090  0.393961  0.393961  1
  Co  Co18  1  0.393961  0.817090  0.393961  1
  Co  Co19  1  0.393961  0.393961  0.817090  1
  Pd  Pd20  1  0.485434  0.838107  0.838107  1
  Pd  Pd21  1  0.838107  0.485434  0.838107  1
  Pd  Pd22  1  0.838107  0.838107  0.485434  1
  Pd  Pd23  1  0.837967  0.837967  0.837967  1
