# generated using pymatgen
data_Sr2VNi3As4
_symmetry_space_group_name_H-M   'P 1'
_cell_length_a   5.74656824
_cell_length_b   6.50249420
_cell_length_c   5.74853535
_cell_angle_alpha   63.57945071
_cell_angle_beta   90.07883431
_cell_angle_gamma   90.02996646
_symmetry_Int_Tables_number   1
_chemical_formula_structural   Sr2VNi3As4
_chemical_formula_sum   'Sr2 V1 Ni3 As4'
_cell_volume   192.36951747
_cell_formula_units_Z   1
loop_
 _symmetry_equiv_pos_site_id
 _symmetry_equiv_pos_as_xyz
  1  'x, y, z'
loop_
 _atom_site_type_symbol
 _atom_site_label
 _atom_site_symmetry_multiplicity
 _atom_site_fract_x
 _atom_site_fract_y
 _atom_site_fract_z
 _atom_site_occupancy
  Sr  Sr0  1  0.991469  0.999985  0.000047  1
  Sr  Sr1  1  0.508539  0.999868  0.500022  1
  V  V2  1  0.250486  0.499339  0.500280  1
  Ni  Ni3  1  0.249273  0.498338  0.000956  1
  Ni  Ni4  1  0.750711  0.501298  0.999211  1
  Ni  Ni5  1  0.749886  0.501187  0.499583  1
  As  As6  1  0.499510  0.717076  0.139444  1
  As  As7  1  0.000562  0.717314  0.640767  1
  As  As8  1  0.998765  0.282728  0.359382  1
  As  As9  1  0.500799  0.282865  0.860311  1
