# generated using pymatgen
data_Hg(S6Cl)2
_symmetry_space_group_name_H-M   'P 1'
_cell_length_a   8.00937240
_cell_length_b   8.00937560
_cell_length_c   8.00937230
_cell_angle_alpha   91.83042994
_cell_angle_beta   91.83041884
_cell_angle_gamma   91.83038776
_symmetry_Int_Tables_number   1
_chemical_formula_structural   Hg(S6Cl)2
_chemical_formula_sum   'Hg1 S12 Cl2'
_cell_volume   512.99813058
_cell_formula_units_Z   1
loop_
 _symmetry_equiv_pos_site_id
 _symmetry_equiv_pos_as_xyz
  1  'x, y, z'
loop_
 _atom_site_type_symbol
 _atom_site_label
 _atom_site_symmetry_multiplicity
 _atom_site_fract_x
 _atom_site_fract_y
 _atom_site_fract_z
 _atom_site_occupancy
  Hg  Hg0  1  0.500000  0.500000  0.500000  1
  S  S1  1  0.207808  0.207808  0.835010  1
  S  S2  1  0.207808  0.835010  0.207808  1
  S  S3  1  0.792192  0.164990  0.792192  1
  S  S4  1  0.164990  0.792192  0.792192  1
  S  S5  1  0.792192  0.792192  0.164990  1
  S  S6  1  0.707834  0.292166  0.000000  1
  S  S7  1  0.292166  0.000000  0.707834  1
  S  S8  1  0.000000  0.707834  0.292166  1
  S  S9  1  0.292166  0.707834  0.000000  1
  S  S10  1  0.707834  0.000000  0.292166  1
  S  S11  1  0.000000  0.292166  0.707834  1
  S  S12  1  0.835010  0.207808  0.207808  1
  Cl  Cl13  1  0.329520  0.329520  0.329520  1
  Cl  Cl14  1  0.670480  0.670480  0.670480  1
