# generated using pymatgen
data_TaTiV3Re
_symmetry_space_group_name_H-M   'P 1'
_cell_length_a   5.08149378
_cell_length_b   5.08149355
_cell_length_c   5.08149318
_cell_angle_alpha   59.69406313
_cell_angle_beta   59.69406198
_cell_angle_gamma   59.69406362
_symmetry_Int_Tables_number   1
_chemical_formula_structural   TaTiV3Re
_chemical_formula_sum   'Ta1 Ti1 V3 Re1'
_cell_volume   92.13622698
_cell_formula_units_Z   1
loop_
 _symmetry_equiv_pos_site_id
 _symmetry_equiv_pos_as_xyz
  1  'x, y, z'
loop_
 _atom_site_type_symbol
 _atom_site_label
 _atom_site_symmetry_multiplicity
 _atom_site_fract_x
 _atom_site_fract_y
 _atom_site_fract_z
 _atom_site_occupancy
  Ta  Ta0  1  0.375072  0.375072  0.375072  1
  Ti  Ti1  1  0.624483  0.624483  0.624483  1
  V  V2  1  0.999890  0.500558  0.999890  1
  V  V3  1  0.500558  0.999890  0.999890  1
  V  V4  1  0.999890  0.999890  0.500558  1
  Re  Re5  1  0.000107  0.000107  0.000107  1
