# generated using pymatgen
data_Mn3(SeS2)2
_symmetry_space_group_name_H-M   'P 1'
_cell_length_a   3.39491100
_cell_length_b   3.39491110
_cell_length_c   19.83007600
_cell_angle_alpha   90.00000000
_cell_angle_beta   90.00000000
_cell_angle_gamma   120.00000874
_symmetry_Int_Tables_number   1
_chemical_formula_structural   Mn3(SeS2)2
_chemical_formula_sum   'Mn3 Se2 S4'
_cell_volume   197.93006723
_cell_formula_units_Z   1
loop_
 _symmetry_equiv_pos_site_id
 _symmetry_equiv_pos_as_xyz
  1  'x, y, z'
loop_
 _atom_site_type_symbol
 _atom_site_label
 _atom_site_symmetry_multiplicity
 _atom_site_fract_x
 _atom_site_fract_y
 _atom_site_fract_z
 _atom_site_occupancy
  Mn  Mn0  1  0.666667  0.333333  0.006472  1
  Mn  Mn1  1  0.666667  0.333333  0.331675  1
  Mn  Mn2  1  0.666667  0.333333  0.669927  1
  Se  Se3  1  0.333333  0.666667  0.594150  1
  Se  Se4  1  0.333333  0.666667  0.930387  1
  S  S5  1  0.000000  0.000000  0.070150  1
  S  S6  1  0.000000  0.000000  0.397113  1
  S  S7  1  0.000000  0.000000  0.733697  1
  S  S8  1  0.333333  0.666667  0.266428  1
