# generated using pymatgen
data_CaZnGaNi3
_symmetry_space_group_name_H-M   'P 1'
_cell_length_a   5.24290000
_cell_length_b   5.24290086
_cell_length_c   3.84161800
_cell_angle_alpha   90.00000000
_cell_angle_beta   90.00000000
_cell_angle_gamma   120.00000722
_symmetry_Int_Tables_number   1
_chemical_formula_structural   CaZnGaNi3
_chemical_formula_sum   'Ca1 Zn1 Ga1 Ni3'
_cell_volume   91.45090281
_cell_formula_units_Z   1
loop_
 _symmetry_equiv_pos_site_id
 _symmetry_equiv_pos_as_xyz
  1  'x, y, z'
loop_
 _atom_site_type_symbol
 _atom_site_label
 _atom_site_symmetry_multiplicity
 _atom_site_fract_x
 _atom_site_fract_y
 _atom_site_fract_z
 _atom_site_occupancy
  Ca  Ca0  1  0.000000  0.000000  0.000000  1
  Zn  Zn1  1  0.333333  0.666666  0.000000  1
  Ga  Ga2  1  0.666667  0.333333  0.000000  1
  Ni  Ni3  1  0.500101  0.000200  0.500001  1
  Ni  Ni4  1  0.999800  0.499900  0.500001  1
  Ni  Ni5  1  0.500100  0.499900  0.500001  1
