# generated using pymatgen
data_K3PSO3
_symmetry_space_group_name_H-M   'P 1'
_cell_length_a   5.84005200
_cell_length_b   6.50972571
_cell_length_c   8.67752803
_cell_angle_alpha   101.79466234
_cell_angle_beta   90.00000000
_cell_angle_gamma   90.00000000
_symmetry_Int_Tables_number   1
_chemical_formula_structural   K3PSO3
_chemical_formula_sum   'K6 P2 S2 O6'
_cell_volume   322.92951410
_cell_formula_units_Z   2
loop_
 _symmetry_equiv_pos_site_id
 _symmetry_equiv_pos_as_xyz
  1  'x, y, z'
loop_
 _atom_site_type_symbol
 _atom_site_label
 _atom_site_symmetry_multiplicity
 _atom_site_fract_x
 _atom_site_fract_y
 _atom_site_fract_z
 _atom_site_occupancy
  K  K0  1  0.250001  0.757944  0.002282  1
  K  K1  1  0.750001  0.773484  0.267392  1
  K  K2  1  0.750001  0.315816  0.469184  1
  K  K3  1  0.250001  0.684182  0.530815  1
  K  K4  1  0.250001  0.226513  0.732607  1
  K  K5  1  0.750001  0.242042  0.997722  1
  P  P6  1  0.250001  0.314486  0.207997  1
  P  P7  1  0.750001  0.685516  0.792004  1
  S  S8  1  0.250001  0.079566  0.344802  1
  S  S9  1  0.750001  0.920436  0.655198  1
  O  O10  1  0.250001  0.204060  0.032226  1
  O  O11  1  0.031720  0.449326  0.252338  1
  O  O12  1  0.468281  0.449326  0.252338  1
  O  O13  1  0.531720  0.550676  0.747662  1
  O  O14  1  0.968282  0.550676  0.747662  1
  O  O15  1  0.750001  0.795944  0.967775  1
