# generated using pymatgen
data_HoMnCo3NiP3
_symmetry_space_group_name_H-M   'P 1'
_cell_length_a   3.66674800
_cell_length_b   10.30507000
_cell_length_c   11.84856300
_cell_angle_alpha   90.00000000
_cell_angle_beta   90.00000000
_cell_angle_gamma   90.00000000
_symmetry_Int_Tables_number   1
_chemical_formula_structural   HoMnCo3NiP3
_chemical_formula_sum   'Ho4 Mn4 Co12 Ni4 P12'
_cell_volume   447.71092491
_cell_formula_units_Z   4
loop_
 _symmetry_equiv_pos_site_id
 _symmetry_equiv_pos_as_xyz
  1  'x, y, z'
loop_
 _atom_site_type_symbol
 _atom_site_label
 _atom_site_symmetry_multiplicity
 _atom_site_fract_x
 _atom_site_fract_y
 _atom_site_fract_z
 _atom_site_occupancy
  Ho  Ho0  1  0.250000  0.582086  0.705287  1
  Ho  Ho1  1  0.250000  0.917914  0.205287  1
  Ho  Ho2  1  0.750000  0.417914  0.294713  1
  Ho  Ho3  1  0.750000  0.082086  0.794713  1
  Mn  Mn4  1  0.250000  0.710025  0.986944  1
  Mn  Mn5  1  0.250000  0.789975  0.486944  1
  Mn  Mn6  1  0.750000  0.289975  0.013056  1
  Mn  Mn7  1  0.750000  0.210025  0.513056  1
  Co  Co8  1  0.250000  0.221221  0.176764  1
  Co  Co9  1  0.250000  0.278779  0.676764  1
  Co  Co10  1  0.750000  0.778779  0.823236  1
  Co  Co11  1  0.750000  0.721221  0.323236  1
  Co  Co12  1  0.250000  0.883191  0.697600  1
  Co  Co13  1  0.250000  0.616809  0.197600  1
  Co  Co14  1  0.750000  0.116809  0.302400  1
  Co  Co15  1  0.750000  0.383191  0.802400  1
  Co  Co16  1  0.250000  0.466582  0.932545  1
  Co  Co17  1  0.250000  0.033418  0.432545  1
  Co  Co18  1  0.750000  0.533418  0.067455  1
  Co  Co19  1  0.750000  0.966582  0.567455  1
  Ni  Ni20  1  0.250000  0.408334  0.486634  1
  Ni  Ni21  1  0.250000  0.091666  0.986634  1
  Ni  Ni22  1  0.750000  0.591666  0.513366  1
  Ni  Ni23  1  0.750000  0.908334  0.013366  1
  P  P24  1  0.250000  0.418722  0.112626  1
  P  P25  1  0.250000  0.081278  0.612626  1
  P  P26  1  0.750000  0.581278  0.887374  1
  P  P27  1  0.750000  0.918722  0.387374  1
  P  P28  1  0.250000  0.271258  0.866406  1
  P  P29  1  0.250000  0.228742  0.366406  1
  P  P30  1  0.750000  0.728742  0.133594  1
  P  P31  1  0.750000  0.771258  0.633594  1
  P  P32  1  0.250000  0.603705  0.387609  1
  P  P33  1  0.250000  0.896295  0.887609  1
  P  P34  1  0.750000  0.396295  0.612391  1
  P  P35  1  0.750000  0.103705  0.112391  1
