# generated using pymatgen
data_TbHo4Mn2Co17P12
_symmetry_space_group_name_H-M   'P 1'
_cell_length_a   12.03446807
_cell_length_b   12.02520808
_cell_length_c   3.66997700
_cell_angle_alpha   90.00000000
_cell_angle_beta   90.00000000
_cell_angle_gamma   119.98757971
_symmetry_Int_Tables_number   1
_chemical_formula_structural   TbHo4Mn2Co17P12
_chemical_formula_sum   'Tb1 Ho4 Mn2 Co17 P12'
_cell_volume   460.01057327
_cell_formula_units_Z   1
loop_
 _symmetry_equiv_pos_site_id
 _symmetry_equiv_pos_as_xyz
  1  'x, y, z'
loop_
 _atom_site_type_symbol
 _atom_site_label
 _atom_site_symmetry_multiplicity
 _atom_site_fract_x
 _atom_site_fract_y
 _atom_site_fract_z
 _atom_site_occupancy
  Tb  Tb0  1  0.666328  0.333105  0.000000  1
  Ho  Ho1  1  0.333685  0.666835  0.000000  1
  Ho  Ho2  1  0.813691  0.814107  0.500000  1
  Ho  Ho3  1  0.186592  0.000706  0.500000  1
  Ho  Ho4  1  0.999853  0.187984  0.500000  1
  Mn  Mn5  1  0.442847  0.443637  0.000000  1
  Mn  Mn6  1  0.556179  0.998596  0.000000  1
  Co  Co7  1  0.875686  0.358903  0.500000  1
  Co  Co8  1  0.643323  0.518014  0.500000  1
  Co  Co9  1  0.482237  0.124980  0.500000  1
  Co  Co10  1  0.356783  0.873745  0.500000  1
  Co  Co11  1  0.516880  0.642830  0.500000  1
  Co  Co12  1  0.125118  0.484205  0.500000  1
  Co  Co13  1  0.000097  0.552347  0.000000  1
  Co  Co14  1  0.801444  0.178765  0.000000  1
  Co  Co15  1  0.823545  0.623061  0.000000  1
  Co  Co16  1  0.375839  0.198182  0.000000  1
  Co  Co17  1  0.177193  0.799545  0.000000  1
  Co  Co18  1  0.623764  0.821627  0.000000  1
  Co  Co19  1  0.198352  0.378016  0.000000  1
  Co  Co20  1  0.282618  0.283611  0.500000  1
  Co  Co21  1  0.716915  0.999889  0.500000  1
  Co  Co22  1  0.000552  0.715677  0.500000  1
  Co  Co23  1  0.000081  0.999066  0.000000  1
  P  P24  1  0.685758  0.165338  0.500000  1
  P  P25  1  0.835399  0.520767  0.500000  1
  P  P26  1  0.478806  0.313891  0.500000  1
  P  P27  1  0.165761  0.685603  0.500000  1
  P  P28  1  0.520281  0.833908  0.500000  1
  P  P29  1  0.314014  0.480672  0.500000  1
  P  P30  1  0.179384  0.180406  0.000000  1
  P  P31  1  0.820430  0.000472  0.000000  1
  P  P32  1  0.000356  0.819220  0.000000  1
  P  P33  1  0.636024  0.635161  0.000000  1
  P  P34  1  0.364233  0.999366  0.000000  1
  P  P35  1  0.999954  0.367763  0.000000  1
