# generated using pymatgen
data_Y3ErGa3SiNi4
_symmetry_space_group_name_H-M   'P 1'
_cell_length_a   4.25945400
_cell_length_b   6.88096892
_cell_length_c   7.25779426
_cell_angle_alpha   90.71081765
_cell_angle_beta   90.00000000
_cell_angle_gamma   90.00000000
_symmetry_Int_Tables_number   1
_chemical_formula_structural   Y3ErGa3SiNi4
_chemical_formula_sum   'Y3 Er1 Ga3 Si1 Ni4'
_cell_volume   212.70356032
_cell_formula_units_Z   1
loop_
 _symmetry_equiv_pos_site_id
 _symmetry_equiv_pos_as_xyz
  1  'x, y, z'
loop_
 _atom_site_type_symbol
 _atom_site_label
 _atom_site_symmetry_multiplicity
 _atom_site_fract_x
 _atom_site_fract_y
 _atom_site_fract_z
 _atom_site_occupancy
  Y  Y0  1  0.750000  0.513681  0.797923  1
  Y  Y1  1  0.250000  0.983815  0.297981  1
  Y  Y2  1  0.750000  0.008504  0.698288  1
  Er  Er3  1  0.250000  0.487259  0.203591  1
  Ga  Ga4  1  0.250000  0.809920  0.917392  1
  Ga  Ga5  1  0.750000  0.187210  0.083532  1
  Ga  Ga6  1  0.250000  0.308090  0.584047  1
  Si  Si7  1  0.750000  0.683088  0.415811  1
  Ni  Ni8  1  0.750000  0.790226  0.098478  1
  Ni  Ni9  1  0.250000  0.204106  0.914488  1
  Ni  Ni10  1  0.750000  0.320530  0.412223  1
  Ni  Ni11  1  0.250000  0.703570  0.576247  1
