# generated using pymatgen
data_Tb2Er10Tc3Ir
_symmetry_space_group_name_H-M   'P 1'
_cell_length_a   6.26755903
_cell_length_b   7.36121462
_cell_length_c   9.04029600
_cell_angle_alpha   90.00000000
_cell_angle_beta   90.00000000
_cell_angle_gamma   89.94565452
_symmetry_Int_Tables_number   1
_chemical_formula_structural   Tb2Er10Tc3Ir
_chemical_formula_sum   'Tb2 Er10 Tc3 Ir1'
_cell_volume   417.09056738
_cell_formula_units_Z   1
loop_
 _symmetry_equiv_pos_site_id
 _symmetry_equiv_pos_as_xyz
  1  'x, y, z'
loop_
 _atom_site_type_symbol
 _atom_site_label
 _atom_site_symmetry_multiplicity
 _atom_site_fract_x
 _atom_site_fract_y
 _atom_site_fract_z
 _atom_site_occupancy
  Tb  Tb0  1  0.874598  0.542052  0.250000  1
  Tb  Tb1  1  0.624317  0.039405  0.250000  1
  Er  Er2  1  0.333499  0.676552  0.063535  1
  Er  Er3  1  0.162472  0.175788  0.437469  1
  Er  Er4  1  0.664296  0.322322  0.562843  1
  Er  Er5  1  0.836084  0.825312  0.936742  1
  Er  Er6  1  0.664296  0.322322  0.937157  1
  Er  Er7  1  0.836084  0.825312  0.563258  1
  Er  Er8  1  0.333499  0.676552  0.436465  1
  Er  Er9  1  0.162472  0.175788  0.062531  1
  Er  Er10  1  0.131763  0.457047  0.750000  1
  Er  Er11  1  0.371627  0.958659  0.750000  1
  Tc  Tc12  1  0.039171  0.884609  0.250000  1
  Tc  Tc13  1  0.462671  0.387005  0.250000  1
  Tc  Tc14  1  0.961669  0.115544  0.750000  1
  Ir  Ir15  1  0.541484  0.615731  0.750000  1
