# generated using pymatgen
data_Ho3Er2Th3(MgRu)2
_symmetry_space_group_name_H-M   'P 1'
_cell_length_a   9.71263291
_cell_length_b   9.78792293
_cell_length_c   9.78792294
_cell_angle_alpha   59.49173644
_cell_angle_beta   60.25413801
_cell_angle_gamma   60.25413025
_symmetry_Int_Tables_number   1
_chemical_formula_structural   Ho3Er2Th3(MgRu)2
_chemical_formula_sum   'Ho6 Er4 Th6 Mg4 Ru4'
_cell_volume   657.88815714
_cell_formula_units_Z   2
loop_
 _symmetry_equiv_pos_site_id
 _symmetry_equiv_pos_as_xyz
  1  'x, y, z'
loop_
 _atom_site_type_symbol
 _atom_site_label
 _atom_site_symmetry_multiplicity
 _atom_site_fract_x
 _atom_site_fract_y
 _atom_site_fract_z
 _atom_site_occupancy
  Ho  Ho0  1  0.933487  0.566513  0.566513  1
  Ho  Ho1  1  0.566513  0.933487  0.933487  1
  Ho  Ho2  1  0.563954  0.936046  0.563954  1
  Ho  Ho3  1  0.936046  0.563954  0.936046  1
  Ho  Ho4  1  0.563954  0.563954  0.936046  1
  Ho  Ho5  1  0.936046  0.936046  0.563954  1
  Er  Er6  1  0.189114  0.810886  0.189114  1
  Er  Er7  1  0.810886  0.189114  0.810886  1
  Er  Er8  1  0.189114  0.189114  0.810886  1
  Er  Er9  1  0.810886  0.810886  0.189114  1
  Th  Th10  1  0.342421  0.349126  0.349126  1
  Th  Th11  1  0.349126  0.342421  0.959328  1
  Th  Th12  1  0.349126  0.959328  0.342421  1
  Th  Th13  1  0.959328  0.349126  0.349126  1
  Th  Th14  1  0.816498  0.183502  0.183502  1
  Th  Th15  1  0.183502  0.816498  0.816498  1
  Mg  Mg16  1  0.582268  0.579224  0.579224  1
  Mg  Mg17  1  0.579224  0.582268  0.259284  1
  Mg  Mg18  1  0.579224  0.259284  0.582268  1
  Mg  Mg19  1  0.259284  0.579224  0.579224  1
  Ru  Ru20  1  0.129357  0.147900  0.147900  1
  Ru  Ru21  1  0.147900  0.129357  0.574842  1
  Ru  Ru22  1  0.147900  0.574842  0.129357  1
  Ru  Ru23  1  0.574842  0.147900  0.147900  1
