# generated using pymatgen
data_Nd3Y5(Ho3Sn4)4
_symmetry_space_group_name_H-M   'P 1'
_cell_length_a   8.04706432
_cell_length_b   8.20158587
_cell_length_c   15.48087000
_cell_angle_alpha   90.05254824
_cell_angle_beta   90.16488003
_cell_angle_gamma   89.91301389
_symmetry_Int_Tables_number   1
_chemical_formula_structural   Nd3Y5(Ho3Sn4)4
_chemical_formula_sum   'Nd3 Y5 Ho12 Sn16'
_cell_volume   1021.71129107
_cell_formula_units_Z   1
loop_
 _symmetry_equiv_pos_site_id
 _symmetry_equiv_pos_as_xyz
  1  'x, y, z'
loop_
 _atom_site_type_symbol
 _atom_site_label
 _atom_site_symmetry_multiplicity
 _atom_site_fract_x
 _atom_site_fract_y
 _atom_site_fract_z
 _atom_site_occupancy
  Nd  Nd0  1  0.983794  0.820899  0.403258  1
  Nd  Nd1  1  0.515719  0.321090  0.595935  1
  Nd  Nd2  1  0.016538  0.179110  0.904232  1
  Y  Y3  1  0.518702  0.321203  0.902734  1
  Y  Y4  1  0.017906  0.179372  0.597203  1
  Y  Y5  1  0.482741  0.679280  0.402694  1
  Y  Y6  1  0.981573  0.820199  0.097573  1
  Y  Y7  1  0.481891  0.678751  0.096908  1
  Ho  Ho8  1  0.364322  0.836566  0.877563  1
  Ho  Ho9  1  0.862886  0.663487  0.622744  1
  Ho  Ho10  1  0.636816  0.163166  0.376472  1
  Ho  Ho11  1  0.135937  0.337064  0.122493  1
  Ho  Ho12  1  0.635652  0.163068  0.123001  1
  Ho  Ho13  1  0.136605  0.336855  0.376712  1
  Ho  Ho14  1  0.363764  0.836786  0.623041  1
  Ho  Ho15  1  0.864964  0.662805  0.877649  1
  Ho  Ho16  1  0.195999  0.503233  0.750320  1
  Ho  Ho17  1  0.695799  0.996690  0.750114  1
  Ho  Ho18  1  0.804019  0.497079  0.249509  1
  Ho  Ho19  1  0.304427  0.003103  0.249534  1
  Sn  Sn20  1  0.298179  0.035797  0.043019  1
  Sn  Sn21  1  0.798242  0.461298  0.457499  1
  Sn  Sn22  1  0.702023  0.962112  0.542162  1
  Sn  Sn23  1  0.206074  0.539363  0.958771  1
  Sn  Sn24  1  0.700908  0.958877  0.959517  1
  Sn  Sn25  1  0.200205  0.541195  0.540632  1
  Sn  Sn26  1  0.299666  0.040641  0.459104  1
  Sn  Sn27  1  0.795097  0.462063  0.041711  1
  Sn  Sn28  1  0.561905  0.620580  0.750497  1
  Sn  Sn29  1  0.061655  0.879004  0.749918  1
  Sn  Sn30  1  0.438444  0.380700  0.249933  1
  Sn  Sn31  1  0.938504  0.120437  0.249499  1
  Sn  Sn32  1  0.326188  0.145802  0.750859  1
  Sn  Sn33  1  0.826466  0.354043  0.749083  1
  Sn  Sn34  1  0.671551  0.852244  0.249393  1
  Sn  Sn35  1  0.174840  0.646038  0.248715  1
