# generated using pymatgen
data_Tm12TlCo2Ni2Hg
_symmetry_space_group_name_H-M   'P 1'
_cell_length_a   8.26948149
_cell_length_b   8.26948093
_cell_length_c   8.26948025
_cell_angle_alpha   111.65265549
_cell_angle_beta   109.35353540
_cell_angle_gamma   107.43508086
_symmetry_Int_Tables_number   1
_chemical_formula_structural   Tm12TlCo2Ni2Hg
_chemical_formula_sum   'Tm12 Tl1 Co2 Ni2 Hg1'
_cell_volume   434.73185230
_cell_formula_units_Z   1
loop_
 _symmetry_equiv_pos_site_id
 _symmetry_equiv_pos_as_xyz
  1  'x, y, z'
loop_
 _atom_site_type_symbol
 _atom_site_label
 _atom_site_symmetry_multiplicity
 _atom_site_fract_x
 _atom_site_fract_y
 _atom_site_fract_z
 _atom_site_occupancy
  Tm  Tm0  1  0.437661  0.231367  0.206293  1
  Tm  Tm1  1  0.562339  0.768633  0.793707  1
  Tm  Tm2  1  0.025074  0.231367  0.793707  1
  Tm  Tm3  1  0.974926  0.768633  0.206293  1
  Tm  Tm4  1  0.183617  0.288532  0.472149  1
  Tm  Tm5  1  0.816383  0.711468  0.527851  1
  Tm  Tm6  1  0.183617  0.711468  0.895085  1
  Tm  Tm7  1  0.816383  0.288532  0.104915  1
  Tm  Tm8  1  0.318647  0.624995  0.306347  1
  Tm  Tm9  1  0.681353  0.375005  0.693653  1
  Tm  Tm10  1  0.318647  0.012299  0.693653  1
  Tm  Tm11  1  0.681353  0.987701  0.306347  1
  Tl  Tl12  1  0.500000  0.500000  0.000000  1
  Co  Co13  1  0.115169  0.615169  0.500000  1
  Co  Co14  1  0.884831  0.384831  0.500000  1
  Ni  Ni15  1  0.362928  0.000000  0.362928  1
  Ni  Ni16  1  0.637072  0.000000  0.637072  1
  Hg  Hg17  1  0.000000  0.000000  0.000000  1
