# generated using pymatgen
data_NdThZnGa4Au3
_symmetry_space_group_name_H-M   'P 1'
_cell_length_a   4.34381500
_cell_length_b   4.32835600
_cell_length_c   10.90956200
_cell_angle_alpha   90.00000000
_cell_angle_beta   90.00000000
_cell_angle_gamma   90.00000000
_symmetry_Int_Tables_number   1
_chemical_formula_structural   NdThZnGa4Au3
_chemical_formula_sum   'Nd1 Th1 Zn1 Ga4 Au3'
_cell_volume   205.11697781
_cell_formula_units_Z   1
loop_
 _symmetry_equiv_pos_site_id
 _symmetry_equiv_pos_as_xyz
  1  'x, y, z'
loop_
 _atom_site_type_symbol
 _atom_site_label
 _atom_site_symmetry_multiplicity
 _atom_site_fract_x
 _atom_site_fract_y
 _atom_site_fract_z
 _atom_site_occupancy
  Nd  Nd0  1  0.000000  0.500000  0.243945  1
  Th  Th1  1  0.500000  0.000000  0.754257  1
  Zn  Zn2  1  0.000000  0.000000  0.998152  1
  Ga  Ga3  1  0.000000  0.000000  0.501031  1
  Ga  Ga4  1  0.500000  0.500000  0.501648  1
  Ga  Ga5  1  0.000000  0.500000  0.866505  1
  Ga  Ga6  1  0.500000  0.000000  0.135018  1
  Au  Au7  1  0.500000  0.500000  0.997405  1
  Au  Au8  1  0.000000  0.500000  0.636724  1
  Au  Au9  1  0.500000  0.000000  0.365314  1
