# generated using pymatgen
data_Tb2Yb2Mn3FeB16
_symmetry_space_group_name_H-M   'P 1'
_cell_length_a   3.37957400
_cell_length_b   5.91557052
_cell_length_c   11.44104794
_cell_angle_alpha   89.93562358
_cell_angle_beta   90.00000000
_cell_angle_gamma   90.00000000
_symmetry_Int_Tables_number   1
_chemical_formula_structural   Tb2Yb2Mn3FeB16
_chemical_formula_sum   'Tb2 Yb2 Mn3 Fe1 B16'
_cell_volume   228.73052559
_cell_formula_units_Z   1
loop_
 _symmetry_equiv_pos_site_id
 _symmetry_equiv_pos_as_xyz
  1  'x, y, z'
loop_
 _atom_site_type_symbol
 _atom_site_label
 _atom_site_symmetry_multiplicity
 _atom_site_fract_x
 _atom_site_fract_y
 _atom_site_fract_z
 _atom_site_occupancy
  Tb  Tb0  1  0.500000  0.374067  0.151989  1
  Tb  Tb1  1  0.500000  0.625781  0.848620  1
  Yb  Yb2  1  0.500000  0.125696  0.649580  1
  Yb  Yb3  1  0.500000  0.875340  0.350196  1
  Mn  Mn4  1  0.500000  0.627787  0.582835  1
  Mn  Mn5  1  0.500000  0.125692  0.917260  1
  Mn  Mn6  1  0.500000  0.874458  0.083427  1
  Fe  Fe7  1  0.500000  0.373435  0.416568  1
  B  B8  1  0.000000  0.111528  0.046641  1
  B  B9  1  0.000000  0.888632  0.953652  1
  B  B10  1  0.000000  0.385087  0.544947  1
  B  B11  1  0.000000  0.611695  0.452860  1
  B  B12  1  0.000000  0.138356  0.467261  1
  B  B13  1  0.000000  0.862325  0.531725  1
  B  B14  1  0.000000  0.360709  0.967595  1
  B  B15  1  0.000000  0.639165  0.032674  1
  B  B16  1  0.000000  0.024471  0.191548  1
  B  B17  1  0.000000  0.975968  0.808859  1
  B  B18  1  0.000000  0.473492  0.689695  1
  B  B19  1  0.000000  0.524689  0.310427  1
  B  B20  1  0.000000  0.220418  0.318474  1
  B  B21  1  0.000000  0.781607  0.682742  1
  B  B22  1  0.000000  0.278515  0.816043  1
  B  B23  1  0.000000  0.721088  0.184382  1
