# generated using pymatgen
data_Tb5ScCoTe2
_symmetry_space_group_name_H-M   'P 1'
_cell_length_a   3.95878600
_cell_length_b   8.35840196
_cell_length_c   8.22678683
_cell_angle_alpha   120.53064200
_cell_angle_beta   90.00000000
_cell_angle_gamma   90.00000000
_symmetry_Int_Tables_number   1
_chemical_formula_structural   Tb5ScCoTe2
_chemical_formula_sum   'Tb5 Sc1 Co1 Te2'
_cell_volume   234.47633366
_cell_formula_units_Z   1
loop_
 _symmetry_equiv_pos_site_id
 _symmetry_equiv_pos_as_xyz
  1  'x, y, z'
loop_
 _atom_site_type_symbol
 _atom_site_label
 _atom_site_symmetry_multiplicity
 _atom_site_fract_x
 _atom_site_fract_y
 _atom_site_fract_z
 _atom_site_occupancy
  Tb  Tb0  1  0.500000  0.765138  0.769503  1
  Tb  Tb1  1  0.500000  0.995634  0.230497  1
  Tb  Tb2  1  0.000000  0.391033  0.388774  1
  Tb  Tb3  1  0.000000  0.002259  0.611226  1
  Tb  Tb4  1  0.000000  0.587516  0.000000  1
  Sc  Sc5  1  0.500000  0.231553  0.000000  1
  Co  Co6  1  0.000000  0.035923  0.000000  1
  Te  Te7  1  0.500000  0.660311  0.329676  1
  Te  Te8  1  0.500000  0.330634  0.670324  1
