# generated using pymatgen
data_YbCeHo2(ReC2)2
_symmetry_space_group_name_H-M   'P 1'
_cell_length_a   5.15014600
_cell_length_b   6.55215200
_cell_length_c   9.93162700
_cell_angle_alpha   90.00000000
_cell_angle_beta   90.00000000
_cell_angle_gamma   90.00000000
_symmetry_Int_Tables_number   1
_chemical_formula_structural   YbCeHo2(ReC2)2
_chemical_formula_sum   'Yb2 Ce2 Ho4 Re4 C8'
_cell_volume   335.13817875
_cell_formula_units_Z   2
loop_
 _symmetry_equiv_pos_site_id
 _symmetry_equiv_pos_as_xyz
  1  'x, y, z'
loop_
 _atom_site_type_symbol
 _atom_site_label
 _atom_site_symmetry_multiplicity
 _atom_site_fract_x
 _atom_site_fract_y
 _atom_site_fract_z
 _atom_site_occupancy
  Yb  Yb0  1  0.250000  0.467254  0.782933  1
  Yb  Yb1  1  0.750000  0.032746  0.282933  1
  Ce  Ce2  1  0.250000  0.968327  0.718046  1
  Ce  Ce3  1  0.750000  0.531673  0.218046  1
  Ho  Ho4  1  0.250000  0.821984  0.055409  1
  Ho  Ho5  1  0.750000  0.678016  0.555409  1
  Ho  Ho6  1  0.250000  0.318076  0.444226  1
  Ho  Ho7  1  0.750000  0.181924  0.944226  1
  Re  Re8  1  0.250000  0.278814  0.135442  1
  Re  Re9  1  0.750000  0.221186  0.635442  1
  Re  Re10  1  0.250000  0.779645  0.362693  1
  Re  Re11  1  0.750000  0.720355  0.862693  1
  C  C12  1  0.250000  0.169834  0.953708  1
  C  C13  1  0.750000  0.810934  0.047486  1
  C  C14  1  0.250000  0.689066  0.547486  1
  C  C15  1  0.750000  0.330166  0.453708  1
  C  C16  1  0.250000  0.046158  0.259656  1
  C  C17  1  0.750000  0.453842  0.759656  1
  C  C18  1  0.250000  0.545501  0.240401  1
  C  C19  1  0.750000  0.954499  0.740401  1
