# generated using pymatgen
data_DyTh7(GePd)8
_symmetry_space_group_name_H-M   'P 1'
_cell_length_a   4.52099500
_cell_length_b   7.78397600
_cell_length_c   14.56891300
_cell_angle_alpha   90.00000000
_cell_angle_beta   90.00000000
_cell_angle_gamma   90.00000000
_symmetry_Int_Tables_number   1
_chemical_formula_structural   DyTh7(GePd)8
_chemical_formula_sum   'Dy1 Th7 Ge8 Pd8'
_cell_volume   512.69922955
_cell_formula_units_Z   1
loop_
 _symmetry_equiv_pos_site_id
 _symmetry_equiv_pos_as_xyz
  1  'x, y, z'
loop_
 _atom_site_type_symbol
 _atom_site_label
 _atom_site_symmetry_multiplicity
 _atom_site_fract_x
 _atom_site_fract_y
 _atom_site_fract_z
 _atom_site_occupancy
  Dy  Dy0  1  0.000000  0.289066  0.000000  1
  Th  Th1  1  0.500000  0.771876  0.749100  1
  Th  Th2  1  0.000000  0.230201  0.754856  1
  Th  Th3  1  0.500000  0.771876  0.250900  1
  Th  Th4  1  0.000000  0.230201  0.245144  1
  Th  Th5  1  0.500000  0.713713  0.000000  1
  Th  Th6  1  0.000000  0.283299  0.500000  1
  Th  Th7  1  0.500000  0.710283  0.500000  1
  Ge  Ge8  1  0.500000  0.407207  0.640543  1
  Ge  Ge9  1  0.000000  0.589477  0.862429  1
  Ge  Ge10  1  0.500000  0.407207  0.359457  1
  Ge  Ge11  1  0.000000  0.589477  0.137571  1
  Ge  Ge12  1  0.500000  0.090978  0.096155  1
  Ge  Ge13  1  0.000000  0.912712  0.397759  1
  Ge  Ge14  1  0.500000  0.090978  0.903845  1
  Ge  Ge15  1  0.000000  0.912712  0.602241  1
  Pd  Pd16  1  0.500000  0.074283  0.614961  1
  Pd  Pd17  1  0.000000  0.925917  0.886511  1
  Pd  Pd18  1  0.500000  0.074283  0.385039  1
  Pd  Pd19  1  0.000000  0.925917  0.113489  1
  Pd  Pd20  1  0.500000  0.416123  0.143480  1
  Pd  Pd21  1  0.000000  0.583044  0.354278  1
  Pd  Pd22  1  0.500000  0.416123  0.856520  1
  Pd  Pd23  1  0.000000  0.583044  0.645722  1
