# generated using pymatgen
data_Tb6Co15Mo2P12Rh
_symmetry_space_group_name_H-M   'P 1'
_cell_length_a   3.72349800
_cell_length_b   10.63668100
_cell_length_c   12.32528600
_cell_angle_alpha   90.00000000
_cell_angle_beta   90.00000000
_cell_angle_gamma   90.00000000
_symmetry_Int_Tables_number   1
_chemical_formula_structural   Tb6Co15Mo2P12Rh
_chemical_formula_sum   'Tb6 Co15 Mo2 P12 Rh1'
_cell_volume   488.15109202
_cell_formula_units_Z   1
loop_
 _symmetry_equiv_pos_site_id
 _symmetry_equiv_pos_as_xyz
  1  'x, y, z'
loop_
 _atom_site_type_symbol
 _atom_site_label
 _atom_site_symmetry_multiplicity
 _atom_site_fract_x
 _atom_site_fract_y
 _atom_site_fract_z
 _atom_site_occupancy
  Tb  Tb0  1  0.000000  0.500000  0.520183  1
  Tb  Tb1  1  0.500000  0.000000  0.475575  1
  Tb  Tb2  1  0.500000  0.819435  0.204737  1
  Tb  Tb3  1  0.500000  0.180565  0.204737  1
  Tb  Tb4  1  0.000000  0.684472  0.796424  1
  Tb  Tb5  1  0.000000  0.315528  0.796424  1
  Co  Co6  1  0.000000  0.000000  0.297220  1
  Co  Co7  1  0.000000  0.500000  0.988882  1
  Co  Co8  1  0.500000  0.000000  0.013701  1
  Co  Co9  1  0.500000  0.331116  0.992399  1
  Co  Co10  1  0.500000  0.668884  0.992399  1
  Co  Co11  1  0.000000  0.167042  0.010309  1
  Co  Co12  1  0.000000  0.832958  0.010309  1
  Co  Co13  1  0.500000  0.294151  0.429415  1
  Co  Co14  1  0.500000  0.705849  0.429415  1
  Co  Co15  1  0.000000  0.201283  0.567220  1
  Co  Co16  1  0.000000  0.798717  0.567220  1
  Co  Co17  1  0.500000  0.880229  0.707654  1
  Co  Co18  1  0.500000  0.119771  0.707654  1
  Co  Co19  1  0.000000  0.621637  0.292576  1
  Co  Co20  1  0.000000  0.378363  0.292576  1
  Mo  Mo21  1  0.500000  0.500000  0.156242  1
  Mo  Mo22  1  0.000000  0.000000  0.844455  1
  P  P23  1  0.500000  0.500000  0.889314  1
  P  P24  1  0.000000  0.000000  0.118271  1
  P  P25  1  0.500000  0.500000  0.347527  1
  P  P26  1  0.000000  0.000000  0.651564  1
  P  P27  1  0.500000  0.301967  0.612452  1
  P  P28  1  0.500000  0.698033  0.612452  1
  P  P29  1  0.000000  0.188081  0.383124  1
  P  P30  1  0.000000  0.811919  0.383124  1
  P  P31  1  0.500000  0.845779  0.894412  1
  P  P32  1  0.500000  0.154221  0.894412  1
  P  P33  1  0.000000  0.655642  0.107506  1
  P  P34  1  0.000000  0.344358  0.107506  1
  Rh  Rh35  1  0.500000  0.500000  0.700612  1
