# generated using pymatgen
data_YLu5Np3O18
_symmetry_space_group_name_H-M   'P 1'
_cell_length_a   9.39468417
_cell_length_b   9.39771171
_cell_length_c   5.04608601
_cell_angle_alpha   90.00000210
_cell_angle_beta   89.99472885
_cell_angle_gamma   120.01066157
_symmetry_Int_Tables_number   1
_chemical_formula_structural   YLu5Np3O18
_chemical_formula_sum   'Y1 Lu5 Np3 O18'
_cell_volume   385.78284654
_cell_formula_units_Z   1
loop_
 _symmetry_equiv_pos_site_id
 _symmetry_equiv_pos_as_xyz
  1  'x, y, z'
loop_
 _atom_site_type_symbol
 _atom_site_label
 _atom_site_symmetry_multiplicity
 _atom_site_fract_x
 _atom_site_fract_y
 _atom_site_fract_z
 _atom_site_occupancy
  Y  Y0  1  0.000000  0.630071  0.000000  1
  Lu  Lu1  1  0.000000  0.293124  0.500000  1
  Lu  Lu2  1  0.368084  0.368364  0.000838  1
  Lu  Lu3  1  0.295026  0.000488  0.500101  1
  Lu  Lu4  1  0.704974  0.705462  0.499899  1
  Lu  Lu5  1  0.631916  0.000281  0.999162  1
  Np  Np6  1  0.335051  0.666766  0.503091  1
  Np  Np7  1  0.000000  0.001558  0.000000  1
  Np  Np8  1  0.664949  0.331714  0.496909  1
  O  O9  1  0.092014  0.881148  0.777569  1
  O  O10  1  0.221253  0.768914  0.284501  1
  O  O11  1  0.122024  0.535407  0.721665  1
  O  O12  1  0.418408  0.880076  0.729004  1
  O  O13  1  0.233822  0.451481  0.277887  1
  O  O14  1  0.123020  0.214960  0.780413  1
  O  O15  1  0.214550  0.123028  0.219854  1
  O  O16  1  0.549052  0.782746  0.279763  1
  O  O17  1  0.462081  0.581438  0.727425  1
  O  O18  1  0.785450  0.908478  0.780146  1
  O  O19  1  0.450948  0.233693  0.720237  1
  O  O20  1  0.581592  0.461668  0.270996  1
  O  O21  1  0.537919  0.119357  0.272575  1
  O  O22  1  0.778747  0.547661  0.715499  1
  O  O23  1  0.907986  0.789134  0.222431  1
  O  O24  1  0.766178  0.217659  0.722113  1
  O  O25  1  0.877976  0.413383  0.278335  1
  O  O26  1  0.876980  0.091940  0.219587  1
