# generated using pymatgen
data_GdScWO6
_symmetry_space_group_name_H-M   'P 1'
_cell_length_a   5.37279400
_cell_length_b   7.58414289
_cell_length_c   11.26196908
_cell_angle_alpha   78.88822709
_cell_angle_beta   90.00000000
_cell_angle_gamma   90.00000000
_symmetry_Int_Tables_number   1
_chemical_formula_structural   GdScWO6
_chemical_formula_sum   'Gd4 Sc4 W4 O24'
_cell_volume   450.30011880
_cell_formula_units_Z   4
loop_
 _symmetry_equiv_pos_site_id
 _symmetry_equiv_pos_as_xyz
  1  'x, y, z'
loop_
 _atom_site_type_symbol
 _atom_site_label
 _atom_site_symmetry_multiplicity
 _atom_site_fract_x
 _atom_site_fract_y
 _atom_site_fract_z
 _atom_site_occupancy
  Gd  Gd0  1  0.770569  0.000000  0.750000  1
  Gd  Gd1  1  0.229431  0.000000  0.250000  1
  Gd  Gd2  1  0.692018  0.500000  0.750000  1
  Gd  Gd3  1  0.307982  0.500000  0.250000  1
  Sc  Sc4  1  0.203404  0.773171  0.595021  1
  Sc  Sc5  1  0.796596  0.773171  0.095021  1
  Sc  Sc6  1  0.203404  0.226829  0.904979  1
  Sc  Sc7  1  0.796596  0.226829  0.404979  1
  W  W8  1  0.269287  0.734759  0.891326  1
  W  W9  1  0.730713  0.734759  0.391326  1
  W  W10  1  0.269287  0.265241  0.608674  1
  W  W11  1  0.730713  0.265241  0.108674  1
  O  O12  1  0.098479  0.965391  0.889073  1
  O  O13  1  0.574509  0.830261  0.940809  1
  O  O14  1  0.901521  0.965391  0.389073  1
  O  O15  1  0.465746  0.789957  0.727931  1
  O  O16  1  0.425491  0.830261  0.440809  1
  O  O17  1  0.996604  0.711272  0.774725  1
  O  O18  1  0.534254  0.789957  0.227931  1
  O  O19  1  0.865689  0.656829  0.548451  1
  O  O20  1  0.360924  0.492948  0.886977  1
  O  O21  1  0.003396  0.711272  0.274725  1
  O  O22  1  0.360924  0.507052  0.613023  1
  O  O23  1  0.865689  0.343171  0.951549  1
  O  O24  1  0.134311  0.656829  0.048451  1
  O  O25  1  0.639076  0.492948  0.386977  1
  O  O26  1  0.996604  0.288728  0.725275  1
  O  O27  1  0.639076  0.507052  0.113023  1
  O  O28  1  0.134311  0.343171  0.451549  1
  O  O29  1  0.465746  0.210043  0.772069  1
  O  O30  1  0.003396  0.288728  0.225275  1
  O  O31  1  0.574509  0.169739  0.559191  1
  O  O32  1  0.534254  0.210043  0.272069  1
  O  O33  1  0.098479  0.034609  0.610927  1
  O  O34  1  0.425491  0.169739  0.059191  1
  O  O35  1  0.901521  0.034609  0.110927  1
