# generated using pymatgen
data_Tb5Nd14TmPb16
_symmetry_space_group_name_H-M   'P 1'
_cell_length_a   8.36824600
_cell_length_b   8.47038752
_cell_length_c   16.10041900
_cell_angle_alpha   90.01841228
_cell_angle_beta   89.99950703
_cell_angle_gamma   90.00807667
_symmetry_Int_Tables_number   1
_chemical_formula_structural   Tb5Nd14TmPb16
_chemical_formula_sum   'Tb5 Nd14 Tm1 Pb16'
_cell_volume   1141.23444199
_cell_formula_units_Z   1
loop_
 _symmetry_equiv_pos_site_id
 _symmetry_equiv_pos_as_xyz
  1  'x, y, z'
loop_
 _atom_site_type_symbol
 _atom_site_label
 _atom_site_symmetry_multiplicity
 _atom_site_fract_x
 _atom_site_fract_y
 _atom_site_fract_z
 _atom_site_occupancy
  Tb  Tb0  1  0.628119  0.157544  0.622859  1
  Tb  Tb1  1  0.128144  0.342484  0.877061  1
  Tb  Tb2  1  0.794674  0.495559  0.750150  1
  Tb  Tb3  1  0.294738  0.004351  0.749850  1
  Tb  Tb4  1  0.204876  0.503635  0.249223  1
  Nd  Nd5  1  0.372939  0.841142  0.118203  1
  Nd  Nd6  1  0.872397  0.659277  0.381798  1
  Nd  Nd7  1  0.375159  0.840090  0.380051  1
  Nd  Nd8  1  0.874586  0.660309  0.119970  1
  Nd  Nd9  1  0.624574  0.158859  0.880388  1
  Nd  Nd10  1  0.124591  0.341174  0.619704  1
  Nd  Nd11  1  0.469135  0.677357  0.600164  1
  Nd  Nd12  1  0.969166  0.822638  0.899866  1
  Nd  Nd13  1  0.530709  0.321752  0.099418  1
  Nd  Nd14  1  0.030439  0.177953  0.400525  1
  Nd  Nd15  1  0.528771  0.320912  0.401871  1
  Nd  Nd16  1  0.028502  0.178785  0.098185  1
  Nd  Nd17  1  0.470982  0.676358  0.898931  1
  Nd  Nd18  1  0.971022  0.823626  0.601017  1
  Tm  Tm19  1  0.705321  0.996105  0.250719  1
  Pb  Pb20  1  0.715686  0.970059  0.458245  1
  Pb  Pb21  1  0.215647  0.530033  0.041474  1
  Pb  Pb22  1  0.279576  0.037445  0.954221  1
  Pb  Pb23  1  0.779562  0.462580  0.545739  1
  Pb  Pb24  1  0.290508  0.034871  0.545677  1
  Pb  Pb25  1  0.790486  0.465188  0.954344  1
  Pb  Pb26  1  0.715418  0.967692  0.045433  1
  Pb  Pb27  1  0.215385  0.532392  0.454870  1
  Pb  Pb28  1  0.431472  0.373471  0.749437  1
  Pb  Pb29  1  0.931518  0.126479  0.750542  1
  Pb  Pb30  1  0.569127  0.624312  0.249517  1
  Pb  Pb31  1  0.068216  0.876437  0.250532  1
  Pb  Pb32  1  0.659936  0.849026  0.749053  1
  Pb  Pb33  1  0.159898  0.651177  0.750936  1
  Pb  Pb34  1  0.339497  0.151832  0.249854  1
  Pb  Pb35  1  0.839222  0.347098  0.250172  1
