# generated using pymatgen
data_Li2Ta4Se4O19
_symmetry_space_group_name_H-M   'P 1'
_cell_length_a   3.93338560
_cell_length_b   10.13899124
_cell_length_c   11.02965950
_cell_angle_alpha   109.77766495
_cell_angle_beta   91.23605950
_cell_angle_gamma   97.28319201
_symmetry_Int_Tables_number   1
_chemical_formula_structural   Li2Ta4Se4O19
_chemical_formula_sum   'Li2 Ta4 Se4 O19'
_cell_volume   409.60224424
_cell_formula_units_Z   1
loop_
 _symmetry_equiv_pos_site_id
 _symmetry_equiv_pos_as_xyz
  1  'x, y, z'
loop_
 _atom_site_type_symbol
 _atom_site_label
 _atom_site_symmetry_multiplicity
 _atom_site_fract_x
 _atom_site_fract_y
 _atom_site_fract_z
 _atom_site_occupancy
  Li  Li0  1  0.633456  0.928569  0.876186  1
  Li  Li1  1  0.366544  0.071431  0.123814  1
  Ta  Ta2  1  0.350434  0.196974  0.698827  1
  Ta  Ta3  1  0.649566  0.803026  0.301173  1
  Ta  Ta4  1  0.569244  0.567440  0.684728  1
  Ta  Ta5  1  0.430756  0.432560  0.315272  1
  Se  Se6  1  0.349015  0.830848  0.590268  1
  Se  Se7  1  0.650985  0.169152  0.409732  1
  Se  Se8  1  0.277457  0.719442  0.986826  1
  Se  Se9  1  0.722543  0.280558  0.013174  1
  O  O10  1  0.662552  0.878491  0.497127  1
  O  O11  1  0.337448  0.121509  0.502873  1
  O  O12  1  0.312149  0.991785  0.703466  1
  O  O13  1  0.687851  0.008215  0.296534  1
  O  O14  1  0.617958  0.783757  0.690293  1
  O  O15  1  0.382042  0.216243  0.309707  1
  O  O16  1  0.592225  0.674213  0.878021  1
  O  O17  1  0.407775  0.325787  0.121979  1
  O  O18  1  0.589549  0.747749  0.113056  1
  O  O19  1  0.410451  0.252251  0.886944  1
  O  O20  1  0.253424  0.884925  0.988037  1
  O  O21  1  0.746576  0.115075  0.011963  1
  O  O22  1  0.874500  0.189724  0.695164  1
  O  O23  1  0.125500  0.810276  0.304836  1
  O  O24  1  0.466780  0.387531  0.702240  1
  O  O25  1  0.533220  0.612469  0.297760  1
  O  O26  1  0.500000  0.500000  0.500000  1
  O  O27  1  0.052101  0.589824  0.696445  1
  O  O28  1  0.947899  0.410176  0.303555  1
