# generated using pymatgen
data_TbYbAg2(Pt2O7)2
_symmetry_space_group_name_H-M   'P 1'
_cell_length_a   7.15260524
_cell_length_b   7.23191920
_cell_length_c   7.22514358
_cell_angle_alpha   61.18547794
_cell_angle_beta   60.33155660
_cell_angle_gamma   60.36212740
_symmetry_Int_Tables_number   1
_chemical_formula_structural   TbYbAg2(Pt2O7)2
_chemical_formula_sum   'Tb1 Yb1 Ag2 Pt4 O14'
_cell_volume   267.97105652
_cell_formula_units_Z   1
loop_
 _symmetry_equiv_pos_site_id
 _symmetry_equiv_pos_as_xyz
  1  'x, y, z'
loop_
 _atom_site_type_symbol
 _atom_site_label
 _atom_site_symmetry_multiplicity
 _atom_site_fract_x
 _atom_site_fract_y
 _atom_site_fract_z
 _atom_site_occupancy
  Tb  Tb0  1  0.625000  0.625000  0.125000  1
  Yb  Yb1  1  0.625000  0.125000  0.625000  1
  Ag  Ag2  1  0.625000  0.625000  0.625000  1
  Ag  Ag3  1  0.125000  0.625000  0.625000  1
  Pt  Pt4  1  0.125000  0.125000  0.125000  1
  Pt  Pt5  1  0.625000  0.125000  0.125000  1
  Pt  Pt6  1  0.125000  0.625000  0.125000  1
  Pt  Pt7  1  0.125000  0.125000  0.625000  1
  O  O8  1  0.045753  0.455018  0.453475  1
  O  O9  1  0.790119  0.793415  0.197743  1
  O  O10  1  0.783362  0.220409  0.212868  1
  O  O11  1  0.460274  0.046485  0.456003  1
  O  O12  1  0.031276  0.456585  0.052257  1
  O  O13  1  0.766131  0.730515  0.737223  1
  O  O14  1  0.037237  0.046485  0.456003  1
  O  O15  1  0.218724  0.793415  0.197743  1
  O  O16  1  0.212763  0.203515  0.793997  1
  O  O17  1  0.483869  0.519485  0.512777  1
  O  O18  1  0.789726  0.203515  0.793997  1
  O  O19  1  0.466638  0.029591  0.037132  1
  O  O20  1  0.459881  0.456585  0.052257  1
  O  O21  1  0.204247  0.794982  0.796525  1
