# generated using pymatgen
data_Li2Th3(NiGe2)2
_symmetry_space_group_name_H-M   'P 1'
_cell_length_a   4.17783135
_cell_length_b   4.12098307
_cell_length_c   13.01588122
_cell_angle_alpha   80.89141407
_cell_angle_beta   80.76467622
_cell_angle_gamma   90.00000144
_symmetry_Int_Tables_number   1
_chemical_formula_structural   Li2Th3(NiGe2)2
_chemical_formula_sum   'Li2 Th3 Ni2 Ge4'
_cell_volume   218.32331336
_cell_formula_units_Z   1
loop_
 _symmetry_equiv_pos_site_id
 _symmetry_equiv_pos_as_xyz
  1  'x, y, z'
loop_
 _atom_site_type_symbol
 _atom_site_label
 _atom_site_symmetry_multiplicity
 _atom_site_fract_x
 _atom_site_fract_y
 _atom_site_fract_z
 _atom_site_occupancy
  Li  Li0  1  0.249895  0.249895  0.500211  1
  Li  Li1  1  0.750105  0.750105  0.499789  1
  Th  Th2  1  0.358774  0.858774  0.282452  1
  Th  Th3  1  0.641226  0.141226  0.717548  1
  Th  Th4  1  0.000000  0.000000  0.000000  1
  Ni  Ni5  1  0.091477  0.591477  0.817048  1
  Ni  Ni6  1  0.908523  0.408523  0.182952  1
  Ge  Ge7  1  0.185380  0.685380  0.629239  1
  Ge  Ge8  1  0.814620  0.314620  0.370761  1
  Ge  Ge9  1  0.450821  0.450821  0.098358  1
  Ge  Ge10  1  0.549179  0.549179  0.901642  1
