# generated using pymatgen
data_Ta4BiSb3O16
_symmetry_space_group_name_H-M   'P 1'
_cell_length_a   5.03299100
_cell_length_b   5.65338377
_cell_length_c   11.95459162
_cell_angle_alpha   89.94025979
_cell_angle_beta   90.00000000
_cell_angle_gamma   90.00000000
_symmetry_Int_Tables_number   1
_chemical_formula_structural   Ta4BiSb3O16
_chemical_formula_sum   'Ta4 Bi1 Sb3 O16'
_cell_volume   340.14894659
_cell_formula_units_Z   1
loop_
 _symmetry_equiv_pos_site_id
 _symmetry_equiv_pos_as_xyz
  1  'x, y, z'
loop_
 _atom_site_type_symbol
 _atom_site_label
 _atom_site_symmetry_multiplicity
 _atom_site_fract_x
 _atom_site_fract_y
 _atom_site_fract_z
 _atom_site_occupancy
  Ta  Ta0  1  0.746120  0.873187  0.250761  1
  Ta  Ta1  1  0.746120  0.626813  0.749239  1
  Ta  Ta2  1  0.248841  0.124810  0.751695  1
  Ta  Ta3  1  0.248841  0.375190  0.248305  1
  Bi  Bi4  1  0.728961  0.250000  0.000000  1
  Sb  Sb5  1  0.193898  0.750000  0.500000  1
  Sb  Sb6  1  0.309670  0.750000  0.000000  1
  Sb  Sb7  1  0.807382  0.250000  0.500000  1
  O  O8  1  0.086166  0.080518  0.594693  1
  O  O9  1  0.086166  0.419482  0.405307  1
  O  O10  1  0.410454  0.074952  0.904008  1
  O  O11  1  0.410454  0.425048  0.095992  1
  O  O12  1  0.914408  0.920998  0.404796  1
  O  O13  1  0.914408  0.579002  0.595204  1
  O  O14  1  0.589827  0.909912  0.095321  1
  O  O15  1  0.589827  0.590088  0.904679  1
  O  O16  1  0.502686  0.148798  0.299578  1
  O  O17  1  0.502686  0.351202  0.700422  1
  O  O18  1  0.987737  0.153286  0.194611  1
  O  O19  1  0.987737  0.346714  0.805389  1
  O  O20  1  0.490367  0.849972  0.698295  1
  O  O21  1  0.490367  0.650028  0.301705  1
  O  O22  1  0.003437  0.850389  0.798942  1
  O  O23  1  0.003437  0.649611  0.201058  1
