# generated using pymatgen
data_GdY(ZnPt)2
_symmetry_space_group_name_H-M   'P 1'
_cell_length_a   4.22909200
_cell_length_b   6.83919387
_cell_length_c   8.04442800
_cell_angle_alpha   88.74795730
_cell_angle_beta   90.00000000
_cell_angle_gamma   90.00000000
_symmetry_Int_Tables_number   1
_chemical_formula_structural   GdY(ZnPt)2
_chemical_formula_sum   'Gd2 Y2 Zn4 Pt4'
_cell_volume   232.61810621
_cell_formula_units_Z   2
loop_
 _symmetry_equiv_pos_site_id
 _symmetry_equiv_pos_as_xyz
  1  'x, y, z'
loop_
 _atom_site_type_symbol
 _atom_site_label
 _atom_site_symmetry_multiplicity
 _atom_site_fract_x
 _atom_site_fract_y
 _atom_site_fract_z
 _atom_site_occupancy
  Gd  Gd0  1  0.750000  0.965222  0.684317  1
  Gd  Gd1  1  0.250000  0.034778  0.315683  1
  Y  Y2  1  0.250000  0.535640  0.187083  1
  Y  Y3  1  0.750000  0.464360  0.812917  1
  Zn  Zn4  1  0.250000  0.644186  0.563674  1
  Zn  Zn5  1  0.750000  0.355814  0.436326  1
  Zn  Zn6  1  0.750000  0.859206  0.061191  1
  Zn  Zn7  1  0.250000  0.140794  0.938809  1
  Pt  Pt8  1  0.250000  0.759290  0.875682  1
  Pt  Pt9  1  0.750000  0.240710  0.124318  1
  Pt  Pt10  1  0.750000  0.751371  0.383704  1
  Pt  Pt11  1  0.250000  0.248629  0.616296  1
