# generated using pymatgen
data_Tb3Y(FeC4)2
_symmetry_space_group_name_H-M   'P 1'
_cell_length_a   5.05533938
_cell_length_b   6.62548592
_cell_length_c   6.62078782
_cell_angle_alpha   68.84626042
_cell_angle_beta   112.44385736
_cell_angle_gamma   112.42707057
_symmetry_Int_Tables_number   1
_chemical_formula_structural   Tb3Y(FeC4)2
_chemical_formula_sum   'Tb3 Y1 Fe2 C8'
_cell_volume   183.34803428
_cell_formula_units_Z   1
loop_
 _symmetry_equiv_pos_site_id
 _symmetry_equiv_pos_as_xyz
  1  'x, y, z'
loop_
 _atom_site_type_symbol
 _atom_site_label
 _atom_site_symmetry_multiplicity
 _atom_site_fract_x
 _atom_site_fract_y
 _atom_site_fract_z
 _atom_site_occupancy
  Tb  Tb0  1  0.355349  0.512655  0.198043  1
  Tb  Tb1  1  0.144480  0.801339  0.487622  1
  Tb  Tb2  1  0.855500  0.198277  0.512722  1
  Y  Y3  1  0.644181  0.487454  0.800909  1
  Fe  Fe4  1  0.250109  0.000214  0.000098  1
  Fe  Fe5  1  0.750203  0.000214  0.000098  1
  C  C6  1  0.922195  0.758009  0.086381  1
  C  C7  1  0.871816  0.536119  0.207514  1
  C  C8  1  0.577625  0.913039  0.242212  1
  C  C9  1  0.628110  0.791986  0.464232  1
  C  C10  1  0.372085  0.208077  0.536093  1
  C  C11  1  0.422585  0.087023  0.758148  1
  C  C12  1  0.128201  0.463828  0.792575  1
  C  C13  1  0.077559  0.241765  0.913354  1
