# generated using pymatgen
data_Zr5AlSb2
_symmetry_space_group_name_H-M   'P 1'
_cell_length_a   5.55749345
_cell_length_b   8.39010235
_cell_length_c   8.39010167
_cell_angle_alpha   83.70260583
_cell_angle_beta   70.65876862
_cell_angle_gamma   70.65876911
_symmetry_Int_Tables_number   1
_chemical_formula_structural   Zr5AlSb2
_chemical_formula_sum   'Zr10 Al2 Sb4'
_cell_volume   348.30131984
_cell_formula_units_Z   2
loop_
 _symmetry_equiv_pos_site_id
 _symmetry_equiv_pos_as_xyz
  1  'x, y, z'
loop_
 _atom_site_type_symbol
 _atom_site_label
 _atom_site_symmetry_multiplicity
 _atom_site_fract_x
 _atom_site_fract_y
 _atom_site_fract_z
 _atom_site_occupancy
  Zr  Zr0  1  0.250000  0.500000  0.500000  1
  Zr  Zr1  1  0.750000  0.500000  0.500000  1
  Zr  Zr2  1  0.076704  0.137581  0.709011  1
  Zr  Zr3  1  0.923296  0.862419  0.290989  1
  Zr  Zr4  1  0.785715  0.290989  0.137581  1
  Zr  Zr5  1  0.423296  0.290989  0.862419  1
  Zr  Zr6  1  0.214285  0.709011  0.862419  1
  Zr  Zr7  1  0.576704  0.709011  0.137581  1
  Zr  Zr8  1  0.714285  0.862419  0.709011  1
  Zr  Zr9  1  0.285715  0.137581  0.290989  1
  Al  Al10  1  0.250000  0.000000  0.000000  1
  Al  Al11  1  0.750000  0.000000  0.000000  1
  Sb  Sb12  1  0.163125  0.500000  0.173749  1
  Sb  Sb13  1  0.836875  0.500000  0.826251  1
  Sb  Sb14  1  0.336875  0.826251  0.500000  1
  Sb  Sb15  1  0.663125  0.173749  0.500000  1
