# generated using pymatgen
data_Er3Fe7(P3Rh)2
_symmetry_space_group_name_H-M   'P 1'
_cell_length_a   3.73528400
_cell_length_b   10.69298900
_cell_length_c   12.19199600
_cell_angle_alpha   90.00000000
_cell_angle_beta   90.00000000
_cell_angle_gamma   90.00000000
_symmetry_Int_Tables_number   1
_chemical_formula_structural   Er3Fe7(P3Rh)2
_chemical_formula_sum   'Er6 Fe14 P12 Rh4'
_cell_volume   486.96478826
_cell_formula_units_Z   2
loop_
 _symmetry_equiv_pos_site_id
 _symmetry_equiv_pos_as_xyz
  1  'x, y, z'
loop_
 _atom_site_type_symbol
 _atom_site_label
 _atom_site_symmetry_multiplicity
 _atom_site_fract_x
 _atom_site_fract_y
 _atom_site_fract_z
 _atom_site_occupancy
  Er  Er0  1  0.000000  0.500000  0.523513  1
  Er  Er1  1  0.500000  0.000000  0.476487  1
  Er  Er2  1  0.500000  0.816214  0.203983  1
  Er  Er3  1  0.500000  0.183786  0.203983  1
  Er  Er4  1  0.000000  0.683786  0.796017  1
  Er  Er5  1  0.000000  0.316214  0.796017  1
  Fe  Fe6  1  0.000000  0.500000  0.990477  1
  Fe  Fe7  1  0.500000  0.000000  0.009523  1
  Fe  Fe8  1  0.500000  0.331236  0.994732  1
  Fe  Fe9  1  0.500000  0.668764  0.994732  1
  Fe  Fe10  1  0.000000  0.168764  0.005268  1
  Fe  Fe11  1  0.000000  0.831236  0.005268  1
  Fe  Fe12  1  0.500000  0.300965  0.430669  1
  Fe  Fe13  1  0.500000  0.699035  0.430669  1
  Fe  Fe14  1  0.000000  0.199035  0.569331  1
  Fe  Fe15  1  0.000000  0.800965  0.569331  1
  Fe  Fe16  1  0.500000  0.882718  0.710402  1
  Fe  Fe17  1  0.500000  0.117282  0.710402  1
  Fe  Fe18  1  0.000000  0.617282  0.289598  1
  Fe  Fe19  1  0.000000  0.382718  0.289598  1
  P  P20  1  0.500000  0.500000  0.891250  1
  P  P21  1  0.000000  0.000000  0.108750  1
  P  P22  1  0.500000  0.500000  0.347072  1
  P  P23  1  0.000000  0.000000  0.652928  1
  P  P24  1  0.500000  0.296713  0.613971  1
  P  P25  1  0.500000  0.703287  0.613971  1
  P  P26  1  0.000000  0.203287  0.386029  1
  P  P27  1  0.000000  0.796713  0.386029  1
  P  P28  1  0.500000  0.842707  0.896029  1
  P  P29  1  0.500000  0.157293  0.896029  1
  P  P30  1  0.000000  0.657293  0.103971  1
  P  P31  1  0.000000  0.342707  0.103971  1
  Rh  Rh32  1  0.500000  0.500000  0.155996  1
  Rh  Rh33  1  0.000000  0.000000  0.844004  1
  Rh  Rh34  1  0.500000  0.500000  0.698543  1
  Rh  Rh35  1  0.000000  0.000000  0.301457  1
