# generated using pymatgen
data_Tb2HoLuIn4
_symmetry_space_group_name_H-M   'P 1'
_cell_length_a   6.52870934
_cell_length_b   6.52870936
_cell_length_c   9.99766700
_cell_angle_alpha   90.00000000
_cell_angle_beta   90.00000000
_cell_angle_gamma   98.62586585
_symmetry_Int_Tables_number   1
_chemical_formula_structural   Tb2HoLuIn4
_chemical_formula_sum   'Tb4 Ho2 Lu2 In8'
_cell_volume   421.32083826
_cell_formula_units_Z   2
loop_
 _symmetry_equiv_pos_site_id
 _symmetry_equiv_pos_as_xyz
  1  'x, y, z'
loop_
 _atom_site_type_symbol
 _atom_site_label
 _atom_site_symmetry_multiplicity
 _atom_site_fract_x
 _atom_site_fract_y
 _atom_site_fract_z
 _atom_site_occupancy
  Tb  Tb0  1  0.245311  0.754689  0.500000  1
  Tb  Tb1  1  0.245311  0.754689  0.000000  1
  Tb  Tb2  1  0.754689  0.245311  0.500000  1
  Tb  Tb3  1  0.754689  0.245311  0.000000  1
  Ho  Ho4  1  0.534879  0.534879  0.250000  1
  Ho  Ho5  1  0.465121  0.465121  0.750000  1
  Lu  Lu6  1  0.978050  0.978050  0.250000  1
  Lu  Lu7  1  0.021950  0.021950  0.750000  1
  In  In8  1  0.251882  0.251882  0.021915  1
  In  In9  1  0.748118  0.748118  0.978085  1
  In  In10  1  0.251882  0.251882  0.478085  1
  In  In11  1  0.748118  0.748118  0.521915  1
  In  In12  1  0.483491  0.023769  0.250000  1
  In  In13  1  0.976231  0.516509  0.750000  1
  In  In14  1  0.516509  0.976231  0.750000  1
  In  In15  1  0.023769  0.483491  0.250000  1
