# generated using pymatgen
data_Tb6Sc4Si5As
_symmetry_space_group_name_H-M   'P 1'
_cell_length_a   8.32383300
_cell_length_b   8.33421646
_cell_length_c   6.03652800
_cell_angle_alpha   90.00000000
_cell_angle_beta   90.00000000
_cell_angle_gamma   119.95878316
_symmetry_Int_Tables_number   1
_chemical_formula_structural   Tb6Sc4Si5As
_chemical_formula_sum   'Tb6 Sc4 Si5 As1'
_cell_volume   362.81581588
_cell_formula_units_Z   1
loop_
 _symmetry_equiv_pos_site_id
 _symmetry_equiv_pos_as_xyz
  1  'x, y, z'
loop_
 _atom_site_type_symbol
 _atom_site_label
 _atom_site_symmetry_multiplicity
 _atom_site_fract_x
 _atom_site_fract_y
 _atom_site_fract_z
 _atom_site_occupancy
  Tb  Tb0  1  0.996212  0.749454  0.750000  1
  Tb  Tb1  1  0.000609  0.247962  0.250000  1
  Tb  Tb2  1  0.752647  0.752038  0.250000  1
  Tb  Tb3  1  0.752991  0.000000  0.750000  1
  Tb  Tb4  1  0.246760  0.250546  0.750000  1
  Tb  Tb5  1  0.248411  0.000000  0.250000  1
  Sc  Sc6  1  0.332859  0.664091  0.497944  1
  Sc  Sc7  1  0.668769  0.335909  0.002056  1
  Sc  Sc8  1  0.668769  0.335909  0.497944  1
  Sc  Sc9  1  0.332859  0.664091  0.002056  1
  Si  Si10  1  0.398436  0.397154  0.250000  1
  Si  Si11  1  0.001282  0.602846  0.250000  1
  Si  Si12  1  0.999406  0.397931  0.750000  1
  Si  Si13  1  0.601475  0.602069  0.750000  1
  Si  Si14  1  0.604136  0.000000  0.250000  1
  As  As15  1  0.394383  0.000000  0.750000  1
