# generated using pymatgen
data_Rb8Ho(WBr8)3
_symmetry_space_group_name_H-M   'P 1'
_cell_length_a   13.29035839
_cell_length_b   13.29035761
_cell_length_c   13.29035860
_cell_angle_alpha   131.51242571
_cell_angle_beta   131.51242221
_cell_angle_gamma   71.00019615
_symmetry_Int_Tables_number   1
_chemical_formula_structural   Rb8Ho(WBr8)3
_chemical_formula_sum   'Rb8 Ho1 W3 Br24'
_cell_volume   1288.94903164
_cell_formula_units_Z   1
loop_
 _symmetry_equiv_pos_site_id
 _symmetry_equiv_pos_as_xyz
  1  'x, y, z'
loop_
 _atom_site_type_symbol
 _atom_site_label
 _atom_site_symmetry_multiplicity
 _atom_site_fract_x
 _atom_site_fract_y
 _atom_site_fract_z
 _atom_site_occupancy
  Rb  Rb0  1  0.116932  0.639847  0.998240  1
  Rb  Rb1  1  0.360153  0.883068  0.001760  1
  Rb  Rb2  1  0.641607  0.639847  0.522914  1
  Rb  Rb3  1  0.360153  0.358393  0.477086  1
  Rb  Rb4  1  0.881308  0.358393  0.998240  1
  Rb  Rb5  1  0.881308  0.883068  0.522914  1
  Rb  Rb6  1  0.116932  0.118692  0.477086  1
  Rb  Rb7  1  0.641607  0.118692  0.001760  1
  Ho  Ho8  1  0.000000  0.000000  0.000000  1
  W  W9  1  0.750000  0.250000  0.500000  1
  W  W10  1  0.500000  0.500000  0.000000  1
  W  W11  1  0.250000  0.750000  0.500000  1
  Br  Br12  1  0.255060  0.999648  0.255412  1
  Br  Br13  1  0.000352  0.744940  0.744588  1
  Br  Br14  1  0.251936  0.985348  0.733413  1
  Br  Br15  1  0.748662  0.482130  0.733469  1
  Br  Br16  1  0.481477  0.748064  0.733413  1
  Br  Br17  1  0.128797  0.128797  0.000000  1
  Br  Br18  1  0.499525  0.732522  0.232997  1
  Br  Br19  1  0.867353  0.367353  0.500000  1
  Br  Br20  1  0.000352  0.255764  0.255412  1
  Br  Br21  1  0.382591  0.382591  0.000000  1
  Br  Br22  1  0.617409  0.617409  0.000000  1
  Br  Br23  1  0.499525  0.266528  0.767003  1
  Br  Br24  1  0.267478  0.500475  0.767003  1
  Br  Br25  1  0.517870  0.251338  0.266531  1
  Br  Br26  1  0.367138  0.867138  0.500000  1
  Br  Br27  1  0.632647  0.132647  0.500000  1
  Br  Br28  1  0.251936  0.518523  0.266587  1
  Br  Br29  1  0.132862  0.632862  0.500000  1
  Br  Br30  1  0.014652  0.748064  0.266587  1
  Br  Br31  1  0.984808  0.251338  0.733469  1
  Br  Br32  1  0.744236  0.999648  0.744588  1
  Br  Br33  1  0.733472  0.500475  0.232997  1
  Br  Br34  1  0.748662  0.015192  0.266531  1
  Br  Br35  1  0.871203  0.871203  0.000000  1
