# generated using pymatgen
data_Er5Tc3P12(Ir3Rh5)2
_symmetry_space_group_name_H-M   'P 1'
_cell_length_a   12.66534200
_cell_length_b   12.66613965
_cell_length_c   3.94920100
_cell_angle_alpha   90.00000000
_cell_angle_beta   90.00000000
_cell_angle_gamma   120.03758469
_symmetry_Int_Tables_number   1
_chemical_formula_structural   Er5Tc3P12(Ir3Rh5)2
_chemical_formula_sum   'Er5 Tc3 P12 Ir6 Rh10'
_cell_volume   548.44926562
_cell_formula_units_Z   1
loop_
 _symmetry_equiv_pos_site_id
 _symmetry_equiv_pos_as_xyz
  1  'x, y, z'
loop_
 _atom_site_type_symbol
 _atom_site_label
 _atom_site_symmetry_multiplicity
 _atom_site_fract_x
 _atom_site_fract_y
 _atom_site_fract_z
 _atom_site_occupancy
  Er  Er0  1  0.666851  0.333547  0.000000  1
  Er  Er1  1  0.333255  0.666711  0.000000  1
  Er  Er2  1  0.818577  0.818474  0.500000  1
  Er  Er3  1  0.181302  0.999728  0.500000  1
  Er  Er4  1  0.000015  0.182349  0.500000  1
  Tc  Tc5  1  0.285917  0.285565  0.500000  1
  Tc  Tc6  1  0.714401  0.999681  0.500000  1
  Tc  Tc7  1  0.999965  0.714144  0.500000  1
  P  P8  1  0.688842  0.168938  0.500000  1
  P  P9  1  0.831180  0.519306  0.500000  1
  P  P10  1  0.480730  0.311303  0.500000  1
  P  P11  1  0.168739  0.687977  0.500000  1
  P  P12  1  0.519427  0.830612  0.500000  1
  P  P13  1  0.311094  0.480127  0.500000  1
  P  P14  1  0.637736  0.637553  0.000000  1
  P  P15  1  0.362560  0.000036  0.000000  1
  P  P16  1  0.000164  0.363067  0.000000  1
  P  P17  1  0.181896  0.181838  0.000000  1
  P  P18  1  0.818241  0.000349  0.000000  1
  P  P19  1  0.000032  0.818376  0.000000  1
  Ir  Ir20  1  0.639144  0.508345  0.500000  1
  Ir  Ir21  1  0.491711  0.130764  0.500000  1
  Ir  Ir22  1  0.360795  0.868692  0.500000  1
  Ir  Ir23  1  0.507695  0.638911  0.500000  1
  Ir  Ir24  1  0.131421  0.491637  0.500000  1
  Ir  Ir25  1  0.999979  0.000125  0.000000  1
  Rh  Rh26  1  0.805470  0.183883  0.000000  1
  Rh  Rh27  1  0.816095  0.622539  0.000000  1
  Rh  Rh28  1  0.377877  0.193759  0.000000  1
  Rh  Rh29  1  0.183833  0.806424  0.000000  1
  Rh  Rh30  1  0.622380  0.815799  0.000000  1
  Rh  Rh31  1  0.193986  0.377318  0.000000  1
  Rh  Rh32  1  0.456028  0.456097  0.000000  1
  Rh  Rh33  1  0.544353  0.000596  0.000000  1
  Rh  Rh34  1  0.999529  0.544752  0.000000  1
  Rh  Rh35  1  0.868780  0.360681  0.500000  1
