# generated using pymatgen
data_Ta4Be2(AlV)3
_symmetry_space_group_name_H-M   'P 1'
_cell_length_a   4.93644799
_cell_length_b   4.93472606
_cell_length_c   8.29010900
_cell_angle_alpha   90.00008238
_cell_angle_beta   90.00009224
_cell_angle_gamma   59.56399381
_symmetry_Int_Tables_number   1
_chemical_formula_structural   Ta4Be2(AlV)3
_chemical_formula_sum   'Ta4 Be2 Al3 V3'
_cell_volume   174.11797361
_cell_formula_units_Z   1
loop_
 _symmetry_equiv_pos_site_id
 _symmetry_equiv_pos_as_xyz
  1  'x, y, z'
loop_
 _atom_site_type_symbol
 _atom_site_label
 _atom_site_symmetry_multiplicity
 _atom_site_fract_x
 _atom_site_fract_y
 _atom_site_fract_z
 _atom_site_occupancy
  Ta  Ta0  1  0.334831  0.334918  0.064763  1
  Ta  Ta1  1  0.666978  0.666928  0.943427  1
  Ta  Ta2  1  0.666978  0.666929  0.556574  1
  Ta  Ta3  1  0.334831  0.334918  0.435237  1
  Be  Be4  1  0.811284  0.347466  0.250000  1
  Be  Be5  1  0.347405  0.811286  0.250000  1
  Al  Al6  1  0.817613  0.817523  0.249999  1
  Al  Al7  1  0.007518  0.007515  0.488912  1
  Al  Al8  1  0.007518  0.007515  0.011088  1
  V  V9  1  0.173771  0.656795  0.750000  1
  V  V10  1  0.656769  0.173747  0.750000  1
  V  V11  1  0.174506  0.174462  0.750000  1
