# generated using pymatgen
data_Nd4TiAl19Pt12
_symmetry_space_group_name_H-M   'P 1'
_cell_length_a   4.17681500
_cell_length_b   7.38385516
_cell_length_c   20.76744600
_cell_angle_alpha   89.66773197
_cell_angle_beta   90.00000000
_cell_angle_gamma   90.00000000
_symmetry_Int_Tables_number   1
_chemical_formula_structural   Nd4TiAl19Pt12
_chemical_formula_sum   'Nd4 Ti1 Al19 Pt12'
_cell_volume   640.47796972
_cell_formula_units_Z   1
loop_
 _symmetry_equiv_pos_site_id
 _symmetry_equiv_pos_as_xyz
  1  'x, y, z'
loop_
 _atom_site_type_symbol
 _atom_site_label
 _atom_site_symmetry_multiplicity
 _atom_site_fract_x
 _atom_site_fract_y
 _atom_site_fract_z
 _atom_site_occupancy
  Nd  Nd0  1  0.250000  0.115941  0.640853  1
  Nd  Nd1  1  0.750000  0.878839  0.359454  1
  Nd  Nd2  1  0.250000  0.383065  0.139453  1
  Nd  Nd3  1  0.750000  0.618525  0.859943  1
  Ti  Ti4  1  0.750000  0.364065  0.383018  1
  Al  Al5  1  0.750000  0.886488  0.982628  1
  Al  Al6  1  0.750000  0.684939  0.200672  1
  Al  Al7  1  0.250000  0.871206  0.491787  1
  Al  Al8  1  0.250000  0.631029  0.991593  1
  Al  Al9  1  0.250000  0.311512  0.799292  1
  Al  Al10  1  0.750000  0.074999  0.208670  1
  Al  Al11  1  0.250000  0.643465  0.616210  1
  Al  Al12  1  0.250000  0.572010  0.292805  1
  Al  Al13  1  0.250000  0.185635  0.298973  1
  Al  Al14  1  0.750000  0.146356  0.883999  1
  Al  Al15  1  0.250000  0.922580  0.791749  1
  Al  Al16  1  0.750000  0.369479  0.008257  1
  Al  Al17  1  0.750000  0.619677  0.484149  1
  Al  Al18  1  0.750000  0.131617  0.507418  1
  Al  Al19  1  0.250000  0.114135  0.017569  1
  Al  Al20  1  0.250000  0.852410  0.116068  1
  Al  Al21  1  0.250000  0.385653  0.516362  1
  Al  Al22  1  0.750000  0.423570  0.708127  1
  Al  Al23  1  0.750000  0.812541  0.701531  1
  Pt  Pt24  1  0.750000  0.380297  0.261247  1
  Pt  Pt25  1  0.250000  0.880905  0.237124  1
  Pt  Pt26  1  0.250000  0.615911  0.737011  1
  Pt  Pt27  1  0.750000  0.116464  0.763607  1
  Pt  Pt28  1  0.250000  0.165323  0.426065  1
  Pt  Pt29  1  0.750000  0.420174  0.583936  1
  Pt  Pt30  1  0.750000  0.077867  0.084488  1
  Pt  Pt31  1  0.250000  0.922395  0.916101  1
  Pt  Pt32  1  0.750000  0.838769  0.574123  1
  Pt  Pt33  1  0.250000  0.336874  0.927636  1
  Pt  Pt34  1  0.750000  0.663532  0.072254  1
  Pt  Pt35  1  0.250000  0.581753  0.415831  1
