# generated using pymatgen
data_HfCo4P3W
_symmetry_space_group_name_H-M   'P 1'
_cell_length_a   3.64668500
_cell_length_b   10.27524900
_cell_length_c   11.77398400
_cell_angle_alpha   90.00000000
_cell_angle_beta   90.00000000
_cell_angle_gamma   90.00000000
_symmetry_Int_Tables_number   1
_chemical_formula_structural   HfCo4P3W
_chemical_formula_sum   'Hf4 Co16 P12 W4'
_cell_volume   441.17820248
_cell_formula_units_Z   4
loop_
 _symmetry_equiv_pos_site_id
 _symmetry_equiv_pos_as_xyz
  1  'x, y, z'
loop_
 _atom_site_type_symbol
 _atom_site_label
 _atom_site_symmetry_multiplicity
 _atom_site_fract_x
 _atom_site_fract_y
 _atom_site_fract_z
 _atom_site_occupancy
  Hf  Hf0  1  0.250000  0.582600  0.705702  1
  Hf  Hf1  1  0.250000  0.917400  0.205702  1
  Hf  Hf2  1  0.750000  0.417400  0.294298  1
  Hf  Hf3  1  0.750000  0.082600  0.794298  1
  Co  Co4  1  0.250000  0.408467  0.484345  1
  Co  Co5  1  0.250000  0.091533  0.984345  1
  Co  Co6  1  0.750000  0.591533  0.515655  1
  Co  Co7  1  0.750000  0.908467  0.015655  1
  Co  Co8  1  0.250000  0.224513  0.178585  1
  Co  Co9  1  0.250000  0.275488  0.678585  1
  Co  Co10  1  0.750000  0.775488  0.821415  1
  Co  Co11  1  0.750000  0.724512  0.321415  1
  Co  Co12  1  0.250000  0.887668  0.703645  1
  Co  Co13  1  0.250000  0.612332  0.203645  1
  Co  Co14  1  0.750000  0.112332  0.296355  1
  Co  Co15  1  0.750000  0.387668  0.796355  1
  Co  Co16  1  0.250000  0.464915  0.930646  1
  Co  Co17  1  0.250000  0.035085  0.430646  1
  Co  Co18  1  0.750000  0.535085  0.069354  1
  Co  Co19  1  0.750000  0.964915  0.569354  1
  P  P20  1  0.250000  0.421728  0.117110  1
  P  P21  1  0.250000  0.078272  0.617110  1
  P  P22  1  0.750000  0.578272  0.882890  1
  P  P23  1  0.750000  0.921728  0.382890  1
  P  P24  1  0.250000  0.263855  0.863608  1
  P  P25  1  0.250000  0.236145  0.363608  1
  P  P26  1  0.750000  0.736145  0.136392  1
  P  P27  1  0.750000  0.763855  0.636392  1
  P  P28  1  0.250000  0.592521  0.388391  1
  P  P29  1  0.250000  0.907479  0.888391  1
  P  P30  1  0.750000  0.407479  0.611609  1
  P  P31  1  0.750000  0.092521  0.111609  1
  W  W32  1  0.250000  0.710801  0.988482  1
  W  W33  1  0.250000  0.789199  0.488482  1
  W  W34  1  0.750000  0.289199  0.011518  1
  W  W35  1  0.750000  0.210801  0.511518  1
