# generated using pymatgen
data_DyEr3Zr6(In2Pt)4
_symmetry_space_group_name_H-M   'P 1'
_cell_length_a   3.55929000
_cell_length_b   7.77863723
_cell_length_c   17.77213548
_cell_angle_alpha   89.97254061
_cell_angle_beta   90.00000000
_cell_angle_gamma   90.00000000
_symmetry_Int_Tables_number   1
_chemical_formula_structural   DyEr3Zr6(In2Pt)4
_chemical_formula_sum   'Dy1 Er3 Zr6 In8 Pt4'
_cell_volume   492.04685254
_cell_formula_units_Z   1
loop_
 _symmetry_equiv_pos_site_id
 _symmetry_equiv_pos_as_xyz
  1  'x, y, z'
loop_
 _atom_site_type_symbol
 _atom_site_label
 _atom_site_symmetry_multiplicity
 _atom_site_fract_x
 _atom_site_fract_y
 _atom_site_fract_z
 _atom_site_occupancy
  Dy  Dy0  1  0.000000  0.750072  0.281335  1
  Er  Er1  1  0.000000  0.250065  0.218916  1
  Er  Er2  1  0.000000  0.749533  0.780895  1
  Er  Er3  1  0.000000  0.249719  0.719105  1
  Zr  Zr4  1  0.000000  0.130704  0.421286  1
  Zr  Zr5  1  0.000000  0.870393  0.579319  1
  Zr  Zr6  1  0.000000  0.369926  0.920773  1
  Zr  Zr7  1  0.000000  0.629276  0.078674  1
  Zr  Zr8  1  0.000000  0.999781  0.999685  1
  Zr  Zr9  1  0.000000  0.500451  0.500077  1
  In  In10  1  0.500000  0.427256  0.353357  1
  In  In11  1  0.500000  0.571936  0.646877  1
  In  In12  1  0.500000  0.071842  0.853097  1
  In  In13  1  0.500000  0.927975  0.146264  1
  In  In14  1  0.500000  0.296709  0.061908  1
  In  In15  1  0.500000  0.702352  0.937872  1
  In  In16  1  0.500000  0.203056  0.562173  1
  In  In17  1  0.500000  0.798222  0.438673  1
  Pt  Pt18  1  0.500000  0.042395  0.309298  1
  Pt  Pt19  1  0.500000  0.959737  0.691165  1
  Pt  Pt20  1  0.500000  0.459547  0.808873  1
  Pt  Pt21  1  0.500000  0.539054  0.190376  1
