# generated using pymatgen
data_Zr6GaAs5Ru6
_symmetry_space_group_name_H-M   'P 1'
_cell_length_a   7.72587517
_cell_length_b   7.74444219
_cell_length_c   7.72587499
_cell_angle_alpha   128.44973782
_cell_angle_beta   119.65935532
_cell_angle_gamma   83.23015971
_symmetry_Int_Tables_number   1
_chemical_formula_structural   Zr6GaAs5Ru6
_chemical_formula_sum   'Zr6 Ga1 As5 Ru6'
_cell_volume   302.10354993
_cell_formula_units_Z   1
loop_
 _symmetry_equiv_pos_site_id
 _symmetry_equiv_pos_as_xyz
  1  'x, y, z'
loop_
 _atom_site_type_symbol
 _atom_site_label
 _atom_site_symmetry_multiplicity
 _atom_site_fract_x
 _atom_site_fract_y
 _atom_site_fract_z
 _atom_site_occupancy
  Zr  Zr0  1  0.470208  0.699039  0.728831  1
  Zr  Zr1  1  0.526510  0.253950  0.227440  1
  Zr  Zr2  1  0.748272  0.832896  0.584624  1
  Zr  Zr3  1  0.249495  0.831597  0.082101  1
  Zr  Zr4  1  0.053590  0.256015  0.702425  1
  Zr  Zr5  1  0.950821  0.657893  0.207072  1
  Ga  Ga6  1  0.275586  0.274748  0.499163  1
  As  As7  1  0.726634  0.229280  0.002647  1
  As  As8  1  0.328755  0.584976  0.248228  1
  As  As9  1  0.670807  0.919923  0.258766  1
  As  As10  1  0.161158  0.919923  0.749116  1
  As  As11  1  0.836746  0.584976  0.756220  1
  Ru  Ru12  1  0.504355  0.496774  0.000956  1
  Ru  Ru13  1  0.995818  0.496774  0.492419  1
  Ru  Ru14  1  0.092301  0.252779  0.099302  1
  Ru  Ru15  1  0.900303  0.007638  0.152476  1
  Ru  Ru16  1  0.355163  0.007638  0.607335  1
  Ru  Ru17  1  0.653477  0.252779  0.660478  1
