# generated using pymatgen
data_LaYCd(Si3Pd10)2
_symmetry_space_group_name_H-M   'P 1'
_cell_length_a   8.72167473
_cell_length_b   8.72179008
_cell_length_c   8.72150700
_cell_angle_alpha   59.99921277
_cell_angle_beta   59.99883885
_cell_angle_gamma   60.00125294
_symmetry_Int_Tables_number   1
_chemical_formula_structural   LaYCd(Si3Pd10)2
_chemical_formula_sum   'La1 Y1 Cd1 Si6 Pd20'
_cell_volume   469.11548449
_cell_formula_units_Z   1
loop_
 _symmetry_equiv_pos_site_id
 _symmetry_equiv_pos_as_xyz
  1  'x, y, z'
loop_
 _atom_site_type_symbol
 _atom_site_label
 _atom_site_symmetry_multiplicity
 _atom_site_fract_x
 _atom_site_fract_y
 _atom_site_fract_z
 _atom_site_occupancy
  La  La0  1  0.250016  0.250007  0.249982  1
  Y  Y1  1  0.749987  0.749998  0.750014  1
  Cd  Cd2  1  0.999997  0.000001  0.000003  1
  Si  Si3  1  0.733223  0.733275  0.266752  1
  Si  Si4  1  0.266778  0.266722  0.733245  1
  Si  Si5  1  0.733225  0.266754  0.733257  1
  Si  Si6  1  0.266782  0.733244  0.266738  1
  Si  Si7  1  0.266773  0.733259  0.733241  1
  Si  Si8  1  0.733226  0.266747  0.266758  1
  Pd  Pd9  1  0.615903  0.615910  0.615906  1
  Pd  Pd10  1  0.385449  0.385428  0.385440  1
  Pd  Pd11  1  0.152228  0.615925  0.615927  1
  Pd  Pd12  1  0.615902  0.152289  0.615904  1
  Pd  Pd13  1  0.843728  0.385424  0.385418  1
  Pd  Pd14  1  0.385449  0.843677  0.385439  1
  Pd  Pd15  1  0.615896  0.615893  0.152323  1
  Pd  Pd16  1  0.385447  0.385449  0.843645  1
  Pd  Pd17  1  0.999174  0.999177  0.656332  1
  Pd  Pd18  1  0.999218  0.999210  0.345278  1
  Pd  Pd19  1  0.345288  0.656286  0.999214  1
  Pd  Pd20  1  0.656314  0.345311  0.999184  1
  Pd  Pd21  1  0.999201  0.656318  0.999194  1
  Pd  Pd22  1  0.656298  0.999203  0.345294  1
  Pd  Pd23  1  0.999200  0.345285  0.999198  1
  Pd  Pd24  1  0.345306  0.999193  0.656307  1
  Pd  Pd25  1  0.656315  0.999193  0.999183  1
  Pd  Pd26  1  0.345285  0.999211  0.999217  1
  Pd  Pd27  1  0.999220  0.656292  0.345278  1
  Pd  Pd28  1  0.999174  0.345319  0.656329  1
