# generated using pymatgen
data_Lu3Al3HgAu2
_symmetry_space_group_name_H-M   'P 1'
_cell_length_a   7.17234500
_cell_length_b   7.17234477
_cell_length_c   4.19005900
_cell_angle_alpha   90.00000000
_cell_angle_beta   90.00000000
_cell_angle_gamma   119.99999644
_symmetry_Int_Tables_number   1
_chemical_formula_structural   Lu3Al3HgAu2
_chemical_formula_sum   'Lu3 Al3 Hg1 Au2'
_cell_volume   186.66939284
_cell_formula_units_Z   1
loop_
 _symmetry_equiv_pos_site_id
 _symmetry_equiv_pos_as_xyz
  1  'x, y, z'
loop_
 _atom_site_type_symbol
 _atom_site_label
 _atom_site_symmetry_multiplicity
 _atom_site_fract_x
 _atom_site_fract_y
 _atom_site_fract_z
 _atom_site_occupancy
  Lu  Lu0  1  0.410109  0.417273  0.500000  1
  Lu  Lu1  1  0.582727  0.992836  0.500000  1
  Lu  Lu2  1  0.007164  0.589891  0.500000  1
  Al  Al3  1  0.757438  0.764111  0.000000  1
  Al  Al4  1  0.235889  0.993327  0.000000  1
  Al  Al5  1  0.006673  0.242562  0.000000  1
  Hg  Hg6  1  0.666667  0.333333  0.000000  1
  Au  Au7  1  0.333333  0.666667  0.000000  1
  Au  Au8  1  0.000000  0.000000  0.500000  1
