# generated using pymatgen
data_Y9Lu(Sn3Cl)2
_symmetry_space_group_name_H-M   'P 1'
_cell_length_a   9.09670800
_cell_length_b   9.09670818
_cell_length_c   6.55978300
_cell_angle_alpha   90.00000000
_cell_angle_beta   90.00000000
_cell_angle_gamma   119.99999209
_symmetry_Int_Tables_number   1
_chemical_formula_structural   Y9Lu(Sn3Cl)2
_chemical_formula_sum   'Y9 Lu1 Sn6 Cl2'
_cell_volume   470.09827366
_cell_formula_units_Z   1
loop_
 _symmetry_equiv_pos_site_id
 _symmetry_equiv_pos_as_xyz
  1  'x, y, z'
loop_
 _atom_site_type_symbol
 _atom_site_label
 _atom_site_symmetry_multiplicity
 _atom_site_fract_x
 _atom_site_fract_y
 _atom_site_fract_z
 _atom_site_occupancy
  Y  Y0  1  0.333333  0.666667  0.500000  1
  Y  Y1  1  0.666667  0.333333  0.500000  1
  Y  Y2  1  0.333333  0.666667  0.000000  1
  Y  Y3  1  0.737634  0.999611  0.750429  1
  Y  Y4  1  0.737634  0.738024  0.249571  1
  Y  Y5  1  0.000389  0.262366  0.249571  1
  Y  Y6  1  0.000389  0.738024  0.750429  1
  Y  Y7  1  0.261976  0.262366  0.750429  1
  Y  Y8  1  0.261976  0.999611  0.249571  1
  Lu  Lu9  1  0.666667  0.333333  0.000000  1
  Sn  Sn10  1  0.610521  0.608425  0.752416  1
  Sn  Sn11  1  0.997904  0.608425  0.247584  1
  Sn  Sn12  1  0.610521  0.002096  0.247584  1
  Sn  Sn13  1  0.391575  0.002096  0.752416  1
  Sn  Sn14  1  0.997904  0.389479  0.752416  1
  Sn  Sn15  1  0.391575  0.389479  0.247584  1
  Cl  Cl16  1  0.000000  0.000000  0.500000  1
  Cl  Cl17  1  0.000000  0.000000  0.000000  1
