# generated using pymatgen
data_PmAsRuF
_symmetry_space_group_name_H-M   'P 1'
_cell_length_a   4.12290700
_cell_length_b   4.12290700
_cell_length_c   8.15492900
_cell_angle_alpha   90.00000000
_cell_angle_beta   90.00000000
_cell_angle_gamma   90.00000000
_symmetry_Int_Tables_number   1
_chemical_formula_structural   PmAsRuF
_chemical_formula_sum   'Pm2 As2 Ru2 F2'
_cell_volume   138.62043629
_cell_formula_units_Z   2
loop_
 _symmetry_equiv_pos_site_id
 _symmetry_equiv_pos_as_xyz
  1  'x, y, z'
loop_
 _atom_site_type_symbol
 _atom_site_label
 _atom_site_symmetry_multiplicity
 _atom_site_fract_x
 _atom_site_fract_y
 _atom_site_fract_z
 _atom_site_occupancy
  Pm  Pm0  1  0.000000  0.000000  0.187374  1
  Pm  Pm1  1  0.499998  0.499998  0.812629  1
  As  As2  1  0.499998  0.499998  0.336184  1
  As  As3  1  0.000000  0.000000  0.663815  1
  Ru  Ru4  1  0.499998  0.000000  0.499999  1
  Ru  Ru5  1  0.000000  0.499998  0.499999  1
  F  F6  1  0.499998  0.000000  0.000000  1
  F  F7  1  0.000000  0.499998  0.000000  1
