# generated using pymatgen
data_SmDy7(Sc3Ga4)4
_symmetry_space_group_name_H-M   'P 1'
_cell_length_a   7.29862511
_cell_length_b   7.55464649
_cell_length_c   14.51398202
_cell_angle_alpha   90.03949894
_cell_angle_beta   90.01654241
_cell_angle_gamma   90.01181644
_symmetry_Int_Tables_number   1
_chemical_formula_structural   SmDy7(Sc3Ga4)4
_chemical_formula_sum   'Sm1 Dy7 Sc12 Ga16'
_cell_volume   800.27942982
_cell_formula_units_Z   1
loop_
 _symmetry_equiv_pos_site_id
 _symmetry_equiv_pos_as_xyz
  1  'x, y, z'
loop_
 _atom_site_type_symbol
 _atom_site_label
 _atom_site_symmetry_multiplicity
 _atom_site_fract_x
 _atom_site_fract_y
 _atom_site_fract_z
 _atom_site_occupancy
  Sm  Sm0  1  0.011537  0.176855  0.094953  1
  Dy  Dy1  1  0.988490  0.821680  0.904082  1
  Dy  Dy2  1  0.488451  0.678047  0.904498  1
  Dy  Dy3  1  0.988365  0.822117  0.595509  1
  Dy  Dy4  1  0.511653  0.322516  0.095413  1
  Dy  Dy5  1  0.011490  0.177874  0.404428  1
  Dy  Dy6  1  0.511613  0.322071  0.404606  1
  Dy  Dy7  1  0.488413  0.677952  0.595506  1
  Sc  Sc8  1  0.162153  0.503059  0.750047  1
  Sc  Sc9  1  0.837747  0.497740  0.250328  1
  Sc  Sc10  1  0.338572  0.002266  0.250360  1
  Sc  Sc11  1  0.661899  0.997257  0.750018  1
  Sc  Sc12  1  0.330084  0.174087  0.624334  1
  Sc  Sc13  1  0.669718  0.825818  0.375793  1
  Sc  Sc14  1  0.169946  0.674319  0.375952  1
  Sc  Sc15  1  0.668945  0.825381  0.124372  1
  Sc  Sc16  1  0.830176  0.325662  0.624351  1
  Sc  Sc17  1  0.330296  0.174131  0.875548  1
  Sc  Sc18  1  0.829718  0.325978  0.875324  1
  Sc  Sc19  1  0.170191  0.674134  0.124285  1
  Ga  Ga20  1  0.031552  0.117736  0.750027  1
  Ga  Ga21  1  0.968346  0.881384  0.250510  1
  Ga  Ga22  1  0.468497  0.617938  0.250111  1
  Ga  Ga23  1  0.531539  0.382138  0.750065  1
  Ga  Ga24  1  0.284451  0.872762  0.749914  1
  Ga  Ga25  1  0.714502  0.126986  0.250670  1
  Ga  Ga26  1  0.216497  0.373461  0.250565  1
  Ga  Ga27  1  0.784446  0.627381  0.750038  1
  Ga  Ga28  1  0.160517  0.465263  0.540135  1
  Ga  Ga29  1  0.839506  0.534682  0.459914  1
  Ga  Ga30  1  0.339491  0.965098  0.459845  1
  Ga  Ga31  1  0.838950  0.536380  0.039703  1
  Ga  Ga32  1  0.660402  0.034754  0.540149  1
  Ga  Ga33  1  0.160950  0.466127  0.959343  1
  Ga  Ga34  1  0.659696  0.034715  0.959607  1
  Ga  Ga35  1  0.341204  0.964248  0.039698  1
