# generated using pymatgen
data_La4CoPt5O19
_symmetry_space_group_name_H-M   'P 1'
_cell_length_a   7.86312318
_cell_length_b   7.86988908
_cell_length_c   7.86312285
_cell_angle_alpha   109.58106009
_cell_angle_beta   109.51380956
_cell_angle_gamma   109.28414190
_symmetry_Int_Tables_number   1
_chemical_formula_structural   La4CoPt5O19
_chemical_formula_sum   'La4 Co1 Pt5 O19'
_cell_volume   374.73135737
_cell_formula_units_Z   1
loop_
 _symmetry_equiv_pos_site_id
 _symmetry_equiv_pos_as_xyz
  1  'x, y, z'
loop_
 _atom_site_type_symbol
 _atom_site_label
 _atom_site_symmetry_multiplicity
 _atom_site_fract_x
 _atom_site_fract_y
 _atom_site_fract_z
 _atom_site_occupancy
  La  La0  1  0.004927  0.004822  0.322046  1
  La  La1  1  0.006737  0.321186  0.994206  1
  La  La2  1  0.673020  0.678814  0.685551  1
  La  La3  1  0.317224  0.995178  0.000105  1
  Co  Co4  1  0.341607  0.500000  0.841607  1
  Pt  Pt5  1  0.843474  0.342383  0.501911  1
  Pt  Pt6  1  0.498535  0.161666  0.660876  1
  Pt  Pt7  1  0.159528  0.657617  0.501091  1
  Pt  Pt8  1  0.499211  0.838334  0.336869  1
  Pt  Pt9  1  0.657036  0.500000  0.157036  1
  O  O10  1  0.337750  0.000000  0.337750  1
  O  O11  1  0.342745  0.349400  0.994179  1
  O  O12  1  0.997676  0.660221  0.658495  1
  O  O13  1  0.644779  0.650600  0.993345  1
  O  O14  1  0.998274  0.339779  0.337455  1
  O  O15  1  0.657418  0.000000  0.657418  1
  O  O16  1  0.001025  0.000000  0.001025  1
  O  O17  1  0.356269  0.325420  0.622367  1
  O  O18  1  0.053761  0.304675  0.687555  1
  O  O19  1  0.750919  0.392883  0.713261  1
  O  O20  1  0.382879  0.695325  0.749085  1
  O  O21  1  0.252072  0.960686  0.645084  1
  O  O22  1  0.607123  0.354604  0.317172  1
  O  O23  1  0.320376  0.607117  0.358035  1
  O  O24  1  0.684397  0.039314  0.291384  1
  O  O25  1  0.962567  0.645396  0.252519  1
  O  O26  1  0.707519  0.746252  0.390457  1
  O  O27  1  0.644206  0.253748  0.961266  1
  O  O28  1  0.296946  0.674580  0.030850  1
