# generated using pymatgen
data_Er12Th4Fe3CoHg4
_symmetry_space_group_name_H-M   'P 1'
_cell_length_a   9.45796802
_cell_length_b   9.48046480
_cell_length_c   9.48046500
_cell_angle_alpha   60.00000279
_cell_angle_beta   59.92128790
_cell_angle_gamma   59.92128601
_symmetry_Int_Tables_number   1
_chemical_formula_structural   Er12Th4Fe3CoHg4
_chemical_formula_sum   'Er12 Th4 Fe3 Co1 Hg4'
_cell_volume   600.37748230
_cell_formula_units_Z   1
loop_
 _symmetry_equiv_pos_site_id
 _symmetry_equiv_pos_as_xyz
  1  'x, y, z'
loop_
 _atom_site_type_symbol
 _atom_site_label
 _atom_site_symmetry_multiplicity
 _atom_site_fract_x
 _atom_site_fract_y
 _atom_site_fract_z
 _atom_site_occupancy
  Er  Er0  1  0.063494  0.437871  0.437871  1
  Er  Er1  1  0.436849  0.062529  0.062529  1
  Er  Er2  1  0.436849  0.062529  0.438094  1
  Er  Er3  1  0.063494  0.437871  0.060766  1
  Er  Er4  1  0.436849  0.438094  0.062529  1
  Er  Er5  1  0.063494  0.060766  0.437871  1
  Er  Er6  1  0.185297  0.813596  0.813596  1
  Er  Er7  1  0.810551  0.187328  0.187328  1
  Er  Er8  1  0.810551  0.187328  0.814792  1
  Er  Er9  1  0.185297  0.813596  0.187513  1
  Er  Er10  1  0.810551  0.814792  0.187328  1
  Er  Er11  1  0.185297  0.187513  0.813596  1
  Th  Th12  1  0.594600  0.597341  0.597341  1
  Th  Th13  1  0.594600  0.597341  0.210720  1
  Th  Th14  1  0.594600  0.210720  0.597341  1
  Th  Th15  1  0.213677  0.595441  0.595441  1
  Fe  Fe16  1  0.397754  0.392616  0.392616  1
  Fe  Fe17  1  0.397754  0.392616  0.817014  1
  Fe  Fe18  1  0.397754  0.817014  0.392616  1
  Co  Co19  1  0.822962  0.392346  0.392346  1
  Hg  Hg20  1  0.834145  0.834641  0.834641  1
  Hg  Hg21  1  0.834145  0.834641  0.496573  1
  Hg  Hg22  1  0.834145  0.496573  0.834641  1
  Hg  Hg23  1  0.495295  0.834902  0.834902  1
