# generated using pymatgen
data_Sm2ThP4Pd7
_symmetry_space_group_name_H-M   'P 1'
_cell_length_a   8.07711131
_cell_length_b   8.07711109
_cell_length_c   9.57038575
_cell_angle_alpha   55.35473735
_cell_angle_beta   55.35473895
_cell_angle_gamma   29.07171219
_symmetry_Int_Tables_number   1
_chemical_formula_structural   Sm2ThP4Pd7
_chemical_formula_sum   'Sm2 Th1 P4 Pd7'
_cell_volume   245.55093690
_cell_formula_units_Z   1
loop_
 _symmetry_equiv_pos_site_id
 _symmetry_equiv_pos_as_xyz
  1  'x, y, z'
loop_
 _atom_site_type_symbol
 _atom_site_label
 _atom_site_symmetry_multiplicity
 _atom_site_fract_x
 _atom_site_fract_y
 _atom_site_fract_z
 _atom_site_occupancy
  Sm  Sm0  1  0.819996  0.819996  0.176626  1
  Sm  Sm1  1  0.180004  0.180004  0.823374  1
  Th  Th2  1  0.500000  0.500000  0.500000  1
  P  P3  1  0.393838  0.393838  0.320071  1
  P  P4  1  0.606162  0.606162  0.679929  1
  P  P5  1  0.841386  0.841386  0.752881  1
  P  P6  1  0.158614  0.158614  0.247119  1
  Pd  Pd7  1  0.666761  0.666761  0.077653  1
  Pd  Pd8  1  0.009568  0.009568  0.215790  1
  Pd  Pd9  1  0.990432  0.990432  0.784210  1
  Pd  Pd10  1  0.500000  0.500000  0.000000  1
  Pd  Pd11  1  0.193407  0.193407  0.473280  1
  Pd  Pd12  1  0.806593  0.806593  0.526720  1
  Pd  Pd13  1  0.333239  0.333239  0.922347  1
