# generated using pymatgen
data_CeEr2Th(InPd2)2
_symmetry_space_group_name_H-M   'P 1'
_cell_length_a   7.84990678
_cell_length_b   7.80164500
_cell_length_c   3.73998600
_cell_angle_alpha   90.00000000
_cell_angle_beta   90.00000000
_cell_angle_gamma   89.66029004
_symmetry_Int_Tables_number   1
_chemical_formula_structural   CeEr2Th(InPd2)2
_chemical_formula_sum   'Ce1 Er2 Th1 In2 Pd4'
_cell_volume   229.04089227
_cell_formula_units_Z   1
loop_
 _symmetry_equiv_pos_site_id
 _symmetry_equiv_pos_as_xyz
  1  'x, y, z'
loop_
 _atom_site_type_symbol
 _atom_site_label
 _atom_site_symmetry_multiplicity
 _atom_site_fract_x
 _atom_site_fract_y
 _atom_site_fract_z
 _atom_site_occupancy
  Ce  Ce0  1  0.326136  0.831086  0.500000  1
  Er  Er1  1  0.173067  0.323878  0.500000  1
  Er  Er2  1  0.671051  0.175400  0.500000  1
  Th  Th3  1  0.826906  0.668858  0.500000  1
  In  In4  1  0.999816  0.007493  0.000000  1
  In  In5  1  0.496046  0.493193  0.000000  1
  Pd  Pd6  1  0.373227  0.127401  0.000000  1
  Pd  Pd7  1  0.873015  0.372534  0.000000  1
  Pd  Pd8  1  0.130072  0.628280  0.000000  1
  Pd  Pd9  1  0.630665  0.871878  0.000000  1
