# generated using pymatgen
data_Ho10TlIn7Pd3Rh
_symmetry_space_group_name_H-M   'P 1'
_cell_length_a   3.61006200
_cell_length_b   8.12880307
_cell_length_c   18.25795853
_cell_angle_alpha   89.99364332
_cell_angle_beta   90.00000000
_cell_angle_gamma   90.00000000
_symmetry_Int_Tables_number   1
_chemical_formula_structural   Ho10TlIn7Pd3Rh
_chemical_formula_sum   'Ho10 Tl1 In7 Pd3 Rh1'
_cell_volume   535.78860946
_cell_formula_units_Z   1
loop_
 _symmetry_equiv_pos_site_id
 _symmetry_equiv_pos_as_xyz
  1  'x, y, z'
loop_
 _atom_site_type_symbol
 _atom_site_label
 _atom_site_symmetry_multiplicity
 _atom_site_fract_x
 _atom_site_fract_y
 _atom_site_fract_z
 _atom_site_occupancy
  Ho  Ho0  1  0.000000  0.500156  0.499846  1
  Ho  Ho1  1  0.000000  0.000169  0.000420  1
  Ho  Ho2  1  0.000000  0.732064  0.277924  1
  Ho  Ho3  1  0.000000  0.260818  0.719873  1
  Ho  Ho4  1  0.000000  0.760065  0.779730  1
  Ho  Ho5  1  0.000000  0.251835  0.219951  1
  Ho  Ho6  1  0.000000  0.612948  0.086985  1
  Ho  Ho7  1  0.000000  0.383389  0.916864  1
  Ho  Ho8  1  0.000000  0.883969  0.583063  1
  Ho  Ho9  1  0.000000  0.115941  0.415868  1
  Tl  Tl10  1  0.500000  0.710365  0.932547  1
  In  In11  1  0.500000  0.289713  0.068773  1
  In  In12  1  0.500000  0.789855  0.431604  1
  In  In13  1  0.500000  0.209926  0.568022  1
  In  In14  1  0.500000  0.580747  0.649608  1
  In  In15  1  0.500000  0.420954  0.350287  1
  In  In16  1  0.500000  0.920065  0.149886  1
  In  In17  1  0.500000  0.081533  0.850201  1
  Pd  Pd18  1  0.500000  0.475371  0.803682  1
  Pd  Pd19  1  0.500000  0.976437  0.696081  1
  Pd  Pd20  1  0.500000  0.021925  0.303695  1
  Rh  Rh21  1  0.500000  0.521756  0.195088  1
