# generated using pymatgen
data_Ac3Ho(ZnPb)4
_symmetry_space_group_name_H-M   'P 1'
_cell_length_a   4.74058000
_cell_length_b   4.74058062
_cell_length_c   17.63110700
_cell_angle_alpha   90.00000000
_cell_angle_beta   90.00000000
_cell_angle_gamma   119.99998173
_symmetry_Int_Tables_number   1
_chemical_formula_structural   Ac3Ho(ZnPb)4
_chemical_formula_sum   'Ac3 Ho1 Zn4 Pb4'
_cell_volume   343.14155047
_cell_formula_units_Z   1
loop_
 _symmetry_equiv_pos_site_id
 _symmetry_equiv_pos_as_xyz
  1  'x, y, z'
loop_
 _atom_site_type_symbol
 _atom_site_label
 _atom_site_symmetry_multiplicity
 _atom_site_fract_x
 _atom_site_fract_y
 _atom_site_fract_z
 _atom_site_occupancy
  Ac  Ac0  1  0.000000  0.000000  0.250000  1
  Ac  Ac1  1  0.000000  0.000000  0.989993  1
  Ac  Ac2  1  0.000000  0.000000  0.510007  1
  Ho  Ho3  1  0.000000  0.000000  0.750000  1
  Zn  Zn4  1  0.333333  0.666667  0.152654  1
  Zn  Zn5  1  0.666667  0.333333  0.825193  1
  Zn  Zn6  1  0.666667  0.333333  0.674807  1
  Zn  Zn7  1  0.333333  0.666667  0.347346  1
  Pb  Pb8  1  0.333333  0.666667  0.627319  1
  Pb  Pb9  1  0.666667  0.333333  0.389460  1
  Pb  Pb10  1  0.666667  0.333333  0.110540  1
  Pb  Pb11  1  0.333333  0.666667  0.872681  1
