# generated using pymatgen
data_Th10AlSn2Sb5
_symmetry_space_group_name_H-M   'P 1'
_cell_length_a   9.62575032
_cell_length_b   9.61961492
_cell_length_c   6.52922457
_cell_angle_alpha   89.96019116
_cell_angle_beta   90.07956695
_cell_angle_gamma   120.02110055
_symmetry_Int_Tables_number   1
_chemical_formula_structural   Th10AlSn2Sb5
_chemical_formula_sum   'Th10 Al1 Sn2 Sb5'
_cell_volume   523.46990513
_cell_formula_units_Z   1
loop_
 _symmetry_equiv_pos_site_id
 _symmetry_equiv_pos_as_xyz
  1  'x, y, z'
loop_
 _atom_site_type_symbol
 _atom_site_label
 _atom_site_symmetry_multiplicity
 _atom_site_fract_x
 _atom_site_fract_y
 _atom_site_fract_z
 _atom_site_occupancy
  Th  Th0  1  0.000160  0.723397  0.757171  1
  Th  Th1  1  0.276764  0.276603  0.757171  1
  Th  Th2  1  0.333386  0.667080  0.498580  1
  Th  Th3  1  0.666306  0.332920  0.498580  1
  Th  Th4  1  0.722826  0.723142  0.242349  1
  Th  Th5  1  0.723042  0.000000  0.757236  1
  Th  Th6  1  0.999684  0.276858  0.242349  1
  Th  Th7  1  0.278349  0.000000  0.242961  1
  Th  Th8  1  0.333657  0.667338  0.001315  1
  Th  Th9  1  0.666319  0.332662  0.001315  1
  Al  Al10  1  0.000417  0.000000  0.000210  1
  Sn  Sn11  1  0.380525  0.380579  0.250644  1
  Sn  Sn12  1  0.999946  0.619421  0.250644  1
  Sb  Sb13  1  0.617382  0.616851  0.749443  1
  Sb  Sb14  1  0.000531  0.383149  0.749443  1
  Sb  Sb15  1  0.382352  0.000000  0.749693  1
  Sb  Sb16  1  0.618135  0.000000  0.250521  1
  Sb  Sb17  1  0.000219  0.000000  0.500378  1
