# generated using pymatgen
data_DyLu2Al3GeAu2
_symmetry_space_group_name_H-M   'P 1'
_cell_length_a   6.98607073
_cell_length_b   7.01171787
_cell_length_c   4.28334300
_cell_angle_alpha   90.00000000
_cell_angle_beta   90.00000000
_cell_angle_gamma   120.33165280
_symmetry_Int_Tables_number   1
_chemical_formula_structural   DyLu2Al3GeAu2
_chemical_formula_sum   'Dy1 Lu2 Al3 Ge1 Au2'
_cell_volume   181.09638517
_cell_formula_units_Z   1
loop_
 _symmetry_equiv_pos_site_id
 _symmetry_equiv_pos_as_xyz
  1  'x, y, z'
loop_
 _atom_site_type_symbol
 _atom_site_label
 _atom_site_symmetry_multiplicity
 _atom_site_fract_x
 _atom_site_fract_y
 _atom_site_fract_z
 _atom_site_occupancy
  Dy  Dy0  1  0.424597  0.422737  0.500000  1
  Lu  Lu1  1  0.577648  0.999369  0.500000  1
  Lu  Lu2  1  0.002590  0.579918  0.500000  1
  Al  Al3  1  0.751630  0.763783  0.000000  1
  Al  Al4  1  0.237529  0.988909  0.000000  1
  Al  Al5  1  0.010170  0.248561  0.000000  1
  Ge  Ge6  1  0.668833  0.331285  0.000000  1
  Au  Au7  1  0.331504  0.670083  0.000000  1
  Au  Au8  1  0.995497  0.995356  0.500000  1
