# generated using pymatgen
data_Yb(ZrSe2)4
_symmetry_space_group_name_H-M   'P 1'
_cell_length_a   8.30541788
_cell_length_b   8.30541766
_cell_length_c   8.30541711
_cell_angle_alpha   54.10697081
_cell_angle_beta   54.10696802
_cell_angle_gamma   54.10696699
_symmetry_Int_Tables_number   1
_chemical_formula_structural   Yb(ZrSe2)4
_chemical_formula_sum   'Yb1 Zr4 Se8'
_cell_volume   349.36714586
_cell_formula_units_Z   1
loop_
 _symmetry_equiv_pos_site_id
 _symmetry_equiv_pos_as_xyz
  1  'x, y, z'
loop_
 _atom_site_type_symbol
 _atom_site_label
 _atom_site_symmetry_multiplicity
 _atom_site_fract_x
 _atom_site_fract_y
 _atom_site_fract_z
 _atom_site_occupancy
  Yb  Yb0  1  0.500000  0.500000  0.500000  1
  Zr  Zr1  1  0.000000  0.500000  0.500000  1
  Zr  Zr2  1  0.500000  0.000000  0.500000  1
  Zr  Zr3  1  0.500000  0.500000  0.000000  1
  Zr  Zr4  1  0.000000  0.000000  0.000000  1
  Se  Se5  1  0.251148  0.757940  0.757940  1
  Se  Se6  1  0.242060  0.242060  0.748852  1
  Se  Se7  1  0.748852  0.242060  0.242060  1
  Se  Se8  1  0.242060  0.748852  0.242060  1
  Se  Se9  1  0.257660  0.257660  0.257660  1
  Se  Se10  1  0.742340  0.742340  0.742340  1
  Se  Se11  1  0.757940  0.251148  0.757940  1
  Se  Se12  1  0.757940  0.757940  0.251148  1
