# generated using pymatgen
data_Nd3Tm(B4W)4
_symmetry_space_group_name_H-M   'P 1'
_cell_length_a   3.67865300
_cell_length_b   6.10268118
_cell_length_c   11.80454014
_cell_angle_alpha   90.15629515
_cell_angle_beta   90.00000000
_cell_angle_gamma   90.00000000
_symmetry_Int_Tables_number   1
_chemical_formula_structural   Nd3Tm(B4W)4
_chemical_formula_sum   'Nd3 Tm1 B16 W4'
_cell_volume   265.00676662
_cell_formula_units_Z   1
loop_
 _symmetry_equiv_pos_site_id
 _symmetry_equiv_pos_as_xyz
  1  'x, y, z'
loop_
 _atom_site_type_symbol
 _atom_site_label
 _atom_site_symmetry_multiplicity
 _atom_site_fract_x
 _atom_site_fract_y
 _atom_site_fract_z
 _atom_site_occupancy
  Nd  Nd0  1  0.000000  0.125630  0.150269  1
  Nd  Nd1  1  0.000000  0.874304  0.848959  1
  Nd  Nd2  1  0.000000  0.625572  0.350423  1
  Tm  Tm3  1  0.000000  0.374141  0.649261  1
  B  B4  1  0.500000  0.475712  0.190781  1
  B  B5  1  0.500000  0.521988  0.805584  1
  B  B6  1  0.500000  0.975979  0.310069  1
  B  B7  1  0.500000  0.027182  0.691559  1
  B  B8  1  0.500000  0.282570  0.316238  1
  B  B9  1  0.500000  0.712642  0.684791  1
  B  B10  1  0.500000  0.782505  0.185023  1
  B  B11  1  0.500000  0.217785  0.812051  1
  B  B12  1  0.500000  0.364654  0.470683  1
  B  B13  1  0.500000  0.634582  0.534216  1
  B  B14  1  0.500000  0.863230  0.031450  1
  B  B15  1  0.500000  0.137064  0.966439  1
  B  B16  1  0.500000  0.387637  0.045203  1
  B  B17  1  0.500000  0.611173  0.952403  1
  B  B18  1  0.500000  0.889022  0.455529  1
  B  B19  1  0.500000  0.115781  0.548758  1
  W  W20  1  0.000000  0.130423  0.418283  1
  W  W21  1  0.000000  0.871088  0.584977  1
  W  W22  1  0.000000  0.628755  0.082871  1
  W  W23  1  0.000000  0.370585  0.914184  1
