# generated using pymatgen
data_Li2TbNdSi2Sn
_symmetry_space_group_name_H-M   'P 1'
_cell_length_a   9.66349836
_cell_length_b   9.66349909
_cell_length_c   6.83902100
_cell_angle_alpha   90.00000000
_cell_angle_beta   90.00000000
_cell_angle_gamma   153.24658526
_symmetry_Int_Tables_number   1
_chemical_formula_structural   Li2TbNdSi2Sn
_chemical_formula_sum   'Li4 Tb2 Nd2 Si4 Sn2'
_cell_volume   287.48923084
_cell_formula_units_Z   2
loop_
 _symmetry_equiv_pos_site_id
 _symmetry_equiv_pos_as_xyz
  1  'x, y, z'
loop_
 _atom_site_type_symbol
 _atom_site_label
 _atom_site_symmetry_multiplicity
 _atom_site_fract_x
 _atom_site_fract_y
 _atom_site_fract_z
 _atom_site_occupancy
  Li  Li0  1  0.184388  0.815612  0.054777  1
  Li  Li1  1  0.184388  0.815612  0.445223  1
  Li  Li2  1  0.815612  0.184388  0.945223  1
  Li  Li3  1  0.815612  0.184388  0.554777  1
  Tb  Tb4  1  0.350788  0.649212  0.250000  1
  Tb  Tb5  1  0.649212  0.350788  0.750000  1
  Nd  Nd6  1  0.548971  0.451029  0.250000  1
  Nd  Nd7  1  0.451029  0.548971  0.750000  1
  Si  Si8  1  0.058070  0.941930  0.925437  1
  Si  Si9  1  0.941930  0.058070  0.074563  1
  Si  Si10  1  0.941930  0.058070  0.425437  1
  Si  Si11  1  0.058070  0.941930  0.574563  1
  Sn  Sn12  1  0.720688  0.279312  0.250000  1
  Sn  Sn13  1  0.279312  0.720688  0.750000  1
