# generated using pymatgen
data_Zr12Si12OsRu3
_symmetry_space_group_name_H-M   'P 1'
_cell_length_a   3.93037300
_cell_length_b   10.40565757
_cell_length_c   11.78592904
_cell_angle_alpha   90.02368052
_cell_angle_beta   90.00000000
_cell_angle_gamma   90.00000000
_symmetry_Int_Tables_number   1
_chemical_formula_structural   Zr12Si12OsRu3
_chemical_formula_sum   'Zr12 Si12 Os1 Ru3'
_cell_volume   482.02224681
_cell_formula_units_Z   1
loop_
 _symmetry_equiv_pos_site_id
 _symmetry_equiv_pos_as_xyz
  1  'x, y, z'
loop_
 _atom_site_type_symbol
 _atom_site_label
 _atom_site_symmetry_multiplicity
 _atom_site_fract_x
 _atom_site_fract_y
 _atom_site_fract_z
 _atom_site_occupancy
  Zr  Zr0  1  0.250000  0.876211  0.020862  1
  Zr  Zr1  1  0.250000  0.623666  0.520797  1
  Zr  Zr2  1  0.750000  0.123612  0.979000  1
  Zr  Zr3  1  0.750000  0.376346  0.480063  1
  Zr  Zr4  1  0.250000  0.925911  0.597435  1
  Zr  Zr5  1  0.250000  0.574249  0.097116  1
  Zr  Zr6  1  0.750000  0.074644  0.402735  1
  Zr  Zr7  1  0.750000  0.425678  0.901177  1
  Zr  Zr8  1  0.250000  0.657834  0.800429  1
  Zr  Zr9  1  0.250000  0.842045  0.300502  1
  Zr  Zr10  1  0.750000  0.342299  0.199609  1
  Zr  Zr11  1  0.750000  0.158441  0.699607  1
  Si  Si12  1  0.250000  0.014499  0.825003  1
  Si  Si13  1  0.250000  0.485151  0.324660  1
  Si  Si14  1  0.750000  0.984942  0.175085  1
  Si  Si15  1  0.750000  0.515928  0.674905  1
  Si  Si16  1  0.250000  0.249396  0.842487  1
  Si  Si17  1  0.250000  0.249599  0.341715  1
  Si  Si18  1  0.750000  0.749223  0.158278  1
  Si  Si19  1  0.750000  0.751074  0.658159  1
  Si  Si20  1  0.250000  0.195298  0.543657  1
  Si  Si21  1  0.250000  0.304963  0.043635  1
  Si  Si22  1  0.750000  0.804844  0.456410  1
  Si  Si23  1  0.750000  0.694885  0.956393  1
  Os  Os24  1  0.250000  0.386244  0.679209  1
  Ru  Ru25  1  0.250000  0.113256  0.179395  1
  Ru  Ru26  1  0.750000  0.613346  0.320698  1
  Ru  Ru27  1  0.750000  0.886416  0.820979  1
