# generated using pymatgen
data_TbHoFe6(P3Ir2)2
_symmetry_space_group_name_H-M   'P 1'
_cell_length_a   3.80376000
_cell_length_b   10.27489700
_cell_length_c   12.20361700
_cell_angle_alpha   90.00000000
_cell_angle_beta   90.00000000
_cell_angle_gamma   90.00000000
_symmetry_Int_Tables_number   1
_chemical_formula_structural   TbHoFe6(P3Ir2)2
_chemical_formula_sum   'Tb2 Ho2 Fe12 P12 Ir8'
_cell_volume   476.95691908
_cell_formula_units_Z   2
loop_
 _symmetry_equiv_pos_site_id
 _symmetry_equiv_pos_as_xyz
  1  'x, y, z'
loop_
 _atom_site_type_symbol
 _atom_site_label
 _atom_site_symmetry_multiplicity
 _atom_site_fract_x
 _atom_site_fract_y
 _atom_site_fract_z
 _atom_site_occupancy
  Tb  Tb0  1  0.750000  0.418769  0.287256  1
  Tb  Tb1  1  0.750000  0.081231  0.787256  1
  Ho  Ho2  1  0.250000  0.581148  0.712595  1
  Ho  Ho3  1  0.250000  0.918852  0.212595  1
  Fe  Fe4  1  0.250000  0.223035  0.170618  1
  Fe  Fe5  1  0.250000  0.276965  0.670618  1
  Fe  Fe6  1  0.750000  0.776343  0.829320  1
  Fe  Fe7  1  0.750000  0.723657  0.329320  1
  Fe  Fe8  1  0.250000  0.877188  0.695542  1
  Fe  Fe9  1  0.250000  0.622812  0.195542  1
  Fe  Fe10  1  0.750000  0.121906  0.304197  1
  Fe  Fe11  1  0.750000  0.378094  0.804197  1
  Fe  Fe12  1  0.250000  0.458254  0.936995  1
  Fe  Fe13  1  0.250000  0.041746  0.436995  1
  Fe  Fe14  1  0.750000  0.542196  0.062573  1
  Fe  Fe15  1  0.750000  0.957804  0.562573  1
  P  P16  1  0.250000  0.428688  0.113021  1
  P  P17  1  0.250000  0.071312  0.613021  1
  P  P18  1  0.750000  0.571488  0.886276  1
  P  P19  1  0.750000  0.928512  0.386276  1
  P  P20  1  0.250000  0.273743  0.852474  1
  P  P21  1  0.250000  0.226257  0.352474  1
  P  P22  1  0.750000  0.726818  0.147784  1
  P  P23  1  0.750000  0.773182  0.647784  1
  P  P24  1  0.250000  0.604626  0.375632  1
  P  P25  1  0.250000  0.895374  0.875632  1
  P  P26  1  0.750000  0.395914  0.624589  1
  P  P27  1  0.750000  0.104086  0.124589  1
  Ir  Ir28  1  0.250000  0.709049  0.983855  1
  Ir  Ir29  1  0.250000  0.790951  0.483855  1
  Ir  Ir30  1  0.750000  0.290964  0.016258  1
  Ir  Ir31  1  0.750000  0.209036  0.516258  1
  Ir  Ir32  1  0.250000  0.405337  0.477076  1
  Ir  Ir33  1  0.250000  0.094663  0.977076  1
  Ir  Ir34  1  0.750000  0.594730  0.523937  1
  Ir  Ir35  1  0.750000  0.905270  0.023937  1
