# generated using pymatgen
data_HoTm2AlSi2Ag3
_symmetry_space_group_name_H-M   'P 1'
_cell_length_a   7.08095975
_cell_length_b   7.08096001
_cell_length_c   4.16559800
_cell_angle_alpha   90.00000000
_cell_angle_beta   90.00000000
_cell_angle_gamma   120.14398136
_symmetry_Int_Tables_number   1
_chemical_formula_structural   HoTm2AlSi2Ag3
_chemical_formula_sum   'Ho1 Tm2 Al1 Si2 Ag3'
_cell_volume   180.61770842
_cell_formula_units_Z   1
loop_
 _symmetry_equiv_pos_site_id
 _symmetry_equiv_pos_as_xyz
  1  'x, y, z'
loop_
 _atom_site_type_symbol
 _atom_site_label
 _atom_site_symmetry_multiplicity
 _atom_site_fract_x
 _atom_site_fract_y
 _atom_site_fract_z
 _atom_site_occupancy
  Ho  Ho0  1  0.429270  0.429270  0.500000  1
  Tm  Tm1  1  0.570607  0.000496  0.500000  1
  Tm  Tm2  1  0.000496  0.570607  0.500000  1
  Al  Al3  1  0.998512  0.998512  0.500000  1
  Si  Si4  1  0.667450  0.333404  0.000000  1
  Si  Si5  1  0.333404  0.667450  0.000000  1
  Ag  Ag6  1  0.751116  0.751116  0.000000  1
  Ag  Ag7  1  0.250030  0.999115  0.000000  1
  Ag  Ag8  1  0.999115  0.250030  0.000000  1
