# generated using pymatgen
data_Fe3NiTe2(Cl2O3)2
_symmetry_space_group_name_H-M   'P 1'
_cell_length_a   6.84202703
_cell_length_b   5.14497350
_cell_length_c   8.51781431
_cell_angle_alpha   73.68074502
_cell_angle_beta   90.24336245
_cell_angle_gamma   90.92672076
_symmetry_Int_Tables_number   1
_chemical_formula_structural   Fe3NiTe2(Cl2O3)2
_chemical_formula_sum   'Fe3 Ni1 Te2 Cl4 O6'
_cell_volume   287.72639183
_cell_formula_units_Z   1
loop_
 _symmetry_equiv_pos_site_id
 _symmetry_equiv_pos_as_xyz
  1  'x, y, z'
loop_
 _atom_site_type_symbol
 _atom_site_label
 _atom_site_symmetry_multiplicity
 _atom_site_fract_x
 _atom_site_fract_y
 _atom_site_fract_z
 _atom_site_occupancy
  Fe  Fe0  1  0.250874  0.749974  0.780006  1
  Fe  Fe1  1  0.749126  0.250026  0.219994  1
  Fe  Fe2  1  0.000000  0.000000  0.000000  1
  Ni  Ni3  1  0.500000  0.000000  0.000000  1
  Te  Te4  1  0.745417  0.604386  0.754236  1
  Te  Te5  1  0.254583  0.395614  0.245764  1
  Cl  Cl6  1  0.246008  0.834581  0.490779  1
  Cl  Cl7  1  0.262679  0.249962  0.797446  1
  Cl  Cl8  1  0.737321  0.750038  0.202554  1
  Cl  Cl9  1  0.753992  0.165419  0.509221  1
  O  O10  1  0.039343  0.240766  0.158589  1
  O  O11  1  0.539683  0.766475  0.840100  1
  O  O12  1  0.960657  0.759234  0.841411  1
  O  O13  1  0.744587  0.263151  0.928782  1
  O  O14  1  0.255413  0.736849  0.071218  1
  O  O15  1  0.460317  0.233525  0.159900  1
