# generated using pymatgen
data_Dy4Sn5PRh7
_symmetry_space_group_name_H-M   'P 1'
_cell_length_a   7.53081390
_cell_length_b   7.53081474
_cell_length_c   7.53081375
_cell_angle_alpha   109.79432646
_cell_angle_beta   108.82692613
_cell_angle_gamma   109.79432570
_symmetry_Int_Tables_number   1
_chemical_formula_structural   Dy4Sn5PRh7
_chemical_formula_sum   'Dy4 Sn5 P1 Rh7'
_cell_volume   328.74772255
_cell_formula_units_Z   1
loop_
 _symmetry_equiv_pos_site_id
 _symmetry_equiv_pos_as_xyz
  1  'x, y, z'
loop_
 _atom_site_type_symbol
 _atom_site_label
 _atom_site_symmetry_multiplicity
 _atom_site_fract_x
 _atom_site_fract_y
 _atom_site_fract_z
 _atom_site_occupancy
  Dy  Dy0  1  0.469601  0.456619  0.469601  1
  Dy  Dy1  1  0.012983  0.543381  0.012983  1
  Dy  Dy2  1  0.469601  0.000000  0.012983  1
  Dy  Dy3  1  0.012983  0.000000  0.469601  1
  Sn  Sn4  1  0.711342  0.000000  0.711342  1
  Sn  Sn5  1  0.667819  0.684381  0.983439  1
  Sn  Sn6  1  0.299058  0.315619  0.983439  1
  Sn  Sn7  1  0.983439  0.684381  0.667819  1
  Sn  Sn8  1  0.983439  0.315619  0.299058  1
  P  P9  1  0.355770  0.000000  0.355770  1
  Rh  Rh10  1  0.502726  0.758229  0.260954  1
  Rh  Rh11  1  0.744497  0.241771  0.502726  1
  Rh  Rh12  1  0.260954  0.758229  0.502726  1
  Rh  Rh13  1  0.237839  0.500000  0.737839  1
  Rh  Rh14  1  0.047383  0.000000  0.047383  1
  Rh  Rh15  1  0.502726  0.241771  0.744497  1
  Rh  Rh16  1  0.737839  0.500000  0.237839  1
