# generated using pymatgen
data_RbAg(BrO3)4
_symmetry_space_group_name_H-M   'P 1'
_cell_length_a   5.75494500
_cell_length_b   7.65266386
_cell_length_c   8.73227641
_cell_angle_alpha   109.44003437
_cell_angle_beta   90.00000000
_cell_angle_gamma   112.08669310
_symmetry_Int_Tables_number   1
_chemical_formula_structural   RbAg(BrO3)4
_chemical_formula_sum   'Rb1 Ag1 Br4 O12'
_cell_volume   332.57373225
_cell_formula_units_Z   1
loop_
 _symmetry_equiv_pos_site_id
 _symmetry_equiv_pos_as_xyz
  1  'x, y, z'
loop_
 _atom_site_type_symbol
 _atom_site_label
 _atom_site_symmetry_multiplicity
 _atom_site_fract_x
 _atom_site_fract_y
 _atom_site_fract_z
 _atom_site_occupancy
  Rb  Rb0  1  0.944982  0.000000  0.000000  1
  Ag  Ag1  1  0.765364  0.000000  0.500000  1
  Br  Br2  1  0.742705  0.366071  0.836674  1
  Br  Br3  1  0.376633  0.633929  0.163326  1
  Br  Br4  1  0.329990  0.724049  0.645371  1
  Br  Br5  1  0.605940  0.275951  0.354629  1
  O  O6  1  0.893528  0.198719  0.734102  1
  O  O7  1  0.694808  0.801281  0.265898  1
  O  O8  1  0.907000  0.578019  0.805970  1
  O  O9  1  0.328981  0.421981  0.194030  1
  O  O10  1  0.844434  0.396431  0.025604  1
  O  O11  1  0.448004  0.603569  0.974396  1
  O  O12  1  0.367421  0.933351  0.801391  1
  O  O13  1  0.434069  0.066649  0.198609  1
  O  O14  1  0.173817  0.722962  0.485271  1
  O  O15  1  0.450855  0.277038  0.514730  1
  O  O16  1  0.643177  0.770216  0.592052  1
  O  O17  1  0.872961  0.229784  0.407948  1
