# generated using pymatgen
data_Mg5Si16IrPt8Rh
_symmetry_space_group_name_H-M   'P 1'
_cell_length_a   8.92370662
_cell_length_b   8.94134818
_cell_length_c   8.93556900
_cell_angle_alpha   59.91575952
_cell_angle_beta   60.04739088
_cell_angle_gamma   60.07874308
_symmetry_Int_Tables_number   1
_chemical_formula_structural   Mg5Si16IrPt8Rh
_chemical_formula_sum   'Mg5 Si16 Ir1 Pt8 Rh1'
_cell_volume   504.30235666
_cell_formula_units_Z   1
loop_
 _symmetry_equiv_pos_site_id
 _symmetry_equiv_pos_as_xyz
  1  'x, y, z'
loop_
 _atom_site_type_symbol
 _atom_site_label
 _atom_site_symmetry_multiplicity
 _atom_site_fract_x
 _atom_site_fract_y
 _atom_site_fract_z
 _atom_site_occupancy
  Mg  Mg0  1  0.199944  0.600743  0.599614  1
  Mg  Mg1  1  0.599649  0.599065  0.201468  1
  Mg  Mg2  1  0.599099  0.600942  0.599127  1
  Mg  Mg3  1  0.600083  0.199634  0.599015  1
  Mg  Mg4  1  0.250443  0.242268  0.257390  1
  Si  Si5  1  0.205158  0.662944  0.204470  1
  Si  Si6  1  0.927378  0.663497  0.204352  1
  Si  Si7  1  0.208572  0.198751  0.663188  1
  Si  Si8  1  0.659831  0.202705  0.211638  1
  Si  Si9  1  0.928375  0.199733  0.663011  1
  Si  Si10  1  0.206103  0.661733  0.926387  1
  Si  Si11  1  0.925313  0.202887  0.211384  1
  Si  Si12  1  0.661954  0.926740  0.210578  1
  Si  Si13  1  0.201306  0.926406  0.210397  1
  Si  Si14  1  0.208552  0.924731  0.658509  1
  Si  Si15  1  0.532943  0.827749  0.813762  1
  Si  Si16  1  0.825888  0.827177  0.815861  1
  Si  Si17  1  0.663974  0.203692  0.929445  1
  Si  Si18  1  0.819662  0.831643  0.527565  1
  Si  Si19  1  0.821846  0.537449  0.819736  1
  Si  Si20  1  0.202346  0.202922  0.930111  1
  Ir  Ir21  1  0.987335  0.987211  0.512826  1
  Pt  Pt22  1  0.982628  0.517543  0.982725  1
  Pt  Pt23  1  0.377220  0.374937  0.870171  1
  Pt  Pt24  1  0.375797  0.379317  0.378981  1
  Pt  Pt25  1  0.866055  0.380647  0.377947  1
  Pt  Pt26  1  0.982269  0.518202  0.517304  1
  Pt  Pt27  1  0.517813  0.517905  0.982248  1
  Pt  Pt28  1  0.382198  0.861010  0.376323  1
  Pt  Pt29  1  0.517955  0.982303  0.982195  1
  Rh  Rh30  1  0.512309  0.987511  0.512271  1
