# generated using pymatgen
data_Yb3Er(Si4Tc3)2
_symmetry_space_group_name_H-M   'P 1'
_cell_length_a   6.77804452
_cell_length_b   6.68593921
_cell_length_c   6.76302232
_cell_angle_alpha   70.47580031
_cell_angle_beta   90.08458220
_cell_angle_gamma   89.82823115
_symmetry_Int_Tables_number   1
_chemical_formula_structural   Yb3Er(Si4Tc3)2
_chemical_formula_sum   'Yb3 Er1 Si8 Tc6'
_cell_volume   288.85890528
_cell_formula_units_Z   1
loop_
 _symmetry_equiv_pos_site_id
 _symmetry_equiv_pos_as_xyz
  1  'x, y, z'
loop_
 _atom_site_type_symbol
 _atom_site_label
 _atom_site_symmetry_multiplicity
 _atom_site_fract_x
 _atom_site_fract_y
 _atom_site_fract_z
 _atom_site_occupancy
  Yb  Yb0  1  0.661688  0.445665  0.182075  1
  Yb  Yb1  1  0.164312  0.055733  0.813939  1
  Yb  Yb2  1  0.337053  0.554201  0.817158  1
  Er  Er3  1  0.833968  0.942127  0.192555  1
  Si  Si4  1  0.451360  0.119236  0.101404  1
  Si  Si5  1  0.953579  0.380505  0.896527  1
  Si  Si6  1  0.547119  0.880718  0.896968  1
  Si  Si7  1  0.046453  0.620788  0.100993  1
  Si  Si8  1  0.861371  0.136713  0.505503  1
  Si  Si9  1  0.360902  0.367102  0.494014  1
  Si  Si10  1  0.142219  0.866094  0.496038  1
  Si  Si11  1  0.637382  0.629759  0.508617  1
  Tc  Tc12  1  0.502445  0.000306  0.497099  1
  Tc  Tc13  1  0.999780  0.501801  0.498619  1
  Tc  Tc14  1  0.156594  0.243593  0.243009  1
  Tc  Tc15  1  0.660045  0.253504  0.758239  1
  Tc  Tc16  1  0.842459  0.758146  0.754947  1
  Tc  Tc17  1  0.341270  0.744007  0.242298  1
