# generated using pymatgen
data_Y5AsS4
_symmetry_space_group_name_H-M   'P 1'
_cell_length_a   6.86082116
_cell_length_b   6.86082309
_cell_length_c   6.86084057
_cell_angle_alpha   99.58471304
_cell_angle_beta   99.58433342
_cell_angle_gamma   131.83547891
_symmetry_Int_Tables_number   1
_chemical_formula_structural   Y5AsS4
_chemical_formula_sum   'Y5 As1 S4'
_cell_volume   219.67217642
_cell_formula_units_Z   1
loop_
 _symmetry_equiv_pos_site_id
 _symmetry_equiv_pos_as_xyz
  1  'x, y, z'
loop_
 _atom_site_type_symbol
 _atom_site_label
 _atom_site_symmetry_multiplicity
 _atom_site_fract_x
 _atom_site_fract_y
 _atom_site_fract_z
 _atom_site_occupancy
  Y  Y0  1  0.398804  0.801743  0.200548  1
  Y  Y1  1  0.000000  0.000000  0.000000  1
  Y  Y2  1  0.601196  0.198257  0.799452  1
  Y  Y3  1  0.198256  0.398805  0.597061  1
  Y  Y4  1  0.801744  0.601195  0.402939  1
  As  As5  1  0.500000  0.500000  0.000000  1
  S  S6  1  0.100212  0.699282  0.799493  1
  S  S7  1  0.699282  0.899787  0.599069  1
  S  S8  1  0.300718  0.100213  0.400931  1
  S  S9  1  0.899788  0.300718  0.200507  1
