# generated using pymatgen
data_Pr2Ho2TmSn4
_symmetry_space_group_name_H-M   'P 1'
_cell_length_a   8.12329700
_cell_length_b   8.30053800
_cell_length_c   15.67508900
_cell_angle_alpha   90.00000000
_cell_angle_beta   90.00000000
_cell_angle_gamma   90.00000000
_symmetry_Int_Tables_number   1
_chemical_formula_structural   Pr2Ho2TmSn4
_chemical_formula_sum   'Pr8 Ho8 Tm4 Sn16'
_cell_volume   1056.93575399
_cell_formula_units_Z   4
loop_
 _symmetry_equiv_pos_site_id
 _symmetry_equiv_pos_as_xyz
  1  'x, y, z'
loop_
 _atom_site_type_symbol
 _atom_site_label
 _atom_site_symmetry_multiplicity
 _atom_site_fract_x
 _atom_site_fract_y
 _atom_site_fract_z
 _atom_site_occupancy
  Pr  Pr0  1  0.513730  0.321888  0.903304  1
  Pr  Pr1  1  0.013730  0.178112  0.596696  1
  Pr  Pr2  1  0.486270  0.678112  0.403304  1
  Pr  Pr3  1  0.986270  0.821888  0.096696  1
  Pr  Pr4  1  0.486270  0.678112  0.096696  1
  Pr  Pr5  1  0.986270  0.821888  0.403304  1
  Pr  Pr6  1  0.513730  0.321888  0.596696  1
  Pr  Pr7  1  0.013730  0.178112  0.903304  1
  Ho  Ho8  1  0.359978  0.835841  0.876907  1
  Ho  Ho9  1  0.859978  0.664159  0.623093  1
  Ho  Ho10  1  0.640022  0.164159  0.376907  1
  Ho  Ho11  1  0.140022  0.335841  0.123093  1
  Ho  Ho12  1  0.640022  0.164159  0.123093  1
  Ho  Ho13  1  0.140022  0.335841  0.376907  1
  Ho  Ho14  1  0.359978  0.835841  0.623093  1
  Ho  Ho15  1  0.859978  0.664159  0.876907  1
  Tm  Tm16  1  0.193867  0.502892  0.750000  1
  Tm  Tm17  1  0.693867  0.997108  0.750000  1
  Tm  Tm18  1  0.806133  0.497108  0.250000  1
  Tm  Tm19  1  0.306133  0.002892  0.250000  1
  Sn  Sn20  1  0.304748  0.041095  0.042408  1
  Sn  Sn21  1  0.804748  0.458905  0.457592  1
  Sn  Sn22  1  0.695252  0.958905  0.542408  1
  Sn  Sn23  1  0.195252  0.541095  0.957592  1
  Sn  Sn24  1  0.695252  0.958905  0.957592  1
  Sn  Sn25  1  0.195252  0.541095  0.542408  1
  Sn  Sn26  1  0.304748  0.041095  0.457592  1
  Sn  Sn27  1  0.804748  0.458905  0.042408  1
  Sn  Sn28  1  0.558383  0.624517  0.750000  1
  Sn  Sn29  1  0.058383  0.875483  0.750000  1
  Sn  Sn30  1  0.441617  0.375483  0.250000  1
  Sn  Sn31  1  0.941617  0.124517  0.250000  1
  Sn  Sn32  1  0.323123  0.142581  0.750000  1
  Sn  Sn33  1  0.823123  0.357419  0.750000  1
  Sn  Sn34  1  0.676877  0.857419  0.250000  1
  Sn  Sn35  1  0.176877  0.642581  0.250000  1
