# generated using pymatgen
data_MgPd5Au2
_symmetry_space_group_name_H-M   'P 1'
_cell_length_a   4.07759200
_cell_length_b   5.64041600
_cell_length_c   11.28784200
_cell_angle_alpha   90.00000000
_cell_angle_beta   90.00000000
_cell_angle_gamma   90.00000000
_symmetry_Int_Tables_number   1
_chemical_formula_structural   MgPd5Au2
_chemical_formula_sum   'Mg2 Pd10 Au4'
_cell_volume   259.61263561
_cell_formula_units_Z   2
loop_
 _symmetry_equiv_pos_site_id
 _symmetry_equiv_pos_as_xyz
  1  'x, y, z'
loop_
 _atom_site_type_symbol
 _atom_site_label
 _atom_site_symmetry_multiplicity
 _atom_site_fract_x
 _atom_site_fract_y
 _atom_site_fract_z
 _atom_site_occupancy
  Mg  Mg0  1  0.000000  0.000000  0.500000  1
  Mg  Mg1  1  0.000000  0.500000  0.000000  1
  Pd  Pd2  1  0.500000  0.231196  0.378035  1
  Pd  Pd3  1  0.500000  0.768804  0.621965  1
  Pd  Pd4  1  0.500000  0.268804  0.878035  1
  Pd  Pd5  1  0.500000  0.731196  0.121965  1
  Pd  Pd6  1  0.000000  0.479821  0.249256  1
  Pd  Pd7  1  0.000000  0.520179  0.750744  1
  Pd  Pd8  1  0.000000  0.020179  0.749256  1
  Pd  Pd9  1  0.000000  0.979821  0.250744  1
  Pd  Pd10  1  0.000000  0.000000  0.000000  1
  Pd  Pd11  1  0.000000  0.500000  0.500000  1
  Au  Au12  1  0.500000  0.233206  0.126480  1
  Au  Au13  1  0.500000  0.766794  0.873520  1
  Au  Au14  1  0.500000  0.266794  0.626480  1
  Au  Au15  1  0.500000  0.733206  0.373520  1
