# generated using pymatgen
data_Rb2SbRh3S8
_symmetry_space_group_name_H-M   'P 1'
_cell_length_a   6.24853800
_cell_length_b   7.22745347
_cell_length_c   15.97906100
_cell_angle_alpha   89.97939638
_cell_angle_beta   90.00000000
_cell_angle_gamma   90.00000000
_symmetry_Int_Tables_number   1
_chemical_formula_structural   Rb2SbRh3S8
_chemical_formula_sum   'Rb4 Sb2 Rh6 S16'
_cell_volume   721.63060893
_cell_formula_units_Z   2
loop_
 _symmetry_equiv_pos_site_id
 _symmetry_equiv_pos_as_xyz
  1  'x, y, z'
loop_
 _atom_site_type_symbol
 _atom_site_label
 _atom_site_symmetry_multiplicity
 _atom_site_fract_x
 _atom_site_fract_y
 _atom_site_fract_z
 _atom_site_occupancy
  Rb  Rb0  1  0.354841  0.000000  0.000000  1
  Rb  Rb1  1  0.645159  0.500000  0.500000  1
  Rb  Rb2  1  0.031452  0.000000  0.500000  1
  Rb  Rb3  1  0.968548  0.500000  0.000000  1
  Sb  Sb4  1  0.500000  0.250000  0.250000  1
  Sb  Sb5  1  0.500000  0.750000  0.750000  1
  Rh  Rh6  1  0.001257  0.998997  0.250200  1
  Rh  Rh7  1  0.001257  0.001003  0.749800  1
  Rh  Rh8  1  0.998743  0.501003  0.249800  1
  Rh  Rh9  1  0.998743  0.498997  0.750200  1
  Rh  Rh10  1  0.500000  0.750000  0.250000  1
  Rh  Rh11  1  0.500000  0.250000  0.750000  1
  S  S12  1  0.851596  0.250848  0.331414  1
  S  S13  1  0.851596  0.749152  0.668586  1
  S  S14  1  0.165159  0.750300  0.174067  1
  S  S15  1  0.165159  0.249700  0.825933  1
  S  S16  1  0.148404  0.249152  0.168586  1
  S  S17  1  0.148404  0.750848  0.831414  1
  S  S18  1  0.834841  0.749700  0.325933  1
  S  S19  1  0.834841  0.250300  0.674067  1
  S  S20  1  0.678311  0.984806  0.169976  1
  S  S21  1  0.678311  0.015194  0.830024  1
  S  S22  1  0.321689  0.515194  0.330024  1
  S  S23  1  0.321689  0.484806  0.669976  1
  S  S24  1  0.326177  0.984111  0.329696  1
  S  S25  1  0.326177  0.015889  0.670304  1
  S  S26  1  0.673823  0.515889  0.170304  1
  S  S27  1  0.673823  0.484111  0.829696  1
