# generated using pymatgen
data_Si4Mo6Ru2C
_symmetry_space_group_name_H-M   'P 1'
_cell_length_a   7.90089680
_cell_length_b   7.90089679
_cell_length_c   7.90089600
_cell_angle_alpha   59.99999493
_cell_angle_beta   59.99999499
_cell_angle_gamma   59.99999901
_symmetry_Int_Tables_number   1
_chemical_formula_structural   Si4Mo6Ru2C
_chemical_formula_sum   'Si8 Mo12 Ru4 C2'
_cell_volume   348.74989776
_cell_formula_units_Z   2
loop_
 _symmetry_equiv_pos_site_id
 _symmetry_equiv_pos_as_xyz
  1  'x, y, z'
loop_
 _atom_site_type_symbol
 _atom_site_label
 _atom_site_symmetry_multiplicity
 _atom_site_fract_x
 _atom_site_fract_y
 _atom_site_fract_z
 _atom_site_occupancy
  Si  Si0  1  0.338619  0.338619  0.984140  1
  Si  Si1  1  0.338619  0.338619  0.338619  1
  Si  Si2  1  0.265860  0.911381  0.911381  1
  Si  Si3  1  0.911381  0.911381  0.911381  1
  Si  Si4  1  0.984140  0.338619  0.338619  1
  Si  Si5  1  0.338619  0.984140  0.338619  1
  Si  Si6  1  0.911381  0.911381  0.265860  1
  Si  Si7  1  0.911381  0.265860  0.911381  1
  Mo  Mo8  1  0.312401  0.687599  0.687599  1
  Mo  Mo9  1  0.687599  0.687599  0.312401  1
  Mo  Mo10  1  0.687599  0.312401  0.687599  1
  Mo  Mo11  1  0.312401  0.687599  0.312401  1
  Mo  Mo12  1  0.562401  0.937599  0.562401  1
  Mo  Mo13  1  0.562401  0.937599  0.937599  1
  Mo  Mo14  1  0.937599  0.562401  0.562401  1
  Mo  Mo15  1  0.937599  0.562401  0.937599  1
  Mo  Mo16  1  0.312401  0.312401  0.687599  1
  Mo  Mo17  1  0.562401  0.562401  0.937599  1
  Mo  Mo18  1  0.937599  0.937599  0.562401  1
  Mo  Mo19  1  0.687599  0.312401  0.312401  1
  Ru  Ru20  1  0.125000  0.625000  0.125000  1
  Ru  Ru21  1  0.125000  0.125000  0.625000  1
  Ru  Ru22  1  0.625000  0.125000  0.125000  1
  Ru  Ru23  1  0.125000  0.125000  0.125000  1
  C  C24  1  0.500000  0.500000  0.500000  1
  C  C25  1  0.750000  0.750000  0.750000  1
