# generated using pymatgen
data_Tm4Zn2B4Ir7Rh3
_symmetry_space_group_name_H-M   'P 1'
_cell_length_a   9.51254491
_cell_length_b   9.53978391
_cell_length_c   3.15055900
_cell_angle_alpha   90.00000000
_cell_angle_beta   90.00000000
_cell_angle_gamma   89.94997071
_symmetry_Int_Tables_number   1
_chemical_formula_structural   Tm4Zn2B4Ir7Rh3
_chemical_formula_sum   'Tm4 Zn2 B4 Ir7 Rh3'
_cell_volume   285.90563086
_cell_formula_units_Z   1
loop_
 _symmetry_equiv_pos_site_id
 _symmetry_equiv_pos_as_xyz
  1  'x, y, z'
loop_
 _atom_site_type_symbol
 _atom_site_label
 _atom_site_symmetry_multiplicity
 _atom_site_fract_x
 _atom_site_fract_y
 _atom_site_fract_z
 _atom_site_occupancy
  Tm  Tm0  1  0.323659  0.823168  0.000000  1
  Tm  Tm1  1  0.677884  0.177248  0.000000  1
  Tm  Tm2  1  0.177685  0.323515  0.000000  1
  Tm  Tm3  1  0.821988  0.676465  0.000000  1
  Zn  Zn4  1  0.499820  0.499703  0.000000  1
  Zn  Zn5  1  0.999637  0.000706  0.000000  1
  B  B6  1  0.124064  0.624341  0.000000  1
  B  B7  1  0.875345  0.378474  0.000000  1
  B  B8  1  0.374748  0.121610  0.000000  1
  B  B9  1  0.625497  0.878423  0.000000  1
  Ir  Ir10  1  0.067666  0.780343  0.500000  1
  Ir  Ir11  1  0.780733  0.929560  0.500000  1
  Ir  Ir12  1  0.219747  0.069246  0.500000  1
  Ir  Ir13  1  0.280641  0.568988  0.500000  1
  Ir  Ir14  1  0.719206  0.429710  0.500000  1
  Ir  Ir15  1  0.999575  0.499182  0.500000  1
  Ir  Ir16  1  0.500885  0.000398  0.500000  1
  Rh  Rh17  1  0.568111  0.719455  0.500000  1
  Rh  Rh18  1  0.431180  0.280135  0.500000  1
  Rh  Rh19  1  0.931928  0.219330  0.500000  1
