# generated using pymatgen
data_Er3Zn2Pt3Au
_symmetry_space_group_name_H-M   'P 1'
_cell_length_a   7.40742500
_cell_length_b   7.29076467
_cell_length_c   3.85338200
_cell_angle_alpha   90.00000000
_cell_angle_beta   90.00000000
_cell_angle_gamma   120.53074384
_symmetry_Int_Tables_number   1
_chemical_formula_structural   Er3Zn2Pt3Au
_chemical_formula_sum   'Er3 Zn2 Pt3 Au1'
_cell_volume   179.25259193
_cell_formula_units_Z   1
loop_
 _symmetry_equiv_pos_site_id
 _symmetry_equiv_pos_as_xyz
  1  'x, y, z'
loop_
 _atom_site_type_symbol
 _atom_site_label
 _atom_site_symmetry_multiplicity
 _atom_site_fract_x
 _atom_site_fract_y
 _atom_site_fract_z
 _atom_site_occupancy
  Er  Er0  1  0.590588  0.000000  0.000000  1
  Er  Er1  1  0.009801  0.611015  0.000000  1
  Er  Er2  1  0.398786  0.388985  0.000000  1
  Zn  Zn3  1  0.999254  0.257087  0.500000  1
  Zn  Zn4  1  0.742167  0.742913  0.500000  1
  Pt  Pt5  1  0.972404  0.000000  0.000000  1
  Pt  Pt6  1  0.339282  0.651980  0.500000  1
  Pt  Pt7  1  0.687303  0.348020  0.500000  1
  Au  Au8  1  0.260413  0.000000  0.500000  1
