# generated using pymatgen
data_PrSm7C10
_symmetry_space_group_name_H-M   'P 1'
_cell_length_a   3.79702000
_cell_length_b   6.79671280
_cell_length_c   12.31019207
_cell_angle_alpha   90.10396963
_cell_angle_beta   90.00000000
_cell_angle_gamma   90.00000000
_symmetry_Int_Tables_number   1
_chemical_formula_structural   PrSm7C10
_chemical_formula_sum   'Pr1 Sm7 C10'
_cell_volume   317.69173566
_cell_formula_units_Z   1
loop_
 _symmetry_equiv_pos_site_id
 _symmetry_equiv_pos_as_xyz
  1  'x, y, z'
loop_
 _atom_site_type_symbol
 _atom_site_label
 _atom_site_symmetry_multiplicity
 _atom_site_fract_x
 _atom_site_fract_y
 _atom_site_fract_z
 _atom_site_occupancy
  Pr  Pr0  1  0.000000  0.254318  0.042551  1
  Sm  Sm1  1  0.000000  0.250259  0.542576  1
  Sm  Sm2  1  0.000000  0.740724  0.459130  1
  Sm  Sm3  1  0.000000  0.758943  0.957731  1
  Sm  Sm4  1  0.500000  0.106093  0.802307  1
  Sm  Sm5  1  0.500000  0.890849  0.196846  1
  Sm  Sm6  1  0.500000  0.608002  0.697221  1
  Sm  Sm7  1  0.500000  0.394393  0.304280  1
  C  C8  1  0.500000  0.491613  0.499326  1
  C  C9  1  0.500000  0.002924  0.998904  1
  C  C10  1  0.000000  0.357304  0.735235  1
  C  C11  1  0.000000  0.636560  0.264539  1
  C  C12  1  0.000000  0.862978  0.763624  1
  C  C13  1  0.000000  0.141867  0.241336  1
  C  C14  1  0.000000  0.417868  0.837259  1
  C  C15  1  0.000000  0.615027  0.157560  1
  C  C16  1  0.000000  0.076753  0.342297  1
  C  C17  1  0.000000  0.893525  0.657279  1
