# generated using pymatgen
data_La5Pr3PPd24
_symmetry_space_group_name_H-M   'P 1'
_cell_length_a   8.54624425
_cell_length_b   8.54624410
_cell_length_c   8.54600300
_cell_angle_alpha   90.01383748
_cell_angle_beta   89.98616252
_cell_angle_gamma   89.96229889
_symmetry_Int_Tables_number   1
_chemical_formula_structural   La5Pr3PPd24
_chemical_formula_sum   'La5 Pr3 P1 Pd24'
_cell_volume   624.18526954
_cell_formula_units_Z   1
loop_
 _symmetry_equiv_pos_site_id
 _symmetry_equiv_pos_as_xyz
  1  'x, y, z'
loop_
 _atom_site_type_symbol
 _atom_site_label
 _atom_site_symmetry_multiplicity
 _atom_site_fract_x
 _atom_site_fract_y
 _atom_site_fract_z
 _atom_site_occupancy
  La  La0  1  0.255005  0.254569  0.253823  1
  La  La1  1  0.745438  0.746088  0.746547  1
  La  La2  1  0.745431  0.744995  0.253823  1
  La  La3  1  0.746005  0.253995  0.745112  1
  La  La4  1  0.253912  0.254562  0.746547  1
  Pr  Pr5  1  0.253262  0.746738  0.254339  1
  Pr  Pr6  1  0.253810  0.746190  0.745613  1
  Pr  Pr7  1  0.746721  0.253279  0.253653  1
  P  P8  1  0.999473  0.000527  0.999978  1
  Pd  Pd9  1  0.256445  0.500001  0.000102  1
  Pd  Pd10  1  0.743814  0.500089  0.999751  1
  Pd  Pd11  1  0.000449  0.256209  0.500107  1
  Pd  Pd12  1  0.499911  0.256186  0.999751  1
  Pd  Pd13  1  0.999344  0.743580  0.500019  1
  Pd  Pd14  1  0.499999  0.743555  0.000102  1
  Pd  Pd15  1  0.499945  0.999875  0.256307  1
  Pd  Pd16  1  0.256420  0.000656  0.500019  1
  Pd  Pd17  1  0.499994  0.000215  0.743830  1
  Pd  Pd18  1  0.743791  0.999551  0.500107  1
  Pd  Pd19  1  0.000125  0.500055  0.256307  1
  Pd  Pd20  1  0.999785  0.500006  0.743830  1
  Pd  Pd21  1  0.251642  0.499835  0.499965  1
  Pd  Pd22  1  0.748386  0.499964  0.500037  1
  Pd  Pd23  1  0.500036  0.251614  0.500037  1
  Pd  Pd24  1  0.500165  0.748358  0.499965  1
  Pd  Pd25  1  0.500022  0.499978  0.251617  1
  Pd  Pd26  1  0.500081  0.499919  0.748297  1
  Pd  Pd27  1  0.276459  0.998472  0.999790  1
  Pd  Pd28  1  0.722742  0.000806  0.000515  1
  Pd  Pd29  1  0.999194  0.277258  0.000515  1
  Pd  Pd30  1  0.001528  0.723541  0.999790  1
  Pd  Pd31  1  0.999958  0.000042  0.276793  1
  Pd  Pd32  1  0.000707  0.999293  0.723013  1
