# generated using pymatgen
data_Tb6Ti2CrOsC12
_symmetry_space_group_name_H-M   'P 1'
_cell_length_a   8.34647400
_cell_length_b   8.34647479
_cell_length_c   5.06352200
_cell_angle_alpha   90.00000000
_cell_angle_beta   90.00000000
_cell_angle_gamma   119.99998896
_symmetry_Int_Tables_number   1
_chemical_formula_structural   Tb6Ti2CrOsC12
_chemical_formula_sum   'Tb6 Ti2 Cr1 Os1 C12'
_cell_volume   305.48473379
_cell_formula_units_Z   1
loop_
 _symmetry_equiv_pos_site_id
 _symmetry_equiv_pos_as_xyz
  1  'x, y, z'
loop_
 _atom_site_type_symbol
 _atom_site_label
 _atom_site_symmetry_multiplicity
 _atom_site_fract_x
 _atom_site_fract_y
 _atom_site_fract_z
 _atom_site_occupancy
  Tb  Tb0  1  0.623442  0.678841  0.750000  1
  Tb  Tb1  1  0.934657  0.619431  0.250000  1
  Tb  Tb2  1  0.684775  0.065343  0.250000  1
  Tb  Tb3  1  0.321159  0.944601  0.750000  1
  Tb  Tb4  1  0.055399  0.376558  0.750000  1
  Tb  Tb5  1  0.380569  0.315225  0.250000  1
  Ti  Ti6  1  0.000000  0.000000  0.502469  1
  Ti  Ti7  1  0.000000  0.000000  0.997531  1
  Cr  Cr8  1  0.666667  0.333333  0.750000  1
  Os  Os9  1  0.333333  0.666667  0.250000  1
  C  C10  1  0.964056  0.763993  0.750000  1
  C  C11  1  0.197989  0.965518  0.250000  1
  C  C12  1  0.767530  0.802011  0.250000  1
  C  C13  1  0.236007  0.200064  0.750000  1
  C  C14  1  0.799936  0.035944  0.750000  1
  C  C15  1  0.034482  0.232470  0.250000  1
  C  C16  1  0.862467  0.572656  0.750000  1
  C  C17  1  0.289801  0.870802  0.250000  1
  C  C18  1  0.581001  0.710199  0.250000  1
  C  C19  1  0.427344  0.289811  0.750000  1
  C  C20  1  0.129198  0.418999  0.250000  1
  C  C21  1  0.710189  0.137533  0.750000  1
