# generated using pymatgen
data_CaTb3Ni13C4
_symmetry_space_group_name_H-M   'P 1'
_cell_length_a   8.39241894
_cell_length_b   8.39242039
_cell_length_c   3.87175900
_cell_angle_alpha   90.00000000
_cell_angle_beta   90.00000000
_cell_angle_gamma   90.68893012
_symmetry_Int_Tables_number   1
_chemical_formula_structural   CaTb3Ni13C4
_chemical_formula_sum   'Ca1 Tb3 Ni13 C4'
_cell_volume   272.67875743
_cell_formula_units_Z   1
loop_
 _symmetry_equiv_pos_site_id
 _symmetry_equiv_pos_as_xyz
  1  'x, y, z'
loop_
 _atom_site_type_symbol
 _atom_site_label
 _atom_site_symmetry_multiplicity
 _atom_site_fract_x
 _atom_site_fract_y
 _atom_site_fract_z
 _atom_site_occupancy
  Ca  Ca0  1  0.649329  0.649329  0.500000  1
  Tb  Tb1  1  0.812287  0.187295  0.500000  1
  Tb  Tb2  1  0.187295  0.812287  0.500000  1
  Tb  Tb3  1  0.349806  0.349806  0.500000  1
  Ni  Ni4  1  0.495556  0.005961  0.500000  1
  Ni  Ni5  1  0.005961  0.495556  0.500000  1
  Ni  Ni6  1  0.001841  0.001841  0.000000  1
  Ni  Ni7  1  0.426661  0.783509  0.000000  1
  Ni  Ni8  1  0.568546  0.213738  0.000000  1
  Ni  Ni9  1  0.213738  0.568546  0.000000  1
  Ni  Ni10  1  0.783509  0.426661  0.000000  1
  Ni  Ni11  1  0.711494  0.929295  0.000000  1
  Ni  Ni12  1  0.292288  0.075100  0.000000  1
  Ni  Ni13  1  0.075100  0.292288  0.000000  1
  Ni  Ni14  1  0.929295  0.711494  0.000000  1
  Ni  Ni15  1  0.877254  0.877254  0.500000  1
  Ni  Ni16  1  0.124509  0.124509  0.500000  1
  C  C17  1  0.442208  0.555698  0.000000  1
  C  C18  1  0.555698  0.442208  0.000000  1
  C  C19  1  0.501200  0.996424  0.000000  1
  C  C20  1  0.996424  0.501200  0.000000  1
