# generated using pymatgen
data_Y3Tm(Ga3Ir)6
_symmetry_space_group_name_H-M   'P 1'
_cell_length_a   7.57873402
_cell_length_b   7.57974414
_cell_length_c   9.51210900
_cell_angle_alpha   90.00000000
_cell_angle_beta   90.00000000
_cell_angle_gamma   119.83386189
_symmetry_Int_Tables_number   1
_chemical_formula_structural   Y3Tm(Ga3Ir)6
_chemical_formula_sum   'Y3 Tm1 Ga18 Ir6'
_cell_volume   474.00540015
_cell_formula_units_Z   1
loop_
 _symmetry_equiv_pos_site_id
 _symmetry_equiv_pos_as_xyz
  1  'x, y, z'
loop_
 _atom_site_type_symbol
 _atom_site_label
 _atom_site_symmetry_multiplicity
 _atom_site_fract_x
 _atom_site_fract_y
 _atom_site_fract_z
 _atom_site_occupancy
  Y  Y0  1  0.996672  0.669499  0.750000  1
  Y  Y1  1  0.003326  0.330463  0.250000  1
  Y  Y2  1  0.669485  0.996584  0.750000  1
  Tm  Tm3  1  0.330184  0.003136  0.250000  1
  Ga  Ga4  1  0.128801  0.128564  0.750000  1
  Ga  Ga5  1  0.872111  0.871590  0.250000  1
  Ga  Ga6  1  0.999562  0.334592  0.579833  1
  Ga  Ga7  1  0.001409  0.666256  0.419073  1
  Ga  Ga8  1  0.001409  0.666256  0.080927  1
  Ga  Ga9  1  0.334613  0.999573  0.920983  1
  Ga  Ga10  1  0.999562  0.334592  0.920167  1
  Ga  Ga11  1  0.664438  0.000567  0.080955  1
  Ga  Ga12  1  0.664438  0.000567  0.419045  1
  Ga  Ga13  1  0.334613  0.999573  0.579017  1
  Ga  Ga14  1  0.332192  0.331390  0.066082  1
  Ga  Ga15  1  0.667786  0.667766  0.935432  1
  Ga  Ga16  1  0.667786  0.667766  0.564568  1
  Ga  Ga17  1  0.332192  0.331390  0.433918  1
  Ga  Ga18  1  0.338737  0.546038  0.750000  1
  Ga  Ga19  1  0.660462  0.452953  0.250000  1
  Ga  Ga20  1  0.545898  0.338499  0.750000  1
  Ga  Ga21  1  0.453882  0.661819  0.250000  1
  Ir  Ir22  1  0.671279  0.328811  0.499630  1
  Ir  Ir23  1  0.328755  0.671286  0.499653  1
  Ir  Ir24  1  0.328755  0.671286  0.000347  1
  Ir  Ir25  1  0.671279  0.328811  0.000370  1
  Ir  Ir26  1  0.000187  0.000186  0.499557  1
  Ir  Ir27  1  0.000187  0.000186  0.000443  1
