# generated using pymatgen
data_Dy2Al7Ga2Ir3
_symmetry_space_group_name_H-M   'P 1'
_cell_length_a   7.54712422
_cell_length_b   7.54047527
_cell_length_c   9.53841500
_cell_angle_alpha   90.00000000
_cell_angle_beta   90.00000000
_cell_angle_gamma   119.51293155
_symmetry_Int_Tables_number   1
_chemical_formula_structural   Dy2Al7Ga2Ir3
_chemical_formula_sum   'Dy4 Al14 Ga4 Ir6'
_cell_volume   472.38678177
_cell_formula_units_Z   2
loop_
 _symmetry_equiv_pos_site_id
 _symmetry_equiv_pos_as_xyz
  1  'x, y, z'
loop_
 _atom_site_type_symbol
 _atom_site_label
 _atom_site_symmetry_multiplicity
 _atom_site_fract_x
 _atom_site_fract_y
 _atom_site_fract_z
 _atom_site_occupancy
  Dy  Dy0  1  0.997063  0.672261  0.750000  1
  Dy  Dy1  1  0.002937  0.327739  0.250000  1
  Dy  Dy2  1  0.669428  0.993480  0.750000  1
  Dy  Dy3  1  0.330572  0.006520  0.250000  1
  Al  Al4  1  0.001294  0.334775  0.572749  1
  Al  Al5  1  0.998706  0.665225  0.427251  1
  Al  Al6  1  0.998706  0.665225  0.072749  1
  Al  Al7  1  0.335187  0.001873  0.927093  1
  Al  Al8  1  0.001294  0.334775  0.927251  1
  Al  Al9  1  0.664813  0.998127  0.072907  1
  Al  Al10  1  0.664813  0.998127  0.427093  1
  Al  Al11  1  0.335187  0.001873  0.572907  1
  Al  Al12  1  0.333840  0.334180  0.054189  1
  Al  Al13  1  0.666160  0.665820  0.945811  1
  Al  Al14  1  0.666160  0.665820  0.554189  1
  Al  Al15  1  0.333840  0.334180  0.445811  1
  Al  Al16  1  0.548326  0.338736  0.750000  1
  Al  Al17  1  0.451674  0.661264  0.250000  1
  Ga  Ga18  1  0.129374  0.129969  0.750000  1
  Ga  Ga19  1  0.870626  0.870031  0.250000  1
  Ga  Ga20  1  0.338220  0.545681  0.750000  1
  Ga  Ga21  1  0.661780  0.454319  0.250000  1
  Ir  Ir22  1  0.671163  0.327976  0.502665  1
  Ir  Ir23  1  0.328837  0.672024  0.497335  1
  Ir  Ir24  1  0.328837  0.672024  0.002665  1
  Ir  Ir25  1  0.671163  0.327976  0.997335  1
  Ir  Ir26  1  0.000000  0.000000  0.500000  1
  Ir  Ir27  1  0.000000  0.000000  0.000000  1
