# generated using pymatgen
data_MnCo(NiSb6)2
_symmetry_space_group_name_H-M   'P 1'
_cell_length_a   7.96200383
_cell_length_b   7.90160365
_cell_length_c   9.16250691
_cell_angle_alpha   54.91360970
_cell_angle_beta   54.71489147
_cell_angle_gamma   70.58633875
_symmetry_Int_Tables_number   1
_chemical_formula_structural   MnCo(NiSb6)2
_chemical_formula_sum   'Mn1 Co1 Ni2 Sb12'
_cell_volume   385.03519299
_cell_formula_units_Z   1
loop_
 _symmetry_equiv_pos_site_id
 _symmetry_equiv_pos_as_xyz
  1  'x, y, z'
loop_
 _atom_site_type_symbol
 _atom_site_label
 _atom_site_symmetry_multiplicity
 _atom_site_fract_x
 _atom_site_fract_y
 _atom_site_fract_z
 _atom_site_occupancy
  Mn  Mn0  1  0.000000  0.500000  0.000000  1
  Co  Co1  1  0.500000  0.000000  0.000000  1
  Ni  Ni2  1  0.500000  0.000000  0.500000  1
  Ni  Ni3  1  0.000000  0.500000  0.500000  1
  Sb  Sb4  1  0.671172  0.670275  0.169107  1
  Sb  Sb5  1  0.328828  0.329725  0.830893  1
  Sb  Sb6  1  0.660888  0.659384  0.498050  1
  Sb  Sb7  1  0.339112  0.340616  0.501950  1
  Sb  Sb8  1  0.844138  0.162770  0.330428  1
  Sb  Sb9  1  0.155862  0.837230  0.669572  1
  Sb  Sb10  1  0.162634  0.844284  0.332239  1
  Sb  Sb11  1  0.837366  0.155716  0.667761  1
  Sb  Sb12  1  0.494573  0.823187  0.843153  1
  Sb  Sb13  1  0.505427  0.176813  0.156847  1
  Sb  Sb14  1  0.174886  0.507016  0.155571  1
  Sb  Sb15  1  0.825114  0.492984  0.844429  1
