# generated using pymatgen
data_HoTl2Bi(Rh2O7)2
_symmetry_space_group_name_H-M   'P 1'
_cell_length_a   7.39092982
_cell_length_b   7.26354077
_cell_length_c   7.26353973
_cell_angle_alpha   58.82733102
_cell_angle_beta   59.24527276
_cell_angle_gamma   59.24528389
_symmetry_Int_Tables_number   1
_chemical_formula_structural   HoTl2Bi(Rh2O7)2
_chemical_formula_sum   'Ho1 Tl2 Bi1 Rh4 O14'
_cell_volume   270.09857876
_cell_formula_units_Z   1
loop_
 _symmetry_equiv_pos_site_id
 _symmetry_equiv_pos_as_xyz
  1  'x, y, z'
loop_
 _atom_site_type_symbol
 _atom_site_label
 _atom_site_symmetry_multiplicity
 _atom_site_fract_x
 _atom_site_fract_y
 _atom_site_fract_z
 _atom_site_occupancy
  Ho  Ho0  1  0.625000  0.125000  0.125000  1
  Tl  Tl1  1  0.125000  0.625000  0.125000  1
  Tl  Tl2  1  0.125000  0.125000  0.625000  1
  Bi  Bi3  1  0.125000  0.125000  0.125000  1
  Rh  Rh4  1  0.625000  0.625000  0.625000  1
  Rh  Rh5  1  0.625000  0.625000  0.125000  1
  Rh  Rh6  1  0.125000  0.625000  0.625000  1
  Rh  Rh7  1  0.625000  0.125000  0.625000  1
  O  O8  1  0.256456  0.245845  0.245845  1
  O  O9  1  0.292647  0.709662  0.290002  1
  O  O10  1  0.957353  0.959998  0.540338  1
  O  O11  1  0.546739  0.958708  0.539003  1
  O  O12  1  0.703261  0.710997  0.291292  1
  O  O13  1  0.956936  0.543414  0.543414  1
  O  O14  1  0.703261  0.291292  0.710997  1
  O  O15  1  0.292647  0.290002  0.709662  1
  O  O16  1  0.709685  0.288189  0.288189  1
  O  O17  1  0.293064  0.706586  0.706586  1
  O  O18  1  0.957353  0.540338  0.959998  1
  O  O19  1  0.546739  0.539003  0.958708  1
  O  O20  1  0.993544  0.004155  0.004155  1
  O  O21  1  0.540315  0.961811  0.961811  1
