# generated using pymatgen
data_Er12InNi4Os
_symmetry_space_group_name_H-M   'P 1'
_cell_length_a   8.23507727
_cell_length_b   8.23507828
_cell_length_c   8.23507864
_cell_angle_alpha   111.32312033
_cell_angle_beta   109.92457640
_cell_angle_gamma   107.19291818
_symmetry_Int_Tables_number   1
_chemical_formula_structural   Er12InNi4Os
_chemical_formula_sum   'Er12 In1 Ni4 Os1'
_cell_volume   429.33964288
_cell_formula_units_Z   1
loop_
 _symmetry_equiv_pos_site_id
 _symmetry_equiv_pos_as_xyz
  1  'x, y, z'
loop_
 _atom_site_type_symbol
 _atom_site_label
 _atom_site_symmetry_multiplicity
 _atom_site_fract_x
 _atom_site_fract_y
 _atom_site_fract_z
 _atom_site_occupancy
  Er  Er0  1  0.413194  0.222175  0.191019  1
  Er  Er1  1  0.586806  0.777825  0.808981  1
  Er  Er2  1  0.031155  0.222175  0.808981  1
  Er  Er3  1  0.968845  0.777825  0.191019  1
  Er  Er4  1  0.179737  0.279839  0.459576  1
  Er  Er5  1  0.820263  0.720161  0.540424  1
  Er  Er6  1  0.179737  0.720161  0.899900  1
  Er  Er7  1  0.820263  0.279839  0.100100  1
  Er  Er8  1  0.320815  0.624965  0.304150  1
  Er  Er9  1  0.679185  0.375035  0.695850  1
  Er  Er10  1  0.320815  0.016664  0.695850  1
  Er  Er11  1  0.679185  0.983336  0.304150  1
  In  In12  1  0.500000  0.500000  0.000000  1
  Ni  Ni13  1  0.362503  0.000000  0.362503  1
  Ni  Ni14  1  0.637497  0.000000  0.637497  1
  Ni  Ni15  1  0.120238  0.620238  0.500000  1
  Ni  Ni16  1  0.879762  0.379762  0.500000  1
  Os  Os17  1  0.000000  0.000000  0.000000  1
