# generated using pymatgen
data_Ce(CrRe2)4
_symmetry_space_group_name_H-M   'P 1'
_cell_length_a   4.80531578
_cell_length_b   6.84153778
_cell_length_c   6.84153877
_cell_angle_alpha   82.91554877
_cell_angle_beta   69.44007777
_cell_angle_gamma   69.44008072
_symmetry_Int_Tables_number   1
_chemical_formula_structural   Ce(CrRe2)4
_chemical_formula_sum   'Ce1 Cr4 Re8'
_cell_volume   197.18075877
_cell_formula_units_Z   1
loop_
 _symmetry_equiv_pos_site_id
 _symmetry_equiv_pos_as_xyz
  1  'x, y, z'
loop_
 _atom_site_type_symbol
 _atom_site_label
 _atom_site_symmetry_multiplicity
 _atom_site_fract_x
 _atom_site_fract_y
 _atom_site_fract_z
 _atom_site_occupancy
  Ce  Ce0  1  0.000000  0.000000  0.000000  1
  Cr  Cr1  1  0.000000  0.000000  0.500000  1
  Cr  Cr2  1  0.500000  0.000000  0.500000  1
  Cr  Cr3  1  0.500000  0.500000  0.000000  1
  Cr  Cr4  1  0.000000  0.500000  0.000000  1
  Re  Re5  1  0.000000  0.356144  0.643856  1
  Re  Re6  1  0.000000  0.643856  0.356144  1
  Re  Re7  1  0.643856  0.356144  0.356144  1
  Re  Re8  1  0.356144  0.643856  0.643856  1
  Re  Re9  1  0.500000  0.779756  0.220244  1
  Re  Re10  1  0.500000  0.220244  0.779756  1
  Re  Re11  1  0.720244  0.779756  0.779756  1
  Re  Re12  1  0.279756  0.220244  0.220244  1
