# generated using pymatgen
data_ZrSc3(BiRh5)2
_symmetry_space_group_name_H-M   'P 1'
_cell_length_a   5.68743319
_cell_length_b   5.68743377
_cell_length_c   8.27442900
_cell_angle_alpha   89.99752773
_cell_angle_beta   89.99752939
_cell_angle_gamma   96.46144045
_symmetry_Int_Tables_number   1
_chemical_formula_structural   ZrSc3(BiRh5)2
_chemical_formula_sum   'Zr1 Sc3 Bi2 Rh10'
_cell_volume   265.95194764
_cell_formula_units_Z   1
loop_
 _symmetry_equiv_pos_site_id
 _symmetry_equiv_pos_as_xyz
  1  'x, y, z'
loop_
 _atom_site_type_symbol
 _atom_site_label
 _atom_site_symmetry_multiplicity
 _atom_site_fract_x
 _atom_site_fract_y
 _atom_site_fract_z
 _atom_site_occupancy
  Zr  Zr0  1  0.785492  0.214508  0.000000  1
  Sc  Sc1  1  0.784546  0.215454  0.500000  1
  Sc  Sc2  1  0.215448  0.784552  0.000000  1
  Sc  Sc3  1  0.215301  0.784699  0.500000  1
  Bi  Bi4  1  0.498627  0.502696  0.747352  1
  Bi  Bi5  1  0.497304  0.501373  0.252648  1
  Rh  Rh6  1  0.736095  0.733768  0.000351  1
  Rh  Rh7  1  0.740694  0.739111  0.499664  1
  Rh  Rh8  1  0.266232  0.263905  0.999649  1
  Rh  Rh9  1  0.260889  0.259306  0.500336  1
  Rh  Rh10  1  0.500189  0.000498  0.750529  1
  Rh  Rh11  1  0.500312  0.999832  0.249492  1
  Rh  Rh12  1  0.999760  0.000560  0.248830  1
  Rh  Rh13  1  0.999440  0.000240  0.751170  1
  Rh  Rh14  1  0.000168  0.499688  0.750508  1
  Rh  Rh15  1  0.999502  0.499811  0.249471  1
