# generated using pymatgen
data_Rb6ReP4
_symmetry_space_group_name_H-M   'P 1'
_cell_length_a   10.65365100
_cell_length_b   10.65365126
_cell_length_c   8.22493000
_cell_angle_alpha   90.00000000
_cell_angle_beta   90.00000000
_cell_angle_gamma   119.99999608
_symmetry_Int_Tables_number   1
_chemical_formula_structural   Rb6ReP4
_chemical_formula_sum   'Rb12 Re2 P8'
_cell_volume   808.46235340
_cell_formula_units_Z   2
loop_
 _symmetry_equiv_pos_site_id
 _symmetry_equiv_pos_as_xyz
  1  'x, y, z'
loop_
 _atom_site_type_symbol
 _atom_site_label
 _atom_site_symmetry_multiplicity
 _atom_site_fract_x
 _atom_site_fract_y
 _atom_site_fract_z
 _atom_site_occupancy
  Rb  Rb0  1  0.140535  0.281073  0.283931  1
  Rb  Rb1  1  0.859465  0.140535  0.783931  1
  Rb  Rb2  1  0.531923  0.468077  0.106746  1
  Rb  Rb3  1  0.063846  0.531923  0.606746  1
  Rb  Rb4  1  0.468077  0.936154  0.606746  1
  Rb  Rb5  1  0.531923  0.063846  0.106746  1
  Rb  Rb6  1  0.936154  0.468077  0.106746  1
  Rb  Rb7  1  0.468077  0.531923  0.606746  1
  Rb  Rb8  1  0.140535  0.859465  0.283931  1
  Rb  Rb9  1  0.718927  0.859465  0.283931  1
  Rb  Rb10  1  0.859465  0.718927  0.783931  1
  Rb  Rb11  1  0.281073  0.140535  0.783931  1
  Re  Re12  1  0.666667  0.333333  0.499752  1
  Re  Re13  1  0.333333  0.666667  0.999752  1
  P  P14  1  0.783269  0.566538  0.408252  1
  P  P15  1  0.433462  0.216731  0.408252  1
  P  P16  1  0.333333  0.666667  0.278358  1
  P  P17  1  0.666667  0.333333  0.778358  1
  P  P18  1  0.783269  0.216731  0.408252  1
  P  P19  1  0.216731  0.783269  0.908252  1
  P  P20  1  0.216731  0.433462  0.908252  1
  P  P21  1  0.566538  0.783269  0.908252  1
