# generated using pymatgen
data_Tb15DyMgNi4Hg3
_symmetry_space_group_name_H-M   'P 1'
_cell_length_a   9.57762882
_cell_length_b   9.55660436
_cell_length_c   9.55660410
_cell_angle_alpha   60.10421643
_cell_angle_beta   60.16000804
_cell_angle_gamma   60.16000216
_symmetry_Int_Tables_number   1
_chemical_formula_structural   Tb15DyMgNi4Hg3
_chemical_formula_sum   'Tb15 Dy1 Mg1 Ni4 Hg3'
_cell_volume   620.49580683
_cell_formula_units_Z   1
loop_
 _symmetry_equiv_pos_site_id
 _symmetry_equiv_pos_as_xyz
  1  'x, y, z'
loop_
 _atom_site_type_symbol
 _atom_site_label
 _atom_site_symmetry_multiplicity
 _atom_site_fract_x
 _atom_site_fract_y
 _atom_site_fract_z
 _atom_site_occupancy
  Tb  Tb0  1  0.810328  0.187435  0.187435  1
  Tb  Tb1  1  0.812560  0.188210  0.813941  1
  Tb  Tb2  1  0.186694  0.812516  0.186276  1
  Tb  Tb3  1  0.812560  0.813941  0.188210  1
  Tb  Tb4  1  0.186694  0.186276  0.812516  1
  Tb  Tb5  1  0.059567  0.442059  0.442059  1
  Tb  Tb6  1  0.435864  0.062919  0.062919  1
  Tb  Tb7  1  0.436303  0.063609  0.440346  1
  Tb  Tb8  1  0.058465  0.441160  0.060021  1
  Tb  Tb9  1  0.436303  0.440346  0.063609  1
  Tb  Tb10  1  0.058465  0.060021  0.441160  1
  Tb  Tb11  1  0.594950  0.595748  0.595748  1
  Tb  Tb12  1  0.600383  0.599237  0.202669  1
  Tb  Tb13  1  0.600383  0.202669  0.599237  1
  Tb  Tb14  1  0.195739  0.602045  0.602045  1
  Dy  Dy15  1  0.187060  0.814103  0.814103  1
  Mg  Mg16  1  0.535242  0.820015  0.820015  1
  Ni  Ni17  1  0.391815  0.394976  0.394976  1
  Ni  Ni18  1  0.388178  0.392537  0.823383  1
  Ni  Ni19  1  0.388178  0.823383  0.392537  1
  Ni  Ni20  1  0.822519  0.392117  0.392117  1
  Hg  Hg21  1  0.833992  0.835468  0.835468  1
  Hg  Hg22  1  0.833880  0.836062  0.493149  1
  Hg  Hg23  1  0.833880  0.493149  0.836062  1
