# generated using pymatgen
data_ErTm3CoCu3
_symmetry_space_group_name_H-M   'P 1'
_cell_length_a   4.32187500
_cell_length_b   5.36400858
_cell_length_c   6.97878193
_cell_angle_alpha   90.24405789
_cell_angle_beta   90.00000000
_cell_angle_gamma   90.00000000
_symmetry_Int_Tables_number   1
_chemical_formula_structural   ErTm3CoCu3
_chemical_formula_sum   'Er1 Tm3 Co1 Cu3'
_cell_volume   161.78466496
_cell_formula_units_Z   1
loop_
 _symmetry_equiv_pos_site_id
 _symmetry_equiv_pos_as_xyz
  1  'x, y, z'
loop_
 _atom_site_type_symbol
 _atom_site_label
 _atom_site_symmetry_multiplicity
 _atom_site_fract_x
 _atom_site_fract_y
 _atom_site_fract_z
 _atom_site_occupancy
  Er  Er0  1  0.500000  0.136500  0.193948  1
  Tm  Tm1  1  0.000000  0.630894  0.325123  1
  Tm  Tm2  1  0.000000  0.872576  0.812305  1
  Tm  Tm3  1  0.500000  0.357787  0.669735  1
  Co  Co4  1  0.000000  0.132718  0.468399  1
  Cu  Cu5  1  0.000000  0.376497  0.964052  1
  Cu  Cu6  1  0.500000  0.867297  0.537051  1
  Cu  Cu7  1  0.500000  0.625731  0.029388  1
