# generated using pymatgen
data_Zr4Cu3Si3PPd
_symmetry_space_group_name_H-M   'P 1'
_cell_length_a   3.89037000
_cell_length_b   6.55059387
_cell_length_c   7.48109968
_cell_angle_alpha   91.49228423
_cell_angle_beta   90.00000000
_cell_angle_gamma   90.00000000
_symmetry_Int_Tables_number   1
_chemical_formula_structural   Zr4Cu3Si3PPd
_chemical_formula_sum   'Zr4 Cu3 Si3 P1 Pd1'
_cell_volume   190.58543324
_cell_formula_units_Z   1
loop_
 _symmetry_equiv_pos_site_id
 _symmetry_equiv_pos_as_xyz
  1  'x, y, z'
loop_
 _atom_site_type_symbol
 _atom_site_label
 _atom_site_symmetry_multiplicity
 _atom_site_fract_x
 _atom_site_fract_y
 _atom_site_fract_z
 _atom_site_occupancy
  Zr  Zr0  1  0.250000  0.025292  0.317213  1
  Zr  Zr1  1  0.250000  0.517479  0.181150  1
  Zr  Zr2  1  0.750000  0.983913  0.686314  1
  Zr  Zr3  1  0.750000  0.476979  0.816956  1
  Cu  Cu4  1  0.250000  0.153356  0.932816  1
  Cu  Cu5  1  0.750000  0.840221  0.070311  1
  Cu  Cu6  1  0.750000  0.350777  0.432251  1
  Si  Si7  1  0.250000  0.775575  0.892316  1
  Si  Si8  1  0.750000  0.735164  0.378140  1
  Si  Si9  1  0.750000  0.221432  0.109261  1
  P  P10  1  0.250000  0.268900  0.619352  1
  Pd  Pd11  1  0.250000  0.650913  0.563918  1
