# generated using pymatgen
data_Tb5Dy5Si5Bi
_symmetry_space_group_name_H-M   'P 1'
_cell_length_a   8.56424611
_cell_length_b   8.60808023
_cell_length_c   6.39170900
_cell_angle_alpha   90.00000000
_cell_angle_beta   90.00000000
_cell_angle_gamma   119.81309503
_symmetry_Int_Tables_number   1
_chemical_formula_structural   Tb5Dy5Si5Bi
_chemical_formula_sum   'Tb5 Dy5 Si5 Bi1'
_cell_volume   408.84428834
_cell_formula_units_Z   1
loop_
 _symmetry_equiv_pos_site_id
 _symmetry_equiv_pos_as_xyz
  1  'x, y, z'
loop_
 _atom_site_type_symbol
 _atom_site_label
 _atom_site_symmetry_multiplicity
 _atom_site_fract_x
 _atom_site_fract_y
 _atom_site_fract_z
 _atom_site_occupancy
  Tb  Tb0  1  0.984718  0.744639  0.750000  1
  Tb  Tb1  1  0.998407  0.243556  0.250000  1
  Tb  Tb2  1  0.754796  0.756407  0.250000  1
  Tb  Tb3  1  0.767614  0.000022  0.750000  1
  Tb  Tb4  1  0.240470  0.000029  0.250000  1
  Dy  Dy5  1  0.240085  0.255441  0.750000  1
  Dy  Dy6  1  0.676760  0.345977  0.005105  1
  Dy  Dy7  1  0.330787  0.653986  0.494904  1
  Dy  Dy8  1  0.330787  0.653986  0.005096  1
  Dy  Dy9  1  0.676760  0.345977  0.494895  1
  Si  Si10  1  0.393140  0.390722  0.250000  1
  Si  Si11  1  0.002427  0.609297  0.250000  1
  Si  Si12  1  0.998788  0.394271  0.750000  1
  Si  Si13  1  0.604278  0.605591  0.750000  1
  Si  Si14  1  0.607117  0.000005  0.250000  1
  Bi  Bi15  1  0.393062  0.000092  0.750000  1
