# generated using pymatgen
data_LuHf3(Al3Rh)6
_symmetry_space_group_name_H-M   'P 1'
_cell_length_a   7.48085017
_cell_length_b   7.47253345
_cell_length_c   9.27901100
_cell_angle_alpha   90.00000000
_cell_angle_beta   90.00000000
_cell_angle_gamma   119.72203531
_symmetry_Int_Tables_number   1
_chemical_formula_structural   LuHf3(Al3Rh)6
_chemical_formula_sum   'Lu1 Hf3 Al18 Rh6'
_cell_volume   450.46472079
_cell_formula_units_Z   1
loop_
 _symmetry_equiv_pos_site_id
 _symmetry_equiv_pos_as_xyz
  1  'x, y, z'
loop_
 _atom_site_type_symbol
 _atom_site_label
 _atom_site_symmetry_multiplicity
 _atom_site_fract_x
 _atom_site_fract_y
 _atom_site_fract_z
 _atom_site_occupancy
  Lu  Lu0  1  0.328589  0.006061  0.750000  1
  Hf  Hf1  1  0.994264  0.671896  0.250000  1
  Hf  Hf2  1  0.005779  0.328846  0.750000  1
  Hf  Hf3  1  0.671257  0.993878  0.250000  1
  Al  Al4  1  0.121600  0.122541  0.250000  1
  Al  Al5  1  0.872906  0.875868  0.750000  1
  Al  Al6  1  0.996683  0.334674  0.078121  1
  Al  Al7  1  0.000878  0.663105  0.925203  1
  Al  Al8  1  0.000878  0.663105  0.574797  1
  Al  Al9  1  0.335031  0.997355  0.419362  1
  Al  Al10  1  0.996683  0.334674  0.421879  1
  Al  Al11  1  0.667396  0.002608  0.574979  1
  Al  Al12  1  0.667396  0.002608  0.925021  1
  Al  Al13  1  0.335031  0.997355  0.080638  1
  Al  Al14  1  0.331105  0.333173  0.555896  1
  Al  Al15  1  0.669190  0.669058  0.439703  1
  Al  Al16  1  0.669190  0.669058  0.060297  1
  Al  Al17  1  0.331105  0.333173  0.944104  1
  Al  Al18  1  0.338222  0.553784  0.250000  1
  Al  Al19  1  0.665327  0.450473  0.750000  1
  Al  Al20  1  0.555701  0.339160  0.250000  1
  Al  Al21  1  0.445536  0.657522  0.750000  1
  Rh  Rh22  1  0.672937  0.327388  0.000844  1
  Rh  Rh23  1  0.327710  0.673307  0.001506  1
  Rh  Rh24  1  0.327710  0.673307  0.498494  1
  Rh  Rh25  1  0.672937  0.327388  0.499156  1
  Rh  Rh26  1  0.999479  0.999319  0.000987  1
  Rh  Rh27  1  0.999479  0.999319  0.499013  1
