# generated using pymatgen
data_Dy4Sc4B24Ir3Rh
_symmetry_space_group_name_H-M   'P 1'
_cell_length_a   3.55098200
_cell_length_b   9.01000217
_cell_length_c   11.37793121
_cell_angle_alpha   89.97780968
_cell_angle_beta   90.00000000
_cell_angle_gamma   90.00000000
_symmetry_Int_Tables_number   1
_chemical_formula_structural   Dy4Sc4B24Ir3Rh
_chemical_formula_sum   'Dy4 Sc4 B24 Ir3 Rh1'
_cell_volume   364.02954904
_cell_formula_units_Z   1
loop_
 _symmetry_equiv_pos_site_id
 _symmetry_equiv_pos_as_xyz
  1  'x, y, z'
loop_
 _atom_site_type_symbol
 _atom_site_label
 _atom_site_symmetry_multiplicity
 _atom_site_fract_x
 _atom_site_fract_y
 _atom_site_fract_z
 _atom_site_occupancy
  Dy  Dy0  1  0.500000  0.319629  0.413614  1
  Dy  Dy1  1  0.500000  0.680175  0.585489  1
  Dy  Dy2  1  0.500000  0.179521  0.915070  1
  Dy  Dy3  1  0.500000  0.820838  0.085900  1
  Sc  Sc4  1  0.500000  0.444480  0.124598  1
  Sc  Sc5  1  0.500000  0.554932  0.876106  1
  Sc  Sc6  1  0.500000  0.055020  0.624143  1
  Sc  Sc7  1  0.500000  0.945393  0.375188  1
  B  B8  1  0.000000  0.100147  0.472990  1
  B  B9  1  0.000000  0.900139  0.526678  1
  B  B10  1  0.000000  0.399670  0.973320  1
  B  B11  1  0.000000  0.600106  0.027042  1
  B  B12  1  0.000000  0.130228  0.318635  1
  B  B13  1  0.000000  0.869904  0.681014  1
  B  B14  1  0.000000  0.369922  0.818994  1
  B  B15  1  0.000000  0.630109  0.181496  1
  B  B16  1  0.000000  0.054648  0.065738  1
  B  B17  1  0.000000  0.945119  0.934094  1
  B  B18  1  0.000000  0.444892  0.565781  1
  B  B19  1  0.000000  0.555042  0.434061  1
  B  B20  1  0.000000  0.481890  0.284963  1
  B  B21  1  0.000000  0.517985  0.715126  1
  B  B22  1  0.000000  0.017853  0.784954  1
  B  B23  1  0.000000  0.982140  0.214784  1
  B  B24  1  0.000000  0.253696  0.080844  1
  B  B25  1  0.000000  0.746100  0.919482  1
  B  B26  1  0.000000  0.245918  0.580495  1
  B  B27  1  0.000000  0.754372  0.419412  1
  B  B28  1  0.000000  0.295872  0.235851  1
  B  B29  1  0.000000  0.704041  0.764180  1
  B  B30  1  0.000000  0.204247  0.735625  1
  B  B31  1  0.000000  0.796155  0.264340  1
  Ir  Ir32  1  0.500000  0.857771  0.817541  1
  Ir  Ir33  1  0.500000  0.358800  0.681790  1
  Ir  Ir34  1  0.500000  0.641652  0.318559  1
  Rh  Rh35  1  0.500000  0.141593  0.182102  1
