# generated using pymatgen
data_Dy3Tm2Co16(MoP4)3
_symmetry_space_group_name_H-M   'P 1'
_cell_length_a   12.03715782
_cell_length_b   12.04486505
_cell_length_c   3.69550300
_cell_angle_alpha   90.00000000
_cell_angle_beta   90.00000000
_cell_angle_gamma   120.02117322
_symmetry_Int_Tables_number   1
_chemical_formula_structural   Dy3Tm2Co16(MoP4)3
_chemical_formula_sum   'Dy3 Tm2 Co16 Mo3 P12'
_cell_volume   463.91390034
_cell_formula_units_Z   1
loop_
 _symmetry_equiv_pos_site_id
 _symmetry_equiv_pos_as_xyz
  1  'x, y, z'
loop_
 _atom_site_type_symbol
 _atom_site_label
 _atom_site_symmetry_multiplicity
 _atom_site_fract_x
 _atom_site_fract_y
 _atom_site_fract_z
 _atom_site_occupancy
  Dy  Dy0  1  0.666940  0.333476  0.000000  1
  Dy  Dy1  1  0.333060  0.666537  0.000000  1
  Dy  Dy2  1  0.000000  0.815084  0.500000  1
  Tm  Tm3  1  0.184930  0.185161  0.500000  1
  Tm  Tm4  1  0.815070  0.000231  0.500000  1
  Co  Co5  1  0.822931  0.196964  0.000000  1
  Co  Co6  1  0.802073  0.625115  0.000000  1
  Co  Co7  1  0.374323  0.177275  0.000000  1
  Co  Co8  1  0.197927  0.823041  0.000000  1
  Co  Co9  1  0.625677  0.802952  0.000000  1
  Co  Co10  1  0.177069  0.374033  0.000000  1
  Co  Co11  1  0.645430  0.126909  0.500000  1
  Co  Co12  1  0.873075  0.518051  0.500000  1
  Co  Co13  1  0.481709  0.354781  0.500000  1
  Co  Co14  1  0.126925  0.644975  0.500000  1
  Co  Co15  1  0.518291  0.873071  0.500000  1
  Co  Co16  1  0.354570  0.481478  0.500000  1
  Co  Co17  1  0.719708  0.720272  0.500000  1
  Co  Co18  1  0.280292  0.000565  0.500000  1
  Co  Co19  1  0.000000  0.279514  0.500000  1
  Co  Co20  1  0.000000  0.000657  0.000000  1
  Mo  Mo21  1  0.553081  0.553305  0.000000  1
  Mo  Mo22  1  0.446919  0.000223  0.000000  1
  Mo  Mo23  1  0.000000  0.446055  0.000000  1
  P  P24  1  0.359756  0.359737  0.000000  1
  P  P25  1  0.640244  0.999982  0.000000  1
  P  P26  1  0.000000  0.639279  0.000000  1
  P  P27  1  0.834633  0.313829  0.500000  1
  P  P28  1  0.686089  0.520732  0.500000  1
  P  P29  1  0.479670  0.165564  0.500000  1
  P  P30  1  0.313911  0.834643  0.500000  1
  P  P31  1  0.520330  0.685894  0.500000  1
  P  P32  1  0.165367  0.479195  0.500000  1
  P  P33  1  0.821706  0.822736  0.000000  1
  P  P34  1  0.178294  0.001030  0.000000  1
  P  P35  1  0.000000  0.177656  0.000000  1
