# generated using pymatgen
data_BaSn(RhO3)2
_symmetry_space_group_name_H-M   'P 1'
_cell_length_a   7.08962264
_cell_length_b   7.08961700
_cell_length_c   7.08960454
_cell_angle_alpha   44.16792582
_cell_angle_beta   44.16803204
_cell_angle_gamma   44.16757424
_symmetry_Int_Tables_number   1
_chemical_formula_structural   BaSn(RhO3)2
_chemical_formula_sum   'Ba1 Sn1 Rh2 O6'
_cell_volume   157.18283869
_cell_formula_units_Z   1
loop_
 _symmetry_equiv_pos_site_id
 _symmetry_equiv_pos_as_xyz
  1  'x, y, z'
loop_
 _atom_site_type_symbol
 _atom_site_label
 _atom_site_symmetry_multiplicity
 _atom_site_fract_x
 _atom_site_fract_y
 _atom_site_fract_z
 _atom_site_occupancy
  Ba  Ba0  1  0.000000  0.000000  0.000000  1
  Sn  Sn1  1  0.500000  0.500000  0.500000  1
  Rh  Rh2  1  0.168827  0.168791  0.168752  1
  Rh  Rh3  1  0.831173  0.831209  0.831248  1
  O  O4  1  0.784016  0.438084  0.107248  1
  O  O5  1  0.561915  0.892757  0.215968  1
  O  O6  1  0.107237  0.784028  0.438072  1
  O  O7  1  0.892763  0.215972  0.561928  1
  O  O8  1  0.438085  0.107243  0.784032  1
  O  O9  1  0.215984  0.561916  0.892751  1
