# generated using pymatgen
data_Nd5CdGaRu3
_symmetry_space_group_name_H-M   'P 1'
_cell_length_a   8.65730463
_cell_length_b   8.65730435
_cell_length_c   8.58389513
_cell_angle_alpha   109.62869424
_cell_angle_beta   109.47231266
_cell_angle_gamma   109.65771971
_symmetry_Int_Tables_number   1
_chemical_formula_structural   Nd5CdGaRu3
_chemical_formula_sum   'Nd10 Cd2 Ga2 Ru6'
_cell_volume   493.13243097
_cell_formula_units_Z   2
loop_
 _symmetry_equiv_pos_site_id
 _symmetry_equiv_pos_as_xyz
  1  'x, y, z'
loop_
 _atom_site_type_symbol
 _atom_site_label
 _atom_site_symmetry_multiplicity
 _atom_site_fract_x
 _atom_site_fract_y
 _atom_site_fract_z
 _atom_site_occupancy
  Nd  Nd0  1  0.243522  0.680385  0.433436  1
  Nd  Nd1  1  0.746949  0.810086  0.066565  1
  Nd  Nd2  1  0.431683  0.248955  0.685759  1
  Nd  Nd3  1  0.692150  0.442151  0.250000  1
  Nd  Nd4  1  0.063196  0.745923  0.814241  1
  Nd  Nd5  1  0.820838  0.070838  0.750000  1
  Nd  Nd6  1  0.212984  0.211141  0.210611  1
  Nd  Nd7  1  0.500530  0.002373  0.289389  1
  Nd  Nd8  1  0.280744  0.501343  0.002390  1
  Nd  Nd9  1  0.998953  0.278355  0.497611  1
  Cd  Cd10  1  0.502430  0.002024  0.912292  1
  Cd  Cd11  1  0.589732  0.590137  0.587708  1
  Ga  Ga12  1  0.913414  0.502440  0.001727  1
  Ga  Ga13  1  0.000711  0.911687  0.498274  1
  Ru  Ru14  1  0.233753  0.123414  0.865601  1
  Ru  Ru15  1  0.757814  0.368150  0.634398  1
  Ru  Ru16  1  0.895354  0.269160  0.131908  1
  Ru  Ru17  1  0.119339  0.869339  0.250001  1
  Ru  Ru18  1  0.637249  0.763445  0.368091  1
  Ru  Ru19  1  0.358658  0.608658  0.750000  1
