# generated using pymatgen
data_Ba3TmRhO6
_symmetry_space_group_name_H-M   'P 1'
_cell_length_a   7.15316630
_cell_length_b   7.15316572
_cell_length_c   7.15316738
_cell_angle_alpha   93.43565356
_cell_angle_beta   93.43566486
_cell_angle_gamma   93.43566290
_symmetry_Int_Tables_number   1
_chemical_formula_structural   Ba3TmRhO6
_chemical_formula_sum   'Ba6 Tm2 Rh2 O12'
_cell_volume   363.95547381
_cell_formula_units_Z   2
loop_
 _symmetry_equiv_pos_site_id
 _symmetry_equiv_pos_as_xyz
  1  'x, y, z'
loop_
 _atom_site_type_symbol
 _atom_site_label
 _atom_site_symmetry_multiplicity
 _atom_site_fract_x
 _atom_site_fract_y
 _atom_site_fract_z
 _atom_site_occupancy
  Ba  Ba0  1  0.250000  0.881354  0.618646  1
  Ba  Ba1  1  0.881354  0.618646  0.250000  1
  Ba  Ba2  1  0.750000  0.118646  0.381354  1
  Ba  Ba3  1  0.381354  0.750000  0.118646  1
  Ba  Ba4  1  0.118646  0.381354  0.750000  1
  Ba  Ba5  1  0.618646  0.250000  0.881354  1
  Tm  Tm6  1  0.750000  0.750000  0.750000  1
  Tm  Tm7  1  0.250000  0.250000  0.250000  1
  Rh  Rh8  1  0.500000  0.500000  0.500000  1
  Rh  Rh9  1  0.000000  0.000000  0.000000  1
  O  O10  1  0.596269  0.784157  0.468988  1
  O  O11  1  0.468988  0.596269  0.784157  1
  O  O12  1  0.784157  0.468988  0.596269  1
  O  O13  1  0.903731  0.031012  0.715843  1
  O  O14  1  0.715843  0.903731  0.031012  1
  O  O15  1  0.031012  0.715843  0.903731  1
  O  O16  1  0.403731  0.215843  0.531012  1
  O  O17  1  0.531012  0.403731  0.215843  1
  O  O18  1  0.215843  0.531012  0.403731  1
  O  O19  1  0.096269  0.968988  0.284157  1
  O  O20  1  0.968988  0.284157  0.096269  1
  O  O21  1  0.284157  0.096269  0.968988  1
