# generated using pymatgen
data_La10Pr6Cd4Ir3Pt
_symmetry_space_group_name_H-M   'P 1'
_cell_length_a   10.10846107
_cell_length_b   10.10850802
_cell_length_c   10.10873401
_cell_angle_alpha   60.18719792
_cell_angle_beta   60.18656213
_cell_angle_gamma   60.18613632
_symmetry_Int_Tables_number   1
_chemical_formula_structural   La10Pr6Cd4Ir3Pt
_chemical_formula_sum   'La10 Pr6 Cd4 Ir3 Pt1'
_cell_volume   733.47533257
_cell_formula_units_Z   1
loop_
 _symmetry_equiv_pos_site_id
 _symmetry_equiv_pos_as_xyz
  1  'x, y, z'
loop_
 _atom_site_type_symbol
 _atom_site_label
 _atom_site_symmetry_multiplicity
 _atom_site_fract_x
 _atom_site_fract_y
 _atom_site_fract_z
 _atom_site_occupancy
  La  La0  1  0.346209  0.346246  0.346276  1
  La  La1  1  0.350911  0.350905  0.953789  1
  La  La2  1  0.350915  0.953790  0.350912  1
  La  La3  1  0.953782  0.350903  0.350930  1
  La  La4  1  0.804862  0.191023  0.191039  1
  La  La5  1  0.190142  0.808585  0.808565  1
  La  La6  1  0.191047  0.804854  0.191012  1
  La  La7  1  0.808592  0.190138  0.808558  1
  La  La8  1  0.191042  0.191047  0.804818  1
  La  La9  1  0.808584  0.808564  0.190126  1
  Pr  Pr10  1  0.938996  0.563387  0.563398  1
  Pr  Pr11  1  0.562851  0.937267  0.937262  1
  Pr  Pr12  1  0.563388  0.938997  0.563400  1
  Pr  Pr13  1  0.937259  0.562851  0.937265  1
  Pr  Pr14  1  0.563396  0.563394  0.938999  1
  Pr  Pr15  1  0.937262  0.937265  0.562849  1
  Cd  Cd16  1  0.580286  0.580299  0.580284  1
  Cd  Cd17  1  0.580311  0.580303  0.259190  1
  Cd  Cd18  1  0.580316  0.259168  0.580306  1
  Cd  Cd19  1  0.259153  0.580311  0.580317  1
  Ir  Ir20  1  0.141266  0.141268  0.576089  1
  Ir  Ir21  1  0.141241  0.576091  0.141261  1
  Ir  Ir22  1  0.576106  0.141246  0.141245  1
  Pt  Pt23  1  0.142082  0.142097  0.142109  1
