# generated using pymatgen
data_Dy3Tm(Lu2Os)4
_symmetry_space_group_name_H-M   'P 1'
_cell_length_a   7.36594143
_cell_length_b   8.84013800
_cell_length_c   6.21598300
_cell_angle_alpha   90.00000000
_cell_angle_beta   89.91900238
_cell_angle_gamma   90.00000000
_symmetry_Int_Tables_number   1
_chemical_formula_structural   Dy3Tm(Lu2Os)4
_chemical_formula_sum   'Dy3 Tm1 Lu8 Os4'
_cell_volume   404.75916394
_cell_formula_units_Z   1
loop_
 _symmetry_equiv_pos_site_id
 _symmetry_equiv_pos_as_xyz
  1  'x, y, z'
loop_
 _atom_site_type_symbol
 _atom_site_label
 _atom_site_symmetry_multiplicity
 _atom_site_fract_x
 _atom_site_fract_y
 _atom_site_fract_z
 _atom_site_occupancy
  Dy  Dy0  1  0.539222  0.250000  0.872603  1
  Dy  Dy1  1  0.039676  0.250000  0.627708  1
  Dy  Dy2  1  0.460583  0.750000  0.127832  1
  Tm  Tm3  1  0.960404  0.750000  0.372252  1
  Lu  Lu4  1  0.675042  0.062290  0.335920  1
  Lu  Lu5  1  0.173155  0.437952  0.164928  1
  Lu  Lu6  1  0.325198  0.563032  0.663671  1
  Lu  Lu7  1  0.826092  0.936836  0.834551  1
  Lu  Lu8  1  0.325198  0.936968  0.663671  1
  Lu  Lu9  1  0.826092  0.563164  0.834551  1
  Lu  Lu10  1  0.675042  0.437710  0.335920  1
  Lu  Lu11  1  0.173155  0.062048  0.164928  1
  Os  Os12  1  0.882941  0.250000  0.043324  1
  Os  Os13  1  0.382877  0.250000  0.456375  1
  Os  Os14  1  0.116475  0.750000  0.959862  1
  Os  Os15  1  0.618849  0.750000  0.541908  1
