# generated using pymatgen
data_Ca4LuSn3
_symmetry_space_group_name_H-M   'P 1'
_cell_length_a   9.27669557
_cell_length_b   9.27667456
_cell_length_c   9.27669566
_cell_angle_alpha   96.92313523
_cell_angle_beta   96.92388076
_cell_angle_gamma   139.36852322
_symmetry_Int_Tables_number   1
_chemical_formula_structural   Ca4LuSn3
_chemical_formula_sum   'Ca8 Lu2 Sn6'
_cell_volume   487.52205090
_cell_formula_units_Z   2
loop_
 _symmetry_equiv_pos_site_id
 _symmetry_equiv_pos_as_xyz
  1  'x, y, z'
loop_
 _atom_site_type_symbol
 _atom_site_label
 _atom_site_symmetry_multiplicity
 _atom_site_fract_x
 _atom_site_fract_y
 _atom_site_fract_z
 _atom_site_occupancy
  Ca  Ca0  1  0.083033  0.212678  0.295717  1
  Ca  Ca1  1  0.916967  0.787322  0.704283  1
  Ca  Ca2  1  0.787324  0.083053  0.870345  1
  Ca  Ca3  1  0.416960  0.712678  0.129645  1
  Ca  Ca4  1  0.212676  0.916947  0.129655  1
  Ca  Ca5  1  0.583040  0.287322  0.870355  1
  Ca  Ca6  1  0.712708  0.583053  0.295729  1
  Ca  Ca7  1  0.287292  0.416947  0.704271  1
  Lu  Lu8  1  0.249987  0.750000  0.499987  1
  Lu  Lu9  1  0.750013  0.250000  0.500013  1
  Sn  Sn10  1  0.150480  0.650481  0.800960  1
  Sn  Sn11  1  0.849520  0.349519  0.199040  1
  Sn  Sn12  1  0.349519  0.150481  0.500000  1
  Sn  Sn13  1  0.650481  0.849519  0.500000  1
  Sn  Sn14  1  0.249996  0.250000  0.999996  1
  Sn  Sn15  1  0.750004  0.750000  0.000004  1
