# generated using pymatgen
data_YErCo12AsP6
_symmetry_space_group_name_H-M   'P 1'
_cell_length_a   9.05343200
_cell_length_b   9.05343228
_cell_length_c   3.56326900
_cell_angle_alpha   90.00000000
_cell_angle_beta   90.00000000
_cell_angle_gamma   119.99999168
_symmetry_Int_Tables_number   1
_chemical_formula_structural   YErCo12AsP6
_chemical_formula_sum   'Y1 Er1 Co12 As1 P6'
_cell_volume   252.93316523
_cell_formula_units_Z   1
loop_
 _symmetry_equiv_pos_site_id
 _symmetry_equiv_pos_as_xyz
  1  'x, y, z'
loop_
 _atom_site_type_symbol
 _atom_site_label
 _atom_site_symmetry_multiplicity
 _atom_site_fract_x
 _atom_site_fract_y
 _atom_site_fract_z
 _atom_site_occupancy
  Y  Y0  1  0.666667  0.333333  0.500000  1
  Er  Er1  1  0.333333  0.666667  0.000000  1
  Co  Co2  1  0.124327  0.841320  0.000000  1
  Co  Co3  1  0.384192  0.438662  0.500000  1
  Co  Co4  1  0.716994  0.875673  0.000000  1
  Co  Co5  1  0.561338  0.945530  0.500000  1
  Co  Co6  1  0.250096  0.110370  0.500000  1
  Co  Co7  1  0.860275  0.749904  0.500000  1
  Co  Co8  1  0.889630  0.139725  0.500000  1
  Co  Co9  1  0.940097  0.376213  0.000000  1
  Co  Co10  1  0.623787  0.563884  0.000000  1
  Co  Co11  1  0.436116  0.059903  0.000000  1
  Co  Co12  1  0.054470  0.615808  0.500000  1
  Co  Co13  1  0.158680  0.283006  0.000000  1
  As  As14  1  0.000000  0.000000  0.000000  1
  P  P15  1  0.594873  0.707615  0.500000  1
  P  P16  1  0.706339  0.112743  0.000000  1
  P  P17  1  0.887257  0.593595  0.000000  1
  P  P18  1  0.406405  0.293661  0.000000  1
  P  P19  1  0.292385  0.887258  0.500000  1
  P  P20  1  0.112742  0.405127  0.500000  1
