# generated using pymatgen
data_Sc3H7
_symmetry_space_group_name_H-M   'P 1'
_cell_length_a   4.77384582
_cell_length_b   3.37704982
_cell_length_c   8.93059191
_cell_angle_alpha   78.93731091
_cell_angle_beta   36.70544656
_cell_angle_gamma   89.91854519
_symmetry_Int_Tables_number   1
_chemical_formula_structural   Sc3H7
_chemical_formula_sum   'Sc3 H7'
_cell_volume   81.55415428
_cell_formula_units_Z   1
loop_
 _symmetry_equiv_pos_site_id
 _symmetry_equiv_pos_as_xyz
  1  'x, y, z'
loop_
 _atom_site_type_symbol
 _atom_site_label
 _atom_site_symmetry_multiplicity
 _atom_site_fract_x
 _atom_site_fract_y
 _atom_site_fract_z
 _atom_site_occupancy
  Sc  Sc0  1  0.970176  0.084858  0.263428  1
  Sc  Sc1  1  0.983153  0.425978  0.588833  1
  Sc  Sc2  1  0.960660  0.750758  0.936797  1
  H  H3  1  0.213973  0.914637  0.606995  1
  H  H4  1  0.204809  0.584825  0.262193  1
  H  H5  1  0.469096  0.078006  0.266042  1
  H  H6  1  0.245275  0.259123  0.919098  1
  H  H7  1  0.739941  0.584227  0.263041  1
  H  H8  1  0.728402  0.259226  0.919970  1
  H  H9  1  0.697770  0.917129  0.607231  1
