# generated using pymatgen
data_Tb10In4Hg4PdPt3
_symmetry_space_group_name_H-M   'P 1'
_cell_length_a   8.07855636
_cell_length_b   18.41376180
_cell_length_c   3.64209900
_cell_angle_alpha   90.00000000
_cell_angle_beta   90.00000000
_cell_angle_gamma   90.03392837
_symmetry_Int_Tables_number   1
_chemical_formula_structural   Tb10In4Hg4PdPt3
_chemical_formula_sum   'Tb10 In4 Hg4 Pd1 Pt3'
_cell_volume   541.78621446
_cell_formula_units_Z   1
loop_
 _symmetry_equiv_pos_site_id
 _symmetry_equiv_pos_as_xyz
  1  'x, y, z'
loop_
 _atom_site_type_symbol
 _atom_site_label
 _atom_site_symmetry_multiplicity
 _atom_site_fract_x
 _atom_site_fract_y
 _atom_site_fract_z
 _atom_site_occupancy
  Tb  Tb0  1  0.500893  0.500095  0.000000  1
  Tb  Tb1  1  0.999981  0.999881  0.000000  1
  Tb  Tb2  1  0.741433  0.282450  0.000000  1
  Tb  Tb3  1  0.254223  0.717760  0.000000  1
  Tb  Tb4  1  0.754168  0.782247  0.000000  1
  Tb  Tb5  1  0.248816  0.216751  0.000000  1
  Tb  Tb6  1  0.609292  0.084671  0.000000  1
  Tb  Tb7  1  0.391160  0.914922  0.000000  1
  Tb  Tb8  1  0.890837  0.585184  0.000000  1
  Tb  Tb9  1  0.108954  0.416312  0.000000  1
  In  In10  1  0.576336  0.648352  0.500000  1
  In  In11  1  0.421430  0.351563  0.500000  1
  In  In12  1  0.923956  0.149313  0.500000  1
  In  In13  1  0.076024  0.851741  0.500000  1
  Hg  Hg14  1  0.715441  0.933717  0.500000  1
  Hg  Hg15  1  0.284934  0.066490  0.500000  1
  Hg  Hg16  1  0.786866  0.432328  0.500000  1
  Hg  Hg17  1  0.215138  0.566123  0.500000  1
  Pd  Pd18  1  0.031050  0.302010  0.500000  1
  Pt  Pt19  1  0.531145  0.197965  0.500000  1
  Pt  Pt20  1  0.468831  0.801799  0.500000  1
  Pt  Pt21  1  0.969091  0.698327  0.500000  1
