# generated using pymatgen
data_Pr3Nd5(Ho3Sb4)4
_symmetry_space_group_name_H-M   'P 1'
_cell_length_a   8.06446271
_cell_length_b   8.17882506
_cell_length_c   15.39938300
_cell_angle_alpha   90.00610869
_cell_angle_beta   90.02405660
_cell_angle_gamma   89.97143650
_symmetry_Int_Tables_number   1
_chemical_formula_structural   Pr3Nd5(Ho3Sb4)4
_chemical_formula_sum   'Pr3 Nd5 Ho12 Sb16'
_cell_volume   1015.70966046
_cell_formula_units_Z   1
loop_
 _symmetry_equiv_pos_site_id
 _symmetry_equiv_pos_as_xyz
  1  'x, y, z'
loop_
 _atom_site_type_symbol
 _atom_site_label
 _atom_site_symmetry_multiplicity
 _atom_site_fract_x
 _atom_site_fract_y
 _atom_site_fract_z
 _atom_site_occupancy
  Pr  Pr0  1  0.023767  0.178585  0.095083  1
  Pr  Pr1  1  0.476311  0.678504  0.905250  1
  Pr  Pr2  1  0.975859  0.821667  0.594820  1
  Nd  Nd3  1  0.474991  0.678217  0.595196  1
  Nd  Nd4  1  0.975083  0.821688  0.904836  1
  Nd  Nd5  1  0.524868  0.321700  0.095455  1
  Nd  Nd6  1  0.024994  0.177975  0.404434  1
  Nd  Nd7  1  0.524459  0.321944  0.404611  1
  Ho  Ho8  1  0.645873  0.150163  0.622572  1
  Ho  Ho9  1  0.146144  0.349933  0.877297  1
  Ho  Ho10  1  0.353930  0.850039  0.122806  1
  Ho  Ho11  1  0.854322  0.650406  0.377476  1
  Ho  Ho12  1  0.354900  0.849442  0.377310  1
  Ho  Ho13  1  0.854409  0.650132  0.122854  1
  Ho  Ho14  1  0.645035  0.150202  0.877138  1
  Ho  Ho15  1  0.144989  0.349781  0.622784  1
  Ho  Ho16  1  0.805934  0.501123  0.750091  1
  Ho  Ho17  1  0.305940  0.998823  0.749818  1
  Ho  Ho18  1  0.193852  0.498822  0.250167  1
  Ho  Ho19  1  0.693979  0.001123  0.249813  1
  Sb  Sb20  1  0.705614  0.960431  0.452767  1
  Sb  Sb21  1  0.205916  0.540453  0.047085  1
  Sb  Sb22  1  0.294002  0.040490  0.953079  1
  Sb  Sb23  1  0.793430  0.459268  0.546617  1
  Sb  Sb24  1  0.295360  0.041468  0.546346  1
  Sb  Sb25  1  0.795538  0.458309  0.953589  1
  Sb  Sb26  1  0.704557  0.958618  0.046457  1
  Sb  Sb27  1  0.205712  0.540207  0.453316  1
  Sb  Sb28  1  0.446834  0.364839  0.749723  1
  Sb  Sb29  1  0.946833  0.135220  0.750261  1
  Sb  Sb30  1  0.553090  0.634977  0.249954  1
  Sb  Sb31  1  0.053128  0.864777  0.250278  1
  Sb  Sb32  1  0.660255  0.848254  0.749387  1
  Sb  Sb33  1  0.160260  0.651807  0.750516  1
  Sb  Sb34  1  0.340439  0.152310  0.250112  1
  Sb  Sb35  1  0.839395  0.348308  0.250706  1
