# generated using pymatgen
data_Tb6MgCo15MoP12Rh
_symmetry_space_group_name_H-M   'P 1'
_cell_length_a   3.73770800
_cell_length_b   10.67030500
_cell_length_c   12.37293100
_cell_angle_alpha   90.00000000
_cell_angle_beta   90.00000000
_cell_angle_gamma   90.00000000
_symmetry_Int_Tables_number   1
_chemical_formula_structural   Tb6MgCo15MoP12Rh
_chemical_formula_sum   'Tb6 Mg1 Co15 Mo1 P12 Rh1'
_cell_volume   493.46322711
_cell_formula_units_Z   1
loop_
 _symmetry_equiv_pos_site_id
 _symmetry_equiv_pos_as_xyz
  1  'x, y, z'
loop_
 _atom_site_type_symbol
 _atom_site_label
 _atom_site_symmetry_multiplicity
 _atom_site_fract_x
 _atom_site_fract_y
 _atom_site_fract_z
 _atom_site_occupancy
  Tb  Tb0  1  0.000000  0.500000  0.521156  1
  Tb  Tb1  1  0.500000  0.000000  0.475265  1
  Tb  Tb2  1  0.500000  0.821357  0.206217  1
  Tb  Tb3  1  0.500000  0.178643  0.206217  1
  Tb  Tb4  1  0.000000  0.685809  0.795854  1
  Tb  Tb5  1  0.000000  0.314191  0.795854  1
  Mg  Mg6  1  0.500000  0.500000  0.154064  1
  Co  Co7  1  0.000000  0.000000  0.295988  1
  Co  Co8  1  0.000000  0.500000  0.988277  1
  Co  Co9  1  0.500000  0.000000  0.012645  1
  Co  Co10  1  0.500000  0.328925  0.995540  1
  Co  Co11  1  0.500000  0.671075  0.995540  1
  Co  Co12  1  0.000000  0.164391  0.005902  1
  Co  Co13  1  0.000000  0.835609  0.005902  1
  Co  Co14  1  0.500000  0.294050  0.431021  1
  Co  Co15  1  0.500000  0.705950  0.431021  1
  Co  Co16  1  0.000000  0.199679  0.568133  1
  Co  Co17  1  0.000000  0.800321  0.568133  1
  Co  Co18  1  0.500000  0.881015  0.707381  1
  Co  Co19  1  0.500000  0.118985  0.707381  1
  Co  Co20  1  0.000000  0.622860  0.293767  1
  Co  Co21  1  0.000000  0.377140  0.293767  1
  Mo  Mo22  1  0.000000  0.000000  0.841947  1
  P  P23  1  0.500000  0.500000  0.891384  1
  P  P24  1  0.000000  0.000000  0.117276  1
  P  P25  1  0.500000  0.500000  0.352051  1
  P  P26  1  0.000000  0.000000  0.648255  1
  P  P27  1  0.500000  0.300349  0.612842  1
  P  P28  1  0.500000  0.699651  0.612842  1
  P  P29  1  0.000000  0.189495  0.384184  1
  P  P30  1  0.000000  0.810505  0.384184  1
  P  P31  1  0.500000  0.846132  0.893609  1
  P  P32  1  0.500000  0.153868  0.893609  1
  P  P33  1  0.000000  0.661383  0.105233  1
  P  P34  1  0.000000  0.338617  0.105233  1
  Rh  Rh35  1  0.500000  0.500000  0.702327  1
