# generated using pymatgen
data_Er20Co3NiBi8
_symmetry_space_group_name_H-M   'P 1'
_cell_length_a   7.90790628
_cell_length_b   8.85884300
_cell_length_c   12.28946459
_cell_angle_alpha   90.00000000
_cell_angle_beta   89.91267160
_cell_angle_gamma   90.00000000
_symmetry_Int_Tables_number   1
_chemical_formula_structural   Er20Co3NiBi8
_chemical_formula_sum   'Er20 Co3 Ni1 Bi8'
_cell_volume   860.93621556
_cell_formula_units_Z   1
loop_
 _symmetry_equiv_pos_site_id
 _symmetry_equiv_pos_as_xyz
  1  'x, y, z'
loop_
 _atom_site_type_symbol
 _atom_site_label
 _atom_site_symmetry_multiplicity
 _atom_site_fract_x
 _atom_site_fract_y
 _atom_site_fract_z
 _atom_site_occupancy
  Er  Er0  1  0.652882  0.750000  0.699433  1
  Er  Er1  1  0.346820  0.250000  0.300008  1
  Er  Er2  1  0.155449  0.250000  0.798203  1
  Er  Er3  1  0.842370  0.750000  0.204651  1
  Er  Er4  1  0.119018  0.750000  0.809667  1
  Er  Er5  1  0.883580  0.250000  0.187689  1
  Er  Er6  1  0.616850  0.250000  0.689625  1
  Er  Er7  1  0.382133  0.750000  0.310305  1
  Er  Er8  1  0.551991  0.750000  0.998255  1
  Er  Er9  1  0.446695  0.250000  0.001375  1
  Er  Er10  1  0.054337  0.250000  0.502691  1
  Er  Er11  1  0.947110  0.750000  0.498463  1
  Er  Er12  1  0.824349  0.455264  0.935793  1
  Er  Er13  1  0.174862  0.535544  0.064692  1
  Er  Er14  1  0.325910  0.537932  0.563079  1
  Er  Er15  1  0.174862  0.964456  0.064692  1
  Er  Er16  1  0.675023  0.462545  0.436305  1
  Er  Er17  1  0.824349  0.044736  0.935793  1
  Er  Er18  1  0.675023  0.037455  0.436305  1
  Er  Er19  1  0.325910  0.962068  0.563079  1
  Co  Co20  1  0.068646  0.250000  0.007472  1
  Co  Co21  1  0.434671  0.250000  0.508480  1
  Co  Co22  1  0.565985  0.750000  0.490978  1
  Ni  Ni23  1  0.931914  0.750000  0.992096  1
  Bi  Bi24  1  0.930005  0.008832  0.673780  1
  Bi  Bi25  1  0.069299  0.991408  0.326814  1
  Bi  Bi26  1  0.429914  0.990209  0.826929  1
  Bi  Bi27  1  0.069299  0.508592  0.326814  1
  Bi  Bi28  1  0.570413  0.009668  0.172913  1
  Bi  Bi29  1  0.930005  0.491168  0.673780  1
  Bi  Bi30  1  0.570413  0.490332  0.172913  1
  Bi  Bi31  1  0.429914  0.509791  0.826929  1
