# generated using pymatgen
data_RbMn(VS2)8
_symmetry_space_group_name_H-M   'P 1'
_cell_length_a   6.37546701
_cell_length_b   6.37547101
_cell_length_c   13.56036200
_cell_angle_alpha   89.98485706
_cell_angle_beta   90.00392728
_cell_angle_gamma   120.00353456
_symmetry_Int_Tables_number   1
_chemical_formula_structural   RbMn(VS2)8
_chemical_formula_sum   'Rb1 Mn1 V8 S16'
_cell_volume   477.32118266
_cell_formula_units_Z   1
loop_
 _symmetry_equiv_pos_site_id
 _symmetry_equiv_pos_as_xyz
  1  'x, y, z'
loop_
 _atom_site_type_symbol
 _atom_site_label
 _atom_site_symmetry_multiplicity
 _atom_site_fract_x
 _atom_site_fract_y
 _atom_site_fract_z
 _atom_site_occupancy
  Rb  Rb0  1  0.000000  0.000000  0.500000  1
  Mn  Mn1  1  0.000000  0.000000  0.000000  1
  V  V2  1  0.507317  0.492800  0.796208  1
  V  V3  1  0.014601  0.507206  0.203763  1
  V  V4  1  0.492667  0.985267  0.203744  1
  V  V5  1  0.507333  0.014733  0.796256  1
  V  V6  1  0.985399  0.492794  0.796237  1
  V  V7  1  0.492683  0.507200  0.203792  1
  V  V8  1  0.000021  0.000159  0.790647  1
  V  V9  1  0.999979  0.999841  0.209353  1
  S  S10  1  0.829611  0.170210  0.313028  1
  S  S11  1  0.829637  0.659047  0.313079  1
  S  S12  1  0.340712  0.170151  0.313060  1
  S  S13  1  0.672860  0.836479  0.899730  1
  S  S14  1  0.170363  0.340953  0.686921  1
  S  S15  1  0.163531  0.836441  0.899719  1
  S  S16  1  0.163560  0.327251  0.899721  1
  S  S17  1  0.836469  0.163559  0.100281  1
  S  S18  1  0.327140  0.163521  0.100270  1
  S  S19  1  0.659288  0.829849  0.686940  1
  S  S20  1  0.333299  0.666573  0.093205  1
  S  S21  1  0.666745  0.333529  0.683094  1
  S  S22  1  0.666701  0.333427  0.906795  1
  S  S23  1  0.333255  0.666471  0.316906  1
  S  S24  1  0.836440  0.672749  0.100279  1
  S  S25  1  0.170389  0.829790  0.686972  1
