# generated using pymatgen
data_TbEr9In8(PdAu)2
_symmetry_space_group_name_H-M   'P 1'
_cell_length_a   3.62273700
_cell_length_b   8.13529103
_cell_length_c   18.25536941
_cell_angle_alpha   90.01661834
_cell_angle_beta   90.00000000
_cell_angle_gamma   90.00000000
_symmetry_Int_Tables_number   1
_chemical_formula_structural   TbEr9In8(PdAu)2
_chemical_formula_sum   'Tb1 Er9 In8 Pd2 Au2'
_cell_volume   538.02258604
_cell_formula_units_Z   1
loop_
 _symmetry_equiv_pos_site_id
 _symmetry_equiv_pos_as_xyz
  1  'x, y, z'
loop_
 _atom_site_type_symbol
 _atom_site_label
 _atom_site_symmetry_multiplicity
 _atom_site_fract_x
 _atom_site_fract_y
 _atom_site_fract_z
 _atom_site_occupancy
  Tb  Tb0  1  0.000000  0.500000  0.500000  1
  Er  Er1  1  0.000000  0.000000  0.000000  1
  Er  Er2  1  0.000000  0.745552  0.282245  1
  Er  Er3  1  0.000000  0.254448  0.717755  1
  Er  Er4  1  0.000000  0.767270  0.779180  1
  Er  Er5  1  0.000000  0.232730  0.220820  1
  Er  Er6  1  0.000000  0.617829  0.080012  1
  Er  Er7  1  0.000000  0.382171  0.919988  1
  Er  Er8  1  0.000000  0.886496  0.582555  1
  Er  Er9  1  0.000000  0.113504  0.417445  1
  In  In10  1  0.500000  0.713150  0.932335  1
  In  In11  1  0.500000  0.286850  0.067665  1
  In  In12  1  0.500000  0.789824  0.432163  1
  In  In13  1  0.500000  0.210176  0.567837  1
  In  In14  1  0.500000  0.584063  0.647583  1
  In  In15  1  0.500000  0.415937  0.352417  1
  In  In16  1  0.500000  0.920690  0.148338  1
  In  In17  1  0.500000  0.079310  0.851662  1
  Pd  Pd18  1  0.500000  0.975386  0.696075  1
  Pd  Pd19  1  0.500000  0.024614  0.303925  1
  Au  Au20  1  0.500000  0.525902  0.196916  1
  Au  Au21  1  0.500000  0.474098  0.803084  1
