# generated using pymatgen
data_Y2Er(ThRu)2
_symmetry_space_group_name_H-M   'P 1'
_cell_length_a   6.39008459
_cell_length_b   7.20457797
_cell_length_c   8.86329831
_cell_angle_alpha   95.95196635
_cell_angle_beta   111.12968301
_cell_angle_gamma   89.99999473
_symmetry_Int_Tables_number   1
_chemical_formula_structural   Y2Er(ThRu)2
_chemical_formula_sum   'Y4 Er2 Th4 Ru4'
_cell_volume   378.25380973
_cell_formula_units_Z   2
loop_
 _symmetry_equiv_pos_site_id
 _symmetry_equiv_pos_as_xyz
  1  'x, y, z'
loop_
 _atom_site_type_symbol
 _atom_site_label
 _atom_site_symmetry_multiplicity
 _atom_site_fract_x
 _atom_site_fract_y
 _atom_site_fract_z
 _atom_site_occupancy
  Y  Y0  1  0.209596  0.684085  0.569449  1
  Y  Y1  1  0.640147  0.815915  0.430551  1
  Y  Y2  1  0.790404  0.315915  0.430551  1
  Y  Y3  1  0.359853  0.184085  0.569449  1
  Er  Er4  1  0.421354  0.750000  0.000000  1
  Er  Er5  1  0.578646  0.250000  0.000000  1
  Th  Th6  1  0.795566  0.590493  0.808985  1
  Th  Th7  1  0.986581  0.909507  0.191015  1
  Th  Th8  1  0.204434  0.409507  0.191015  1
  Th  Th9  1  0.013419  0.090493  0.808985  1
  Ru  Ru10  1  0.619871  0.914493  0.784284  1
  Ru  Ru11  1  0.835586  0.585507  0.215716  1
  Ru  Ru12  1  0.380129  0.085507  0.215716  1
  Ru  Ru13  1  0.164414  0.414493  0.784284  1
