# generated using pymatgen
data_Tb7Dy2Y3In20
_symmetry_space_group_name_H-M   'P 1'
_cell_length_a   6.51598415
_cell_length_b   10.45171861
_cell_length_c   12.32780101
_cell_angle_alpha   89.98365586
_cell_angle_beta   90.01090167
_cell_angle_gamma   90.01549668
_symmetry_Int_Tables_number   1
_chemical_formula_structural   Tb7Dy2Y3In20
_chemical_formula_sum   'Tb7 Dy2 Y3 In20'
_cell_volume   839.56302209
_cell_formula_units_Z   1
loop_
 _symmetry_equiv_pos_site_id
 _symmetry_equiv_pos_as_xyz
  1  'x, y, z'
loop_
 _atom_site_type_symbol
 _atom_site_label
 _atom_site_symmetry_multiplicity
 _atom_site_fract_x
 _atom_site_fract_y
 _atom_site_fract_z
 _atom_site_occupancy
  Tb  Tb0  1  0.890504  0.494076  0.142332  1
  Tb  Tb1  1  0.609404  0.005920  0.642379  1
  Tb  Tb2  1  0.109451  0.994139  0.857692  1
  Tb  Tb3  1  0.390464  0.505911  0.357666  1
  Tb  Tb4  1  0.109447  0.505877  0.857644  1
  Tb  Tb5  1  0.390605  0.994091  0.357744  1
  Tb  Tb6  1  0.890523  0.005865  0.142312  1
  Dy  Dy7  1  0.349689  0.749908  0.056808  1
  Dy  Dy8  1  0.150438  0.750105  0.556802  1
  Y  Y9  1  0.650259  0.250043  0.943013  1
  Y  Y10  1  0.849690  0.250016  0.443125  1
  Y  Y11  1  0.609486  0.494059  0.642507  1
  In  In12  1  0.617433  0.749909  0.504907  1
  In  In13  1  0.882452  0.750000  0.004661  1
  In  In14  1  0.382474  0.250003  0.495295  1
  In  In15  1  0.117576  0.249978  0.995405  1
  In  In16  1  0.650694  0.749952  0.246369  1
  In  In17  1  0.849248  0.750036  0.746282  1
  In  In18  1  0.348995  0.249952  0.753483  1
  In  In19  1  0.150788  0.249980  0.253500  1
  In  In20  1  0.125448  0.750108  0.285603  1
  In  In21  1  0.374556  0.750136  0.785691  1
  In  In22  1  0.874662  0.249964  0.714306  1
  In  In23  1  0.625400  0.249988  0.214323  1
  In  In24  1  0.875593  0.544314  0.401364  1
  In  In25  1  0.624353  0.955676  0.901447  1
  In  In26  1  0.124429  0.044144  0.598677  1
  In  In27  1  0.375599  0.455916  0.098599  1
  In  In28  1  0.124689  0.455900  0.598648  1
  In  In29  1  0.375637  0.044050  0.098622  1
  In  In30  1  0.875641  0.955646  0.401397  1
  In  In31  1  0.624374  0.544338  0.901396  1
