# generated using pymatgen
data_Ta2NbCrB3Ru2
_symmetry_space_group_name_H-M   'P 1'
_cell_length_a   3.12753200
_cell_length_b   6.37331700
_cell_length_c   10.84812100
_cell_angle_alpha   90.00000000
_cell_angle_beta   90.00000000
_cell_angle_gamma   90.00000000
_symmetry_Int_Tables_number   1
_chemical_formula_structural   Ta2NbCrB3Ru2
_chemical_formula_sum   'Ta4 Nb2 Cr2 B6 Ru4'
_cell_volume   216.23291493
_cell_formula_units_Z   2
loop_
 _symmetry_equiv_pos_site_id
 _symmetry_equiv_pos_as_xyz
  1  'x, y, z'
loop_
 _atom_site_type_symbol
 _atom_site_label
 _atom_site_symmetry_multiplicity
 _atom_site_fract_x
 _atom_site_fract_y
 _atom_site_fract_z
 _atom_site_occupancy
  Ta  Ta0  1  0.000000  0.225708  0.951090  1
  Ta  Ta1  1  0.000000  0.774292  0.048910  1
  Ta  Ta2  1  0.000000  0.225708  0.548910  1
  Ta  Ta3  1  0.000000  0.774292  0.451090  1
  Nb  Nb4  1  0.000000  0.138094  0.250000  1
  Nb  Nb5  1  0.000000  0.861906  0.750000  1
  Cr  Cr6  1  0.500000  0.802412  0.250000  1
  Cr  Cr7  1  0.500000  0.197588  0.750000  1
  B  B8  1  0.500000  0.047661  0.085872  1
  B  B9  1  0.500000  0.952339  0.914128  1
  B  B10  1  0.500000  0.047661  0.414128  1
  B  B11  1  0.500000  0.952339  0.585872  1
  B  B12  1  0.000000  0.561132  0.250000  1
  B  B13  1  0.000000  0.438868  0.750000  1
  Ru  Ru14  1  0.500000  0.428065  0.123465  1
  Ru  Ru15  1  0.500000  0.571935  0.876535  1
  Ru  Ru16  1  0.500000  0.428065  0.376535  1
  Ru  Ru17  1  0.500000  0.571935  0.623465  1
