# generated using pymatgen
data_HoTmNi2(B2Ir)2
_symmetry_space_group_name_H-M   'P 1'
_cell_length_a   5.05656843
_cell_length_b   5.05656788
_cell_length_c   7.25165510
_cell_angle_alpha   58.74127528
_cell_angle_beta   58.74128313
_cell_angle_gamma   61.98877232
_symmetry_Int_Tables_number   1
_chemical_formula_structural   HoTmNi2(B2Ir)2
_chemical_formula_sum   'Ho1 Tm1 Ni2 B4 Ir2'
_cell_volume   130.29745732
_cell_formula_units_Z   1
loop_
 _symmetry_equiv_pos_site_id
 _symmetry_equiv_pos_as_xyz
  1  'x, y, z'
loop_
 _atom_site_type_symbol
 _atom_site_label
 _atom_site_symmetry_multiplicity
 _atom_site_fract_x
 _atom_site_fract_y
 _atom_site_fract_z
 _atom_site_occupancy
  Ho  Ho0  1  0.874576  0.125424  0.250000  1
  Tm  Tm1  1  0.112136  0.887864  0.750000  1
  Ni  Ni2  1  0.528132  0.731959  0.293441  1
  Ni  Ni3  1  0.268041  0.471868  0.206559  1
  B  B4  1  0.167292  0.496141  0.505590  1
  B  B5  1  0.503859  0.832708  0.994410  1
  B  B6  1  0.842314  0.489963  0.470741  1
  B  B7  1  0.510037  0.157686  0.029259  1
  Ir  Ir8  1  0.730163  0.536549  0.802386  1
  Ir  Ir9  1  0.463451  0.269837  0.697614  1
