# generated using pymatgen
data_Tb16In3AgRu3Rh
_symmetry_space_group_name_H-M   'P 1'
_cell_length_a   9.67912270
_cell_length_b   9.67702306
_cell_length_c   9.67678195
_cell_angle_alpha   59.64867487
_cell_angle_beta   59.68572185
_cell_angle_gamma   59.68573925
_symmetry_Int_Tables_number   1
_chemical_formula_structural   Tb16In3AgRu3Rh
_chemical_formula_sum   'Tb16 In3 Ag1 Ru3 Rh1'
_cell_volume   636.14916036
_cell_formula_units_Z   1
loop_
 _symmetry_equiv_pos_site_id
 _symmetry_equiv_pos_as_xyz
  1  'x, y, z'
loop_
 _atom_site_type_symbol
 _atom_site_label
 _atom_site_symmetry_multiplicity
 _atom_site_fract_x
 _atom_site_fract_y
 _atom_site_fract_z
 _atom_site_occupancy
  Tb  Tb0  1  0.808769  0.808450  0.191181  1
  Tb  Tb1  1  0.808775  0.191173  0.808461  1
  Tb  Tb2  1  0.189044  0.192849  0.811719  1
  Tb  Tb3  1  0.652665  0.045023  0.649769  1
  Tb  Tb4  1  0.060277  0.059909  0.440762  1
  Tb  Tb5  1  0.442809  0.438267  0.064222  1
  Tb  Tb6  1  0.651812  0.650423  0.650426  1
  Tb  Tb7  1  0.812834  0.190647  0.190639  1
  Tb  Tb8  1  0.190184  0.808193  0.808211  1
  Tb  Tb9  1  0.042910  0.652404  0.652387  1
  Tb  Tb10  1  0.442291  0.060891  0.060884  1
  Tb  Tb11  1  0.442815  0.064206  0.438282  1
  Tb  Tb12  1  0.060277  0.440753  0.059915  1
  Tb  Tb13  1  0.652661  0.649782  0.045010  1
  Tb  Tb14  1  0.189050  0.811717  0.192844  1
  Tb  Tb15  1  0.062180  0.442033  0.442040  1
  In  In16  1  0.418005  0.418362  0.743705  1
  In  In17  1  0.418000  0.743709  0.418360  1
  In  In18  1  0.744469  0.417898  0.417915  1
  Ag  Ag19  1  0.417403  0.417027  0.417027  1
  Ru  Ru20  1  0.857315  0.419034  0.858406  1
  Ru  Ru21  1  0.857744  0.860645  0.860641  1
  Ru  Ru22  1  0.857310  0.858407  0.419020  1
  Rh  Rh23  1  0.420398  0.858197  0.858173  1
