# generated using pymatgen
data_La4ErMo3O14
_symmetry_space_group_name_H-M   'P 1'
_cell_length_a   7.59810602
_cell_length_b   7.59810678
_cell_length_c   7.59810700
_cell_angle_alpha   60.26631868
_cell_angle_beta   60.26631543
_cell_angle_gamma   60.26631383
_symmetry_Int_Tables_number   1
_chemical_formula_structural   La4ErMo3O14
_chemical_formula_sum   'La4 Er1 Mo3 O14'
_cell_volume   312.04062830
_cell_formula_units_Z   1
loop_
 _symmetry_equiv_pos_site_id
 _symmetry_equiv_pos_as_xyz
  1  'x, y, z'
loop_
 _atom_site_type_symbol
 _atom_site_label
 _atom_site_symmetry_multiplicity
 _atom_site_fract_x
 _atom_site_fract_y
 _atom_site_fract_z
 _atom_site_occupancy
  La  La0  1  0.625000  0.125000  0.125000  1
  La  La1  1  0.125000  0.125000  0.125000  1
  La  La2  1  0.125000  0.625000  0.125000  1
  La  La3  1  0.125000  0.125000  0.625000  1
  Er  Er4  1  0.625000  0.625000  0.625000  1
  Mo  Mo5  1  0.625000  0.625000  0.125000  1
  Mo  Mo6  1  0.625000  0.125000  0.625000  1
  Mo  Mo7  1  0.125000  0.625000  0.625000  1
  O  O8  1  0.711879  0.300937  0.300937  1
  O  O9  1  0.715557  0.715557  0.270415  1
  O  O10  1  0.300937  0.711879  0.300937  1
  O  O11  1  0.000875  0.000875  0.000875  1
  O  O12  1  0.715557  0.270415  0.715557  1
  O  O13  1  0.979585  0.534443  0.534443  1
  O  O14  1  0.270415  0.715557  0.715557  1
  O  O15  1  0.534443  0.979585  0.534443  1
  O  O16  1  0.249125  0.249125  0.249125  1
  O  O17  1  0.949063  0.538121  0.949063  1
  O  O18  1  0.534443  0.534443  0.979585  1
  O  O19  1  0.949063  0.949063  0.538121  1
  O  O20  1  0.538121  0.949063  0.949063  1
  O  O21  1  0.300937  0.300937  0.711879  1
