# generated using pymatgen
data_DyErWO6
_symmetry_space_group_name_H-M   'P 1'
_cell_length_a   5.38672900
_cell_length_b   7.68628077
_cell_length_c   11.42231705
_cell_angle_alpha   75.50147509
_cell_angle_beta   90.00000000
_cell_angle_gamma   90.00000000
_symmetry_Int_Tables_number   1
_chemical_formula_structural   DyErWO6
_chemical_formula_sum   'Dy4 Er4 W4 O24'
_cell_volume   457.86776089
_cell_formula_units_Z   4
loop_
 _symmetry_equiv_pos_site_id
 _symmetry_equiv_pos_as_xyz
  1  'x, y, z'
loop_
 _atom_site_type_symbol
 _atom_site_label
 _atom_site_symmetry_multiplicity
 _atom_site_fract_x
 _atom_site_fract_y
 _atom_site_fract_z
 _atom_site_occupancy
  Dy  Dy0  1  0.683973  0.500000  0.250000  1
  Dy  Dy1  1  0.316027  0.500000  0.750000  1
  Dy  Dy2  1  0.740836  0.000000  0.250000  1
  Dy  Dy3  1  0.259164  0.000000  0.750000  1
  Er  Er4  1  0.183360  0.206160  0.421854  1
  Er  Er5  1  0.183360  0.793840  0.078146  1
  Er  Er6  1  0.816640  0.793840  0.578146  1
  Er  Er7  1  0.816640  0.206160  0.921854  1
  W  W8  1  0.255980  0.276348  0.114634  1
  W  W9  1  0.255980  0.723652  0.385366  1
  W  W10  1  0.744020  0.723652  0.885366  1
  W  W11  1  0.744020  0.276348  0.614634  1
  O  O12  1  0.456999  0.208935  0.273585  1
  O  O13  1  0.456999  0.791065  0.226415  1
  O  O14  1  0.543001  0.791065  0.726415  1
  O  O15  1  0.543001  0.208935  0.773585  1
  O  O16  1  0.045615  0.059793  0.103654  1
  O  O17  1  0.045615  0.940207  0.396346  1
  O  O18  1  0.954385  0.940207  0.896346  1
  O  O19  1  0.954385  0.059793  0.603654  1
  O  O20  1  0.980934  0.288976  0.228961  1
  O  O21  1  0.980934  0.711024  0.271039  1
  O  O22  1  0.019066  0.711024  0.771039  1
  O  O23  1  0.019066  0.288976  0.728961  1
  O  O24  1  0.850126  0.365398  0.451243  1
  O  O25  1  0.850126  0.634602  0.048757  1
  O  O26  1  0.149874  0.634602  0.548757  1
  O  O27  1  0.149874  0.365398  0.951243  1
  O  O28  1  0.639969  0.510808  0.614190  1
  O  O29  1  0.639969  0.489192  0.885810  1
  O  O30  1  0.360031  0.489192  0.385810  1
  O  O31  1  0.360031  0.510808  0.114190  1
  O  O32  1  0.464110  0.154306  0.568620  1
  O  O33  1  0.464110  0.845694  0.931380  1
  O  O34  1  0.535890  0.845694  0.431380  1
  O  O35  1  0.535890  0.154306  0.068620  1
