# generated using pymatgen
data_MgNbIrRu
_symmetry_space_group_name_H-M   'P 1'
_cell_length_a   4.45034850
_cell_length_b   4.45034893
_cell_length_c   4.45034800
_cell_angle_alpha   60.00000693
_cell_angle_beta   60.00000371
_cell_angle_gamma   60.00000569
_symmetry_Int_Tables_number   1
_chemical_formula_structural   MgNbIrRu
_chemical_formula_sum   'Mg1 Nb1 Ir1 Ru1'
_cell_volume   62.32569253
_cell_formula_units_Z   1
loop_
 _symmetry_equiv_pos_site_id
 _symmetry_equiv_pos_as_xyz
  1  'x, y, z'
loop_
 _atom_site_type_symbol
 _atom_site_label
 _atom_site_symmetry_multiplicity
 _atom_site_fract_x
 _atom_site_fract_y
 _atom_site_fract_z
 _atom_site_occupancy
  Mg  Mg0  1  0.500000  0.500000  0.500000  1
  Nb  Nb1  1  0.000000  0.000000  0.000000  1
  Ir  Ir2  1  0.250000  0.250000  0.250000  1
  Ru  Ru3  1  0.750000  0.750000  0.750000  1
