# generated using pymatgen
data_Ce3HoLu4(ReB6)4
_symmetry_space_group_name_H-M   'P 1'
_cell_length_a   3.68234100
_cell_length_b   9.12782286
_cell_length_c   11.52333200
_cell_angle_alpha   90.05812909
_cell_angle_beta   90.00000000
_cell_angle_gamma   90.00000000
_symmetry_Int_Tables_number   1
_chemical_formula_structural   Ce3HoLu4(ReB6)4
_chemical_formula_sum   'Ce3 Ho1 Lu4 Re4 B24'
_cell_volume   387.31922833
_cell_formula_units_Z   1
loop_
 _symmetry_equiv_pos_site_id
 _symmetry_equiv_pos_as_xyz
  1  'x, y, z'
loop_
 _atom_site_type_symbol
 _atom_site_label
 _atom_site_symmetry_multiplicity
 _atom_site_fract_x
 _atom_site_fract_y
 _atom_site_fract_z
 _atom_site_occupancy
  Ce  Ce0  1  0.000000  0.321245  0.414480  1
  Ce  Ce1  1  0.000000  0.678318  0.586416  1
  Ce  Ce2  1  0.000000  0.823278  0.085279  1
  Ho  Ho3  1  0.000000  0.177902  0.913979  1
  Lu  Lu4  1  0.000000  0.944847  0.372352  1
  Lu  Lu5  1  0.000000  0.056014  0.628453  1
  Lu  Lu6  1  0.000000  0.443265  0.127425  1
  Lu  Lu7  1  0.000000  0.555592  0.872000  1
  Re  Re8  1  0.000000  0.639249  0.319821  1
  Re  Re9  1  0.000000  0.361467  0.679782  1
  Re  Re10  1  0.000000  0.139292  0.180025  1
  Re  Re11  1  0.000000  0.860312  0.820215  1
  B  B12  1  0.500000  0.554830  0.431319  1
  B  B13  1  0.500000  0.444933  0.568995  1
  B  B14  1  0.500000  0.054810  0.067232  1
  B  B15  1  0.500000  0.946072  0.932103  1
  B  B16  1  0.500000  0.750842  0.418053  1
  B  B17  1  0.500000  0.248850  0.582667  1
  B  B18  1  0.500000  0.250432  0.080463  1
  B  B19  1  0.500000  0.750033  0.918116  1
  B  B20  1  0.500000  0.792526  0.265482  1
  B  B21  1  0.500000  0.206714  0.735268  1
  B  B22  1  0.500000  0.292311  0.233218  1
  B  B23  1  0.500000  0.707818  0.766117  1
  B  B24  1  0.500000  0.630409  0.184792  1
  B  B25  1  0.500000  0.368708  0.815885  1
  B  B26  1  0.500000  0.130748  0.314393  1
  B  B27  1  0.500000  0.870123  0.685742  1
  B  B28  1  0.500000  0.983457  0.212608  1
  B  B29  1  0.500000  0.018267  0.787183  1
  B  B30  1  0.500000  0.482894  0.286188  1
  B  B31  1  0.500000  0.516522  0.714165  1
  B  B32  1  0.500000  0.599956  0.027554  1
  B  B33  1  0.500000  0.397832  0.971605  1
  B  B34  1  0.500000  0.102047  0.472213  1
  B  B35  1  0.500000  0.898085  0.528413  1
