# generated using pymatgen
data_TiAl2CrRu4
_symmetry_space_group_name_H-M   'P 1'
_cell_length_a   7.38056362
_cell_length_b   7.38056397
_cell_length_c   7.38056405
_cell_angle_alpha   131.79900301
_cell_angle_beta   131.79900951
_cell_angle_gamma   70.54666137
_symmetry_Int_Tables_number   1
_chemical_formula_structural   TiAl2CrRu4
_chemical_formula_sum   'Ti2 Al4 Cr2 Ru8'
_cell_volume   218.91496891
_cell_formula_units_Z   2
loop_
 _symmetry_equiv_pos_site_id
 _symmetry_equiv_pos_as_xyz
  1  'x, y, z'
loop_
 _atom_site_type_symbol
 _atom_site_label
 _atom_site_symmetry_multiplicity
 _atom_site_fract_x
 _atom_site_fract_y
 _atom_site_fract_z
 _atom_site_occupancy
  Ti  Ti0  1  0.750000  0.750000  0.000000  1
  Ti  Ti1  1  0.000000  0.500000  0.500000  1
  Al  Al2  1  0.501943  0.501943  0.000000  1
  Al  Al3  1  0.998057  0.998057  0.000000  1
  Al  Al4  1  0.751943  0.251943  0.500000  1
  Al  Al5  1  0.248057  0.748057  0.500000  1
  Cr  Cr6  1  0.250000  0.250000  0.000000  1
  Cr  Cr7  1  0.500000  0.000000  0.500000  1
  Ru  Ru8  1  0.132354  0.625000  0.007352  1
  Ru  Ru9  1  0.375001  0.882353  0.007354  1
  Ru  Ru10  1  0.374999  0.367647  0.492646  1
  Ru  Ru11  1  0.617648  0.625000  0.492646  1
  Ru  Ru12  1  0.132353  0.124999  0.507352  1
  Ru  Ru13  1  0.874999  0.882353  0.507352  1
  Ru  Ru14  1  0.617647  0.124999  0.992646  1
  Ru  Ru15  1  0.874999  0.367647  0.992646  1
