# generated using pymatgen
data_Dy2Y4Er6Co5Sn
_symmetry_space_group_name_H-M   'P 1'
_cell_length_a   8.27383095
_cell_length_b   8.27383054
_cell_length_c   8.26840753
_cell_angle_alpha   107.04305247
_cell_angle_beta   110.77743694
_cell_angle_gamma   110.64616337
_symmetry_Int_Tables_number   1
_chemical_formula_structural   Dy2Y4Er6Co5Sn
_chemical_formula_sum   'Dy2 Y4 Er6 Co5 Sn1'
_cell_volume   434.99837108
_cell_formula_units_Z   1
loop_
 _symmetry_equiv_pos_site_id
 _symmetry_equiv_pos_as_xyz
  1  'x, y, z'
loop_
 _atom_site_type_symbol
 _atom_site_label
 _atom_site_symmetry_multiplicity
 _atom_site_fract_x
 _atom_site_fract_y
 _atom_site_fract_z
 _atom_site_occupancy
  Dy  Dy0  1  0.191988  0.791513  0.983500  1
  Dy  Dy1  1  0.808012  0.208487  0.016500  1
  Y  Y2  1  0.478385  0.291565  0.187848  1
  Y  Y3  1  0.103716  0.290537  0.812152  1
  Y  Y4  1  0.896284  0.709463  0.187848  1
  Y  Y5  1  0.521615  0.708435  0.812152  1
  Er  Er6  1  0.308969  0.621796  0.314780  1
  Er  Er7  1  0.307016  0.994189  0.685220  1
  Er  Er8  1  0.691031  0.378204  0.685220  1
  Er  Er9  1  0.692984  0.005811  0.314780  1
  Er  Er10  1  0.192726  0.208960  0.401688  1
  Er  Er11  1  0.807274  0.791040  0.598312  1
  Co  Co12  1  0.501756  0.612685  0.114440  1
  Co  Co13  1  0.498244  0.387315  0.885560  1
  Co  Co14  1  0.377312  0.000748  0.378058  1
  Co  Co15  1  0.622688  0.999252  0.621942  1
  Co  Co16  1  0.000000  0.000000  0.000000  1
  Sn  Sn17  1  0.000000  0.500000  0.500000  1
