# generated using pymatgen
data_Rb2MnVSe4
_symmetry_space_group_name_H-M   'P 1'
_cell_length_a   14.51001320
_cell_length_b   12.92377951
_cell_length_c   7.74148771
_cell_angle_alpha   85.29470406
_cell_angle_beta   62.58293538
_cell_angle_gamma   32.12236757
_symmetry_Int_Tables_number   1
_chemical_formula_structural   Rb2MnVSe4
_chemical_formula_sum   'Rb4 Mn2 V2 Se8'
_cell_volume   519.29922805
_cell_formula_units_Z   2
loop_
 _symmetry_equiv_pos_site_id
 _symmetry_equiv_pos_as_xyz
  1  'x, y, z'
loop_
 _atom_site_type_symbol
 _atom_site_label
 _atom_site_symmetry_multiplicity
 _atom_site_fract_x
 _atom_site_fract_y
 _atom_site_fract_z
 _atom_site_occupancy
  Rb  Rb0  1  0.572325  0.572325  0.927675  1
  Rb  Rb1  1  0.927675  0.927675  0.572325  1
  Rb  Rb2  1  0.322325  0.322325  0.677675  1
  Rb  Rb3  1  0.677675  0.677675  0.322325  1
  Mn  Mn4  1  0.000000  0.000000  0.000000  1
  Mn  Mn5  1  0.250000  0.250000  0.250000  1
  V  V6  1  0.750000  0.750000  0.750000  1
  V  V7  1  0.500000  0.500000  0.500000  1
  Se  Se8  1  0.226677  0.881454  0.580453  1
  Se  Se9  1  0.311416  0.580453  0.881454  1
  Se  Se10  1  0.580453  0.311416  0.226677  1
  Se  Se11  1  0.881454  0.226677  0.311416  1
  Se  Se12  1  0.368546  0.023323  0.938584  1
  Se  Se13  1  0.938584  0.669547  0.368546  1
  Se  Se14  1  0.669547  0.938584  0.023323  1
  Se  Se15  1  0.023323  0.368546  0.669547  1
