# generated using pymatgen
data_Dy4Hg2IrAu3
_symmetry_space_group_name_H-M   'P 1'
_cell_length_a   7.89214927
_cell_length_b   7.89214927
_cell_length_c   3.73514600
_cell_angle_alpha   90.00000000
_cell_angle_beta   90.00000000
_cell_angle_gamma   90.06491754
_symmetry_Int_Tables_number   1
_chemical_formula_structural   Dy4Hg2IrAu3
_chemical_formula_sum   'Dy4 Hg2 Ir1 Au3'
_cell_volume   232.64722929
_cell_formula_units_Z   1
loop_
 _symmetry_equiv_pos_site_id
 _symmetry_equiv_pos_as_xyz
  1  'x, y, z'
loop_
 _atom_site_type_symbol
 _atom_site_label
 _atom_site_symmetry_multiplicity
 _atom_site_fract_x
 _atom_site_fract_y
 _atom_site_fract_z
 _atom_site_occupancy
  Dy  Dy0  1  0.352275  0.179250  0.500001  1
  Dy  Dy1  1  0.813309  0.313310  0.500001  1
  Dy  Dy2  1  0.168751  0.668751  0.500001  1
  Dy  Dy3  1  0.679250  0.852274  0.500001  1
  Hg  Hg4  1  0.997071  0.001729  0.000000  1
  Hg  Hg5  1  0.501729  0.497071  0.000000  1
  Ir  Ir6  1  0.624669  0.124670  0.000000  1
  Au  Au7  1  0.124973  0.368101  0.000000  1
  Au  Au8  1  0.868102  0.624972  0.000000  1
  Au  Au9  1  0.369871  0.869872  0.000000  1
