# generated using pymatgen
data_Ac3(AlPd)4
_symmetry_space_group_name_H-M   'P 1'
_cell_length_a   8.60502667
_cell_length_b   8.60502741
_cell_length_c   8.60502765
_cell_angle_alpha   150.65843938
_cell_angle_beta   127.29025799
_cell_angle_gamma   61.47336662
_symmetry_Int_Tables_number   1
_chemical_formula_structural   Ac3(AlPd)4
_chemical_formula_sum   'Ac3 Al4 Pd4'
_cell_volume   246.29973128
_cell_formula_units_Z   1
loop_
 _symmetry_equiv_pos_site_id
 _symmetry_equiv_pos_as_xyz
  1  'x, y, z'
loop_
 _atom_site_type_symbol
 _atom_site_label
 _atom_site_symmetry_multiplicity
 _atom_site_fract_x
 _atom_site_fract_y
 _atom_site_fract_z
 _atom_site_occupancy
  Ac  Ac0  1  0.500000  0.000000  0.500000  1
  Ac  Ac1  1  0.877523  0.877523  0.000000  1
  Ac  Ac2  1  0.122477  0.122477  0.000000  1
  Al  Al3  1  0.489737  0.678990  0.810748  1
  Al  Al4  1  0.868242  0.678990  0.189252  1
  Al  Al5  1  0.131758  0.321010  0.810748  1
  Al  Al6  1  0.510263  0.321010  0.189252  1
  Pd  Pd7  1  0.282645  0.782645  0.500000  1
  Pd  Pd8  1  0.717355  0.217355  0.500000  1
  Pd  Pd9  1  0.787462  0.500000  0.287462  1
  Pd  Pd10  1  0.212538  0.500000  0.712538  1
