# generated using pymatgen
data_Tb3Dy3Y10(CdPt)4
_symmetry_space_group_name_H-M   'P 1'
_cell_length_a   9.70394410
_cell_length_b   9.71508644
_cell_length_c   9.71508728
_cell_angle_alpha   59.92480217
_cell_angle_beta   60.03740317
_cell_angle_gamma   60.03740675
_symmetry_Int_Tables_number   1
_chemical_formula_structural   Tb3Dy3Y10(CdPt)4
_chemical_formula_sum   'Tb3 Dy3 Y10 Cd4 Pt4'
_cell_volume   647.62599660
_cell_formula_units_Z   1
loop_
 _symmetry_equiv_pos_site_id
 _symmetry_equiv_pos_as_xyz
  1  'x, y, z'
loop_
 _atom_site_type_symbol
 _atom_site_label
 _atom_site_symmetry_multiplicity
 _atom_site_fract_x
 _atom_site_fract_y
 _atom_site_fract_z
 _atom_site_occupancy
  Tb  Tb0  1  0.352467  0.352473  0.352473  1
  Tb  Tb1  1  0.352419  0.352516  0.942591  1
  Tb  Tb2  1  0.352419  0.942591  0.352516  1
  Dy  Dy3  1  0.943118  0.352296  0.352296  1
  Dy  Dy4  1  0.810577  0.189487  0.189487  1
  Dy  Dy5  1  0.189450  0.810612  0.810612  1
  Y  Y6  1  0.189703  0.810342  0.189605  1
  Y  Y7  1  0.810333  0.189756  0.810150  1
  Y  Y8  1  0.189703  0.189605  0.810342  1
  Y  Y9  1  0.810333  0.810150  0.189756  1
  Y  Y10  1  0.935490  0.564509  0.564509  1
  Y  Y11  1  0.564397  0.935519  0.935519  1
  Y  Y12  1  0.564272  0.935636  0.564447  1
  Y  Y13  1  0.935616  0.564385  0.935614  1
  Y  Y14  1  0.564272  0.564447  0.935636  1
  Y  Y15  1  0.935616  0.935614  0.564385  1
  Cd  Cd16  1  0.582366  0.581784  0.581784  1
  Cd  Cd17  1  0.582193  0.581955  0.254072  1
  Cd  Cd18  1  0.582193  0.254072  0.581955  1
  Cd  Cd19  1  0.254094  0.581908  0.581908  1
  Pt  Pt20  1  0.142223  0.144413  0.144413  1
  Pt  Pt21  1  0.143655  0.142994  0.568942  1
  Pt  Pt22  1  0.143655  0.568942  0.142994  1
  Pt  Pt23  1  0.569439  0.143994  0.143994  1
