# generated using pymatgen
data_AcH9W
_symmetry_space_group_name_H-M   'P 1'
_cell_length_a   5.01854800
_cell_length_b   5.01854932
_cell_length_c   9.27891200
_cell_angle_alpha   90.00000000
_cell_angle_beta   90.00000000
_cell_angle_gamma   120.00000451
_symmetry_Int_Tables_number   1
_chemical_formula_structural   AcH9W
_chemical_formula_sum   'Ac2 H18 W2'
_cell_volume   202.38762145
_cell_formula_units_Z   2
loop_
 _symmetry_equiv_pos_site_id
 _symmetry_equiv_pos_as_xyz
  1  'x, y, z'
loop_
 _atom_site_type_symbol
 _atom_site_label
 _atom_site_symmetry_multiplicity
 _atom_site_fract_x
 _atom_site_fract_y
 _atom_site_fract_z
 _atom_site_occupancy
  Ac  Ac0  1  0.000000  0.000000  0.000000  1
  Ac  Ac1  1  0.000000  0.000000  0.500000  1
  H  H2  1  0.477097  0.522903  0.386682  1
  H  H3  1  0.477097  0.954194  0.386682  1
  H  H4  1  0.045806  0.522903  0.386682  1
  H  H5  1  0.954194  0.477097  0.886682  1
  H  H6  1  0.134692  0.269384  0.250000  1
  H  H7  1  0.865308  0.134692  0.750000  1
  H  H8  1  0.269384  0.134692  0.750000  1
  H  H9  1  0.730616  0.865308  0.250000  1
  H  H10  1  0.134692  0.865308  0.250000  1
  H  H11  1  0.865308  0.730616  0.750000  1
  H  H12  1  0.477097  0.954194  0.113318  1
  H  H13  1  0.522903  0.477097  0.613318  1
  H  H14  1  0.954194  0.477097  0.613318  1
  H  H15  1  0.045806  0.522903  0.113318  1
  H  H16  1  0.477097  0.522903  0.113318  1
  H  H17  1  0.522903  0.045806  0.886682  1
  H  H18  1  0.522903  0.477097  0.886682  1
  H  H19  1  0.522903  0.045806  0.613318  1
  W  W20  1  0.333333  0.666667  0.250000  1
  W  W21  1  0.666667  0.333333  0.750000  1
