# generated using pymatgen
data_Sr3LaFe2(PtO6)2
_symmetry_space_group_name_H-M   'P 1'
_cell_length_a   5.64521263
_cell_length_b   9.75418163
_cell_length_c   9.75594662
_cell_angle_alpha   70.65329865
_cell_angle_beta   90.04369347
_cell_angle_gamma   90.07210139
_symmetry_Int_Tables_number   1
_chemical_formula_structural   Sr3LaFe2(PtO6)2
_chemical_formula_sum   'Sr6 La2 Fe4 Pt4 O24'
_cell_volume   506.86986082
_cell_formula_units_Z   2
loop_
 _symmetry_equiv_pos_site_id
 _symmetry_equiv_pos_as_xyz
  1  'x, y, z'
loop_
 _atom_site_type_symbol
 _atom_site_label
 _atom_site_symmetry_multiplicity
 _atom_site_fract_x
 _atom_site_fract_y
 _atom_site_fract_z
 _atom_site_occupancy
  Sr  Sr0  1  0.529674  0.121414  0.628873  1
  Sr  Sr1  1  0.529411  0.621481  0.128804  1
  Sr  Sr2  1  0.026860  0.876060  0.872139  1
  Sr  Sr3  1  0.026731  0.376161  0.372256  1
  Sr  Sr4  1  0.470752  0.877591  0.372993  1
  Sr  Sr5  1  0.470893  0.377712  0.872833  1
  La  La6  1  0.963432  0.122207  0.126738  1
  La  La7  1  0.963400  0.622172  0.626912  1
  Fe  Fe8  1  0.000568  0.501090  0.002921  1
  Fe  Fe9  1  0.496916  0.498608  0.497208  1
  Fe  Fe10  1  0.000633  0.001133  0.502829  1
  Fe  Fe11  1  0.497032  0.998608  0.997261  1
  Pt  Pt12  1  0.498557  0.749815  0.749489  1
  Pt  Pt13  1  0.498537  0.249891  0.249482  1
  Pt  Pt14  1  0.000679  0.250217  0.750714  1
  Pt  Pt15  1  0.000458  0.750119  0.250743  1
  O  O16  1  0.521045  0.655787  0.593237  1
  O  O17  1  0.520966  0.155827  0.093397  1
  O  O18  1  0.992970  0.156392  0.593900  1
  O  O19  1  0.992697  0.656197  0.094070  1
  O  O20  1  0.484993  0.342545  0.407298  1
  O  O21  1  0.485014  0.842426  0.907453  1
  O  O22  1  0.004214  0.838751  0.412090  1
  O  O23  1  0.004468  0.338768  0.912219  1
  O  O24  1  0.726542  0.093698  0.366857  1
  O  O25  1  0.726741  0.593478  0.866968  1
  O  O26  1  0.790917  0.090142  0.881761  1
  O  O27  1  0.790578  0.590135  0.381669  1
  O  O28  1  0.279487  0.905801  0.624331  1
  O  O29  1  0.279358  0.405705  0.124479  1
  O  O30  1  0.209525  0.915891  0.125254  1
  O  O31  1  0.209877  0.415986  0.625240  1
  O  O32  1  0.212828  0.122507  0.335619  1
  O  O33  1  0.212688  0.622376  0.835750  1
  O  O34  1  0.287815  0.129932  0.842953  1
  O  O35  1  0.287490  0.629836  0.342987  1
  O  O36  1  0.782845  0.873264  0.656780  1
  O  O37  1  0.782738  0.373178  0.156833  1
  O  O38  1  0.719700  0.878458  0.158384  1
  O  O39  1  0.719974  0.378643  0.658271  1
