# generated using pymatgen
data_ScNb2ZnNi12
_symmetry_space_group_name_H-M   'P 1'
_cell_length_a   3.65586600
_cell_length_b   3.65586600
_cell_length_c   14.56272800
_cell_angle_alpha   90.00000000
_cell_angle_beta   90.00000000
_cell_angle_gamma   90.00000000
_symmetry_Int_Tables_number   1
_chemical_formula_structural   ScNb2ZnNi12
_chemical_formula_sum   'Sc1 Nb2 Zn1 Ni12'
_cell_volume   194.63604711
_cell_formula_units_Z   1
loop_
 _symmetry_equiv_pos_site_id
 _symmetry_equiv_pos_as_xyz
  1  'x, y, z'
loop_
 _atom_site_type_symbol
 _atom_site_label
 _atom_site_symmetry_multiplicity
 _atom_site_fract_x
 _atom_site_fract_y
 _atom_site_fract_z
 _atom_site_occupancy
  Sc  Sc0  1  0.000000  0.000000  0.500000  1
  Nb  Nb1  1  0.000000  0.000000  0.244479  1
  Nb  Nb2  1  0.000000  0.000000  0.755521  1
  Zn  Zn3  1  0.000000  0.000000  0.000000  1
  Ni  Ni4  1  0.500000  0.500000  0.000000  1
  Ni  Ni5  1  0.500000  0.500000  0.248124  1
  Ni  Ni6  1  0.500000  0.500000  0.500000  1
  Ni  Ni7  1  0.500000  0.500000  0.751876  1
  Ni  Ni8  1  0.500000  0.000000  0.122448  1
  Ni  Ni9  1  0.500000  0.000000  0.371043  1
  Ni  Ni10  1  0.500000  0.000000  0.628957  1
  Ni  Ni11  1  0.500000  0.000000  0.877552  1
  Ni  Ni12  1  0.000000  0.500000  0.122448  1
  Ni  Ni13  1  0.000000  0.500000  0.371043  1
  Ni  Ni14  1  0.000000  0.500000  0.628957  1
  Ni  Ni15  1  0.000000  0.500000  0.877552  1
