# generated using pymatgen
data_NdZnSiRh2
_symmetry_space_group_name_H-M   'P 1'
_cell_length_a   4.10899900
_cell_length_b   4.10900400
_cell_length_c   10.58785100
_cell_angle_alpha   90.00000000
_cell_angle_beta   90.00000000
_cell_angle_gamma   90.00000000
_symmetry_Int_Tables_number   1
_chemical_formula_structural   NdZnSiRh2
_chemical_formula_sum   'Nd2 Zn2 Si2 Rh4'
_cell_volume   178.76414685
_cell_formula_units_Z   2
loop_
 _symmetry_equiv_pos_site_id
 _symmetry_equiv_pos_as_xyz
  1  'x, y, z'
loop_
 _atom_site_type_symbol
 _atom_site_label
 _atom_site_symmetry_multiplicity
 _atom_site_fract_x
 _atom_site_fract_y
 _atom_site_fract_z
 _atom_site_occupancy
  Nd  Nd0  1  0.000000  0.500000  0.248234  1
  Nd  Nd1  1  0.500000  0.000000  0.751766  1
  Zn  Zn2  1  0.000000  0.000000  0.499999  1
  Zn  Zn3  1  0.500000  0.500000  0.500001  1
  Si  Si4  1  0.000000  0.500000  0.879985  1
  Si  Si5  1  0.500000  0.000000  0.120015  1
  Rh  Rh6  1  0.000000  0.000000  0.000000  1
  Rh  Rh7  1  0.500000  0.500000  0.000000  1
  Rh  Rh8  1  0.000000  0.500000  0.652500  1
  Rh  Rh9  1  0.500000  0.000000  0.347500  1
