# generated using pymatgen
data_Pr2Pt3Rh
_symmetry_space_group_name_H-M   'P 1'
_cell_length_a   5.53646800
_cell_length_b   5.53646774
_cell_length_c   5.53646850
_cell_angle_alpha   59.69444644
_cell_angle_beta   59.69445020
_cell_angle_gamma   59.69444224
_symmetry_Int_Tables_number   1
_chemical_formula_structural   Pr2Pt3Rh
_chemical_formula_sum   'Pr2 Pt3 Rh1'
_cell_volume   119.16768919
_cell_formula_units_Z   1
loop_
 _symmetry_equiv_pos_site_id
 _symmetry_equiv_pos_as_xyz
  1  'x, y, z'
loop_
 _atom_site_type_symbol
 _atom_site_label
 _atom_site_symmetry_multiplicity
 _atom_site_fract_x
 _atom_site_fract_y
 _atom_site_fract_z
 _atom_site_occupancy
  Pr  Pr0  1  0.250283  0.250283  0.250283  1
  Pr  Pr1  1  0.999717  0.999717  0.999717  1
  Pt  Pt2  1  0.125001  0.625001  0.625001  1
  Pt  Pt3  1  0.625001  0.625001  0.125001  1
  Pt  Pt4  1  0.625001  0.125001  0.625001  1
  Rh  Rh5  1  0.625001  0.625001  0.625001  1
