# generated using pymatgen
data_Yb3Ir4AuO14
_symmetry_space_group_name_H-M   'P 1'
_cell_length_a   7.14460418
_cell_length_b   7.30033072
_cell_length_c   7.30033000
_cell_angle_alpha   60.00000327
_cell_angle_beta   59.27632695
_cell_angle_gamma   59.27631991
_symmetry_Int_Tables_number   1
_chemical_formula_structural   Yb3Ir4AuO14
_chemical_formula_sum   'Yb3 Ir4 Au1 O14'
_cell_volume   266.26256231
_cell_formula_units_Z   1
loop_
 _symmetry_equiv_pos_site_id
 _symmetry_equiv_pos_as_xyz
  1  'x, y, z'
loop_
 _atom_site_type_symbol
 _atom_site_label
 _atom_site_symmetry_multiplicity
 _atom_site_fract_x
 _atom_site_fract_y
 _atom_site_fract_z
 _atom_site_occupancy
  Yb  Yb0  1  0.125000  0.625000  0.125000  1
  Yb  Yb1  1  0.125000  0.125000  0.625000  1
  Yb  Yb2  1  0.125000  0.125000  0.125000  1
  Ir  Ir3  1  0.125000  0.625000  0.625000  1
  Ir  Ir4  1  0.625000  0.125000  0.625000  1
  Ir  Ir5  1  0.625000  0.625000  0.125000  1
  Ir  Ir6  1  0.625000  0.625000  0.625000  1
  Au  Au7  1  0.625000  0.125000  0.125000  1
  O  O8  1  0.697818  0.697695  0.302244  1
  O  O9  1  0.291789  0.295369  0.706421  1
  O  O10  1  0.697818  0.302244  0.697695  1
  O  O11  1  0.291789  0.706421  0.295369  1
  O  O12  1  0.291789  0.706421  0.706421  1
  O  O13  1  0.697818  0.302244  0.302244  1
  O  O14  1  0.552182  0.552305  0.947756  1
  O  O15  1  0.958211  0.954631  0.543579  1
  O  O16  1  0.552182  0.947756  0.552305  1
  O  O17  1  0.958211  0.543579  0.954631  1
  O  O18  1  0.958211  0.543579  0.543579  1
  O  O19  1  0.552182  0.947756  0.947756  1
  O  O20  1  0.273766  0.242078  0.242078  1
  O  O21  1  0.976234  0.007922  0.007922  1
