# generated using pymatgen
data_NdNb(FeGe)2
_symmetry_space_group_name_H-M   'P 1'
_cell_length_a   4.14929800
_cell_length_b   4.14929795
_cell_length_c   13.92207400
_cell_angle_alpha   90.00000000
_cell_angle_beta   90.00000000
_cell_angle_gamma   119.99998442
_symmetry_Int_Tables_number   1
_chemical_formula_structural   NdNb(FeGe)2
_chemical_formula_sum   'Nd2 Nb2 Fe4 Ge4'
_cell_volume   207.57922506
_cell_formula_units_Z   2
loop_
 _symmetry_equiv_pos_site_id
 _symmetry_equiv_pos_as_xyz
  1  'x, y, z'
loop_
 _atom_site_type_symbol
 _atom_site_label
 _atom_site_symmetry_multiplicity
 _atom_site_fract_x
 _atom_site_fract_y
 _atom_site_fract_z
 _atom_site_occupancy
  Nd  Nd0  1  0.000000  0.000000  0.250000  1
  Nd  Nd1  1  0.000000  0.000000  0.750000  1
  Nb  Nb2  1  0.000000  0.000000  0.000000  1
  Nb  Nb3  1  0.000000  0.000000  0.500000  1
  Fe  Fe4  1  0.666666  0.333334  0.062460  1
  Fe  Fe5  1  0.666666  0.333334  0.437540  1
  Fe  Fe6  1  0.333333  0.666666  0.562460  1
  Fe  Fe7  1  0.333333  0.666666  0.937540  1
  Ge  Ge8  1  0.333333  0.666666  0.114846  1
  Ge  Ge9  1  0.333333  0.666666  0.385153  1
  Ge  Ge10  1  0.666666  0.333334  0.614846  1
  Ge  Ge11  1  0.666666  0.333334  0.885153  1
