# generated using pymatgen
data_InCoAsO6
_symmetry_space_group_name_H-M   'P 1'
_cell_length_a   4.90585700
_cell_length_b   4.90585693
_cell_length_c   4.63664200
_cell_angle_alpha   90.00000000
_cell_angle_beta   90.00000000
_cell_angle_gamma   119.99999371
_symmetry_Int_Tables_number   1
_chemical_formula_structural   InCoAsO6
_chemical_formula_sum   'In1 Co1 As1 O6'
_cell_volume   96.64157248
_cell_formula_units_Z   1
loop_
 _symmetry_equiv_pos_site_id
 _symmetry_equiv_pos_as_xyz
  1  'x, y, z'
loop_
 _atom_site_type_symbol
 _atom_site_label
 _atom_site_symmetry_multiplicity
 _atom_site_fract_x
 _atom_site_fract_y
 _atom_site_fract_z
 _atom_site_occupancy
  In  In0  1  0.000000  0.000000  0.000000  1
  Co  Co1  1  0.666667  0.333333  0.500000  1
  As  As2  1  0.333333  0.666667  0.500000  1
  O  O3  1  0.363240  0.366651  0.720180  1
  O  O4  1  0.633349  0.996589  0.720180  1
  O  O5  1  0.003411  0.636760  0.720180  1
  O  O6  1  0.363240  0.996589  0.279820  1
  O  O7  1  0.003411  0.366651  0.279820  1
  O  O8  1  0.633349  0.636760  0.279820  1
