# generated using pymatgen
data_K4Zr6PBr18
_symmetry_space_group_name_H-M   'P 1'
_cell_length_a   10.56765115
_cell_length_b   10.69288275
_cell_length_c   10.79860803
_cell_angle_alpha   118.48603210
_cell_angle_beta   100.40048126
_cell_angle_gamma   103.81616854
_symmetry_Int_Tables_number   1
_chemical_formula_structural   K4Zr6PBr18
_chemical_formula_sum   'K4 Zr6 P1 Br18'
_cell_volume   977.54015843
_cell_formula_units_Z   1
loop_
 _symmetry_equiv_pos_site_id
 _symmetry_equiv_pos_as_xyz
  1  'x, y, z'
loop_
 _atom_site_type_symbol
 _atom_site_label
 _atom_site_symmetry_multiplicity
 _atom_site_fract_x
 _atom_site_fract_y
 _atom_site_fract_z
 _atom_site_occupancy
  K  K0  1  0.653137  0.536680  0.227628  1
  K  K1  1  0.346863  0.463320  0.772372  1
  K  K2  1  0.687696  0.226694  0.563923  1
  K  K3  1  0.312304  0.773306  0.436077  1
  Zr  Zr4  1  0.155195  0.057280  0.236367  1
  Zr  Zr5  1  0.844805  0.942720  0.763633  1
  Zr  Zr6  1  0.859572  0.131004  0.137173  1
  Zr  Zr7  1  0.140428  0.868996  0.862827  1
  Zr  Zr8  1  0.149238  0.244686  0.045767  1
  Zr  Zr9  1  0.850762  0.755314  0.954233  1
  P  P10  1  0.000000  0.000000  0.000000  1
  Br  Br11  1  0.009785  0.414756  0.199504  1
  Br  Br12  1  0.990215  0.585244  0.800496  1
  Br  Br13  1  0.333019  0.336374  0.314448  1
  Br  Br14  1  0.666981  0.663626  0.685552  1
  Br  Br15  1  0.324323  0.521172  0.100743  1
  Br  Br16  1  0.675677  0.478828  0.899257  1
  Br  Br17  1  0.005347  0.793938  0.211804  1
  Br  Br18  1  0.994653  0.206062  0.788196  1
  Br  Br19  1  0.705488  0.277864  0.290295  1
  Br  Br20  1  0.294512  0.722136  0.709705  1
  Br  Br21  1  0.318780  0.127074  0.901210  1
  Br  Br22  1  0.681220  0.872926  0.098790  1
  Br  Br23  1  0.017365  0.207483  0.413236  1
  Br  Br24  1  0.982635  0.792517  0.586764  1
  Br  Br25  1  0.323083  0.919601  0.110127  1
  Br  Br26  1  0.676917  0.080399  0.889873  1
  Br  Br27  1  0.335776  0.121480  0.502392  1
  Br  Br28  1  0.664224  0.878520  0.497608  1
