# generated using pymatgen
data_Ba2YbIn5Au6
_symmetry_space_group_name_H-M   'P 1'
_cell_length_a   4.67178700
_cell_length_b   8.25804500
_cell_length_c   9.33139400
_cell_angle_alpha   90.00000000
_cell_angle_beta   90.00000000
_cell_angle_gamma   90.00000000
_symmetry_Int_Tables_number   1
_chemical_formula_structural   Ba2YbIn5Au6
_chemical_formula_sum   'Ba2 Yb1 In5 Au6'
_cell_volume   360.00356877
_cell_formula_units_Z   1
loop_
 _symmetry_equiv_pos_site_id
 _symmetry_equiv_pos_as_xyz
  1  'x, y, z'
loop_
 _atom_site_type_symbol
 _atom_site_label
 _atom_site_symmetry_multiplicity
 _atom_site_fract_x
 _atom_site_fract_y
 _atom_site_fract_z
 _atom_site_occupancy
  Ba  Ba0  1  0.500000  0.000000  0.729142  1
  Ba  Ba1  1  0.000000  0.500000  0.265831  1
  Yb  Yb2  1  0.000000  0.000000  0.356266  1
  In  In3  1  0.000000  0.308625  0.889843  1
  In  In4  1  0.500000  0.190618  0.114947  1
  In  In5  1  0.000000  0.691375  0.889843  1
  In  In6  1  0.500000  0.809382  0.114947  1
  In  In7  1  0.500000  0.500000  0.641471  1
  Au  Au8  1  0.000000  0.720122  0.588252  1
  Au  Au9  1  0.500000  0.763357  0.413112  1
  Au  Au10  1  0.500000  0.500000  0.960620  1
  Au  Au11  1  0.000000  0.000000  0.034361  1
  Au  Au12  1  0.500000  0.236643  0.413112  1
  Au  Au13  1  0.000000  0.279878  0.588252  1
