# generated using pymatgen
data_Hf6In6IrRh11
_symmetry_space_group_name_H-M   'P 1'
_cell_length_a   4.71298168
_cell_length_b   6.20638800
_cell_length_c   14.16825228
_cell_angle_alpha   90.00000000
_cell_angle_beta   97.49158219
_cell_angle_gamma   90.00000000
_symmetry_Int_Tables_number   1
_chemical_formula_structural   Hf6In6IrRh11
_chemical_formula_sum   'Hf6 In6 Ir1 Rh11'
_cell_volume   410.89221912
_cell_formula_units_Z   1
loop_
 _symmetry_equiv_pos_site_id
 _symmetry_equiv_pos_as_xyz
  1  'x, y, z'
loop_
 _atom_site_type_symbol
 _atom_site_label
 _atom_site_symmetry_multiplicity
 _atom_site_fract_x
 _atom_site_fract_y
 _atom_site_fract_z
 _atom_site_occupancy
  Hf  Hf0  1  0.000000  0.001828  0.000000  1
  Hf  Hf1  1  0.500356  0.498736  0.166297  1
  Hf  Hf2  1  0.000515  0.000156  0.333464  1
  Hf  Hf3  1  0.499999  0.500278  0.500001  1
  Hf  Hf4  1  0.999485  0.000156  0.666536  1
  Hf  Hf5  1  0.499644  0.498736  0.833703  1
  In  In6  1  0.000000  0.502253  0.000000  1
  In  In7  1  0.499395  0.998650  0.167272  1
  In  In8  1  0.000121  0.500085  0.333406  1
  In  In9  1  0.499999  0.000386  0.500001  1
  In  In10  1  0.999881  0.500085  0.666594  1
  In  In11  1  0.500607  0.998650  0.832728  1
  Ir  Ir12  1  0.500001  0.248540  0.000000  1
  Rh  Rh13  1  0.500001  0.751050  0.000000  1
  Rh  Rh14  1  0.998715  0.251223  0.167014  1
  Rh  Rh15  1  0.999993  0.748648  0.167085  1
  Rh  Rh16  1  0.499683  0.248794  0.333261  1
  Rh  Rh17  1  0.500643  0.751448  0.333607  1
  Rh  Rh18  1  0.000000  0.251434  0.500001  1
  Rh  Rh19  1  0.000000  0.748761  0.500001  1
  Rh  Rh20  1  0.500317  0.248794  0.666738  1
  Rh  Rh21  1  0.499357  0.751448  0.666392  1
  Rh  Rh22  1  0.001285  0.251223  0.832986  1
  Rh  Rh23  1  0.000007  0.748648  0.832915  1
