# generated using pymatgen
data_Ca3Be8Ge(PO4)8
_symmetry_space_group_name_H-M   'P 1'
_cell_length_a   8.41053965
_cell_length_b   8.84553509
_cell_length_c   7.86460700
_cell_angle_alpha   90.08441308
_cell_angle_beta   89.54891370
_cell_angle_gamma   90.01973983
_symmetry_Int_Tables_number   1
_chemical_formula_structural   Ca3Be8Ge(PO4)8
_chemical_formula_sum   'Ca3 Be8 Ge1 P8 O32'
_cell_volume   585.07432866
_cell_formula_units_Z   1
loop_
 _symmetry_equiv_pos_site_id
 _symmetry_equiv_pos_as_xyz
  1  'x, y, z'
loop_
 _atom_site_type_symbol
 _atom_site_label
 _atom_site_symmetry_multiplicity
 _atom_site_fract_x
 _atom_site_fract_y
 _atom_site_fract_z
 _atom_site_occupancy
  Ca  Ca0  1  0.113599  0.585371  0.244890  1
  Ca  Ca1  1  0.886099  0.413789  0.755682  1
  Ca  Ca2  1  0.388954  0.086116  0.755812  1
  Be  Be3  1  0.732003  0.579082  0.069970  1
  Be  Be4  1  0.230694  0.921510  0.069061  1
  Be  Be5  1  0.555664  0.304317  0.429346  1
  Be  Be6  1  0.055984  0.194905  0.429511  1
  Be  Be7  1  0.443865  0.695503  0.571059  1
  Be  Be8  1  0.944707  0.805285  0.570587  1
  Be  Be9  1  0.768348  0.079318  0.930586  1
  Be  Be10  1  0.268413  0.421099  0.930567  1
  Ge  Ge11  1  0.608430  0.904252  0.240288  1
  P  P12  1  0.558462  0.302052  0.061366  1
  P  P13  1  0.059348  0.198505  0.061500  1
  P  P14  1  0.237514  0.916977  0.439850  1
  P  P15  1  0.737278  0.582658  0.438567  1
  P  P16  1  0.763303  0.082360  0.560267  1
  P  P17  1  0.263449  0.417668  0.561415  1
  P  P18  1  0.439644  0.699360  0.938376  1
  P  P19  1  0.941044  0.801539  0.938597  1
  O  O20  1  0.809327  0.912496  0.001433  1
  O  O21  1  0.310529  0.587880  0.004526  1
  O  O22  1  0.623815  0.137247  0.054102  1
  O  O23  1  0.124201  0.364085  0.056461  1
  O  O24  1  0.079716  0.807263  0.067785  1
  O  O25  1  0.579554  0.695461  0.069145  1
  O  O26  1  0.003496  0.156778  0.239907  1
  O  O27  1  0.502254  0.343939  0.239981  1
  O  O28  1  0.813919  0.578934  0.257943  1
  O  O29  1  0.314637  0.917843  0.258017  1
  O  O30  1  0.595257  0.694517  0.435275  1
  O  O31  1  0.096455  0.805580  0.436481  1
  O  O32  1  0.629287  0.133493  0.438528  1
  O  O33  1  0.129609  0.367532  0.437955  1
  O  O34  1  0.814979  0.925288  0.497475  1
  O  O35  1  0.313791  0.574632  0.495688  1
  O  O36  1  0.685841  0.426623  0.505184  1
  O  O37  1  0.187887  0.074434  0.504038  1
  O  O38  1  0.370360  0.866771  0.563888  1
  O  O39  1  0.870801  0.632956  0.561899  1
  O  O40  1  0.404326  0.306217  0.564091  1
  O  O41  1  0.904479  0.194432  0.562954  1
  O  O42  1  0.186037  0.421481  0.742028  1
  O  O43  1  0.686586  0.080174  0.741504  1
  O  O44  1  0.999191  0.842258  0.760475  1
  O  O45  1  0.498816  0.656887  0.761087  1
  O  O46  1  0.920012  0.193156  0.933183  1
  O  O47  1  0.419109  0.307903  0.933005  1
  O  O48  1  0.374325  0.863883  0.942384  1
  O  O49  1  0.875311  0.636411  0.943773  1
  O  O50  1  0.190540  0.087829  0.996358  1
  O  O51  1  0.688756  0.413951  0.996159  1
