# generated using pymatgen
data_Tm3ThCdRu
_symmetry_space_group_name_H-M   'P 1'
_cell_length_a   9.60356503
_cell_length_b   9.60356461
_cell_length_c   9.60356500
_cell_angle_alpha   59.99999522
_cell_angle_beta   59.99999665
_cell_angle_gamma   59.99999236
_symmetry_Int_Tables_number   1
_chemical_formula_structural   Tm3ThCdRu
_chemical_formula_sum   'Tm12 Th4 Cd4 Ru4'
_cell_volume   626.29994646
_cell_formula_units_Z   4
loop_
 _symmetry_equiv_pos_site_id
 _symmetry_equiv_pos_as_xyz
  1  'x, y, z'
loop_
 _atom_site_type_symbol
 _atom_site_label
 _atom_site_symmetry_multiplicity
 _atom_site_fract_x
 _atom_site_fract_y
 _atom_site_fract_z
 _atom_site_occupancy
  Tm  Tm0  1  0.564539  0.564539  0.935461  1
  Tm  Tm1  1  0.935461  0.564539  0.935461  1
  Tm  Tm2  1  0.564539  0.935461  0.935461  1
  Tm  Tm3  1  0.935461  0.935461  0.564539  1
  Tm  Tm4  1  0.564539  0.935461  0.564539  1
  Tm  Tm5  1  0.935461  0.564539  0.564539  1
  Tm  Tm6  1  0.187268  0.187268  0.812732  1
  Tm  Tm7  1  0.812732  0.187268  0.812732  1
  Tm  Tm8  1  0.187267  0.812733  0.812732  1
  Tm  Tm9  1  0.812732  0.812733  0.187268  1
  Tm  Tm10  1  0.187267  0.812732  0.187267  1
  Tm  Tm11  1  0.812732  0.187268  0.187268  1
  Th  Th12  1  0.348578  0.348578  0.954268  1
  Th  Th13  1  0.348578  0.954268  0.348578  1
  Th  Th14  1  0.954268  0.348578  0.348578  1
  Th  Th15  1  0.348578  0.348578  0.348578  1
  Cd  Cd16  1  0.581934  0.581934  0.254196  1
  Cd  Cd17  1  0.581934  0.254196  0.581934  1
  Cd  Cd18  1  0.254196  0.581934  0.581934  1
  Cd  Cd19  1  0.581934  0.581934  0.581934  1
  Ru  Ru20  1  0.142701  0.142701  0.571898  1
  Ru  Ru21  1  0.142701  0.571898  0.142701  1
  Ru  Ru22  1  0.571898  0.142701  0.142701  1
  Ru  Ru23  1  0.142701  0.142701  0.142701  1
