# generated using pymatgen
data_Pr16MgCd3OsPt3
_symmetry_space_group_name_H-M   'P 1'
_cell_length_a   10.12122310
_cell_length_b   10.12122233
_cell_length_c   10.12122200
_cell_angle_alpha   59.74288971
_cell_angle_beta   59.74288880
_cell_angle_gamma   59.74289118
_symmetry_Int_Tables_number   1
_chemical_formula_structural   Pr16MgCd3OsPt3
_chemical_formula_sum   'Pr16 Mg1 Cd3 Os1 Pt3'
_cell_volume   728.85439389
_cell_formula_units_Z   1
loop_
 _symmetry_equiv_pos_site_id
 _symmetry_equiv_pos_as_xyz
  1  'x, y, z'
loop_
 _atom_site_type_symbol
 _atom_site_label
 _atom_site_symmetry_multiplicity
 _atom_site_fract_x
 _atom_site_fract_y
 _atom_site_fract_z
 _atom_site_occupancy
  Pr  Pr0  1  0.351203  0.351203  0.351203  1
  Pr  Pr1  1  0.347002  0.347002  0.953924  1
  Pr  Pr2  1  0.347002  0.953924  0.347002  1
  Pr  Pr3  1  0.953924  0.347002  0.347002  1
  Pr  Pr4  1  0.815433  0.189422  0.189422  1
  Pr  Pr5  1  0.187797  0.809131  0.809131  1
  Pr  Pr6  1  0.189422  0.815433  0.189422  1
  Pr  Pr7  1  0.809131  0.187797  0.809131  1
  Pr  Pr8  1  0.189422  0.189422  0.815433  1
  Pr  Pr9  1  0.809131  0.809131  0.187797  1
  Pr  Pr10  1  0.938166  0.563952  0.563952  1
  Pr  Pr11  1  0.556535  0.938418  0.938418  1
  Pr  Pr12  1  0.563952  0.938166  0.563952  1
  Pr  Pr13  1  0.938418  0.556535  0.938418  1
  Pr  Pr14  1  0.563952  0.563952  0.938166  1
  Pr  Pr15  1  0.938418  0.938418  0.556535  1
  Mg  Mg16  1  0.575498  0.575498  0.575498  1
  Cd  Cd17  1  0.580736  0.580736  0.258182  1
  Cd  Cd18  1  0.580736  0.258182  0.580736  1
  Cd  Cd19  1  0.258182  0.580736  0.580736  1
  Os  Os20  1  0.142815  0.142815  0.142815  1
  Pt  Pt21  1  0.145120  0.145120  0.572885  1
  Pt  Pt22  1  0.145120  0.572885  0.145120  1
  Pt  Pt23  1  0.572885  0.145120  0.145120  1
