# generated using pymatgen
data_NaLa5Se8
_symmetry_space_group_name_H-M   'P 1'
_cell_length_a   7.88248398
_cell_length_b   7.88248381
_cell_length_c   7.88248349
_cell_angle_alpha   109.50404073
_cell_angle_beta   109.50403761
_cell_angle_gamma   109.40559920
_symmetry_Int_Tables_number   1
_chemical_formula_structural   NaLa5Se8
_chemical_formula_sum   'Na1 La5 Se8'
_cell_volume   377.02223066
_cell_formula_units_Z   1
loop_
 _symmetry_equiv_pos_site_id
 _symmetry_equiv_pos_as_xyz
  1  'x, y, z'
loop_
 _atom_site_type_symbol
 _atom_site_label
 _atom_site_symmetry_multiplicity
 _atom_site_fract_x
 _atom_site_fract_y
 _atom_site_fract_z
 _atom_site_occupancy
  Na  Na0  1  0.000000  0.000000  0.000000  1
  La  La1  1  0.622621  0.499903  0.382049  1
  La  La2  1  0.500097  0.882147  0.122719  1
  La  La3  1  0.117853  0.240572  0.617951  1
  La  La4  1  0.250000  0.750000  0.500000  1
  La  La5  1  0.759428  0.377379  0.877281  1
  Se  Se6  1  0.721070  0.974034  0.599809  1
  Se  Se7  1  0.234604  0.490078  0.103654  1
  Se  Se8  1  0.025966  0.625775  0.747036  1
  Se  Se9  1  0.386424  0.130949  0.896346  1
  Se  Se10  1  0.869051  0.765396  0.255475  1
  Se  Se11  1  0.509922  0.613576  0.744525  1
  Se  Se12  1  0.878739  0.278930  0.252964  1
  Se  Se13  1  0.374225  0.121261  0.400191  1
