# generated using pymatgen
data_LiGd6(YPt3)2
_symmetry_space_group_name_H-M   'P 1'
_cell_length_a   7.57788743
_cell_length_b   7.57788719
_cell_length_c   7.57788800
_cell_angle_alpha   70.02676780
_cell_angle_beta   70.02676846
_cell_angle_gamma   70.02676459
_symmetry_Int_Tables_number   1
_chemical_formula_structural   LiGd6(YPt3)2
_chemical_formula_sum   'Li1 Gd6 Y2 Pt6'
_cell_volume   371.71470101
_cell_formula_units_Z   1
loop_
 _symmetry_equiv_pos_site_id
 _symmetry_equiv_pos_as_xyz
  1  'x, y, z'
loop_
 _atom_site_type_symbol
 _atom_site_label
 _atom_site_symmetry_multiplicity
 _atom_site_fract_x
 _atom_site_fract_y
 _atom_site_fract_z
 _atom_site_occupancy
  Li  Li0  1  0.000000  0.000000  0.000000  1
  Gd  Gd1  1  0.322295  0.608747  0.857083  1
  Gd  Gd2  1  0.857083  0.322295  0.608747  1
  Gd  Gd3  1  0.608747  0.857083  0.322295  1
  Gd  Gd4  1  0.677705  0.391253  0.142917  1
  Gd  Gd5  1  0.142917  0.677705  0.391253  1
  Gd  Gd6  1  0.391253  0.142917  0.677705  1
  Y  Y7  1  0.816018  0.816018  0.816018  1
  Y  Y8  1  0.183982  0.183982  0.183982  1
  Pt  Pt9  1  0.182104  0.951082  0.574827  1
  Pt  Pt10  1  0.574827  0.182104  0.951082  1
  Pt  Pt11  1  0.951082  0.574827  0.182104  1
  Pt  Pt12  1  0.817896  0.048918  0.425173  1
  Pt  Pt13  1  0.425173  0.817896  0.048918  1
  Pt  Pt14  1  0.048918  0.425173  0.817896  1
