# generated using pymatgen
data_Zr4In2CoCu3
_symmetry_space_group_name_H-M   'P 1'
_cell_length_a   7.23307698
_cell_length_b   7.23307686
_cell_length_c   6.87484401
_cell_angle_alpha   90.08704172
_cell_angle_beta   90.08704544
_cell_angle_gamma   90.68139415
_symmetry_Int_Tables_number   1
_chemical_formula_structural   Zr4In2CoCu3
_chemical_formula_sum   'Zr8 In4 Co2 Cu6'
_cell_volume   359.64770096
_cell_formula_units_Z   2
loop_
 _symmetry_equiv_pos_site_id
 _symmetry_equiv_pos_as_xyz
  1  'x, y, z'
loop_
 _atom_site_type_symbol
 _atom_site_label
 _atom_site_symmetry_multiplicity
 _atom_site_fract_x
 _atom_site_fract_y
 _atom_site_fract_z
 _atom_site_occupancy
  Zr  Zr0  1  0.157163  0.157163  0.010465  1
  Zr  Zr1  1  0.842837  0.842837  0.989535  1
  Zr  Zr2  1  0.649819  0.350181  0.500000  1
  Zr  Zr3  1  0.350181  0.649819  0.500000  1
  Zr  Zr4  1  0.678076  0.321924  0.000000  1
  Zr  Zr5  1  0.321924  0.678076  0.000000  1
  Zr  Zr6  1  0.805095  0.805095  0.508634  1
  Zr  Zr7  1  0.194905  0.194905  0.491366  1
  In  In8  1  0.502171  0.003146  0.247663  1
  In  In9  1  0.497829  0.996854  0.752337  1
  In  In10  1  0.003146  0.502171  0.247663  1
  In  In11  1  0.996854  0.497829  0.752337  1
  Co  Co12  1  0.376947  0.376947  0.226200  1
  Co  Co13  1  0.623053  0.623053  0.773800  1
  Cu  Cu14  1  0.628165  0.628165  0.208720  1
  Cu  Cu15  1  0.878522  0.125287  0.708899  1
  Cu  Cu16  1  0.874713  0.121478  0.291101  1
  Cu  Cu17  1  0.371835  0.371835  0.791280  1
  Cu  Cu18  1  0.121478  0.874713  0.291101  1
  Cu  Cu19  1  0.125287  0.878522  0.708899  1
