# generated using pymatgen
data_Eu4MgPb3
_symmetry_space_group_name_H-M   'P 1'
_cell_length_a   9.52791353
_cell_length_b   9.52791449
_cell_length_c   9.52791500
_cell_angle_alpha   96.56065675
_cell_angle_beta   96.56064392
_cell_angle_gamma   140.48792324
_symmetry_Int_Tables_number   1
_chemical_formula_structural   Eu4MgPb3
_chemical_formula_sum   'Eu8 Mg2 Pb6'
_cell_volume   517.92804376
_cell_formula_units_Z   2
loop_
 _symmetry_equiv_pos_site_id
 _symmetry_equiv_pos_as_xyz
  1  'x, y, z'
loop_
 _atom_site_type_symbol
 _atom_site_label
 _atom_site_symmetry_multiplicity
 _atom_site_fract_x
 _atom_site_fract_y
 _atom_site_fract_z
 _atom_site_occupancy
  Eu  Eu0  1  0.084035  0.219430  0.303463  1
  Eu  Eu1  1  0.915965  0.780570  0.696537  1
  Eu  Eu2  1  0.780570  0.084035  0.864604  1
  Eu  Eu3  1  0.415965  0.719430  0.135396  1
  Eu  Eu4  1  0.219430  0.915965  0.135396  1
  Eu  Eu5  1  0.584035  0.280570  0.864604  1
  Eu  Eu6  1  0.719430  0.584035  0.303463  1
  Eu  Eu7  1  0.280570  0.415965  0.696537  1
  Mg  Mg8  1  0.250000  0.750000  0.500000  1
  Mg  Mg9  1  0.750000  0.250000  0.500000  1
  Pb  Pb10  1  0.151170  0.651170  0.802339  1
  Pb  Pb11  1  0.848830  0.348830  0.197661  1
  Pb  Pb12  1  0.348830  0.151170  0.500000  1
  Pb  Pb13  1  0.651170  0.848830  0.500000  1
  Pb  Pb14  1  0.250000  0.250000  0.000000  1
  Pb  Pb15  1  0.750000  0.750000  0.000000  1
