# generated using pymatgen
data_CeNd4URu6
_symmetry_space_group_name_H-M   'P 1'
_cell_length_a   5.31581602
_cell_length_b   5.31581853
_cell_length_c   9.55288400
_cell_angle_alpha   90.00000000
_cell_angle_beta   90.00000000
_cell_angle_gamma   112.06480271
_symmetry_Int_Tables_number   1
_chemical_formula_structural   CeNd4URu6
_chemical_formula_sum   'Ce1 Nd4 U1 Ru6'
_cell_volume   250.17371250
_cell_formula_units_Z   1
loop_
 _symmetry_equiv_pos_site_id
 _symmetry_equiv_pos_as_xyz
  1  'x, y, z'
loop_
 _atom_site_type_symbol
 _atom_site_label
 _atom_site_symmetry_multiplicity
 _atom_site_fract_x
 _atom_site_fract_y
 _atom_site_fract_z
 _atom_site_occupancy
  Ce  Ce0  1  0.156788  0.843212  0.750000  1
  Nd  Nd1  1  0.338910  0.661090  0.433915  1
  Nd  Nd2  1  0.660759  0.339241  0.565177  1
  Nd  Nd3  1  0.660759  0.339241  0.934823  1
  Nd  Nd4  1  0.338910  0.661090  0.066085  1
  U  U5  1  0.851855  0.148145  0.250000  1
  Ru  Ru6  1  0.987788  0.012212  0.487840  1
  Ru  Ru7  1  0.987788  0.012212  0.012160  1
  Ru  Ru8  1  0.845989  0.638772  0.250000  1
  Ru  Ru9  1  0.361228  0.154011  0.250000  1
  Ru  Ru10  1  0.154582  0.345357  0.750000  1
  Ru  Ru11  1  0.654643  0.845418  0.750000  1
