# generated using pymatgen
data_TaV(RhS4)2
_symmetry_space_group_name_H-M   'P 1'
_cell_length_a   3.38227300
_cell_length_b   11.34091100
_cell_length_c   12.21752700
_cell_angle_alpha   90.00000000
_cell_angle_beta   90.00000000
_cell_angle_gamma   90.00000000
_symmetry_Int_Tables_number   1
_chemical_formula_structural   TaV(RhS4)2
_chemical_formula_sum   'Ta2 V2 Rh4 S16'
_cell_volume   468.64059793
_cell_formula_units_Z   2
loop_
 _symmetry_equiv_pos_site_id
 _symmetry_equiv_pos_as_xyz
  1  'x, y, z'
loop_
 _atom_site_type_symbol
 _atom_site_label
 _atom_site_symmetry_multiplicity
 _atom_site_fract_x
 _atom_site_fract_y
 _atom_site_fract_z
 _atom_site_occupancy
  Ta  Ta0  1  0.500000  0.741888  0.994936  1
  Ta  Ta1  1  0.000000  0.258112  0.494936  1
  V  V2  1  0.500000  0.952956  0.499464  1
  V  V3  1  0.000000  0.047044  0.999464  1
  Rh  Rh4  1  0.500000  0.471852  0.498080  1
  Rh  Rh5  1  0.000000  0.528148  0.998080  1
  Rh  Rh6  1  0.500000  0.250774  0.995300  1
  Rh  Rh7  1  0.000000  0.749226  0.495300  1
  S  S8  1  0.500000  0.942461  0.897416  1
  S  S9  1  0.000000  0.057539  0.397416  1
  S  S10  1  0.500000  0.816411  0.370525  1
  S  S11  1  0.000000  0.183589  0.870525  1
  S  S12  1  0.500000  0.652206  0.596375  1
  S  S13  1  0.000000  0.347794  0.096375  1
  S  S14  1  0.500000  0.592439  0.127767  1
  S  S15  1  0.000000  0.407561  0.627767  1
  S  S16  1  0.500000  0.433408  0.895507  1
  S  S17  1  0.000000  0.566592  0.395507  1
  S  S18  1  0.500000  0.316780  0.361729  1
  S  S19  1  0.000000  0.683220  0.861729  1
  S  S20  1  0.500000  0.147106  0.601667  1
  S  S21  1  0.000000  0.852894  0.101667  1
  S  S22  1  0.500000  0.097081  0.125232  1
  S  S23  1  0.000000  0.902919  0.625232  1
