# generated using pymatgen
data_CsKPu2(CuSe3)2
_symmetry_space_group_name_H-M   'P 1'
_cell_length_a   7.96459106
_cell_length_b   7.96459127
_cell_length_c   10.67631700
_cell_angle_alpha   90.00000000
_cell_angle_beta   90.00000000
_cell_angle_gamma   149.47116804
_symmetry_Int_Tables_number   1
_chemical_formula_structural   CsKPu2(CuSe3)2
_chemical_formula_sum   'Cs1 K1 Pu2 Cu2 Se6'
_cell_volume   344.02349845
_cell_formula_units_Z   1
loop_
 _symmetry_equiv_pos_site_id
 _symmetry_equiv_pos_as_xyz
  1  'x, y, z'
loop_
 _atom_site_type_symbol
 _atom_site_label
 _atom_site_symmetry_multiplicity
 _atom_site_fract_x
 _atom_site_fract_y
 _atom_site_fract_z
 _atom_site_occupancy
  Cs  Cs0  1  0.256138  0.743862  0.750000  1
  K  K1  1  0.745628  0.254372  0.250000  1
  Pu  Pu2  1  0.998507  0.001493  0.497930  1
  Pu  Pu3  1  0.998507  0.001493  0.002070  1
  Cu  Cu4  1  0.532849  0.467151  0.750000  1
  Cu  Cu5  1  0.470587  0.529413  0.250000  1
  Se  Se6  1  0.615856  0.384144  0.555991  1
  Se  Se7  1  0.380051  0.619949  0.436181  1
  Se  Se8  1  0.063889  0.936111  0.250000  1
  Se  Se9  1  0.942079  0.057921  0.750000  1
  Se  Se10  1  0.615856  0.384144  0.944009  1
  Se  Se11  1  0.380051  0.619949  0.063819  1
