# generated using pymatgen
data_NdY5ScCo17P12
_symmetry_space_group_name_H-M   'P 1'
_cell_length_a   3.72002700
_cell_length_b   10.60625000
_cell_length_c   12.30389700
_cell_angle_alpha   90.00000000
_cell_angle_beta   90.00000000
_cell_angle_gamma   90.00000000
_symmetry_Int_Tables_number   1
_chemical_formula_structural   NdY5ScCo17P12
_chemical_formula_sum   'Nd1 Y5 Sc1 Co17 P12'
_cell_volume   485.45685556
_cell_formula_units_Z   1
loop_
 _symmetry_equiv_pos_site_id
 _symmetry_equiv_pos_as_xyz
  1  'x, y, z'
loop_
 _atom_site_type_symbol
 _atom_site_label
 _atom_site_symmetry_multiplicity
 _atom_site_fract_x
 _atom_site_fract_y
 _atom_site_fract_z
 _atom_site_occupancy
  Nd  Nd0  1  0.500000  0.000000  0.477017  1
  Y  Y1  1  0.000000  0.500000  0.527539  1
  Y  Y2  1  0.500000  0.820770  0.206566  1
  Y  Y3  1  0.500000  0.179230  0.206566  1
  Y  Y4  1  0.000000  0.682431  0.795772  1
  Y  Y5  1  0.000000  0.317569  0.795772  1
  Sc  Sc6  1  0.500000  0.500000  0.152381  1
  Co  Co7  1  0.000000  0.000000  0.838873  1
  Co  Co8  1  0.500000  0.500000  0.703998  1
  Co  Co9  1  0.000000  0.000000  0.293062  1
  Co  Co10  1  0.000000  0.500000  0.984528  1
  Co  Co11  1  0.500000  0.000000  0.012640  1
  Co  Co12  1  0.500000  0.326784  0.989892  1
  Co  Co13  1  0.500000  0.673216  0.989892  1
  Co  Co14  1  0.000000  0.162304  0.001421  1
  Co  Co15  1  0.000000  0.837696  0.001421  1
  Co  Co16  1  0.500000  0.296670  0.433869  1
  Co  Co17  1  0.500000  0.703330  0.433869  1
  Co  Co18  1  0.000000  0.204661  0.571327  1
  Co  Co19  1  0.000000  0.795339  0.571327  1
  Co  Co20  1  0.500000  0.880167  0.709411  1
  Co  Co21  1  0.500000  0.119833  0.709411  1
  Co  Co22  1  0.000000  0.621385  0.295943  1
  Co  Co23  1  0.000000  0.378615  0.295943  1
  P  P24  1  0.500000  0.500000  0.883408  1
  P  P25  1  0.000000  0.000000  0.114844  1
  P  P26  1  0.500000  0.500000  0.357453  1
  P  P27  1  0.000000  0.000000  0.658694  1
  P  P28  1  0.500000  0.309120  0.618028  1
  P  P29  1  0.500000  0.690880  0.618028  1
  P  P30  1  0.000000  0.192685  0.385282  1
  P  P31  1  0.000000  0.807315  0.385282  1
  P  P32  1  0.500000  0.851457  0.889686  1
  P  P33  1  0.500000  0.148543  0.889686  1
  P  P34  1  0.000000  0.662997  0.100583  1
  P  P35  1  0.000000  0.337003  0.100583  1
