# generated using pymatgen
data_LaYb3(W2C3)2
_symmetry_space_group_name_H-M   'P 1'
_cell_length_a   6.64198800
_cell_length_b   5.95321646
_cell_length_c   11.91942727
_cell_angle_alpha   67.16939514
_cell_angle_beta   90.00000000
_cell_angle_gamma   90.00000000
_symmetry_Int_Tables_number   1
_chemical_formula_structural   LaYb3(W2C3)2
_chemical_formula_sum   'La2 Yb6 W8 C12'
_cell_volume   434.38419601
_cell_formula_units_Z   2
loop_
 _symmetry_equiv_pos_site_id
 _symmetry_equiv_pos_as_xyz
  1  'x, y, z'
loop_
 _atom_site_type_symbol
 _atom_site_label
 _atom_site_symmetry_multiplicity
 _atom_site_fract_x
 _atom_site_fract_y
 _atom_site_fract_z
 _atom_site_occupancy
  La  La0  1  0.000580  0.277461  0.366552  1
  La  La1  1  0.500580  0.722539  0.133448  1
  Yb  Yb2  1  0.794304  0.667436  0.901041  1
  Yb  Yb3  1  0.294304  0.332564  0.598959  1
  Yb  Yb4  1  0.204072  0.311365  0.087647  1
  Yb  Yb5  1  0.704072  0.688635  0.412353  1
  Yb  Yb6  1  0.990826  0.730731  0.634592  1
  Yb  Yb7  1  0.490826  0.269269  0.865408  1
  W  W8  1  0.991857  0.827945  0.117788  1
  W  W9  1  0.491857  0.172055  0.382212  1
  W  W10  1  0.007670  0.179753  0.872758  1
  W  W11  1  0.507670  0.820247  0.627242  1
  W  W12  1  0.761110  0.182815  0.660001  1
  W  W13  1  0.238199  0.816334  0.341944  1
  W  W14  1  0.738199  0.183666  0.158056  1
  W  W15  1  0.261110  0.817185  0.839999  1
  C  C16  1  0.639586  0.506779  0.653503  1
  C  C17  1  0.139586  0.493221  0.846497  1
  C  C18  1  0.367723  0.488876  0.361560  1
  C  C19  1  0.867723  0.511124  0.138440  1
  C  C20  1  0.215892  0.931838  0.984098  1
  C  C21  1  0.715892  0.068162  0.515902  1
  C  C22  1  0.791619  0.103896  0.006342  1
  C  C23  1  0.291619  0.896104  0.493658  1
  C  C24  1  0.472823  0.036314  0.243607  1
  C  C25  1  0.023738  0.026545  0.741161  1
  C  C26  1  0.972823  0.963686  0.256393  1
  C  C27  1  0.523738  0.973455  0.758839  1
