# generated using pymatgen
data_Ho8Sc2Si5Rh
_symmetry_space_group_name_H-M   'P 1'
_cell_length_a   11.04024800
_cell_length_b   11.04024800
_cell_length_c   6.06342100
_cell_angle_alpha   90.00000000
_cell_angle_beta   90.00000000
_cell_angle_gamma   90.00000000
_symmetry_Int_Tables_number   1
_chemical_formula_structural   Ho8Sc2Si5Rh
_chemical_formula_sum   'Ho16 Sc4 Si10 Rh2'
_cell_volume   739.05265565
_cell_formula_units_Z   2
loop_
 _symmetry_equiv_pos_site_id
 _symmetry_equiv_pos_as_xyz
  1  'x, y, z'
loop_
 _atom_site_type_symbol
 _atom_site_label
 _atom_site_symmetry_multiplicity
 _atom_site_fract_x
 _atom_site_fract_y
 _atom_site_fract_z
 _atom_site_occupancy
  Ho  Ho0  1  0.284701  0.086995  0.340855  1
  Ho  Ho1  1  0.284701  0.913005  0.840855  1
  Ho  Ho2  1  0.715299  0.086995  0.840855  1
  Ho  Ho3  1  0.715299  0.913005  0.340855  1
  Ho  Ho4  1  0.586995  0.784701  0.840855  1
  Ho  Ho5  1  0.586995  0.215299  0.340855  1
  Ho  Ho6  1  0.413005  0.784701  0.340855  1
  Ho  Ho7  1  0.413005  0.215299  0.840855  1
  Ho  Ho8  1  0.209594  0.417791  0.648904  1
  Ho  Ho9  1  0.209594  0.582209  0.148904  1
  Ho  Ho10  1  0.790406  0.417791  0.148904  1
  Ho  Ho11  1  0.790406  0.582209  0.648904  1
  Ho  Ho12  1  0.917791  0.709594  0.148904  1
  Ho  Ho13  1  0.917791  0.290406  0.648904  1
  Ho  Ho14  1  0.082209  0.709594  0.648904  1
  Ho  Ho15  1  0.082209  0.290406  0.148904  1
  Sc  Sc16  1  0.000000  0.000000  0.510611  1
  Sc  Sc17  1  0.000000  0.000000  0.010611  1
  Sc  Sc18  1  0.500000  0.500000  0.010611  1
  Sc  Sc19  1  0.500000  0.500000  0.510611  1
  Si  Si20  1  0.842963  0.148446  0.257931  1
  Si  Si21  1  0.842963  0.851554  0.757931  1
  Si  Si22  1  0.157037  0.148446  0.757931  1
  Si  Si23  1  0.157037  0.851554  0.257931  1
  Si  Si24  1  0.648446  0.342963  0.757931  1
  Si  Si25  1  0.648446  0.657037  0.257931  1
  Si  Si26  1  0.351554  0.342963  0.257931  1
  Si  Si27  1  0.351554  0.657037  0.757931  1
  Si  Si28  1  0.500000  0.000000  0.083736  1
  Si  Si29  1  0.500000  0.000000  0.583736  1
  Rh  Rh30  1  0.000000  0.500000  0.904281  1
  Rh  Rh31  1  0.000000  0.500000  0.404281  1
