# generated using pymatgen
data_MgZr10Bi5Se
_symmetry_space_group_name_H-M   'P 1'
_cell_length_a   5.93911026
_cell_length_b   8.75310519
_cell_length_c   8.73197000
_cell_angle_alpha   119.92014287
_cell_angle_beta   90.10115094
_cell_angle_gamma   89.94931759
_symmetry_Int_Tables_number   1
_chemical_formula_structural   MgZr10Bi5Se
_chemical_formula_sum   'Mg1 Zr10 Bi5 Se1'
_cell_volume   393.43649011
_cell_formula_units_Z   1
loop_
 _symmetry_equiv_pos_site_id
 _symmetry_equiv_pos_as_xyz
  1  'x, y, z'
loop_
 _atom_site_type_symbol
 _atom_site_label
 _atom_site_symmetry_multiplicity
 _atom_site_fract_x
 _atom_site_fract_y
 _atom_site_fract_z
 _atom_site_occupancy
  Mg  Mg0  1  0.256592  0.000000  0.397502  1
  Zr  Zr1  1  0.498026  0.336710  0.668641  1
  Zr  Zr2  1  0.498027  0.663290  0.331931  1
  Zr  Zr3  1  0.004128  0.665754  0.332401  1
  Zr  Zr4  1  0.004128  0.334248  0.666648  1
  Zr  Zr5  1  0.767405  0.250315  0.996802  1
  Zr  Zr6  1  0.767407  0.749684  0.746488  1
  Zr  Zr7  1  0.784082  0.000000  0.245279  1
  Zr  Zr8  1  0.226964  0.751582  0.009467  1
  Zr  Zr9  1  0.226965  0.248420  0.257886  1
  Zr  Zr10  1  0.229916  0.000001  0.744707  1
  Bi  Bi11  1  0.745255  0.608574  0.000762  1
  Bi  Bi12  1  0.745255  0.391426  0.392187  1
  Bi  Bi13  1  0.746675  0.000000  0.595253  1
  Bi  Bi14  1  0.251222  0.388224  0.000762  1
  Bi  Bi15  1  0.251225  0.611778  0.612539  1
  Se  Se16  1  0.496725  0.000000  0.000744  1
