# generated using pymatgen
data_Sr2Mn3Ni9As7
_symmetry_space_group_name_H-M   'P 1'
_cell_length_a   9.56999700
_cell_length_b   9.56999680
_cell_length_c   3.90878600
_cell_angle_alpha   90.00000000
_cell_angle_beta   90.00000000
_cell_angle_gamma   120.00000414
_symmetry_Int_Tables_number   1
_chemical_formula_structural   Sr2Mn3Ni9As7
_chemical_formula_sum   'Sr2 Mn3 Ni9 As7'
_cell_volume   310.02456160
_cell_formula_units_Z   1
loop_
 _symmetry_equiv_pos_site_id
 _symmetry_equiv_pos_as_xyz
  1  'x, y, z'
loop_
 _atom_site_type_symbol
 _atom_site_label
 _atom_site_symmetry_multiplicity
 _atom_site_fract_x
 _atom_site_fract_y
 _atom_site_fract_z
 _atom_site_occupancy
  Sr  Sr0  1  0.333333  0.666667  0.000000  1
  Sr  Sr1  1  0.666667  0.333333  0.500000  1
  Mn  Mn2  1  0.214380  0.112201  0.500000  1
  Mn  Mn3  1  0.887799  0.102180  0.500000  1
  Mn  Mn4  1  0.897820  0.785620  0.500000  1
  Ni  Ni5  1  0.126959  0.277239  0.000000  1
  Ni  Ni6  1  0.722761  0.849720  0.000000  1
  Ni  Ni7  1  0.150280  0.873041  0.000000  1
  Ni  Ni8  1  0.426935  0.368201  0.000000  1
  Ni  Ni9  1  0.631799  0.058734  0.000000  1
  Ni  Ni10  1  0.941266  0.573065  0.000000  1
  Ni  Ni11  1  0.049343  0.424183  0.500000  1
  Ni  Ni12  1  0.575817  0.625160  0.500000  1
  Ni  Ni13  1  0.374840  0.950657  0.500000  1
  As  As14  1  0.298050  0.402565  0.500000  1
  As  As15  1  0.597435  0.895485  0.500000  1
  As  As16  1  0.104515  0.701950  0.500000  1
  As  As17  1  0.406639  0.106073  0.000000  1
  As  As18  1  0.893927  0.300567  0.000000  1
  As  As19  1  0.699433  0.593361  0.000000  1
  As  As20  1  0.000000  0.000000  0.000000  1
