# generated using pymatgen
data_EuCo2Sb12OsRu
_symmetry_space_group_name_H-M   'P 1'
_cell_length_a   8.08730972
_cell_length_b   8.05559280
_cell_length_c   8.03005927
_cell_angle_alpha   109.13347437
_cell_angle_beta   109.36760851
_cell_angle_gamma   109.67378635
_symmetry_Int_Tables_number   1
_chemical_formula_structural   EuCo2Sb12OsRu
_chemical_formula_sum   'Eu1 Co2 Sb12 Os1 Ru1'
_cell_volume   403.89125748
_cell_formula_units_Z   1
loop_
 _symmetry_equiv_pos_site_id
 _symmetry_equiv_pos_as_xyz
  1  'x, y, z'
loop_
 _atom_site_type_symbol
 _atom_site_label
 _atom_site_symmetry_multiplicity
 _atom_site_fract_x
 _atom_site_fract_y
 _atom_site_fract_z
 _atom_site_occupancy
  Eu  Eu0  1  0.000000  0.000000  0.000000  1
  Co  Co1  1  0.500000  0.500000  0.500000  1
  Co  Co2  1  0.500000  0.000000  0.000000  1
  Sb  Sb3  1  0.657243  0.836111  0.502771  1
  Sb  Sb4  1  0.342757  0.163889  0.497229  1
  Sb  Sb5  1  0.835577  0.179056  0.332792  1
  Sb  Sb6  1  0.817183  0.658497  0.156976  1
  Sb  Sb7  1  0.835644  0.502477  0.657319  1
  Sb  Sb8  1  0.182817  0.341503  0.843024  1
  Sb  Sb9  1  0.164423  0.820944  0.667208  1
  Sb  Sb10  1  0.504156  0.664608  0.839547  1
  Sb  Sb11  1  0.495844  0.335392  0.160453  1
  Sb  Sb12  1  0.164356  0.497523  0.342681  1
  Sb  Sb13  1  0.341500  0.844622  0.178213  1
  Sb  Sb14  1  0.658500  0.155378  0.821787  1
  Os  Os15  1  0.000000  0.000000  0.500000  1
  Ru  Ru16  1  0.000000  0.500000  0.000000  1
