# generated using pymatgen
data_Tb5Y5(Bi2As)2
_symmetry_space_group_name_H-M   'P 1'
_cell_length_a   12.16143700
_cell_length_b   9.19183163
_cell_length_c   8.10943119
_cell_angle_alpha   89.89827600
_cell_angle_beta   90.00000000
_cell_angle_gamma   90.00000000
_symmetry_Int_Tables_number   1
_chemical_formula_structural   Tb5Y5(Bi2As)2
_chemical_formula_sum   'Tb10 Y10 Bi8 As4'
_cell_volume   906.51848332
_cell_formula_units_Z   2
loop_
 _symmetry_equiv_pos_site_id
 _symmetry_equiv_pos_as_xyz
  1  'x, y, z'
loop_
 _atom_site_type_symbol
 _atom_site_label
 _atom_site_symmetry_multiplicity
 _atom_site_fract_x
 _atom_site_fract_y
 _atom_site_fract_z
 _atom_site_occupancy
  Tb  Tb0  1  0.563599  0.054033  0.316581  1
  Tb  Tb1  1  0.063599  0.445967  0.183419  1
  Tb  Tb2  1  0.436348  0.554015  0.683489  1
  Tb  Tb3  1  0.936348  0.945985  0.816511  1
  Tb  Tb4  1  0.436364  0.945986  0.683344  1
  Tb  Tb5  1  0.936364  0.554014  0.816656  1
  Tb  Tb6  1  0.711186  0.250013  0.657351  1
  Tb  Tb7  1  0.211186  0.249987  0.842649  1
  Tb  Tb8  1  0.288746  0.750014  0.342726  1
  Tb  Tb9  1  0.788746  0.749986  0.157274  1
  Y  Y10  1  0.563605  0.446243  0.316793  1
  Y  Y11  1  0.063605  0.053757  0.183207  1
  Y  Y12  1  0.500402  0.249912  0.963859  1
  Y  Y13  1  0.000402  0.250088  0.536141  1
  Y  Y14  1  0.499587  0.749978  0.036188  1
  Y  Y15  1  0.999587  0.750022  0.463812  1
  Y  Y16  1  0.794682  0.249974  0.134988  1
  Y  Y17  1  0.294682  0.250026  0.365012  1
  Y  Y18  1  0.205313  0.750048  0.865033  1
  Y  Y19  1  0.705313  0.749952  0.634967  1
  Bi  Bi20  1  0.826835  0.009746  0.427323  1
  Bi  Bi21  1  0.326835  0.490254  0.072677  1
  Bi  Bi22  1  0.173215  0.509719  0.572726  1
  Bi  Bi23  1  0.673215  0.990281  0.927274  1
  Bi  Bi24  1  0.173186  0.990275  0.572695  1
  Bi  Bi25  1  0.673186  0.509725  0.927305  1
  Bi  Bi26  1  0.826757  0.490212  0.427278  1
  Bi  Bi27  1  0.326757  0.009788  0.072722  1
  As  As28  1  0.980672  0.249845  0.915131  1
  As  As29  1  0.480672  0.250155  0.584869  1
  As  As30  1  0.019504  0.750349  0.085088  1
  As  As31  1  0.519504  0.749651  0.414912  1
