# generated using pymatgen
data_Bi2RuRhO7
_symmetry_space_group_name_H-M   'P 1'
_cell_length_a   7.38722566
_cell_length_b   7.35320404
_cell_length_c   7.35320374
_cell_angle_alpha   59.79008953
_cell_angle_beta   59.84682950
_cell_angle_gamma   59.84683496
_symmetry_Int_Tables_number   1
_chemical_formula_structural   Bi2RuRhO7
_chemical_formula_sum   'Bi4 Ru2 Rh2 O14'
_cell_volume   281.33239270
_cell_formula_units_Z   2
loop_
 _symmetry_equiv_pos_site_id
 _symmetry_equiv_pos_as_xyz
  1  'x, y, z'
loop_
 _atom_site_type_symbol
 _atom_site_label
 _atom_site_symmetry_multiplicity
 _atom_site_fract_x
 _atom_site_fract_y
 _atom_site_fract_z
 _atom_site_occupancy
  Bi  Bi0  1  0.125000  0.125000  0.125000  1
  Bi  Bi1  1  0.125000  0.625000  0.125000  1
  Bi  Bi2  1  0.625000  0.125000  0.125000  1
  Bi  Bi3  1  0.125000  0.125000  0.625000  1
  Ru  Ru4  1  0.625000  0.625000  0.625000  1
  Ru  Ru5  1  0.125000  0.625000  0.625000  1
  Rh  Rh6  1  0.625000  0.625000  0.125000  1
  Rh  Rh7  1  0.625000  0.125000  0.625000  1
  O  O8  1  0.249970  0.250030  0.250030  1
  O  O9  1  0.292147  0.701554  0.297393  1
  O  O10  1  0.957853  0.952607  0.548446  1
  O  O11  1  0.541094  0.952607  0.548446  1
  O  O12  1  0.708906  0.701554  0.297393  1
  O  O13  1  0.950268  0.549732  0.549732  1
  O  O14  1  0.708906  0.297393  0.701554  1
  O  O15  1  0.292147  0.297393  0.701554  1
  O  O16  1  0.709957  0.290043  0.290043  1
  O  O17  1  0.299732  0.700268  0.700268  1
  O  O18  1  0.957853  0.548446  0.952607  1
  O  O19  1  0.541094  0.548446  0.952607  1
  O  O20  1  0.000030  0.999970  0.999970  1
  O  O21  1  0.540043  0.959957  0.959957  1
