# generated using pymatgen
data_Pr4TmTc3P12Ir11Ru5
_symmetry_space_group_name_H-M   'P 1'
_cell_length_a   12.71396500
_cell_length_b   12.68816851
_cell_length_c   4.01353700
_cell_angle_alpha   90.00000000
_cell_angle_beta   90.00000000
_cell_angle_gamma   120.02969315
_symmetry_Int_Tables_number   1
_chemical_formula_structural   Pr4TmTc3P12Ir11Ru5
_chemical_formula_sum   'Pr4 Tm1 Tc3 P12 Ir11 Ru5'
_cell_volume   560.54157549
_cell_formula_units_Z   1
loop_
 _symmetry_equiv_pos_site_id
 _symmetry_equiv_pos_as_xyz
  1  'x, y, z'
loop_
 _atom_site_type_symbol
 _atom_site_label
 _atom_site_symmetry_multiplicity
 _atom_site_fract_x
 _atom_site_fract_y
 _atom_site_fract_z
 _atom_site_occupancy
  Pr  Pr0  1  0.667060  0.332189  0.000000  1
  Pr  Pr1  1  0.812949  0.001711  0.500000  1
  Pr  Pr2  1  0.185765  0.186572  0.500000  1
  Pr  Pr3  1  0.998824  0.812575  0.500000  1
  Tm  Tm4  1  0.334303  0.668624  0.000000  1
  Tc  Tc5  1  0.447279  0.997710  0.000000  1
  Tc  Tc6  1  0.548114  0.548046  0.000000  1
  Tc  Tc7  1  0.003681  0.453158  0.000000  1
  P  P8  1  0.629410  0.999016  0.000000  1
  P  P9  1  0.367860  0.366635  0.000000  1
  P  P10  1  0.999109  0.631590  0.000000  1
  P  P11  1  0.687423  0.520212  0.500000  1
  P  P12  1  0.833860  0.308872  0.500000  1
  P  P13  1  0.317298  0.833810  0.500000  1
  P  P14  1  0.518845  0.691048  0.500000  1
  P  P15  1  0.180845  0.998181  0.000000  1
  P  P16  1  0.814661  0.816252  0.000000  1
  P  P17  1  0.998364  0.185591  0.000000  1
  P  P18  1  0.477438  0.163493  0.500000  1
  P  P19  1  0.171316  0.482965  0.500000  1
  Ir  Ir20  1  0.619376  0.800350  0.000000  1
  Ir  Ir21  1  0.184924  0.381772  0.000000  1
  Ir  Ir22  1  0.376554  0.179145  0.000000  1
  Ir  Ir23  1  0.195375  0.817215  0.000000  1
  Ir  Ir24  1  0.801309  0.620684  0.000000  1
  Ir  Ir25  1  0.873294  0.509849  0.500000  1
  Ir  Ir26  1  0.489618  0.360260  0.500000  1
  Ir  Ir27  1  0.636862  0.126036  0.500000  1
  Ir  Ir28  1  0.136308  0.640886  0.500000  1
  Ir  Ir29  1  0.363041  0.495803  0.500000  1
  Ir  Ir30  1  0.998209  0.000285  0.000000  1
  Ru  Ru31  1  0.509728  0.870178  0.500000  1
  Ru  Ru32  1  0.711514  0.711800  0.500000  1
  Ru  Ru33  1  0.004491  0.290342  0.500000  1
  Ru  Ru34  1  0.820203  0.199323  0.000000  1
  Ru  Ru35  1  0.284788  0.997813  0.500000  1
