# generated using pymatgen
data_Na2Er3Si12Ir19
_symmetry_space_group_name_H-M   'P 1'
_cell_length_a   12.77489387
_cell_length_b   12.77495200
_cell_length_c   4.00489500
_cell_angle_alpha   90.00000000
_cell_angle_beta   90.00000000
_cell_angle_gamma   120.00015845
_symmetry_Int_Tables_number   1
_chemical_formula_structural   Na2Er3Si12Ir19
_chemical_formula_sum   'Na2 Er3 Si12 Ir19'
_cell_volume   566.02765503
_cell_formula_units_Z   1
loop_
 _symmetry_equiv_pos_site_id
 _symmetry_equiv_pos_as_xyz
  1  'x, y, z'
loop_
 _atom_site_type_symbol
 _atom_site_label
 _atom_site_symmetry_multiplicity
 _atom_site_fract_x
 _atom_site_fract_y
 _atom_site_fract_z
 _atom_site_occupancy
  Na  Na0  1  0.817712  0.817440  0.500000  1
  Na  Na1  1  0.182288  0.999728  0.500000  1
  Er  Er2  1  0.667800  0.333869  0.000000  1
  Er  Er3  1  0.332200  0.666069  0.000000  1
  Er  Er4  1  0.000000  0.176553  0.500000  1
  Si  Si5  1  0.686900  0.167499  0.500000  1
  Si  Si6  1  0.832037  0.520785  0.500000  1
  Si  Si7  1  0.480357  0.312257  0.500000  1
  Si  Si8  1  0.167963  0.688748  0.500000  1
  Si  Si9  1  0.519643  0.831899  0.500000  1
  Si  Si10  1  0.313100  0.480599  0.500000  1
  Si  Si11  1  0.634022  0.634631  0.000000  1
  Si  Si12  1  0.365978  0.000609  0.000000  1
  Si  Si13  1  0.000000  0.365238  0.000000  1
  Si  Si14  1  0.183260  0.181312  0.000000  1
  Si  Si15  1  0.816740  0.998051  0.000000  1
  Si  Si16  1  0.000000  0.817029  0.000000  1
  Ir  Ir17  1  0.806723  0.182654  0.000000  1
  Ir  Ir18  1  0.815881  0.619810  0.000000  1
  Ir  Ir19  1  0.379980  0.196474  0.000000  1
  Ir  Ir20  1  0.184119  0.803929  0.000000  1
  Ir  Ir21  1  0.620020  0.816493  0.000000  1
  Ir  Ir22  1  0.193277  0.375930  0.000000  1
  Ir  Ir23  1  0.447152  0.451006  0.000000  1
  Ir  Ir24  1  0.552848  0.003854  0.000000  1
  Ir  Ir25  1  0.000000  0.549971  0.000000  1
  Ir  Ir26  1  0.282750  0.283841  0.500000  1
  Ir  Ir27  1  0.717250  0.001091  0.500000  1
  Ir  Ir28  1  0.000000  0.717467  0.500000  1
  Ir  Ir29  1  0.872763  0.360731  0.500000  1
  Ir  Ir30  1  0.638013  0.512537  0.500000  1
  Ir  Ir31  1  0.487768  0.127363  0.500000  1
  Ir  Ir32  1  0.361987  0.874523  0.500000  1
  Ir  Ir33  1  0.512232  0.639594  0.500000  1
  Ir  Ir34  1  0.127237  0.487967  0.500000  1
  Ir  Ir35  1  0.000000  0.002446  0.000000  1
