# generated using pymatgen
data_ErTm2Th(Ga3Ir)6
_symmetry_space_group_name_H-M   'P 1'
_cell_length_a   7.61131002
_cell_length_b   7.60769789
_cell_length_c   9.46329800
_cell_angle_alpha   90.00000000
_cell_angle_beta   90.00000000
_cell_angle_gamma   119.91818623
_symmetry_Int_Tables_number   1
_chemical_formula_structural   ErTm2Th(Ga3Ir)6
_chemical_formula_sum   'Er1 Tm2 Th1 Ga18 Ir6'
_cell_volume   474.94493938
_cell_formula_units_Z   1
loop_
 _symmetry_equiv_pos_site_id
 _symmetry_equiv_pos_as_xyz
  1  'x, y, z'
loop_
 _atom_site_type_symbol
 _atom_site_label
 _atom_site_symmetry_multiplicity
 _atom_site_fract_x
 _atom_site_fract_y
 _atom_site_fract_z
 _atom_site_occupancy
  Er  Er0  1  0.329893  0.002127  0.250000  1
  Tm  Tm1  1  0.002789  0.331388  0.250000  1
  Tm  Tm2  1  0.670912  0.997055  0.750000  1
  Th  Th3  1  0.996249  0.668349  0.750000  1
  Ga  Ga4  1  0.130693  0.132940  0.750000  1
  Ga  Ga5  1  0.871880  0.874622  0.250000  1
  Ga  Ga6  1  0.998624  0.328190  0.577596  1
  Ga  Ga7  1  0.001690  0.665260  0.412584  1
  Ga  Ga8  1  0.001690  0.665260  0.087416  1
  Ga  Ga9  1  0.340909  0.004136  0.922166  1
  Ga  Ga10  1  0.998624  0.328190  0.922404  1
  Ga  Ga11  1  0.666216  0.002894  0.081518  1
  Ga  Ga12  1  0.666216  0.002894  0.418482  1
  Ga  Ga13  1  0.340909  0.004136  0.577834  1
  Ga  Ga14  1  0.330792  0.330910  0.068576  1
  Ga  Ga15  1  0.662163  0.667944  0.938702  1
  Ga  Ga16  1  0.662163  0.667944  0.561298  1
  Ga  Ga17  1  0.330792  0.330910  0.431424  1
  Ga  Ga18  1  0.343641  0.546967  0.750000  1
  Ga  Ga19  1  0.658680  0.451747  0.250000  1
  Ga  Ga20  1  0.541495  0.336652  0.750000  1
  Ga  Ga21  1  0.451788  0.660533  0.250000  1
  Ir  Ir22  1  0.674035  0.331079  0.500278  1
  Ir  Ir23  1  0.326020  0.670961  0.500322  1
  Ir  Ir24  1  0.326020  0.670961  0.999678  1
  Ir  Ir25  1  0.674035  0.331079  0.999722  1
  Ir  Ir26  1  0.000537  0.997437  0.500641  1
  Ir  Ir27  1  0.000537  0.997437  0.999359  1
