# generated using pymatgen
data_Tb3DyZr3Sc(CrB6)4
_symmetry_space_group_name_H-M   'P 1'
_cell_length_a   3.47378000
_cell_length_b   9.01536000
_cell_length_c   11.38303700
_cell_angle_alpha   90.00017795
_cell_angle_beta   90.00000000
_cell_angle_gamma   90.00000000
_symmetry_Int_Tables_number   1
_chemical_formula_structural   Tb3DyZr3Sc(CrB6)4
_chemical_formula_sum   'Tb3 Dy1 Zr3 Sc1 Cr4 B24'
_cell_volume   356.48686410
_cell_formula_units_Z   1
loop_
 _symmetry_equiv_pos_site_id
 _symmetry_equiv_pos_as_xyz
  1  'x, y, z'
loop_
 _atom_site_type_symbol
 _atom_site_label
 _atom_site_symmetry_multiplicity
 _atom_site_fract_x
 _atom_site_fract_y
 _atom_site_fract_z
 _atom_site_occupancy
  Tb  Tb0  1  0.000000  0.822834  0.085077  1
  Tb  Tb1  1  0.000000  0.176847  0.914159  1
  Tb  Tb2  1  0.000000  0.322105  0.415527  1
  Dy  Dy3  1  0.000000  0.677818  0.585470  1
  Zr  Zr4  1  0.000000  0.443768  0.130175  1
  Zr  Zr5  1  0.000000  0.556239  0.869563  1
  Zr  Zr6  1  0.000000  0.944144  0.370591  1
  Sc  Sc7  1  0.000000  0.056056  0.630030  1
  Cr  Cr8  1  0.000000  0.141778  0.182405  1
  Cr  Cr9  1  0.000000  0.857907  0.817594  1
  Cr  Cr10  1  0.000000  0.641782  0.317312  1
  Cr  Cr11  1  0.000000  0.358492  0.682518  1
  B  B12  1  0.500000  0.054517  0.067533  1
  B  B13  1  0.500000  0.945736  0.931496  1
  B  B14  1  0.500000  0.554739  0.432685  1
  B  B15  1  0.500000  0.445166  0.567992  1
  B  B16  1  0.500000  0.250973  0.082777  1
  B  B17  1  0.500000  0.748926  0.916850  1
  B  B18  1  0.500000  0.751566  0.417848  1
  B  B19  1  0.500000  0.247335  0.583545  1
  B  B20  1  0.500000  0.294052  0.236144  1
  B  B21  1  0.500000  0.706503  0.763466  1
  B  B22  1  0.500000  0.794462  0.264440  1
  B  B23  1  0.500000  0.204612  0.734900  1
  B  B24  1  0.500000  0.130373  0.316537  1
  B  B25  1  0.500000  0.871006  0.683501  1
  B  B26  1  0.500000  0.630522  0.184160  1
  B  B27  1  0.500000  0.369048  0.815369  1
  B  B28  1  0.500000  0.482949  0.287764  1
  B  B29  1  0.500000  0.517457  0.712223  1
  B  B30  1  0.500000  0.983047  0.212686  1
  B  B31  1  0.500000  0.017186  0.785982  1
  B  B32  1  0.500000  0.098107  0.474730  1
  B  B33  1  0.500000  0.902311  0.527227  1
  B  B34  1  0.500000  0.598994  0.026483  1
  B  B35  1  0.500000  0.400646  0.973238  1
