# generated using pymatgen
data_La4TmRh2
_symmetry_space_group_name_H-M   'P 1'
_cell_length_a   6.59812399
_cell_length_b   7.26074876
_cell_length_c   9.22757150
_cell_angle_alpha   95.91371393
_cell_angle_beta   110.94810317
_cell_angle_gamma   90.00000123
_symmetry_Int_Tables_number   1
_chemical_formula_structural   La4TmRh2
_chemical_formula_sum   'La8 Tm2 Rh4'
_cell_volume   410.32947333
_cell_formula_units_Z   2
loop_
 _symmetry_equiv_pos_site_id
 _symmetry_equiv_pos_as_xyz
  1  'x, y, z'
loop_
 _atom_site_type_symbol
 _atom_site_label
 _atom_site_symmetry_multiplicity
 _atom_site_fract_x
 _atom_site_fract_y
 _atom_site_fract_z
 _atom_site_occupancy
  La  La0  1  0.799774  0.084489  0.817538  1
  La  La1  1  0.982237  0.415511  0.182462  1
  La  La2  1  0.200226  0.915511  0.182462  1
  La  La3  1  0.017763  0.584489  0.817538  1
  La  La4  1  0.213866  0.184252  0.576286  1
  La  La5  1  0.637581  0.315748  0.423714  1
  La  La6  1  0.786134  0.815748  0.423714  1
  La  La7  1  0.362419  0.684252  0.576286  1
  Tm  Tm8  1  0.429483  0.250000  0.000000  1
  Tm  Tm9  1  0.570517  0.750000  0.000000  1
  Rh  Rh10  1  0.593507  0.424698  0.790665  1
  Rh  Rh11  1  0.802841  0.075302  0.209335  1
  Rh  Rh12  1  0.406493  0.575302  0.209335  1
  Rh  Rh13  1  0.197159  0.924698  0.790665  1
