# generated using pymatgen
data_La12Co5Pb
_symmetry_space_group_name_H-M   'P 1'
_cell_length_a   8.72993982
_cell_length_b   8.73125533
_cell_length_c   8.72993812
_cell_angle_alpha   109.59440994
_cell_angle_beta   111.57243413
_cell_angle_gamma   107.26958422
_symmetry_Int_Tables_number   1
_chemical_formula_structural   La12Co5Pb
_chemical_formula_sum   'La12 Co5 Pb1'
_cell_volume   511.55850496
_cell_formula_units_Z   1
loop_
 _symmetry_equiv_pos_site_id
 _symmetry_equiv_pos_as_xyz
  1  'x, y, z'
loop_
 _atom_site_type_symbol
 _atom_site_label
 _atom_site_symmetry_multiplicity
 _atom_site_fract_x
 _atom_site_fract_y
 _atom_site_fract_z
 _atom_site_occupancy
  La  La0  1  0.310109  0.178792  0.488867  1
  La  La1  1  0.689891  0.821208  0.511133  1
  La  La2  1  0.310074  0.821208  0.131317  1
  La  La3  1  0.689926  0.178792  0.868683  1
  La  La4  1  0.641106  0.325543  0.315479  1
  La  La5  1  0.358894  0.674457  0.684521  1
  La  La6  1  0.010064  0.325543  0.684438  1
  La  La7  1  0.989936  0.674457  0.315562  1
  La  La8  1  0.193141  0.378175  0.185034  1
  La  La9  1  0.806859  0.621825  0.814966  1
  La  La10  1  0.193124  0.008138  0.815013  1
  La  La11  1  0.806876  0.991862  0.184987  1
  Co  Co12  1  0.999978  0.358322  0.358344  1
  Co  Co13  1  0.000022  0.641678  0.641656  1
  Co  Co14  1  0.370680  0.870699  0.500019  1
  Co  Co15  1  0.629320  0.129301  0.499981  1
  Co  Co16  1  0.000000  0.000000  0.000000  1
  Pb  Pb17  1  0.500000  0.500000  0.000000  1
