# generated using pymatgen
data_LiPrEuSi3
_symmetry_space_group_name_H-M   'P 1'
_cell_length_a   4.51856272
_cell_length_b   7.90251466
_cell_length_c   8.05221190
_cell_angle_alpha   104.25017059
_cell_angle_beta   106.32339639
_cell_angle_gamma   89.97903905
_symmetry_Int_Tables_number   1
_chemical_formula_structural   LiPrEuSi3
_chemical_formula_sum   'Li2 Pr2 Eu2 Si6'
_cell_volume   266.71478502
_cell_formula_units_Z   2
loop_
 _symmetry_equiv_pos_site_id
 _symmetry_equiv_pos_as_xyz
  1  'x, y, z'
loop_
 _atom_site_type_symbol
 _atom_site_label
 _atom_site_symmetry_multiplicity
 _atom_site_fract_x
 _atom_site_fract_y
 _atom_site_fract_z
 _atom_site_occupancy
  Li  Li0  1  0.213263  0.265092  0.426597  1
  Li  Li1  1  0.786658  0.734897  0.573269  1
  Pr  Pr2  1  0.621825  0.934828  0.243723  1
  Pr  Pr3  1  0.387020  0.569029  0.774131  1
  Eu  Eu4  1  0.377973  0.065051  0.755878  1
  Eu  Eu5  1  0.613189  0.430834  0.226280  1
  Si  Si6  1  0.795370  0.284577  0.591125  1
  Si  Si7  1  0.954977  0.853625  0.911047  1
  Si  Si8  1  0.045156  0.146508  0.089171  1
  Si  Si9  1  0.953981  0.350702  0.908122  1
  Si  Si10  1  0.204655  0.715678  0.408923  1
  Si  Si11  1  0.045933  0.649180  0.091735  1
