# generated using pymatgen
data_Lu4B16Ir2RuRh
_symmetry_space_group_name_H-M   'P 1'
_cell_length_a   3.52707600
_cell_length_b   5.91374449
_cell_length_c   11.46707262
_cell_angle_alpha   89.95665689
_cell_angle_beta   90.00000000
_cell_angle_gamma   90.00000000
_symmetry_Int_Tables_number   1
_chemical_formula_structural   Lu4B16Ir2RuRh
_chemical_formula_sum   'Lu4 B16 Ir2 Ru1 Rh1'
_cell_volume   239.18272675
_cell_formula_units_Z   1
loop_
 _symmetry_equiv_pos_site_id
 _symmetry_equiv_pos_as_xyz
  1  'x, y, z'
loop_
 _atom_site_type_symbol
 _atom_site_label
 _atom_site_symmetry_multiplicity
 _atom_site_fract_x
 _atom_site_fract_y
 _atom_site_fract_z
 _atom_site_occupancy
  Lu  Lu0  1  0.000000  0.632516  0.352866  1
  Lu  Lu1  1  0.000000  0.369305  0.648699  1
  Lu  Lu2  1  0.000000  0.132027  0.148202  1
  Lu  Lu3  1  0.000000  0.867057  0.849007  1
  B  B4  1  0.500000  0.793409  0.187916  1
  B  B5  1  0.500000  0.207026  0.811904  1
  B  B6  1  0.500000  0.294491  0.312309  1
  B  B7  1  0.500000  0.707562  0.686613  1
  B  B8  1  0.500000  0.864696  0.029725  1
  B  B9  1  0.500000  0.134838  0.970588  1
  B  B10  1  0.500000  0.364508  0.470762  1
  B  B11  1  0.500000  0.634294  0.530610  1
  B  B12  1  0.500000  0.885587  0.453847  1
  B  B13  1  0.500000  0.112070  0.548512  1
  B  B14  1  0.500000  0.386774  0.047443  1
  B  B15  1  0.500000  0.613317  0.951720  1
  B  B16  1  0.500000  0.972650  0.307418  1
  B  B17  1  0.500000  0.023274  0.693222  1
  B  B18  1  0.500000  0.476682  0.193916  1
  B  B19  1  0.500000  0.523292  0.806072  1
  Ir  Ir20  1  0.000000  0.356664  0.904242  1
  Ir  Ir21  1  0.000000  0.145234  0.402787  1
  Ru  Ru22  1  0.000000  0.858059  0.594451  1
  Rh  Rh23  1  0.000000  0.644668  0.097170  1
