# generated using pymatgen
data_Tm8In2OsRh
_symmetry_space_group_name_H-M   'P 1'
_cell_length_a   9.53830794
_cell_length_b   9.53830771
_cell_length_c   9.58868100
_cell_angle_alpha   59.82514300
_cell_angle_beta   59.82514380
_cell_angle_gamma   59.62103338
_symmetry_Int_Tables_number   1
_chemical_formula_structural   Tm8In2OsRh
_chemical_formula_sum   'Tm16 In4 Os2 Rh2'
_cell_volume   613.45248302
_cell_formula_units_Z   2
loop_
 _symmetry_equiv_pos_site_id
 _symmetry_equiv_pos_as_xyz
  1  'x, y, z'
loop_
 _atom_site_type_symbol
 _atom_site_label
 _atom_site_symmetry_multiplicity
 _atom_site_fract_x
 _atom_site_fract_y
 _atom_site_fract_z
 _atom_site_occupancy
  Tm  Tm0  1  0.055988  0.055988  0.444012  1
  Tm  Tm1  1  0.444632  0.059688  0.437603  1
  Tm  Tm2  1  0.059688  0.444632  0.058078  1
  Tm  Tm3  1  0.043805  0.652271  0.651963  1
  Tm  Tm4  1  0.438590  0.438590  0.061410  1
  Tm  Tm5  1  0.652271  0.043805  0.651963  1
  Tm  Tm6  1  0.191211  0.808902  0.193131  1
  Tm  Tm7  1  0.192515  0.192515  0.807485  1
  Tm  Tm8  1  0.807924  0.807924  0.192076  1
  Tm  Tm9  1  0.444632  0.059688  0.058078  1
  Tm  Tm10  1  0.808902  0.191211  0.193131  1
  Tm  Tm11  1  0.059688  0.444632  0.437603  1
  Tm  Tm12  1  0.808902  0.191211  0.806756  1
  Tm  Tm13  1  0.191211  0.808902  0.806756  1
  Tm  Tm14  1  0.651297  0.651297  0.047258  1
  Tm  Tm15  1  0.651297  0.651297  0.650150  1
  In  In16  1  0.416981  0.416981  0.417748  1
  In  In17  1  0.750531  0.416740  0.416364  1
  In  In18  1  0.416740  0.750531  0.416364  1
  In  In19  1  0.416981  0.416981  0.748289  1
  Os  Os20  1  0.858715  0.858715  0.420553  1
  Os  Os21  1  0.858715  0.858715  0.862017  1
  Rh  Rh22  1  0.420842  0.857944  0.860607  1
  Rh  Rh23  1  0.857944  0.420842  0.860607  1
