# generated using pymatgen
data_Sc4Fe4Co16SiP11
_symmetry_space_group_name_H-M   'P 1'
_cell_length_a   3.61103900
_cell_length_b   10.16440954
_cell_length_c   11.66184059
_cell_angle_alpha   90.13036793
_cell_angle_beta   90.00000000
_cell_angle_gamma   90.00000000
_symmetry_Int_Tables_number   1
_chemical_formula_structural   Sc4Fe4Co16SiP11
_chemical_formula_sum   'Sc4 Fe4 Co16 Si1 P11'
_cell_volume   428.03601335
_cell_formula_units_Z   1
loop_
 _symmetry_equiv_pos_site_id
 _symmetry_equiv_pos_as_xyz
  1  'x, y, z'
loop_
 _atom_site_type_symbol
 _atom_site_label
 _atom_site_symmetry_multiplicity
 _atom_site_fract_x
 _atom_site_fract_y
 _atom_site_fract_z
 _atom_site_occupancy
  Sc  Sc0  1  0.250000  0.580493  0.703480  1
  Sc  Sc1  1  0.250000  0.918759  0.203721  1
  Sc  Sc2  1  0.750000  0.420288  0.298176  1
  Sc  Sc3  1  0.750000  0.080391  0.796690  1
  Fe  Fe4  1  0.250000  0.713003  0.988105  1
  Fe  Fe5  1  0.250000  0.787787  0.488487  1
  Fe  Fe6  1  0.750000  0.288074  0.012174  1
  Fe  Fe7  1  0.750000  0.212148  0.512048  1
  Co  Co8  1  0.250000  0.407345  0.485364  1
  Co  Co9  1  0.250000  0.092496  0.984592  1
  Co  Co10  1  0.750000  0.592709  0.515373  1
  Co  Co11  1  0.750000  0.907169  0.015226  1
  Co  Co12  1  0.250000  0.213588  0.177669  1
  Co  Co13  1  0.250000  0.278258  0.676579  1
  Co  Co14  1  0.750000  0.779223  0.823176  1
  Co  Co15  1  0.750000  0.721727  0.324376  1
  Co  Co16  1  0.250000  0.882425  0.699665  1
  Co  Co17  1  0.250000  0.621156  0.200213  1
  Co  Co18  1  0.750000  0.116802  0.301552  1
  Co  Co19  1  0.750000  0.381262  0.799427  1
  Co  Co20  1  0.250000  0.467540  0.927628  1
  Co  Co21  1  0.250000  0.034949  0.432353  1
  Co  Co22  1  0.750000  0.538596  0.065714  1
  Co  Co23  1  0.750000  0.965392  0.568321  1
  Si  Si24  1  0.250000  0.417037  0.114796  1
  P  P25  1  0.250000  0.080396  0.615956  1
  P  P26  1  0.750000  0.580723  0.883379  1
  P  P27  1  0.750000  0.919626  0.384700  1
  P  P28  1  0.250000  0.265417  0.867785  1
  P  P29  1  0.250000  0.235284  0.366911  1
  P  P30  1  0.750000  0.735425  0.133428  1
  P  P31  1  0.750000  0.764846  0.633012  1
  P  P32  1  0.250000  0.599270  0.390409  1
  P  P33  1  0.250000  0.900873  0.890504  1
  P  P34  1  0.750000  0.400890  0.609415  1
  P  P35  1  0.750000  0.098634  0.109597  1
