# generated using pymatgen
data_Dy2CdNi7B2
_symmetry_space_group_name_H-M   'P 1'
_cell_length_a   5.01387647
_cell_length_b   5.01405674
_cell_length_c   14.21259500
_cell_angle_alpha   90.00000000
_cell_angle_beta   90.00000000
_cell_angle_gamma   119.94261966
_symmetry_Int_Tables_number   1
_chemical_formula_structural   Dy2CdNi7B2
_chemical_formula_sum   'Dy4 Cd2 Ni14 B4'
_cell_volume   309.61194390
_cell_formula_units_Z   2
loop_
 _symmetry_equiv_pos_site_id
 _symmetry_equiv_pos_as_xyz
  1  'x, y, z'
loop_
 _atom_site_type_symbol
 _atom_site_label
 _atom_site_symmetry_multiplicity
 _atom_site_fract_x
 _atom_site_fract_y
 _atom_site_fract_z
 _atom_site_occupancy
  Dy  Dy0  1  0.666770  0.333370  0.470931  1
  Dy  Dy1  1  0.333230  0.666630  0.970931  1
  Dy  Dy2  1  0.333267  0.666573  0.743887  1
  Dy  Dy3  1  0.666733  0.333427  0.243887  1
  Cd  Cd4  1  0.333274  0.666637  0.532052  1
  Cd  Cd5  1  0.666726  0.333363  0.032052  1
  Ni  Ni6  1  0.999918  0.999863  0.000136  1
  Ni  Ni7  1  0.000082  0.000137  0.500136  1
  Ni  Ni8  1  0.165153  0.330233  0.148329  1
  Ni  Ni9  1  0.834847  0.669767  0.648329  1
  Ni  Ni10  1  0.669923  0.835015  0.148297  1
  Ni  Ni11  1  0.165193  0.834987  0.148211  1
  Ni  Ni12  1  0.834807  0.165013  0.648211  1
  Ni  Ni13  1  0.330077  0.164985  0.648297  1
  Ni  Ni14  1  0.833940  0.667932  0.851845  1
  Ni  Ni15  1  0.833909  0.165839  0.851881  1
  Ni  Ni16  1  0.331832  0.165814  0.851849  1
  Ni  Ni17  1  0.668168  0.834186  0.351849  1
  Ni  Ni18  1  0.166091  0.834161  0.351881  1
  Ni  Ni19  1  0.166060  0.332068  0.351845  1
  B  B20  1  0.333436  0.666811  0.249854  1
  B  B21  1  0.666564  0.333189  0.749854  1
  B  B22  1  0.000079  0.000094  0.252728  1
  B  B23  1  0.999921  0.999906  0.752728  1
