# generated using pymatgen
data_Tb9Er(SiHg)4
_symmetry_space_group_name_H-M   'P 1'
_cell_length_a   8.80347908
_cell_length_b   8.80347883
_cell_length_c   7.58580103
_cell_angle_alpha   90.00402060
_cell_angle_beta   90.00402564
_cell_angle_gamma   129.14247724
_symmetry_Int_Tables_number   1
_chemical_formula_structural   Tb9Er(SiHg)4
_chemical_formula_sum   'Tb9 Er1 Si4 Hg4'
_cell_volume   455.96965064
_cell_formula_units_Z   1
loop_
 _symmetry_equiv_pos_site_id
 _symmetry_equiv_pos_as_xyz
  1  'x, y, z'
loop_
 _atom_site_type_symbol
 _atom_site_label
 _atom_site_symmetry_multiplicity
 _atom_site_fract_x
 _atom_site_fract_y
 _atom_site_fract_z
 _atom_site_occupancy
  Tb  Tb0  1  0.055305  0.310040  0.323936  1
  Tb  Tb1  1  0.944695  0.689960  0.676064  1
  Tb  Tb2  1  0.444419  0.189729  0.824171  1
  Tb  Tb3  1  0.810271  0.555581  0.175829  1
  Tb  Tb4  1  0.555581  0.810271  0.175829  1
  Tb  Tb5  1  0.189729  0.444419  0.824171  1
  Tb  Tb6  1  0.689960  0.944695  0.676064  1
  Tb  Tb7  1  0.310040  0.055305  0.323936  1
  Tb  Tb8  1  0.500000  0.500000  0.500000  1
  Er  Er9  1  0.000000  0.000000  0.000000  1
  Si  Si10  1  0.381742  0.381742  0.121057  1
  Si  Si11  1  0.618258  0.618258  0.878943  1
  Si  Si12  1  0.117844  0.117844  0.621481  1
  Si  Si13  1  0.882156  0.882156  0.378519  1
  Hg  Hg14  1  0.782376  0.217624  0.000000  1
  Hg  Hg15  1  0.217624  0.782376  0.000000  1
  Hg  Hg16  1  0.717681  0.282319  0.500000  1
  Hg  Hg17  1  0.282319  0.717681  0.500000  1
