# generated using pymatgen
data_HoScFe12P7
_symmetry_space_group_name_H-M   'P 1'
_cell_length_a   8.87427700
_cell_length_b   8.87427610
_cell_length_c   3.61235400
_cell_angle_alpha   90.00000000
_cell_angle_beta   90.00000000
_cell_angle_gamma   120.00000706
_symmetry_Int_Tables_number   1
_chemical_formula_structural   HoScFe12P7
_chemical_formula_sum   'Ho1 Sc1 Fe12 P7'
_cell_volume   246.36943154
_cell_formula_units_Z   1
loop_
 _symmetry_equiv_pos_site_id
 _symmetry_equiv_pos_as_xyz
  1  'x, y, z'
loop_
 _atom_site_type_symbol
 _atom_site_label
 _atom_site_symmetry_multiplicity
 _atom_site_fract_x
 _atom_site_fract_y
 _atom_site_fract_z
 _atom_site_occupancy
  Ho  Ho0  1  0.333333  0.666667  0.500000  1
  Sc  Sc1  1  0.000000  0.000000  0.000000  1
  Fe  Fe2  1  0.294554  0.907031  0.000000  1
  Fe  Fe3  1  0.612476  0.705446  0.000000  1
  Fe  Fe4  1  0.092969  0.387524  0.000000  1
  Fe  Fe5  1  0.787235  0.179099  0.000000  1
  Fe  Fe6  1  0.391864  0.212765  0.000000  1
  Fe  Fe7  1  0.820901  0.608136  0.000000  1
  Fe  Fe8  1  0.719313  0.951099  0.500000  1
  Fe  Fe9  1  0.231788  0.280687  0.500000  1
  Fe  Fe10  1  0.048901  0.768212  0.500000  1
  Fe  Fe11  1  0.548701  0.119853  0.500000  1
  Fe  Fe12  1  0.571152  0.451299  0.500000  1
  Fe  Fe13  1  0.880147  0.428848  0.500000  1
  P  P14  1  0.553488  0.923706  0.000000  1
  P  P15  1  0.370218  0.446512  0.000000  1
  P  P16  1  0.076294  0.629782  0.000000  1
  P  P17  1  0.957002  0.218163  0.500000  1
  P  P18  1  0.261161  0.042998  0.500000  1
  P  P19  1  0.781837  0.738839  0.500000  1
  P  P20  1  0.666667  0.333333  0.000000  1
