# generated using pymatgen
data_Eu4TmSc7O16
_symmetry_space_group_name_H-M   'P 1'
_cell_length_a   3.22341300
_cell_length_b   9.69913419
_cell_length_c   11.41735767
_cell_angle_alpha   90.35058495
_cell_angle_beta   90.00000000
_cell_angle_gamma   90.00000000
_symmetry_Int_Tables_number   1
_chemical_formula_structural   Eu4TmSc7O16
_chemical_formula_sum   'Eu4 Tm1 Sc7 O16'
_cell_volume   356.94918717
_cell_formula_units_Z   1
loop_
 _symmetry_equiv_pos_site_id
 _symmetry_equiv_pos_as_xyz
  1  'x, y, z'
loop_
 _atom_site_type_symbol
 _atom_site_label
 _atom_site_symmetry_multiplicity
 _atom_site_fract_x
 _atom_site_fract_y
 _atom_site_fract_z
 _atom_site_occupancy
  Eu  Eu0  1  0.250000  0.748822  0.148072  1
  Eu  Eu1  1  0.750000  0.253479  0.846732  1
  Eu  Eu2  1  0.750000  0.755370  0.656868  1
  Eu  Eu3  1  0.250000  0.243572  0.347086  1
  Tm  Tm4  1  0.250000  0.577287  0.390527  1
  Sc  Sc5  1  0.250000  0.576388  0.893301  1
  Sc  Sc6  1  0.750000  0.420455  0.105913  1
  Sc  Sc7  1  0.750000  0.924602  0.390857  1
  Sc  Sc8  1  0.250000  0.076752  0.606918  1
  Sc  Sc9  1  0.250000  0.072854  0.110087  1
  Sc  Sc10  1  0.750000  0.930240  0.889323  1
  Sc  Sc11  1  0.750000  0.427272  0.614866  1
  O  O12  1  0.250000  0.983956  0.282910  1
  O  O13  1  0.750000  0.018515  0.715737  1
  O  O14  1  0.750000  0.517918  0.786193  1
  O  O15  1  0.250000  0.475603  0.213948  1
  O  O16  1  0.250000  0.576197  0.583632  1
  O  O17  1  0.750000  0.420512  0.429553  1
  O  O18  1  0.750000  0.924845  0.073306  1
  O  O19  1  0.250000  0.076739  0.925080  1
  O  O20  1  0.250000  0.791194  0.837701  1
  O  O21  1  0.750000  0.208554  0.162764  1
  O  O22  1  0.750000  0.717042  0.326160  1
  O  O23  1  0.250000  0.289068  0.665649  1
  O  O24  1  0.250000  0.876924  0.518282  1
  O  O25  1  0.750000  0.118240  0.479983  1
  O  O26  1  0.750000  0.618159  0.021127  1
  O  O27  1  0.250000  0.379443  0.977423  1
