# generated using pymatgen
data_Sm2MgSi3P3Pd20
_symmetry_space_group_name_H-M   'P 1'
_cell_length_a   8.69169907
_cell_length_b   8.68765678
_cell_length_c   8.68729294
_cell_angle_alpha   60.03216509
_cell_angle_beta   59.98599150
_cell_angle_gamma   59.98183861
_symmetry_Int_Tables_number   1
_chemical_formula_structural   Sm2MgSi3P3Pd20
_chemical_formula_sum   'Sm2 Mg1 Si3 P3 Pd20'
_cell_volume   463.84895558
_cell_formula_units_Z   1
loop_
 _symmetry_equiv_pos_site_id
 _symmetry_equiv_pos_as_xyz
  1  'x, y, z'
loop_
 _atom_site_type_symbol
 _atom_site_label
 _atom_site_symmetry_multiplicity
 _atom_site_fract_x
 _atom_site_fract_y
 _atom_site_fract_z
 _atom_site_occupancy
  Sm  Sm0  1  0.250324  0.249676  0.250324  1
  Sm  Sm1  1  0.750324  0.749676  0.750324  1
  Mg  Mg2  1  0.999082  0.000918  0.999082  1
  Si  Si3  1  0.735259  0.264741  0.735259  1
  Si  Si4  1  0.264593  0.263295  0.736705  1
  Si  Si5  1  0.736705  0.735407  0.264593  1
  P  P6  1  0.736343  0.263657  0.265204  1
  P  P7  1  0.265204  0.734796  0.736343  1
  P  P8  1  0.263729  0.736271  0.263729  1
  Pd  Pd9  1  0.385729  0.385946  0.384141  1
  Pd  Pd10  1  0.613623  0.615975  0.615569  1
  Pd  Pd11  1  0.384025  0.386377  0.845165  1
  Pd  Pd12  1  0.384141  0.844183  0.385729  1
  Pd  Pd13  1  0.614054  0.614271  0.155817  1
  Pd  Pd14  1  0.615569  0.154835  0.613623  1
  Pd  Pd15  1  0.845165  0.384431  0.384025  1
  Pd  Pd16  1  0.155817  0.615859  0.614054  1
  Pd  Pd17  1  0.344672  0.998065  0.001935  1
  Pd  Pd18  1  0.654839  0.000056  0.999944  1
  Pd  Pd19  1  0.999944  0.345161  0.654839  1
  Pd  Pd20  1  0.001935  0.655328  0.344672  1
  Pd  Pd21  1  0.997566  0.344516  0.001367  1
  Pd  Pd22  1  0.655484  0.002434  0.343449  1
  Pd  Pd23  1  0.001367  0.656551  0.997566  1
  Pd  Pd24  1  0.343449  0.998633  0.655484  1
  Pd  Pd25  1  0.000066  0.999934  0.342865  1
  Pd  Pd26  1  0.001857  0.998143  0.656269  1
  Pd  Pd27  1  0.656269  0.343731  0.001857  1
  Pd  Pd28  1  0.342865  0.657135  0.000066  1
