# generated using pymatgen
data_NbNi2MoPt4
_symmetry_space_group_name_H-M   'P 1'
_cell_length_a   4.46158800
_cell_length_b   4.80303900
_cell_length_c   5.43658000
_cell_angle_alpha   90.00000000
_cell_angle_beta   90.00000000
_cell_angle_gamma   90.00000000
_symmetry_Int_Tables_number   1
_chemical_formula_structural   NbNi2MoPt4
_chemical_formula_sum   'Nb1 Ni2 Mo1 Pt4'
_cell_volume   116.50145774
_cell_formula_units_Z   1
loop_
 _symmetry_equiv_pos_site_id
 _symmetry_equiv_pos_as_xyz
  1  'x, y, z'
loop_
 _atom_site_type_symbol
 _atom_site_label
 _atom_site_symmetry_multiplicity
 _atom_site_fract_x
 _atom_site_fract_y
 _atom_site_fract_z
 _atom_site_occupancy
  Nb  Nb0  1  0.000000  0.344679  0.000000  1
  Ni  Ni1  1  0.000000  0.345308  0.500000  1
  Ni  Ni2  1  0.500000  0.665502  0.000000  1
  Mo  Mo3  1  0.500000  0.652109  0.500000  1
  Pt  Pt4  1  0.500000  0.171364  0.747002  1
  Pt  Pt5  1  0.500000  0.171364  0.252998  1
  Pt  Pt6  1  0.000000  0.824836  0.747598  1
  Pt  Pt7  1  0.000000  0.824836  0.252402  1
