# generated using pymatgen
data_Hf9Re2Mo2As
_symmetry_space_group_name_H-M   'P 1'
_cell_length_a   8.65227573
_cell_length_b   8.66389755
_cell_length_c   8.64581600
_cell_angle_alpha   90.00000000
_cell_angle_beta   90.00000000
_cell_angle_gamma   119.95273474
_symmetry_Int_Tables_number   1
_chemical_formula_structural   Hf9Re2Mo2As
_chemical_formula_sum   'Hf18 Re4 Mo4 As2'
_cell_volume   561.54805440
_cell_formula_units_Z   2
loop_
 _symmetry_equiv_pos_site_id
 _symmetry_equiv_pos_as_xyz
  1  'x, y, z'
loop_
 _atom_site_type_symbol
 _atom_site_label
 _atom_site_symmetry_multiplicity
 _atom_site_fract_x
 _atom_site_fract_y
 _atom_site_fract_z
 _atom_site_occupancy
  Hf  Hf0  1  0.805522  0.611028  0.544664  1
  Hf  Hf1  1  0.805632  0.194067  0.543922  1
  Hf  Hf2  1  0.388347  0.194020  0.543964  1
  Hf  Hf3  1  0.193032  0.386069  0.451318  1
  Hf  Hf4  1  0.193824  0.806988  0.452108  1
  Hf  Hf5  1  0.613261  0.807041  0.452073  1
  Hf  Hf6  1  0.193032  0.386069  0.048682  1
  Hf  Hf7  1  0.193824  0.806988  0.047892  1
  Hf  Hf8  1  0.613261  0.807041  0.047927  1
  Hf  Hf9  1  0.805522  0.611028  0.955336  1
  Hf  Hf10  1  0.805632  0.194067  0.956078  1
  Hf  Hf11  1  0.388347  0.194020  0.956036  1
  Hf  Hf12  1  0.460150  0.920294  0.750000  1
  Hf  Hf13  1  0.459712  0.539927  0.750000  1
  Hf  Hf14  1  0.080138  0.539880  0.750000  1
  Hf  Hf15  1  0.541338  0.082691  0.250000  1
  Hf  Hf16  1  0.540745  0.457986  0.250000  1
  Hf  Hf17  1  0.917304  0.458023  0.250000  1
  Re  Re18  1  0.890456  0.109895  0.250000  1
  Re  Re19  1  0.219476  0.109903  0.250000  1
  Re  Re20  1  0.000168  0.000343  0.499453  1
  Re  Re21  1  0.000168  0.000343  0.000547  1
  Mo  Mo22  1  0.109281  0.218629  0.750000  1
  Mo  Mo23  1  0.109473  0.890935  0.750000  1
  Mo  Mo24  1  0.781437  0.890956  0.750000  1
  Mo  Mo25  1  0.891582  0.783110  0.250000  1
  As  As26  1  0.666451  0.332979  0.750000  1
  As  As27  1  0.332887  0.665677  0.250000  1
