# generated using pymatgen
data_Hf15Sc(Si4Mo)4
_symmetry_space_group_name_H-M   'P 1'
_cell_length_a   6.96873326
_cell_length_b   6.95746746
_cell_length_c   12.71530951
_cell_angle_alpha   90.03001239
_cell_angle_beta   89.98787844
_cell_angle_gamma   90.06774673
_symmetry_Int_Tables_number   1
_chemical_formula_structural   Hf15Sc(Si4Mo)4
_chemical_formula_sum   'Hf15 Sc1 Si16 Mo4'
_cell_volume   616.49788051
_cell_formula_units_Z   1
loop_
 _symmetry_equiv_pos_site_id
 _symmetry_equiv_pos_as_xyz
  1  'x, y, z'
loop_
 _atom_site_type_symbol
 _atom_site_label
 _atom_site_symmetry_multiplicity
 _atom_site_fract_x
 _atom_site_fract_y
 _atom_site_fract_z
 _atom_site_occupancy
  Hf  Hf0  1  0.504802  0.845103  0.030915  1
  Hf  Hf1  1  0.655294  0.003763  0.280170  1
  Hf  Hf2  1  0.345390  0.996312  0.780978  1
  Hf  Hf3  1  0.845471  0.504664  0.969073  1
  Hf  Hf4  1  0.153918  0.497287  0.468995  1
  Hf  Hf5  1  0.004384  0.654569  0.719966  1
  Hf  Hf6  1  0.996062  0.345364  0.219170  1
  Hf  Hf7  1  0.497048  0.356129  0.124348  1
  Hf  Hf8  1  0.502474  0.643625  0.625263  1
  Hf  Hf9  1  0.856403  0.002468  0.874723  1
  Hf  Hf10  1  0.143447  0.997259  0.374335  1
  Hf  Hf11  1  0.644485  0.502869  0.374643  1
  Hf  Hf12  1  0.355660  0.498327  0.875062  1
  Hf  Hf13  1  0.001864  0.855926  0.125440  1
  Hf  Hf14  1  0.997704  0.143318  0.625860  1
  Sc  Sc15  1  0.496593  0.155151  0.531114  1
  Si  Si16  1  0.795732  0.145533  0.071915  1
  Si  Si17  1  0.202811  0.853150  0.571441  1
  Si  Si18  1  0.646649  0.703513  0.821533  1
  Si  Si19  1  0.353180  0.297604  0.320266  1
  Si  Si20  1  0.854330  0.203417  0.428421  1
  Si  Si21  1  0.145449  0.796186  0.927849  1
  Si  Si22  1  0.703261  0.646184  0.178562  1
  Si  Si23  1  0.296294  0.353089  0.678449  1
  Si  Si24  1  0.547198  0.197233  0.932899  1
  Si  Si25  1  0.452988  0.803494  0.433097  1
  Si  Si26  1  0.696568  0.953463  0.683021  1
  Si  Si27  1  0.302557  0.046592  0.183248  1
  Si  Si28  1  0.802664  0.452986  0.567203  1
  Si  Si29  1  0.197066  0.547322  0.067165  1
  Si  Si30  1  0.953368  0.697226  0.316843  1
  Si  Si31  1  0.047111  0.302973  0.816871  1
  Mo  Mo32  1  0.672497  0.327721  0.750723  1
  Mo  Mo33  1  0.327403  0.671991  0.249920  1
  Mo  Mo34  1  0.828182  0.824382  0.500333  1
  Mo  Mo35  1  0.173691  0.173802  0.000186  1
