# generated using pymatgen
data_Tb3YAl18(Pd2Rh)2
_symmetry_space_group_name_H-M   'P 1'
_cell_length_a   7.61143408
_cell_length_b   7.61189634
_cell_length_c   9.46560800
_cell_angle_alpha   90.00000000
_cell_angle_beta   90.00000000
_cell_angle_gamma   119.58785868
_symmetry_Int_Tables_number   1
_chemical_formula_structural   Tb3YAl18(Pd2Rh)2
_chemical_formula_sum   'Tb3 Y1 Al18 Pd4 Rh2'
_cell_volume   476.89985627
_cell_formula_units_Z   1
loop_
 _symmetry_equiv_pos_site_id
 _symmetry_equiv_pos_as_xyz
  1  'x, y, z'
loop_
 _atom_site_type_symbol
 _atom_site_label
 _atom_site_symmetry_multiplicity
 _atom_site_fract_x
 _atom_site_fract_y
 _atom_site_fract_z
 _atom_site_occupancy
  Tb  Tb0  1  0.993941  0.667571  0.250000  1
  Tb  Tb1  1  0.006157  0.332428  0.750000  1
  Tb  Tb2  1  0.667515  0.993869  0.250000  1
  Y  Y3  1  0.332351  0.006080  0.750000  1
  Al  Al4  1  0.126637  0.126598  0.250000  1
  Al  Al5  1  0.873466  0.873494  0.750000  1
  Al  Al6  1  0.000077  0.330782  0.075691  1
  Al  Al7  1  0.000024  0.669304  0.924254  1
  Al  Al8  1  0.000024  0.669304  0.575746  1
  Al  Al9  1  0.330785  0.000050  0.424304  1
  Al  Al10  1  0.000077  0.330782  0.424309  1
  Al  Al11  1  0.669154  0.999930  0.575747  1
  Al  Al12  1  0.669154  0.999930  0.924253  1
  Al  Al13  1  0.330785  0.000050  0.075696  1
  Al  Al14  1  0.330075  0.329999  0.554515  1
  Al  Al15  1  0.669946  0.669941  0.445548  1
  Al  Al16  1  0.669946  0.669941  0.054452  1
  Al  Al17  1  0.330075  0.329999  0.945485  1
  Al  Al18  1  0.340539  0.546836  0.250000  1
  Al  Al19  1  0.659531  0.453163  0.750000  1
  Al  Al20  1  0.546803  0.340477  0.250000  1
  Al  Al21  1  0.453153  0.659458  0.750000  1
  Pd  Pd22  1  0.672129  0.327719  0.999919  1
  Pd  Pd23  1  0.327815  0.672306  0.999936  1
  Pd  Pd24  1  0.327815  0.672306  0.500064  1
  Pd  Pd25  1  0.672129  0.327719  0.500081  1
  Rh  Rh26  1  0.999949  0.999981  0.000016  1
  Rh  Rh27  1  0.999949  0.999981  0.499984  1
