# generated using pymatgen
data_SrTb3(Sn5Pd3)2
_symmetry_space_group_name_H-M   'P 1'
_cell_length_a   13.74563208
_cell_length_b   13.74563097
_cell_length_c   7.44612500
_cell_angle_alpha   90.05387933
_cell_angle_beta   89.94612068
_cell_angle_gamma   161.02758438
_symmetry_Int_Tables_number   1
_chemical_formula_structural   SrTb3(Sn5Pd3)2
_chemical_formula_sum   'Sr1 Tb3 Sn10 Pd6'
_cell_volume   457.39744367
_cell_formula_units_Z   1
loop_
 _symmetry_equiv_pos_site_id
 _symmetry_equiv_pos_as_xyz
  1  'x, y, z'
loop_
 _atom_site_type_symbol
 _atom_site_label
 _atom_site_symmetry_multiplicity
 _atom_site_fract_x
 _atom_site_fract_y
 _atom_site_fract_z
 _atom_site_occupancy
  Sr  Sr0  1  0.173593  0.826407  0.753368  1
  Tb  Tb1  1  0.825209  0.174791  0.253097  1
  Tb  Tb2  1  0.477453  0.522547  0.737278  1
  Tb  Tb3  1  0.521538  0.478462  0.238428  1
  Sn  Sn4  1  0.882109  0.117891  0.728626  1
  Sn  Sn5  1  0.118694  0.881306  0.236819  1
  Sn  Sn6  1  0.703375  0.296625  0.056383  1
  Sn  Sn7  1  0.298301  0.701699  0.546251  1
  Sn  Sn8  1  0.595037  0.404963  0.609576  1
  Sn  Sn9  1  0.400867  0.599133  0.105888  1
  Sn  Sn10  1  0.952735  0.047265  0.398753  1
  Sn  Sn11  1  0.045479  0.954521  0.900723  1
  Sn  Sn12  1  0.291825  0.708175  0.980213  1
  Sn  Sn13  1  0.713722  0.286278  0.473146  1
  Pd  Pd14  1  0.048198  0.951802  0.515456  1
  Pd  Pd15  1  0.949522  0.050478  0.017497  1
  Pd  Pd16  1  0.779880  0.220120  0.775791  1
  Pd  Pd17  1  0.223586  0.776414  0.267480  1
  Pd  Pd18  1  0.397055  0.602945  0.475071  1
  Pd  Pd19  1  0.601824  0.398176  0.986153  1
