# generated using pymatgen
data_CaSb2F12
_symmetry_space_group_name_H-M   'P 1'
_cell_length_a   11.99110367
_cell_length_b   5.93230070
_cell_length_c   5.99700900
_cell_angle_alpha   57.73360806
_cell_angle_beta   57.61424667
_cell_angle_gamma   57.18857255
_symmetry_Int_Tables_number   1
_chemical_formula_structural   CaSb2F12
_chemical_formula_sum   'Ca1 Sb2 F12'
_cell_volume   284.37467138
_cell_formula_units_Z   1
loop_
 _symmetry_equiv_pos_site_id
 _symmetry_equiv_pos_as_xyz
  1  'x, y, z'
loop_
 _atom_site_type_symbol
 _atom_site_label
 _atom_site_symmetry_multiplicity
 _atom_site_fract_x
 _atom_site_fract_y
 _atom_site_fract_z
 _atom_site_occupancy
  Ca  Ca0  1  0.750000  0.500000  0.500000  1
  Sb  Sb1  1  0.002942  0.986749  0.007408  1
  Sb  Sb2  1  0.497058  0.013251  0.992592  1
  F  F3  1  0.145340  0.145148  0.780606  1
  F  F4  1  0.661586  0.137790  0.770355  1
  F  F5  1  0.052555  0.780052  0.333048  1
  F  F6  1  0.582316  0.777518  0.286568  1
  F  F7  1  0.101798  0.677486  0.878008  1
  F  F8  1  0.623729  0.691909  0.850529  1
  F  F9  1  0.447445  0.219948  0.666952  1
  F  F10  1  0.917684  0.222482  0.713432  1
  F  F11  1  0.354660  0.854852  0.219394  1
  F  F12  1  0.838414  0.862210  0.229645  1
  F  F13  1  0.398202  0.322514  0.121992  1
  F  F14  1  0.876271  0.308091  0.149471  1
