# generated using pymatgen
data_Tm3Th3Mn2(Co4P3)4
_symmetry_space_group_name_H-M   'P 1'
_cell_length_a   3.73810400
_cell_length_b   10.58871707
_cell_length_c   12.25973000
_cell_angle_alpha   90.11304533
_cell_angle_beta   90.00000000
_cell_angle_gamma   90.00000000
_symmetry_Int_Tables_number   1
_chemical_formula_structural   Tm3Th3Mn2(Co4P3)4
_chemical_formula_sum   'Tm3 Th3 Mn2 Co16 P12'
_cell_volume   485.26032485
_cell_formula_units_Z   1
loop_
 _symmetry_equiv_pos_site_id
 _symmetry_equiv_pos_as_xyz
  1  'x, y, z'
loop_
 _atom_site_type_symbol
 _atom_site_label
 _atom_site_symmetry_multiplicity
 _atom_site_fract_x
 _atom_site_fract_y
 _atom_site_fract_z
 _atom_site_occupancy
  Tm  Tm0  1  0.500000  0.186150  0.202390  1
  Tm  Tm1  1  0.000000  0.682799  0.797920  1
  Tm  Tm2  1  0.000000  0.316553  0.795436  1
  Th  Th3  1  0.000000  0.499771  0.526160  1
  Th  Th4  1  0.500000  0.001880  0.476468  1
  Th  Th5  1  0.500000  0.819115  0.205122  1
  Mn  Mn6  1  0.500000  0.498257  0.154937  1
  Mn  Mn7  1  0.000000  0.000173  0.845073  1
  Co  Co8  1  0.500000  0.498911  0.702837  1
  Co  Co9  1  0.000000  0.000006  0.296481  1
  Co  Co10  1  0.000000  0.497607  0.982124  1
  Co  Co11  1  0.500000  0.002700  0.012213  1
  Co  Co12  1  0.500000  0.333622  0.993092  1
  Co  Co13  1  0.500000  0.664580  0.992682  1
  Co  Co14  1  0.000000  0.169679  0.003807  1
  Co  Co15  1  0.000000  0.833805  0.003969  1
  Co  Co16  1  0.500000  0.298145  0.429434  1
  Co  Co17  1  0.500000  0.700343  0.433511  1
  Co  Co18  1  0.000000  0.201946  0.570347  1
  Co  Co19  1  0.000000  0.798324  0.574380  1
  Co  Co20  1  0.500000  0.878976  0.714672  1
  Co  Co21  1  0.500000  0.120706  0.712444  1
  Co  Co22  1  0.000000  0.619595  0.287895  1
  Co  Co23  1  0.000000  0.378606  0.286504  1
  P  P24  1  0.500000  0.498642  0.880149  1
  P  P25  1  0.000000  0.006317  0.113999  1
  P  P26  1  0.500000  0.499379  0.339304  1
  P  P27  1  0.000000  0.999616  0.661868  1
  P  P28  1  0.500000  0.305516  0.618935  1
  P  P29  1  0.500000  0.693184  0.621975  1
  P  P30  1  0.000000  0.194393  0.380344  1
  P  P31  1  0.000000  0.803866  0.389569  1
  P  P32  1  0.500000  0.845919  0.894364  1
  P  P33  1  0.500000  0.155537  0.892275  1
  P  P34  1  0.000000  0.648168  0.102139  1
  P  P35  1  0.000000  0.347213  0.105178  1
