# generated using pymatgen
data_LaY3Tm6(Si3Pt)2
_symmetry_space_group_name_H-M   'P 1'
_cell_length_a   7.27793200
_cell_length_b   7.90653340
_cell_length_c   14.52601415
_cell_angle_alpha   89.92991010
_cell_angle_beta   90.00000000
_cell_angle_gamma   90.00000000
_symmetry_Int_Tables_number   1
_chemical_formula_structural   LaY3Tm6(Si3Pt)2
_chemical_formula_sum   'La2 Y6 Tm12 Si12 Pt4'
_cell_volume   835.87289232
_cell_formula_units_Z   2
loop_
 _symmetry_equiv_pos_site_id
 _symmetry_equiv_pos_as_xyz
  1  'x, y, z'
loop_
 _atom_site_type_symbol
 _atom_site_label
 _atom_site_symmetry_multiplicity
 _atom_site_fract_x
 _atom_site_fract_y
 _atom_site_fract_z
 _atom_site_occupancy
  La  La0  1  0.512873  0.573695  0.337961  1
  La  La1  1  0.012873  0.426305  0.662039  1
  Y  Y2  1  0.484023  0.933661  0.843146  1
  Y  Y3  1  0.984023  0.066339  0.156854  1
  Y  Y4  1  0.481140  0.936757  0.154431  1
  Y  Y5  1  0.981140  0.063243  0.845569  1
  Y  Y6  1  0.516554  0.567291  0.658323  1
  Y  Y7  1  0.016554  0.432709  0.341677  1
  Tm  Tm8  1  0.812142  0.577894  0.878386  1
  Tm  Tm9  1  0.312142  0.422106  0.121614  1
  Tm  Tm10  1  0.185262  0.926066  0.377051  1
  Tm  Tm11  1  0.685262  0.073934  0.622949  1
  Tm  Tm12  1  0.186483  0.924101  0.624271  1
  Tm  Tm13  1  0.686483  0.075899  0.375729  1
  Tm  Tm14  1  0.815296  0.575375  0.122338  1
  Tm  Tm15  1  0.315296  0.424625  0.877662  1
  Tm  Tm16  1  0.661689  0.235411  0.999649  1
  Tm  Tm17  1  0.161689  0.764589  0.000351  1
  Tm  Tm18  1  0.339992  0.264913  0.499326  1
  Tm  Tm19  1  0.839992  0.735087  0.500674  1
  Si  Si20  1  0.651281  0.276530  0.790940  1
  Si  Si21  1  0.151281  0.723470  0.209060  1
  Si  Si22  1  0.347168  0.216732  0.286986  1
  Si  Si23  1  0.847168  0.783268  0.713014  1
  Si  Si24  1  0.356826  0.219354  0.711714  1
  Si  Si25  1  0.856826  0.780646  0.288286  1
  Si  Si26  1  0.650666  0.274274  0.208132  1
  Si  Si27  1  0.150666  0.725726  0.791868  1
  Si  Si28  1  0.767985  0.881380  0.000271  1
  Si  Si29  1  0.267985  0.118620  0.999729  1
  Si  Si30  1  0.230291  0.620759  0.502512  1
  Si  Si31  1  0.730291  0.379241  0.497488  1
  Pt  Pt32  1  0.517638  0.650461  0.001097  1
  Pt  Pt33  1  0.017638  0.349539  0.998903  1
  Pt  Pt34  1  0.482691  0.851101  0.501678  1
  Pt  Pt35  1  0.982691  0.148899  0.498322  1
