# generated using pymatgen
data_Re2Tc3Ru2
_symmetry_space_group_name_H-M   'P 1'
_cell_length_a   4.78482265
_cell_length_b   7.04927984
_cell_length_c   6.49523827
_cell_angle_alpha   94.29161256
_cell_angle_beta   111.61285229
_cell_angle_gamma   90.00000147
_symmetry_Int_Tables_number   1
_chemical_formula_structural   Re2Tc3Ru2
_chemical_formula_sum   'Re4 Tc6 Ru4'
_cell_volume   203.01783839
_cell_formula_units_Z   2
loop_
 _symmetry_equiv_pos_site_id
 _symmetry_equiv_pos_as_xyz
  1  'x, y, z'
loop_
 _atom_site_type_symbol
 _atom_site_label
 _atom_site_symmetry_multiplicity
 _atom_site_fract_x
 _atom_site_fract_y
 _atom_site_fract_z
 _atom_site_occupancy
  Re  Re0  1  0.527588  0.039264  0.720731  1
  Re  Re1  1  0.472412  0.960736  0.279269  1
  Re  Re2  1  0.806859  0.460736  0.279269  1
  Re  Re3  1  0.193141  0.539264  0.720731  1
  Tc  Tc4  1  0.385395  0.324519  0.433631  1
  Tc  Tc5  1  0.614605  0.675481  0.566369  1
  Tc  Tc6  1  0.951765  0.175481  0.566369  1
  Tc  Tc7  1  0.048235  0.824519  0.433631  1
  Tc  Tc8  1  0.335805  0.250000  0.000000  1
  Tc  Tc9  1  0.664195  0.750000  0.000000  1
  Ru  Ru10  1  0.239691  0.608039  0.144247  1
  Ru  Ru11  1  0.760309  0.391961  0.855753  1
  Ru  Ru12  1  0.095445  0.891961  0.855753  1
  Ru  Ru13  1  0.904555  0.108039  0.144247  1
