# generated using pymatgen
data_DyEr(IrO4)2
_symmetry_space_group_name_H-M   'P 1'
_cell_length_a   5.33786019
_cell_length_b   7.61394366
_cell_length_c   7.38818186
_cell_angle_alpha   80.81300703
_cell_angle_beta   90.81559381
_cell_angle_gamma   92.96827318
_symmetry_Int_Tables_number   1
_chemical_formula_structural   DyEr(IrO4)2
_chemical_formula_sum   'Dy2 Er2 Ir4 O16'
_cell_volume   296.01688369
_cell_formula_units_Z   2
loop_
 _symmetry_equiv_pos_site_id
 _symmetry_equiv_pos_as_xyz
  1  'x, y, z'
loop_
 _atom_site_type_symbol
 _atom_site_label
 _atom_site_symmetry_multiplicity
 _atom_site_fract_x
 _atom_site_fract_y
 _atom_site_fract_z
 _atom_site_occupancy
  Dy  Dy0  1  0.263452  0.127438  0.612425  1
  Dy  Dy1  1  0.736548  0.872562  0.387575  1
  Er  Er2  1  0.201483  0.164808  0.106038  1
  Er  Er3  1  0.798517  0.835192  0.893962  1
  Ir  Ir4  1  0.238892  0.660445  0.203176  1
  Ir  Ir5  1  0.761108  0.339555  0.796824  1
  Ir  Ir6  1  0.718178  0.337500  0.300158  1
  Ir  Ir7  1  0.281822  0.662500  0.699842  1
  O  O8  1  0.079884  0.446146  0.688131  1
  O  O9  1  0.920116  0.553854  0.311869  1
  O  O10  1  0.607763  0.328430  0.552897  1
  O  O11  1  0.392237  0.671570  0.447103  1
  O  O12  1  0.865290  0.332318  0.055511  1
  O  O13  1  0.134710  0.667682  0.944489  1
  O  O14  1  0.400956  0.437306  0.192664  1
  O  O15  1  0.599044  0.562694  0.807336  1
  O  O16  1  0.046410  0.887606  0.171179  1
  O  O17  1  0.953590  0.112394  0.828821  1
  O  O18  1  0.497169  0.108016  0.321031  1
  O  O19  1  0.502831  0.891984  0.678969  1
  O  O20  1  0.456934  0.200000  0.876586  1
  O  O21  1  0.543066  0.800000  0.123414  1
  O  O22  1  0.983209  0.168968  0.381112  1
  O  O23  1  0.016791  0.831032  0.618888  1
