# generated using pymatgen
data_Ce2Ho9Tm5(CdRu)4
_symmetry_space_group_name_H-M   'P 1'
_cell_length_a   9.65337542
_cell_length_b   9.55158975
_cell_length_c   9.55159151
_cell_angle_alpha   59.60943160
_cell_angle_beta   59.64686948
_cell_angle_gamma   59.64686550
_symmetry_Int_Tables_number   1
_chemical_formula_structural   Ce2Ho9Tm5(CdRu)4
_chemical_formula_sum   'Ce2 Ho9 Tm5 Cd4 Ru4'
_cell_volume   617.57856159
_cell_formula_units_Z   1
loop_
 _symmetry_equiv_pos_site_id
 _symmetry_equiv_pos_as_xyz
  1  'x, y, z'
loop_
 _atom_site_type_symbol
 _atom_site_label
 _atom_site_symmetry_multiplicity
 _atom_site_fract_x
 _atom_site_fract_y
 _atom_site_fract_z
 _atom_site_occupancy
  Ce  Ce0  1  0.970160  0.340934  0.340934  1
  Ce  Ce1  1  0.347973  0.340934  0.340934  1
  Ho  Ho2  1  0.938859  0.561141  0.561141  1
  Ho  Ho3  1  0.190533  0.188296  0.811971  1
  Ho  Ho4  1  0.809199  0.188296  0.811971  1
  Ho  Ho5  1  0.188900  0.811100  0.811099  1
  Ho  Ho6  1  0.809199  0.811972  0.188296  1
  Ho  Ho7  1  0.190532  0.811971  0.188295  1
  Ho  Ho8  1  0.810603  0.189397  0.189397  1
  Ho  Ho9  1  0.348798  0.350011  0.952394  1
  Ho  Ho10  1  0.348798  0.952394  0.350011  1
  Tm  Tm11  1  0.563460  0.562674  0.937424  1
  Tm  Tm12  1  0.936444  0.562674  0.937424  1
  Tm  Tm13  1  0.562146  0.937854  0.937854  1
  Tm  Tm14  1  0.936444  0.937424  0.562674  1
  Tm  Tm15  1  0.563460  0.937424  0.562674  1
  Cd  Cd16  1  0.582225  0.579420  0.256127  1
  Cd  Cd17  1  0.582225  0.256127  0.579420  1
  Cd  Cd18  1  0.259114  0.579866  0.579866  1
  Cd  Cd19  1  0.581152  0.579866  0.579866  1
  Ru  Ru20  1  0.137465  0.151728  0.573341  1
  Ru  Ru21  1  0.137465  0.573341  0.151728  1
  Ru  Ru22  1  0.573097  0.147576  0.147576  1
  Ru  Ru23  1  0.131750  0.147576  0.147576  1
