# generated using pymatgen
data_Li5Nb(SnRh2)6
_symmetry_space_group_name_H-M   'P 1'
_cell_length_a   4.43892000
_cell_length_b   6.23596700
_cell_length_c   13.30330700
_cell_angle_alpha   90.00020874
_cell_angle_beta   90.00143777
_cell_angle_gamma   89.99975520
_symmetry_Int_Tables_number   1
_chemical_formula_structural   Li5Nb(SnRh2)6
_chemical_formula_sum   'Li5 Nb1 Sn6 Rh12'
_cell_volume   368.24829072
_cell_formula_units_Z   1
loop_
 _symmetry_equiv_pos_site_id
 _symmetry_equiv_pos_as_xyz
  1  'x, y, z'
loop_
 _atom_site_type_symbol
 _atom_site_label
 _atom_site_symmetry_multiplicity
 _atom_site_fract_x
 _atom_site_fract_y
 _atom_site_fract_z
 _atom_site_occupancy
  Li  Li0  1  0.499832  0.500170  0.168228  1
  Li  Li1  1  0.999804  0.999818  0.334612  1
  Li  Li2  1  0.499999  0.500219  0.500000  1
  Li  Li3  1  0.000190  0.999818  0.665388  1
  Li  Li4  1  0.500166  0.500171  0.831773  1
  Nb  Nb5  1  0.999999  0.999893  0.000000  1
  Sn  Sn6  1  0.999997  0.500178  0.000002  1
  Sn  Sn7  1  0.499841  0.999717  0.174999  1
  Sn  Sn8  1  0.999801  0.500299  0.337978  1
  Sn  Sn9  1  0.500014  0.999907  0.500005  1
  Sn  Sn10  1  0.000200  0.500298  0.662014  1
  Sn  Sn11  1  0.500163  0.999708  0.824995  1
  Rh  Rh12  1  0.499995  0.245763  0.000003  1
  Rh  Rh13  1  0.500000  0.754139  0.000000  1
  Rh  Rh14  1  0.999862  0.250435  0.166210  1
  Rh  Rh15  1  0.999855  0.749535  0.166192  1
  Rh  Rh16  1  0.499785  0.252786  0.334795  1
  Rh  Rh17  1  0.499795  0.747186  0.334789  1
  Rh  Rh18  1  0.000004  0.247107  0.499998  1
  Rh  Rh19  1  0.000000  0.752902  0.500002  1
  Rh  Rh20  1  0.500208  0.252787  0.665213  1
  Rh  Rh21  1  0.500206  0.747181  0.665213  1
  Rh  Rh22  1  0.000139  0.250436  0.833787  1
  Rh  Rh23  1  0.000140  0.749537  0.833810  1
