# generated using pymatgen
data_Tb5MnPtO12
_symmetry_space_group_name_H-M   'P 1'
_cell_length_a   6.88470165
_cell_length_b   6.88470135
_cell_length_c   7.29558200
_cell_angle_alpha   74.56595618
_cell_angle_beta   74.56595995
_cell_angle_gamma   50.64242836
_symmetry_Int_Tables_number   1
_chemical_formula_structural   Tb5MnPtO12
_chemical_formula_sum   'Tb5 Mn1 Pt1 O12'
_cell_volume   255.52615356
_cell_formula_units_Z   1
loop_
 _symmetry_equiv_pos_site_id
 _symmetry_equiv_pos_as_xyz
  1  'x, y, z'
loop_
 _atom_site_type_symbol
 _atom_site_label
 _atom_site_symmetry_multiplicity
 _atom_site_fract_x
 _atom_site_fract_y
 _atom_site_fract_z
 _atom_site_occupancy
  Tb  Tb0  1  0.694132  0.692888  0.666839  1
  Tb  Tb1  1  0.692128  0.703899  0.140587  1
  Tb  Tb2  1  0.000960  0.999040  0.000000  1
  Tb  Tb3  1  0.296101  0.307872  0.859413  1
  Tb  Tb4  1  0.307112  0.305868  0.333161  1
  Mn  Mn5  1  0.248450  0.751550  0.500000  1
  Pt  Pt6  1  0.756003  0.243997  0.500000  1
  O  O7  1  0.401208  0.905220  0.924850  1
  O  O8  1  0.572267  0.095743  0.583304  1
  O  O9  1  0.904257  0.427733  0.416696  1
  O  O10  1  0.094780  0.598792  0.075150  1
  O  O11  1  0.012146  0.988103  0.319668  1
  O  O12  1  0.492756  0.507281  0.682748  1
  O  O13  1  0.901197  0.402488  0.925878  1
  O  O14  1  0.100817  0.576441  0.581483  1
  O  O15  1  0.423559  0.899183  0.418517  1
  O  O16  1  0.597512  0.098803  0.074122  1
  O  O17  1  0.492719  0.507244  0.317252  1
  O  O18  1  0.011897  0.987854  0.680332  1
