# generated using pymatgen
data_Nd5(DyS4)3
_symmetry_space_group_name_H-M   'P 1'
_cell_length_a   4.00518300
_cell_length_b   10.54974634
_cell_length_c   10.90312233
_cell_angle_alpha   90.02856491
_cell_angle_beta   90.00000000
_cell_angle_gamma   90.00000000
_symmetry_Int_Tables_number   1
_chemical_formula_structural   Nd5(DyS4)3
_chemical_formula_sum   'Nd5 Dy3 S12'
_cell_volume   460.69681766
_cell_formula_units_Z   1
loop_
 _symmetry_equiv_pos_site_id
 _symmetry_equiv_pos_as_xyz
  1  'x, y, z'
loop_
 _atom_site_type_symbol
 _atom_site_label
 _atom_site_symmetry_multiplicity
 _atom_site_fract_x
 _atom_site_fract_y
 _atom_site_fract_z
 _atom_site_occupancy
  Nd  Nd0  1  0.250000  0.996550  0.808217  1
  Nd  Nd1  1  0.750000  0.000476  0.192510  1
  Nd  Nd2  1  0.750000  0.500156  0.695420  1
  Nd  Nd3  1  0.250000  0.504560  0.304134  1
  Nd  Nd4  1  0.250000  0.186236  0.490330  1
  Dy  Dy5  1  0.750000  0.812887  0.508835  1
  Dy  Dy6  1  0.750000  0.685982  0.008371  1
  Dy  Dy7  1  0.250000  0.314132  0.991143  1
  S  S8  1  0.250000  0.300579  0.733836  1
  S  S9  1  0.750000  0.701536  0.269078  1
  S  S10  1  0.750000  0.797138  0.770810  1
  S  S11  1  0.250000  0.200033  0.225985  1
  S  S12  1  0.250000  0.940112  0.382688  1
  S  S13  1  0.750000  0.050726  0.619004  1
  S  S14  1  0.750000  0.445068  0.113979  1
  S  S15  1  0.250000  0.555940  0.886329  1
  S  S16  1  0.250000  0.866921  0.044467  1
  S  S17  1  0.750000  0.132096  0.955709  1
  S  S18  1  0.750000  0.375552  0.454396  1
  S  S19  1  0.250000  0.633320  0.544760  1
