# generated using pymatgen
data_Ho6Be(P3Rh5)4
_symmetry_space_group_name_H-M   'P 1'
_cell_length_a   13.30897800
_cell_length_b   13.30897609
_cell_length_c   3.90643200
_cell_angle_alpha   90.00000000
_cell_angle_beta   90.00000000
_cell_angle_gamma   119.99999480
_symmetry_Int_Tables_number   1
_chemical_formula_structural   Ho6Be(P3Rh5)4
_chemical_formula_sum   'Ho6 Be1 P12 Rh20'
_cell_volume   599.23928267
_cell_formula_units_Z   1
loop_
 _symmetry_equiv_pos_site_id
 _symmetry_equiv_pos_as_xyz
  1  'x, y, z'
loop_
 _atom_site_type_symbol
 _atom_site_label
 _atom_site_symmetry_multiplicity
 _atom_site_fract_x
 _atom_site_fract_y
 _atom_site_fract_z
 _atom_site_occupancy
  Ho  Ho0  1  0.530367  0.717601  0.248001  1
  Ho  Ho1  1  0.282399  0.812766  0.248001  1
  Ho  Ho2  1  0.187234  0.469633  0.248001  1
  Ho  Ho3  1  0.469633  0.282399  0.751999  1
  Ho  Ho4  1  0.717601  0.187234  0.751999  1
  Ho  Ho5  1  0.812766  0.530367  0.751999  1
  Be  Be6  1  0.000000  0.000000  0.000000  1
  P  P7  1  0.526526  0.139579  0.250939  1
  P  P8  1  0.860421  0.386949  0.250939  1
  P  P9  1  0.613051  0.473474  0.250939  1
  P  P10  1  0.947285  0.719094  0.252234  1
  P  P11  1  0.280906  0.228192  0.252234  1
  P  P12  1  0.771808  0.052715  0.252234  1
  P  P13  1  0.386949  0.526526  0.749061  1
  P  P14  1  0.473474  0.860421  0.749061  1
  P  P15  1  0.139579  0.613051  0.749061  1
  P  P16  1  0.719094  0.771808  0.747766  1
  P  P17  1  0.228192  0.947285  0.747766  1
  P  P18  1  0.052715  0.280906  0.747766  1
  Rh  Rh19  1  0.333333  0.666667  0.752387  1
  Rh  Rh20  1  0.921748  0.249954  0.252253  1
  Rh  Rh21  1  0.750046  0.671794  0.252253  1
  Rh  Rh22  1  0.328206  0.078252  0.252253  1
  Rh  Rh23  1  0.437765  0.023148  0.750521  1
  Rh  Rh24  1  0.976852  0.414618  0.750521  1
  Rh  Rh25  1  0.585382  0.562235  0.750521  1
  Rh  Rh26  1  0.666667  0.333333  0.247613  1
  Rh  Rh27  1  0.091989  0.190325  0.244313  1
  Rh  Rh28  1  0.809675  0.901664  0.244313  1
  Rh  Rh29  1  0.098336  0.908011  0.244313  1
  Rh  Rh30  1  0.023148  0.585382  0.249479  1
  Rh  Rh31  1  0.414618  0.437765  0.249479  1
  Rh  Rh32  1  0.562235  0.976852  0.249479  1
  Rh  Rh33  1  0.671794  0.921748  0.747747  1
  Rh  Rh34  1  0.078252  0.750046  0.747747  1
  Rh  Rh35  1  0.249954  0.328206  0.747747  1
  Rh  Rh36  1  0.908011  0.809675  0.755687  1
  Rh  Rh37  1  0.190325  0.098336  0.755687  1
  Rh  Rh38  1  0.901664  0.091989  0.755687  1
