# generated using pymatgen
data_Pr18Er2Si15Ir
_symmetry_space_group_name_H-M   'P 1'
_cell_length_a   7.88513316
_cell_length_b   7.89398041
_cell_length_c   15.23563237
_cell_angle_alpha   90.08176914
_cell_angle_beta   89.70460333
_cell_angle_gamma   90.04219178
_symmetry_Int_Tables_number   1
_chemical_formula_structural   Pr18Er2Si15Ir
_chemical_formula_sum   'Pr18 Er2 Si15 Ir1'
_cell_volume   948.32943600
_cell_formula_units_Z   1
loop_
 _symmetry_equiv_pos_site_id
 _symmetry_equiv_pos_as_xyz
  1  'x, y, z'
loop_
 _atom_site_type_symbol
 _atom_site_label
 _atom_site_symmetry_multiplicity
 _atom_site_fract_x
 _atom_site_fract_y
 _atom_site_fract_z
 _atom_site_occupancy
  Pr  Pr0  1  0.822309  0.188297  0.749954  1
  Pr  Pr1  1  0.694181  0.688054  0.500141  1
  Pr  Pr2  1  0.372830  0.010321  0.448045  1
  Pr  Pr3  1  0.488067  0.877277  0.699113  1
  Pr  Pr4  1  0.510308  0.124185  0.196848  1
  Pr  Pr5  1  0.876472  0.487884  0.299922  1
  Pr  Pr6  1  0.125992  0.507304  0.800898  1
  Pr  Pr7  1  0.625653  0.988773  0.948978  1
  Pr  Pr8  1  0.006346  0.375318  0.551748  1
  Pr  Pr9  1  0.988991  0.625717  0.052412  1
  Pr  Pr10  1  0.134451  0.984334  0.874920  1
  Pr  Pr11  1  0.517212  0.631810  0.125629  1
  Pr  Pr12  1  0.472798  0.362782  0.629354  1
  Pr  Pr13  1  0.627807  0.515281  0.874251  1
  Pr  Pr14  1  0.372829  0.481780  0.371875  1
  Pr  Pr15  1  0.872453  0.020300  0.375815  1
  Pr  Pr16  1  0.982380  0.127783  0.124425  1
  Pr  Pr17  1  0.026378  0.879403  0.624599  1
  Er  Er18  1  0.307546  0.308946  0.999363  1
  Er  Er19  1  0.189032  0.810114  0.250306  1
  Si  Si20  1  0.330831  0.690871  0.952835  1
  Si  Si21  1  0.663235  0.303014  0.452023  1
  Si  Si22  1  0.693184  0.332473  0.048401  1
  Si  Si23  1  0.305366  0.668454  0.546136  1
  Si  Si24  1  0.809719  0.830455  0.204058  1
  Si  Si25  1  0.170095  0.192650  0.295822  1
  Si  Si26  1  0.833461  0.802585  0.799524  1
  Si  Si27  1  0.287040  0.924156  0.062172  1
  Si  Si28  1  0.574354  0.788296  0.308828  1
  Si  Si29  1  0.421491  0.210464  0.816797  1
  Si  Si30  1  0.782397  0.581630  0.690580  1
  Si  Si31  1  0.213385  0.424528  0.187097  1
  Si  Si32  1  0.703890  0.073541  0.558607  1
  Si  Si33  1  0.925213  0.288453  0.942955  1
  Si  Si34  1  0.082708  0.716924  0.436599  1
  Ir  Ir35  1  0.189593  0.175842  0.698971  1
