# generated using pymatgen
data_Er2PaIn3Ir2Rh
_symmetry_space_group_name_H-M   'P 1'
_cell_length_a   7.57634878
_cell_length_b   7.80366768
_cell_length_c   3.78629700
_cell_angle_alpha   90.00000000
_cell_angle_beta   90.00000000
_cell_angle_gamma   120.99757715
_symmetry_Int_Tables_number   1
_chemical_formula_structural   Er2PaIn3Ir2Rh
_chemical_formula_sum   'Er2 Pa1 In3 Ir2 Rh1'
_cell_volume   191.88897945
_cell_formula_units_Z   1
loop_
 _symmetry_equiv_pos_site_id
 _symmetry_equiv_pos_as_xyz
  1  'x, y, z'
loop_
 _atom_site_type_symbol
 _atom_site_label
 _atom_site_symmetry_multiplicity
 _atom_site_fract_x
 _atom_site_fract_y
 _atom_site_fract_z
 _atom_site_occupancy
  Er  Er0  1  0.403885  0.405911  0.500000  1
  Er  Er1  1  0.596115  0.002026  0.500000  1
  Pa  Pa2  1  0.000000  0.582021  0.500000  1
  In  In3  1  0.272551  0.013532  0.000000  1
  In  In4  1  0.727449  0.740982  0.000000  1
  In  In5  1  0.000000  0.241807  0.000000  1
  Ir  Ir6  1  0.698002  0.361992  0.000000  1
  Ir  Ir7  1  0.301998  0.663991  0.000000  1
  Rh  Rh8  1  0.000000  0.987737  0.500000  1
