# generated using pymatgen
data_HoTm2Lu9Co5Bi
_symmetry_space_group_name_H-M   'P 1'
_cell_length_a   8.14872090
_cell_length_b   8.15219939
_cell_length_c   8.14511519
_cell_angle_alpha   111.06630678
_cell_angle_beta   111.02362663
_cell_angle_gamma   106.42403221
_symmetry_Int_Tables_number   1
_chemical_formula_structural   HoTm2Lu9Co5Bi
_chemical_formula_sum   'Ho1 Tm2 Lu9 Co5 Bi1'
_cell_volume   415.33942264
_cell_formula_units_Z   1
loop_
 _symmetry_equiv_pos_site_id
 _symmetry_equiv_pos_as_xyz
  1  'x, y, z'
loop_
 _atom_site_type_symbol
 _atom_site_label
 _atom_site_symmetry_multiplicity
 _atom_site_fract_x
 _atom_site_fract_y
 _atom_site_fract_z
 _atom_site_occupancy
  Ho  Ho0  1  0.015605  0.211573  0.804815  1
  Tm  Tm1  1  0.815992  0.713384  0.530445  1
  Tm  Tm2  1  0.183142  0.284837  0.467107  1
  Lu  Lu3  1  0.183333  0.716215  0.898649  1
  Lu  Lu4  1  0.815763  0.285391  0.102276  1
  Lu  Lu5  1  0.688034  0.380176  0.691043  1
  Lu  Lu6  1  0.312069  0.621133  0.309655  1
  Lu  Lu7  1  0.687427  0.996970  0.307280  1
  Lu  Lu8  1  0.312645  0.002435  0.691536  1
  Lu  Lu9  1  0.593162  0.789335  0.804834  1
  Lu  Lu10  1  0.407667  0.210400  0.196308  1
  Lu  Lu11  1  0.985403  0.788867  0.195630  1
  Co  Co12  1  0.624329  0.999299  0.625145  1
  Co  Co13  1  0.374407  0.000365  0.373896  1
  Co  Co14  1  0.113176  0.612833  0.500427  1
  Co  Co15  1  0.886477  0.387646  0.498788  1
  Co  Co16  1  0.000245  0.998670  0.001555  1
  Bi  Bi17  1  0.501126  0.500474  0.000611  1
