# generated using pymatgen
data_Ti3Mn4AlPt8
_symmetry_space_group_name_H-M   'P 1'
_cell_length_a   5.59174279
_cell_length_b   5.59174287
_cell_length_c   7.60251300
_cell_angle_alpha   90.00000000
_cell_angle_beta   90.00000000
_cell_angle_gamma   89.98979448
_symmetry_Int_Tables_number   1
_chemical_formula_structural   Ti3Mn4AlPt8
_chemical_formula_sum   'Ti3 Mn4 Al1 Pt8'
_cell_volume   237.71223952
_cell_formula_units_Z   1
loop_
 _symmetry_equiv_pos_site_id
 _symmetry_equiv_pos_as_xyz
  1  'x, y, z'
loop_
 _atom_site_type_symbol
 _atom_site_label
 _atom_site_symmetry_multiplicity
 _atom_site_fract_x
 _atom_site_fract_y
 _atom_site_fract_z
 _atom_site_occupancy
  Ti  Ti0  1  0.500000  0.000000  0.250030  1
  Ti  Ti1  1  0.000000  0.500000  0.250133  1
  Ti  Ti2  1  0.500000  0.000000  0.750105  1
  Mn  Mn3  1  0.000000  0.000000  0.249889  1
  Mn  Mn4  1  0.500000  0.500000  0.249889  1
  Mn  Mn5  1  0.000000  0.000000  0.750078  1
  Mn  Mn6  1  0.500000  0.500000  0.750078  1
  Al  Al7  1  0.000000  0.500000  0.749784  1
  Pt  Pt8  1  0.248536  0.251464  0.998195  1
  Pt  Pt9  1  0.749145  0.249145  0.998843  1
  Pt  Pt10  1  0.250855  0.750855  0.998843  1
  Pt  Pt11  1  0.751464  0.748536  0.998195  1
  Pt  Pt12  1  0.750189  0.250189  0.501469  1
  Pt  Pt13  1  0.249651  0.250349  0.501500  1
  Pt  Pt14  1  0.750349  0.749651  0.501500  1
  Pt  Pt15  1  0.249811  0.749811  0.501469  1
