# generated using pymatgen
data_PrHo3(Si3Ir)2
_symmetry_space_group_name_H-M   'P 1'
_cell_length_a   8.20712400
_cell_length_b   8.20712461
_cell_length_c   8.03473800
_cell_angle_alpha   90.00000000
_cell_angle_beta   90.00000000
_cell_angle_gamma   120.00000561
_symmetry_Int_Tables_number   1
_chemical_formula_structural   PrHo3(Si3Ir)2
_chemical_formula_sum   'Pr2 Ho6 Si12 Ir4'
_cell_volume   468.68855579
_cell_formula_units_Z   2
loop_
 _symmetry_equiv_pos_site_id
 _symmetry_equiv_pos_as_xyz
  1  'x, y, z'
loop_
 _atom_site_type_symbol
 _atom_site_label
 _atom_site_symmetry_multiplicity
 _atom_site_fract_x
 _atom_site_fract_y
 _atom_site_fract_z
 _atom_site_occupancy
  Pr  Pr0  1  0.000000  0.000000  0.250000  1
  Pr  Pr1  1  0.000000  0.000000  0.750000  1
  Ho  Ho2  1  0.508892  0.491108  0.250000  1
  Ho  Ho3  1  0.508892  0.017784  0.250000  1
  Ho  Ho4  1  0.982216  0.491108  0.250000  1
  Ho  Ho5  1  0.491108  0.508892  0.750000  1
  Ho  Ho6  1  0.491108  0.982216  0.750000  1
  Ho  Ho7  1  0.017784  0.508892  0.750000  1
  Si  Si8  1  0.168553  0.831447  0.500622  1
  Si  Si9  1  0.168553  0.337107  0.500622  1
  Si  Si10  1  0.662893  0.831447  0.500622  1
  Si  Si11  1  0.831447  0.168553  0.499378  1
  Si  Si12  1  0.831447  0.662893  0.499378  1
  Si  Si13  1  0.337107  0.168553  0.499378  1
  Si  Si14  1  0.831447  0.168553  0.000622  1
  Si  Si15  1  0.831447  0.662893  0.000622  1
  Si  Si16  1  0.337107  0.168553  0.000622  1
  Si  Si17  1  0.168553  0.831447  0.999378  1
  Si  Si18  1  0.168553  0.337107  0.999378  1
  Si  Si19  1  0.662893  0.831447  0.999378  1
  Ir  Ir20  1  0.333333  0.666667  0.465528  1
  Ir  Ir21  1  0.666667  0.333333  0.534472  1
  Ir  Ir22  1  0.666667  0.333333  0.965528  1
  Ir  Ir23  1  0.333333  0.666667  0.034472  1
