# generated using pymatgen
data_Pr4InRu
_symmetry_space_group_name_H-M   'P 1'
_cell_length_a   10.00920319
_cell_length_b   10.00920322
_cell_length_c   10.00920300
_cell_angle_alpha   59.99999743
_cell_angle_beta   59.99999732
_cell_angle_gamma   59.99999832
_symmetry_Int_Tables_number   1
_chemical_formula_structural   Pr4InRu
_chemical_formula_sum   'Pr16 In4 Ru4'
_cell_volume   709.06082144
_cell_formula_units_Z   4
loop_
 _symmetry_equiv_pos_site_id
 _symmetry_equiv_pos_as_xyz
  1  'x, y, z'
loop_
 _atom_site_type_symbol
 _atom_site_label
 _atom_site_symmetry_multiplicity
 _atom_site_fract_x
 _atom_site_fract_y
 _atom_site_fract_z
 _atom_site_occupancy
  Pr  Pr0  1  0.059529  0.440471  0.440471  1
  Pr  Pr1  1  0.193206  0.806794  0.193206  1
  Pr  Pr2  1  0.652918  0.652918  0.652918  1
  Pr  Pr3  1  0.440471  0.440471  0.059529  1
  Pr  Pr4  1  0.059529  0.440471  0.059529  1
  Pr  Pr5  1  0.440471  0.059529  0.059529  1
  Pr  Pr6  1  0.059529  0.059529  0.440471  1
  Pr  Pr7  1  0.652918  0.652918  0.041246  1
  Pr  Pr8  1  0.652918  0.041246  0.652918  1
  Pr  Pr9  1  0.193206  0.806794  0.806794  1
  Pr  Pr10  1  0.440471  0.059529  0.440471  1
  Pr  Pr11  1  0.193206  0.193206  0.806794  1
  Pr  Pr12  1  0.041246  0.652918  0.652918  1
  Pr  Pr13  1  0.806794  0.806794  0.193206  1
  Pr  Pr14  1  0.806794  0.193206  0.193206  1
  Pr  Pr15  1  0.806794  0.193206  0.806794  1
  In  In16  1  0.419549  0.419549  0.419549  1
  In  In17  1  0.419549  0.741355  0.419549  1
  In  In18  1  0.741355  0.419549  0.419549  1
  In  In19  1  0.419549  0.419549  0.741355  1
  Ru  Ru20  1  0.862568  0.862568  0.862568  1
  Ru  Ru21  1  0.412296  0.862568  0.862568  1
  Ru  Ru22  1  0.862568  0.412296  0.862568  1
  Ru  Ru23  1  0.862568  0.862568  0.412296  1
