# generated using pymatgen
data_Dy3YAl18CuRh5
_symmetry_space_group_name_H-M   'P 1'
_cell_length_a   7.56134542
_cell_length_b   7.56136508
_cell_length_c   9.43361781
_cell_angle_alpha   90.04189492
_cell_angle_beta   90.04706164
_cell_angle_gamma   119.55402933
_symmetry_Int_Tables_number   1
_chemical_formula_structural   Dy3YAl18CuRh5
_chemical_formula_sum   'Dy3 Y1 Al18 Cu1 Rh5'
_cell_volume   469.18256251
_cell_formula_units_Z   1
loop_
 _symmetry_equiv_pos_site_id
 _symmetry_equiv_pos_as_xyz
  1  'x, y, z'
loop_
 _atom_site_type_symbol
 _atom_site_label
 _atom_site_symmetry_multiplicity
 _atom_site_fract_x
 _atom_site_fract_y
 _atom_site_fract_z
 _atom_site_occupancy
  Dy  Dy0  1  0.005325  0.327589  0.250501  1
  Dy  Dy1  1  0.672394  0.994680  0.749512  1
  Dy  Dy2  1  0.327605  0.005322  0.250502  1
  Y  Y3  1  0.994602  0.672447  0.749476  1
  Al  Al4  1  0.129196  0.129343  0.751211  1
  Al  Al5  1  0.870808  0.870806  0.248813  1
  Al  Al6  1  0.000679  0.338087  0.577428  1
  Al  Al7  1  0.999341  0.661776  0.422343  1
  Al  Al8  1  0.000372  0.665138  0.074779  1
  Al  Al9  1  0.334953  0.999755  0.925434  1
  Al  Al10  1  0.999645  0.334744  0.925450  1
  Al  Al11  1  0.665136  0.000348  0.074665  1
  Al  Al12  1  0.661801  0.999330  0.422456  1
  Al  Al13  1  0.338342  0.000803  0.577423  1
  Al  Al14  1  0.332933  0.332923  0.050661  1
  Al  Al15  1  0.666985  0.667077  0.949445  1
  Al  Al16  1  0.664311  0.664419  0.552424  1
  Al  Al17  1  0.335556  0.335547  0.447462  1
  Al  Al18  1  0.339478  0.549799  0.750507  1
  Al  Al19  1  0.660669  0.450227  0.249506  1
  Al  Al20  1  0.549639  0.339152  0.750502  1
  Al  Al21  1  0.450218  0.660673  0.249498  1
  Cu  Cu22  1  0.000002  0.000084  0.499941  1
  Rh  Rh23  1  0.671988  0.327873  0.499973  1
  Rh  Rh24  1  0.327999  0.672058  0.499950  1
  Rh  Rh25  1  0.327993  0.672083  0.000049  1
  Rh  Rh26  1  0.672014  0.327841  0.000034  1
  Rh  Rh27  1  0.000012  0.000075  0.000053  1
