# generated using pymatgen
data_Dy16Tl2ZnInPdRh3
_symmetry_space_group_name_H-M   'P 1'
_cell_length_a   9.62822528
_cell_length_b   9.62822427
_cell_length_c   9.62293200
_cell_angle_alpha   60.05747051
_cell_angle_beta   60.05746710
_cell_angle_gamma   60.02796848
_symmetry_Int_Tables_number   1
_chemical_formula_structural   Dy16Tl2ZnInPdRh3
_chemical_formula_sum   'Dy16 Tl2 Zn1 In1 Pd1 Rh3'
_cell_volume   631.47103288
_cell_formula_units_Z   1
loop_
 _symmetry_equiv_pos_site_id
 _symmetry_equiv_pos_as_xyz
  1  'x, y, z'
loop_
 _atom_site_type_symbol
 _atom_site_label
 _atom_site_symmetry_multiplicity
 _atom_site_fract_x
 _atom_site_fract_y
 _atom_site_fract_z
 _atom_site_occupancy
  Dy  Dy0  1  0.694615  0.309374  0.310692  1
  Dy  Dy1  1  0.688827  0.688827  0.313017  1
  Dy  Dy2  1  0.309374  0.694615  0.310692  1
  Dy  Dy3  1  0.935882  0.935882  0.555763  1
  Dy  Dy4  1  0.143097  0.143097  0.557944  1
  Dy  Dy5  1  0.568037  0.936268  0.555396  1
  Dy  Dy6  1  0.151469  0.151469  0.151736  1
  Dy  Dy7  1  0.309974  0.309974  0.694964  1
  Dy  Dy8  1  0.936268  0.568037  0.555396  1
  Dy  Dy9  1  0.561224  0.561224  0.935441  1
  Dy  Dy10  1  0.564337  0.937319  0.933849  1
  Dy  Dy11  1  0.937319  0.564337  0.933849  1
  Dy  Dy12  1  0.142313  0.558362  0.144725  1
  Dy  Dy13  1  0.310568  0.690245  0.690002  1
  Dy  Dy14  1  0.690245  0.310568  0.690002  1
  Dy  Dy15  1  0.558362  0.142313  0.144725  1
  Tl  Tl16  1  0.250909  0.914450  0.921330  1
  Tl  Tl17  1  0.914450  0.250909  0.921330  1
  Zn  Zn18  1  0.915346  0.915346  0.254938  1
  In  In19  1  0.916101  0.916101  0.921203  1
  Pd  Pd20  1  0.355833  0.355833  0.355211  1
  Rh  Rh21  1  0.928957  0.358333  0.358965  1
  Rh  Rh22  1  0.358155  0.358155  0.929864  1
  Rh  Rh23  1  0.358333  0.928957  0.358965  1
