# generated using pymatgen
data_Eu4Cd4Fe3H22
_symmetry_space_group_name_H-M   'P 1'
_cell_length_a   6.88101100
_cell_length_b   6.88101100
_cell_length_c   6.88101100
_cell_angle_alpha   90.00000000
_cell_angle_beta   90.00000000
_cell_angle_gamma   90.00000000
_symmetry_Int_Tables_number   1
_chemical_formula_structural   Eu4Cd4Fe3H22
_chemical_formula_sum   'Eu4 Cd4 Fe3 H22'
_cell_volume   325.80425833
_cell_formula_units_Z   1
loop_
 _symmetry_equiv_pos_site_id
 _symmetry_equiv_pos_as_xyz
  1  'x, y, z'
loop_
 _atom_site_type_symbol
 _atom_site_label
 _atom_site_symmetry_multiplicity
 _atom_site_fract_x
 _atom_site_fract_y
 _atom_site_fract_z
 _atom_site_occupancy
  Eu  Eu0  1  0.285596  0.285596  0.714404  1
  Eu  Eu1  1  0.285596  0.714404  0.285596  1
  Eu  Eu2  1  0.714404  0.285596  0.285596  1
  Eu  Eu3  1  0.714404  0.714404  0.714404  1
  Cd  Cd4  1  0.783415  0.783415  0.216585  1
  Cd  Cd5  1  0.783415  0.216585  0.783415  1
  Cd  Cd6  1  0.216585  0.783415  0.783415  1
  Cd  Cd7  1  0.216585  0.216585  0.216585  1
  Fe  Fe8  1  0.000000  0.000000  0.500000  1
  Fe  Fe9  1  0.000000  0.500000  0.000000  1
  Fe  Fe10  1  0.500000  0.000000  0.000000  1
  H  H11  1  0.000000  0.500000  0.231652  1
  H  H12  1  0.500000  0.768348  0.000000  1
  H  H13  1  0.768348  0.000000  0.500000  1
  H  H14  1  0.000000  0.768348  0.500000  1
  H  H15  1  0.500000  0.000000  0.231652  1
  H  H16  1  0.768348  0.500000  0.000000  1
  H  H17  1  0.000000  0.500000  0.768348  1
  H  H18  1  0.500000  0.231652  0.000000  1
  H  H19  1  0.000000  0.231652  0.500000  1
  H  H20  1  0.500000  0.000000  0.768348  1
  H  H21  1  0.231652  0.000000  0.500000  1
  H  H22  1  0.231652  0.500000  0.000000  1
  H  H23  1  0.000000  0.000000  0.266807  1
  H  H24  1  0.000000  0.733193  0.000000  1
  H  H25  1  0.733193  0.000000  0.000000  1
  H  H26  1  0.000000  0.000000  0.733193  1
  H  H27  1  0.000000  0.266807  0.000000  1
  H  H28  1  0.266807  0.000000  0.000000  1
  H  H29  1  0.624201  0.624201  0.375799  1
  H  H30  1  0.624201  0.375799  0.624201  1
  H  H31  1  0.375799  0.624201  0.624201  1
  H  H32  1  0.375799  0.375799  0.375799  1
