# generated using pymatgen
data_Rb2NaNp3O12
_symmetry_space_group_name_H-M   'P 1'
_cell_length_a   7.53191027
_cell_length_b   8.04958676
_cell_length_c   10.79462896
_cell_angle_alpha   89.80875532
_cell_angle_beta   85.56641735
_cell_angle_gamma   89.50138537
_symmetry_Int_Tables_number   1
_chemical_formula_structural   Rb2NaNp3O12
_chemical_formula_sum   'Rb4 Na2 Np6 O24'
_cell_volume   652.47957335
_cell_formula_units_Z   2
loop_
 _symmetry_equiv_pos_site_id
 _symmetry_equiv_pos_as_xyz
  1  'x, y, z'
loop_
 _atom_site_type_symbol
 _atom_site_label
 _atom_site_symmetry_multiplicity
 _atom_site_fract_x
 _atom_site_fract_y
 _atom_site_fract_z
 _atom_site_occupancy
  Rb  Rb0  1  0.524375  0.749442  0.606084  1
  Rb  Rb1  1  0.475625  0.250558  0.393916  1
  Rb  Rb2  1  0.020062  0.260600  0.142816  1
  Rb  Rb3  1  0.979938  0.739400  0.857184  1
  Na  Na4  1  0.706207  0.234877  0.745083  1
  Na  Na5  1  0.293793  0.765123  0.254917  1
  Np  Np6  1  0.815664  0.748054  0.213838  1
  Np  Np7  1  0.184336  0.251946  0.786162  1
  Np  Np8  1  0.000000  0.500000  0.500000  1
  Np  Np9  1  0.000000  0.000000  0.500000  1
  Np  Np10  1  0.500000  0.000000  0.000000  1
  Np  Np11  1  0.500000  0.500000  0.000000  1
  O  O12  1  0.036945  0.731681  0.128493  1
  O  O13  1  0.963055  0.268319  0.871507  1
  O  O14  1  0.598781  0.766334  0.306681  1
  O  O15  1  0.401219  0.233666  0.693319  1
  O  O16  1  0.776890  0.433140  0.566766  1
  O  O17  1  0.223110  0.566860  0.433234  1
  O  O18  1  0.761622  0.050777  0.543033  1
  O  O19  1  0.238378  0.949223  0.456967  1
  O  O20  1  0.623039  0.951290  0.848395  1
  O  O21  1  0.376961  0.048710  0.151605  1
  O  O22  1  0.615866  0.538417  0.844994  1
  O  O23  1  0.384134  0.461583  0.155006  1
  O  O24  1  0.588335  0.231990  0.984582  1
  O  O25  1  0.411665  0.768010  0.015418  1
  O  O26  1  0.277654  0.442862  0.918888  1
  O  O27  1  0.722346  0.557138  0.081112  1
  O  O28  1  0.253288  0.071416  0.901545  1
  O  O29  1  0.746712  0.928584  0.098455  1
  O  O30  1  0.058378  0.053607  0.672385  1
  O  O31  1  0.941622  0.946393  0.327615  1
  O  O32  1  0.945888  0.733424  0.561428  1
  O  O33  1  0.054112  0.266576  0.438572  1
  O  O34  1  0.115631  0.445419  0.679844  1
  O  O35  1  0.884369  0.554581  0.320156  1
