# generated using pymatgen
data_LaGdNi2(SnH)2
_symmetry_space_group_name_H-M   'P 1'
_cell_length_a   7.20716100
_cell_length_b   8.57074800
_cell_length_c   4.38162600
_cell_angle_alpha   90.00000000
_cell_angle_beta   89.99867609
_cell_angle_gamma   90.00000000
_symmetry_Int_Tables_number   1
_chemical_formula_structural   LaGdNi2(SnH)2
_chemical_formula_sum   'La2 Gd2 Ni4 Sn4 H4'
_cell_volume   270.65637120
_cell_formula_units_Z   2
loop_
 _symmetry_equiv_pos_site_id
 _symmetry_equiv_pos_as_xyz
  1  'x, y, z'
loop_
 _atom_site_type_symbol
 _atom_site_label
 _atom_site_symmetry_multiplicity
 _atom_site_fract_x
 _atom_site_fract_y
 _atom_site_fract_z
 _atom_site_occupancy
  La  La0  1  0.986930  0.691977  0.742709  1
  La  La1  1  0.486931  0.808022  0.742709  1
  Gd  Gd2  1  0.514231  0.185033  0.242701  1
  Gd  Gd3  1  0.014231  0.314968  0.242701  1
  Ni  Ni4  1  0.278461  0.585407  0.242608  1
  Ni  Ni5  1  0.778460  0.914593  0.242608  1
  Ni  Ni6  1  0.225473  0.115521  0.742826  1
  Ni  Ni7  1  0.725474  0.384480  0.742826  1
  Sn  Sn8  1  0.652727  0.554595  0.243000  1
  Sn  Sn9  1  0.152728  0.945406  0.243000  1
  Sn  Sn10  1  0.842633  0.080165  0.743202  1
  Sn  Sn11  1  0.342633  0.419834  0.743202  1
  H  H12  1  0.055337  0.574593  0.242608  1
  H  H13  1  0.555336  0.925407  0.242608  1
  H  H14  1  0.444208  0.085439  0.742548  1
  H  H15  1  0.944208  0.414560  0.742548  1
