# generated using pymatgen
data_Sc6AlGa5Au6
_symmetry_space_group_name_H-M   'P 1'
_cell_length_a   7.27817498
_cell_length_b   7.25208762
_cell_length_c   7.37444043
_cell_angle_alpha   90.00000037
_cell_angle_beta   89.90533732
_cell_angle_gamma   119.88150508
_symmetry_Int_Tables_number   1
_chemical_formula_structural   Sc6AlGa5Au6
_chemical_formula_sum   'Sc6 Al1 Ga5 Au6'
_cell_volume   337.49067322
_cell_formula_units_Z   1
loop_
 _symmetry_equiv_pos_site_id
 _symmetry_equiv_pos_as_xyz
  1  'x, y, z'
loop_
 _atom_site_type_symbol
 _atom_site_label
 _atom_site_symmetry_multiplicity
 _atom_site_fract_x
 _atom_site_fract_y
 _atom_site_fract_z
 _atom_site_occupancy
  Sc  Sc0  1  0.589162  0.984370  0.750263  1
  Sc  Sc1  1  0.014960  0.606952  0.751209  1
  Sc  Sc2  1  0.396614  0.410236  0.750539  1
  Sc  Sc3  1  0.985040  0.591992  0.248791  1
  Sc  Sc4  1  0.603386  0.013621  0.249461  1
  Sc  Sc5  1  0.410838  0.395208  0.249737  1
  Al  Al6  1  0.000000  0.259239  0.500000  1
  Ga  Ga7  1  0.734507  0.734936  0.000080  1
  Ga  Ga8  1  0.265493  0.000429  0.999920  1
  Ga  Ga9  1  0.000000  0.266865  0.000000  1
  Ga  Ga10  1  0.733559  0.735989  0.499923  1
  Ga  Ga11  1  0.266441  0.002429  0.500077  1
  Au  Au12  1  0.000167  0.002675  0.750175  1
  Au  Au13  1  0.999833  0.002508  0.249825  1
  Au  Au14  1  0.666444  0.332935  0.978942  1
  Au  Au15  1  0.672860  0.332990  0.520490  1
  Au  Au16  1  0.327140  0.660131  0.479510  1
  Au  Au17  1  0.333556  0.666492  0.021058  1
