# generated using pymatgen
data_Tb7Dy8Th(CdNi)4
_symmetry_space_group_name_H-M   'P 1'
_cell_length_a   9.59971988
_cell_length_b   9.59972060
_cell_length_c   9.59902978
_cell_angle_alpha   60.14119790
_cell_angle_beta   60.14119908
_cell_angle_gamma   60.17390629
_symmetry_Int_Tables_number   1
_chemical_formula_structural   Tb7Dy8Th(CdNi)4
_chemical_formula_sum   'Tb7 Dy8 Th1 Cd4 Ni4'
_cell_volume   627.65798217
_cell_formula_units_Z   1
loop_
 _symmetry_equiv_pos_site_id
 _symmetry_equiv_pos_as_xyz
  1  'x, y, z'
loop_
 _atom_site_type_symbol
 _atom_site_label
 _atom_site_symmetry_multiplicity
 _atom_site_fract_x
 _atom_site_fract_y
 _atom_site_fract_z
 _atom_site_occupancy
  Tb  Tb0  1  0.812323  0.812323  0.189506  1
  Tb  Tb1  1  0.938476  0.564127  0.564408  1
  Tb  Tb2  1  0.562684  0.936447  0.936278  1
  Tb  Tb3  1  0.564127  0.938476  0.564408  1
  Tb  Tb4  1  0.936447  0.562684  0.936278  1
  Tb  Tb5  1  0.564283  0.564283  0.938227  1
  Tb  Tb6  1  0.936222  0.936222  0.562971  1
  Dy  Dy7  1  0.348184  0.348184  0.951911  1
  Dy  Dy8  1  0.347812  0.952012  0.348424  1
  Dy  Dy9  1  0.952012  0.347812  0.348424  1
  Dy  Dy10  1  0.812715  0.189383  0.188967  1
  Dy  Dy11  1  0.189890  0.812299  0.812000  1
  Dy  Dy12  1  0.189383  0.812715  0.188967  1
  Dy  Dy13  1  0.812299  0.189890  0.812000  1
  Dy  Dy14  1  0.189096  0.189096  0.812685  1
  Th  Th15  1  0.343830  0.343830  0.343789  1
  Cd  Cd16  1  0.580550  0.580550  0.580815  1
  Cd  Cd17  1  0.581599  0.581599  0.256558  1
  Cd  Cd18  1  0.581736  0.256496  0.581722  1
  Cd  Cd19  1  0.256496  0.581736  0.581722  1
  Ni  Ni20  1  0.142549  0.142549  0.142585  1
  Ni  Ni21  1  0.142868  0.142868  0.571359  1
  Ni  Ni22  1  0.143236  0.571185  0.142997  1
  Ni  Ni23  1  0.571185  0.143236  0.142997  1
