# generated using pymatgen
data_TaMn8Re3
_symmetry_space_group_name_H-M   'P 1'
_cell_length_a   4.68641800
_cell_length_b   4.68641796
_cell_length_c   7.75039100
_cell_angle_alpha   90.00000000
_cell_angle_beta   90.00000000
_cell_angle_gamma   120.00000025
_symmetry_Int_Tables_number   1
_chemical_formula_structural   TaMn8Re3
_chemical_formula_sum   'Ta1 Mn8 Re3'
_cell_volume   147.41316984
_cell_formula_units_Z   1
loop_
 _symmetry_equiv_pos_site_id
 _symmetry_equiv_pos_as_xyz
  1  'x, y, z'
loop_
 _atom_site_type_symbol
 _atom_site_label
 _atom_site_symmetry_multiplicity
 _atom_site_fract_x
 _atom_site_fract_y
 _atom_site_fract_z
 _atom_site_occupancy
  Ta  Ta0  1  0.333333  0.666667  0.436806  1
  Mn  Mn1  1  0.000000  0.000000  0.998197  1
  Mn  Mn2  1  0.000000  0.000000  0.498260  1
  Mn  Mn3  1  0.826561  0.653121  0.247540  1
  Mn  Mn4  1  0.172278  0.827722  0.752348  1
  Mn  Mn5  1  0.655443  0.827722  0.752348  1
  Mn  Mn6  1  0.346879  0.173439  0.247540  1
  Mn  Mn7  1  0.826561  0.173439  0.247540  1
  Mn  Mn8  1  0.172278  0.344557  0.752348  1
  Re  Re9  1  0.333333  0.666667  0.062879  1
  Re  Re10  1  0.666667  0.333333  0.572928  1
  Re  Re11  1  0.666667  0.333333  0.931266  1
