# generated using pymatgen
data_LaThGeP3Rh4
_symmetry_space_group_name_H-M   'P 1'
_cell_length_a   4.24572700
_cell_length_b   4.24572700
_cell_length_c   9.73601000
_cell_angle_alpha   90.00000000
_cell_angle_beta   90.00000000
_cell_angle_gamma   90.00000000
_symmetry_Int_Tables_number   1
_chemical_formula_structural   LaThGeP3Rh4
_chemical_formula_sum   'La1 Th1 Ge1 P3 Rh4'
_cell_volume   175.50324164
_cell_formula_units_Z   1
loop_
 _symmetry_equiv_pos_site_id
 _symmetry_equiv_pos_as_xyz
  1  'x, y, z'
loop_
 _atom_site_type_symbol
 _atom_site_label
 _atom_site_symmetry_multiplicity
 _atom_site_fract_x
 _atom_site_fract_y
 _atom_site_fract_z
 _atom_site_occupancy
  La  La0  1  0.500000  0.000000  0.737040  1
  Th  Th1  1  0.000000  0.500000  0.258894  1
  Ge  Ge2  1  0.000000  0.500000  0.861946  1
  P  P3  1  0.000000  0.000000  0.495743  1
  P  P4  1  0.500000  0.500000  0.495743  1
  P  P5  1  0.500000  0.000000  0.138607  1
  Rh  Rh6  1  0.000000  0.000000  0.013347  1
  Rh  Rh7  1  0.500000  0.500000  0.013347  1
  Rh  Rh8  1  0.000000  0.500000  0.598308  1
  Rh  Rh9  1  0.500000  0.000000  0.387025  1
