# generated using pymatgen
data_La6NiCl10
_symmetry_space_group_name_H-M   'P 1'
_cell_length_a   7.55165608
_cell_length_b   9.40735663
_cell_length_c   9.39144198
_cell_angle_alpha   111.01857282
_cell_angle_beta   107.58527089
_cell_angle_gamma   96.97385784
_symmetry_Int_Tables_number   1
_chemical_formula_structural   La6NiCl10
_chemical_formula_sum   'La6 Ni1 Cl10'
_cell_volume   573.54850386
_cell_formula_units_Z   1
loop_
 _symmetry_equiv_pos_site_id
 _symmetry_equiv_pos_as_xyz
  1  'x, y, z'
loop_
 _atom_site_type_symbol
 _atom_site_label
 _atom_site_symmetry_multiplicity
 _atom_site_fract_x
 _atom_site_fract_y
 _atom_site_fract_z
 _atom_site_occupancy
  La  La0  1  0.857035  0.244928  0.944044  1
  La  La1  1  0.142965  0.755072  0.055956  1
  La  La2  1  0.024281  0.889112  0.685784  1
  La  La3  1  0.975719  0.110888  0.314216  1
  La  La4  1  0.373612  0.201757  0.149913  1
  La  La5  1  0.626388  0.798243  0.850087  1
  Ni  Ni6  1  0.000000  0.000000  0.000000  1
  Cl  Cl7  1  0.909303  0.155921  0.633266  1
  Cl  Cl8  1  0.090697  0.844079  0.366734  1
  Cl  Cl9  1  0.447359  0.068554  0.831852  1
  Cl  Cl10  1  0.552641  0.931446  0.168148  1
  Cl  Cl11  1  0.199953  0.648858  0.744917  1
  Cl  Cl12  1  0.800047  0.351142  0.255083  1
  Cl  Cl13  1  0.239967  0.450833  0.077719  1
  Cl  Cl14  1  0.760033  0.549167  0.922281  1
  Cl  Cl15  1  0.636254  0.718531  0.536042  1
  Cl  Cl16  1  0.363746  0.281469  0.463958  1
