# generated using pymatgen
data_DyCdRh2O7
_symmetry_space_group_name_H-M   'P 1'
_cell_length_a   7.13968022
_cell_length_b   7.22106064
_cell_length_c   7.22105929
_cell_angle_alpha   61.15036837
_cell_angle_beta   60.37210858
_cell_angle_gamma   60.37210221
_symmetry_Int_Tables_number   1
_chemical_formula_structural   DyCdRh2O7
_chemical_formula_sum   'Dy2 Cd2 Rh4 O14'
_cell_volume   266.96991365
_cell_formula_units_Z   2
loop_
 _symmetry_equiv_pos_site_id
 _symmetry_equiv_pos_as_xyz
  1  'x, y, z'
loop_
 _atom_site_type_symbol
 _atom_site_label
 _atom_site_symmetry_multiplicity
 _atom_site_fract_x
 _atom_site_fract_y
 _atom_site_fract_z
 _atom_site_occupancy
  Dy  Dy0  1  0.125000  0.625000  0.125000  1
  Dy  Dy1  1  0.125000  0.125000  0.625000  1
  Cd  Cd2  1  0.125000  0.125000  0.125000  1
  Cd  Cd3  1  0.625000  0.125000  0.125000  1
  Rh  Rh4  1  0.625000  0.625000  0.625000  1
  Rh  Rh5  1  0.625000  0.625000  0.125000  1
  Rh  Rh6  1  0.125000  0.625000  0.625000  1
  Rh  Rh7  1  0.625000  0.125000  0.625000  1
  O  O8  1  0.251241  0.248759  0.248759  1
  O  O9  1  0.293611  0.697643  0.297070  1
  O  O10  1  0.956389  0.952930  0.552357  1
  O  O11  1  0.538323  0.952930  0.552357  1
  O  O12  1  0.711677  0.697643  0.297070  1
  O  O13  1  0.961564  0.538436  0.538436  1
  O  O14  1  0.711677  0.297070  0.697643  1
  O  O15  1  0.293611  0.297070  0.697643  1
  O  O16  1  0.700419  0.299581  0.299581  1
  O  O17  1  0.288436  0.711564  0.711564  1
  O  O18  1  0.956389  0.552357  0.952930  1
  O  O19  1  0.538323  0.552357  0.952930  1
  O  O20  1  0.998759  0.001241  0.001241  1
  O  O21  1  0.549581  0.950419  0.950419  1
