# generated using pymatgen
data_HoErTm6(B6Rh)4
_symmetry_space_group_name_H-M   'P 1'
_cell_length_a   3.62315400
_cell_length_b   9.11755600
_cell_length_c   11.44718800
_cell_angle_alpha   90.00219730
_cell_angle_beta   89.99997418
_cell_angle_gamma   89.99983295
_symmetry_Int_Tables_number   1
_chemical_formula_structural   HoErTm6(B6Rh)4
_chemical_formula_sum   'Ho1 Er1 Tm6 B24 Rh4'
_cell_volume   378.14995107
_cell_formula_units_Z   1
loop_
 _symmetry_equiv_pos_site_id
 _symmetry_equiv_pos_as_xyz
  1  'x, y, z'
loop_
 _atom_site_type_symbol
 _atom_site_label
 _atom_site_symmetry_multiplicity
 _atom_site_fract_x
 _atom_site_fract_y
 _atom_site_fract_z
 _atom_site_occupancy
  Ho  Ho0  1  0.499985  0.321940  0.413665  1
  Er  Er1  1  0.500191  0.678080  0.586300  1
  Tm  Tm2  1  0.499972  0.178296  0.913780  1
  Tm  Tm3  1  0.499995  0.821705  0.086183  1
  Tm  Tm4  1  0.499980  0.444045  0.126426  1
  Tm  Tm5  1  0.500000  0.556068  0.873491  1
  Tm  Tm6  1  0.499994  0.055941  0.626915  1
  Tm  Tm7  1  0.499979  0.943984  0.373165  1
  B  B8  1  0.999991  0.107829  0.470799  1
  B  B9  1  0.000000  0.891850  0.529332  1
  B  B10  1  0.999977  0.390954  0.970414  1
  B  B11  1  0.999990  0.609129  0.029509  1
  B  B12  1  0.999910  0.132241  0.316251  1
  B  B13  1  0.999994  0.867524  0.683670  1
  B  B14  1  0.999963  0.367374  0.816717  1
  B  B15  1  0.000111  0.632687  0.183224  1
  B  B16  1  0.999884  0.053695  0.065020  1
  B  B17  1  0.999968  0.946290  0.934919  1
  B  B18  1  0.999996  0.446361  0.565753  1
  B  B19  1  0.000155  0.554002  0.434512  1
  B  B20  1  0.000150  0.482332  0.286445  1
  B  B21  1  0.999980  0.517994  0.713402  1
  B  B22  1  0.999978  0.018043  0.787137  1
  B  B23  1  0.999884  0.981868  0.212901  1
  B  B24  1  0.999896  0.249710  0.079023  1
  B  B25  1  0.999986  0.750304  0.920864  1
  B  B26  1  0.999969  0.249951  0.579865  1
  B  B27  1  0.000131  0.749963  0.420459  1
  B  B28  1  0.999943  0.294079  0.235674  1
  B  B29  1  0.000002  0.705809  0.764074  1
  B  B30  1  0.999968  0.205510  0.736589  1
  B  B31  1  0.000078  0.794425  0.263481  1
  Rh  Rh32  1  0.499731  0.138912  0.178566  1
  Rh  Rh33  1  0.500049  0.860949  0.821364  1
  Rh  Rh34  1  0.499869  0.360275  0.679750  1
  Rh  Rh35  1  0.500350  0.639878  0.320361  1
