# generated using pymatgen
data_OsBr10Cl
_symmetry_space_group_name_H-M   'P 1'
_cell_length_a   7.71041161
_cell_length_b   8.28154735
_cell_length_c   8.64136039
_cell_angle_alpha   86.02878490
_cell_angle_beta   88.16980726
_cell_angle_gamma   113.72132606
_symmetry_Int_Tables_number   1
_chemical_formula_structural   OsBr10Cl
_chemical_formula_sum   'Os1 Br10 Cl1'
_cell_volume   502.87352486
_cell_formula_units_Z   1
loop_
 _symmetry_equiv_pos_site_id
 _symmetry_equiv_pos_as_xyz
  1  'x, y, z'
loop_
 _atom_site_type_symbol
 _atom_site_label
 _atom_site_symmetry_multiplicity
 _atom_site_fract_x
 _atom_site_fract_y
 _atom_site_fract_z
 _atom_site_occupancy
  Os  Os0  1  0.000314  0.500476  0.500879  1
  Br  Br1  1  0.000861  0.999557  0.001086  1
  Br  Br2  1  0.677598  0.774182  0.931793  1
  Br  Br3  1  0.322726  0.223872  0.070840  1
  Br  Br4  1  0.680507  0.239755  0.556841  1
  Br  Br5  1  0.318083  0.762955  0.444062  1
  Br  Br6  1  0.489883  0.755784  0.181719  1
  Br  Br7  1  0.512562  0.243922  0.820500  1
  Br  Br8  1  0.851539  0.709764  0.533673  1
  Br  Br9  1  0.154114  0.294679  0.472067  1
  Br  Br10  1  0.936180  0.495081  0.225882  1
  Cl  Cl11  1  0.055633  0.499972  0.760656  1
