# generated using pymatgen
data_La3OsRuO10
_symmetry_space_group_name_H-M   'P 1'
_cell_length_a   5.62622519
_cell_length_b   5.62622569
_cell_length_c   7.04528600
_cell_angle_alpha   72.53470250
_cell_angle_beta   72.53470491
_cell_angle_gamma   90.51464777
_symmetry_Int_Tables_number   1
_chemical_formula_structural   La3OsRuO10
_chemical_formula_sum   'La3 Os1 Ru1 O10'
_cell_volume   201.71986520
_cell_formula_units_Z   1
loop_
 _symmetry_equiv_pos_site_id
 _symmetry_equiv_pos_as_xyz
  1  'x, y, z'
loop_
 _atom_site_type_symbol
 _atom_site_label
 _atom_site_symmetry_multiplicity
 _atom_site_fract_x
 _atom_site_fract_y
 _atom_site_fract_z
 _atom_site_occupancy
  La  La0  1  0.499018  0.499018  0.994830  1
  La  La1  1  0.753000  0.241249  0.507827  1
  La  La2  1  0.241249  0.753000  0.507827  1
  Os  Os3  1  0.869661  0.869661  0.175172  1
  Ru  Ru4  1  0.133407  0.133407  0.819238  1
  O  O5  1  0.828096  0.828096  0.471814  1
  O  O6  1  0.171178  0.171178  0.523030  1
  O  O7  1  0.597698  0.597698  0.282302  1
  O  O8  1  0.406515  0.406515  0.714142  1
  O  O9  1  0.382201  0.895443  0.787199  1
  O  O10  1  0.853188  0.853188  0.906013  1
  O  O11  1  0.139542  0.139542  0.107604  1
  O  O12  1  0.895443  0.382201  0.787199  1
  O  O13  1  0.630150  0.099655  0.207901  1
  O  O14  1  0.099655  0.630150  0.207901  1
