# generated using pymatgen
data_AcLaZn5Ga
_symmetry_space_group_name_H-M   'P 1'
_cell_length_a   8.57346696
_cell_length_b   8.57346634
_cell_length_c   9.11475800
_cell_angle_alpha   90.00000000
_cell_angle_beta   90.00000000
_cell_angle_gamma   148.52870741
_symmetry_Int_Tables_number   1
_chemical_formula_structural   AcLaZn5Ga
_chemical_formula_sum   'Ac2 La2 Zn10 Ga2'
_cell_volume   349.77428840
_cell_formula_units_Z   2
loop_
 _symmetry_equiv_pos_site_id
 _symmetry_equiv_pos_as_xyz
  1  'x, y, z'
loop_
 _atom_site_type_symbol
 _atom_site_label
 _atom_site_symmetry_multiplicity
 _atom_site_fract_x
 _atom_site_fract_y
 _atom_site_fract_z
 _atom_site_occupancy
  Ac  Ac0  1  0.000000  0.000000  0.500000  1
  Ac  Ac1  1  0.000000  0.000000  0.000000  1
  La  La2  1  0.207209  0.792791  0.250000  1
  La  La3  1  0.792791  0.207209  0.750000  1
  Zn  Zn4  1  0.813113  0.186887  0.391641  1
  Zn  Zn5  1  0.186887  0.813113  0.608359  1
  Zn  Zn6  1  0.813113  0.186887  0.108359  1
  Zn  Zn7  1  0.186887  0.813113  0.891641  1
  Zn  Zn8  1  0.653888  0.346112  0.482190  1
  Zn  Zn9  1  0.346112  0.653888  0.517810  1
  Zn  Zn10  1  0.653888  0.346112  0.017810  1
  Zn  Zn11  1  0.346112  0.653888  0.982190  1
  Zn  Zn12  1  0.405889  0.594111  0.250000  1
  Zn  Zn13  1  0.594111  0.405889  0.750000  1
  Ga  Ga14  1  0.564053  0.435947  0.250000  1
  Ga  Ga15  1  0.435947  0.564053  0.750000  1
