# generated using pymatgen
data_Tb4Ga20(TcOs)3
_symmetry_space_group_name_H-M   'P 1'
_cell_length_a   9.00974761
_cell_length_b   9.00974761
_cell_length_c   6.41776600
_cell_angle_alpha   90.00000000
_cell_angle_beta   90.00000000
_cell_angle_gamma   90.19918641
_symmetry_Int_Tables_number   1
_chemical_formula_structural   Tb4Ga20(TcOs)3
_chemical_formula_sum   'Tb4 Ga20 Tc3 Os3'
_cell_volume   520.96254964
_cell_formula_units_Z   1
loop_
 _symmetry_equiv_pos_site_id
 _symmetry_equiv_pos_as_xyz
  1  'x, y, z'
loop_
 _atom_site_type_symbol
 _atom_site_label
 _atom_site_symmetry_multiplicity
 _atom_site_fract_x
 _atom_site_fract_y
 _atom_site_fract_z
 _atom_site_occupancy
  Tb  Tb0  1  0.182276  0.317129  0.000000  1
  Tb  Tb1  1  0.683121  0.183121  0.000000  1
  Tb  Tb2  1  0.817129  0.682276  0.000000  1
  Tb  Tb3  1  0.318045  0.818045  0.000000  1
  Ga  Ga4  1  0.500066  0.000066  0.290306  1
  Ga  Ga5  1  0.500066  0.000066  0.709694  1
  Ga  Ga6  1  0.294262  0.560441  0.706182  1
  Ga  Ga7  1  0.999773  0.499773  0.291268  1
  Ga  Ga8  1  0.999773  0.499773  0.708732  1
  Ga  Ga9  1  0.060441  0.794262  0.706182  1
  Ga  Ga10  1  0.205861  0.060254  0.294141  1
  Ga  Ga11  1  0.060441  0.794262  0.293818  1
  Ga  Ga12  1  0.706126  0.439622  0.706315  1
  Ga  Ga13  1  0.205861  0.060254  0.705859  1
  Ga  Ga14  1  0.939622  0.206126  0.706315  1
  Ga  Ga15  1  0.706126  0.439622  0.293685  1
  Ga  Ga16  1  0.560254  0.705861  0.294141  1
  Ga  Ga17  1  0.939622  0.206126  0.293685  1
  Ga  Ga18  1  0.560254  0.705861  0.705859  1
  Ga  Ga19  1  0.794506  0.938967  0.293074  1
  Ga  Ga20  1  0.438967  0.294506  0.706926  1
  Ga  Ga21  1  0.794506  0.938967  0.706926  1
  Ga  Ga22  1  0.438967  0.294506  0.293074  1
  Ga  Ga23  1  0.294262  0.560441  0.293818  1
  Tc  Tc24  1  0.178544  0.320356  0.500000  1
  Tc  Tc25  1  0.321137  0.821137  0.500000  1
  Tc  Tc26  1  0.820356  0.678544  0.500000  1
  Os  Os27  1  0.999368  0.001240  0.000000  1
  Os  Os28  1  0.679029  0.179029  0.500000  1
  Os  Os29  1  0.501240  0.499368  0.000000  1
