# generated using pymatgen
data_Lu4SiRh12
_symmetry_space_group_name_H-M   'P 1'
_cell_length_a   7.11090966
_cell_length_b   7.11090960
_cell_length_c   7.11090900
_cell_angle_alpha   109.47121892
_cell_angle_beta   109.47121875
_cell_angle_gamma   109.47121462
_symmetry_Int_Tables_number   1
_chemical_formula_structural   Lu4SiRh12
_chemical_formula_sum   'Lu4 Si1 Rh12'
_cell_volume   276.79204269
_cell_formula_units_Z   1
loop_
 _symmetry_equiv_pos_site_id
 _symmetry_equiv_pos_as_xyz
  1  'x, y, z'
loop_
 _atom_site_type_symbol
 _atom_site_label
 _atom_site_symmetry_multiplicity
 _atom_site_fract_x
 _atom_site_fract_y
 _atom_site_fract_z
 _atom_site_occupancy
  Lu  Lu0  1  0.500002  0.000000  0.000000  1
  Lu  Lu1  1  0.000000  0.500002  0.000000  1
  Lu  Lu2  1  0.000000  0.000000  0.500002  1
  Lu  Lu3  1  0.500002  0.500002  0.500002  1
  Si  Si4  1  0.000000  0.000000  0.000000  1
  Rh  Rh5  1  0.279725  0.279725  0.000000  1
  Rh  Rh6  1  0.720275  0.720275  0.000000  1
  Rh  Rh7  1  0.750001  0.500000  0.250001  1
  Rh  Rh8  1  0.500000  0.750001  0.250001  1
  Rh  Rh9  1  0.279725  0.000000  0.279725  1
  Rh  Rh10  1  0.000000  0.279725  0.279725  1
  Rh  Rh11  1  0.750001  0.250001  0.500000  1
  Rh  Rh12  1  0.250001  0.750001  0.500000  1
  Rh  Rh13  1  0.720275  0.000000  0.720275  1
  Rh  Rh14  1  0.000000  0.720275  0.720275  1
  Rh  Rh15  1  0.500000  0.250001  0.750001  1
  Rh  Rh16  1  0.250001  0.500000  0.750001  1
