# generated using pymatgen
data_Dy4LuHf5(Si5Ir2)4
_symmetry_space_group_name_H-M   'P 1'
_cell_length_a   12.46444400
_cell_length_b   12.46444400
_cell_length_c   4.16229500
_cell_angle_alpha   90.00000000
_cell_angle_beta   90.00000000
_cell_angle_gamma   90.00000000
_symmetry_Int_Tables_number   1
_chemical_formula_structural   Dy4LuHf5(Si5Ir2)4
_chemical_formula_sum   'Dy4 Lu1 Hf5 Si20 Ir8'
_cell_volume   646.66399182
_cell_formula_units_Z   1
loop_
 _symmetry_equiv_pos_site_id
 _symmetry_equiv_pos_as_xyz
  1  'x, y, z'
loop_
 _atom_site_type_symbol
 _atom_site_label
 _atom_site_symmetry_multiplicity
 _atom_site_fract_x
 _atom_site_fract_y
 _atom_site_fract_z
 _atom_site_occupancy
  Dy  Dy0  1  0.884358  0.384676  0.500000  1
  Dy  Dy1  1  0.115642  0.615324  0.500000  1
  Dy  Dy2  1  0.384676  0.115642  0.500000  1
  Dy  Dy3  1  0.615324  0.884358  0.500000  1
  Lu  Lu4  1  0.000000  0.000000  0.000000  1
  Hf  Hf5  1  0.500000  0.500000  0.000000  1
  Hf  Hf6  1  0.673637  0.175286  0.500000  1
  Hf  Hf7  1  0.326363  0.824714  0.500000  1
  Hf  Hf8  1  0.175286  0.326363  0.500000  1
  Hf  Hf9  1  0.824714  0.673637  0.500000  1
  Si  Si10  1  0.566011  0.067727  0.000000  1
  Si  Si11  1  0.433989  0.932273  0.000000  1
  Si  Si12  1  0.067727  0.433989  0.000000  1
  Si  Si13  1  0.932273  0.566011  0.000000  1
  Si  Si14  1  0.665166  0.701583  0.000000  1
  Si  Si15  1  0.334834  0.298417  0.000000  1
  Si  Si16  1  0.163621  0.800440  0.000000  1
  Si  Si17  1  0.836379  0.199560  0.000000  1
  Si  Si18  1  0.298417  0.665166  0.000000  1
  Si  Si19  1  0.701583  0.334834  0.000000  1
  Si  Si20  1  0.199560  0.163621  0.000000  1
  Si  Si21  1  0.800440  0.836379  0.000000  1
  Si  Si22  1  0.650865  0.507859  0.500000  1
  Si  Si23  1  0.349135  0.492141  0.500000  1
  Si  Si24  1  0.154957  0.992690  0.500000  1
  Si  Si25  1  0.845043  0.007310  0.500000  1
  Si  Si26  1  0.492141  0.650865  0.500000  1
  Si  Si27  1  0.507859  0.349135  0.500000  1
  Si  Si28  1  0.007310  0.154957  0.500000  1
  Si  Si29  1  0.992690  0.845043  0.500000  1
  Ir  Ir30  1  0.741761  0.522088  0.000000  1
  Ir  Ir31  1  0.258239  0.477912  0.000000  1
  Ir  Ir32  1  0.245308  0.977479  0.000000  1
  Ir  Ir33  1  0.754692  0.022521  0.000000  1
  Ir  Ir34  1  0.477912  0.741761  0.000000  1
  Ir  Ir35  1  0.522088  0.258239  0.000000  1
  Ir  Ir36  1  0.022521  0.245308  0.000000  1
  Ir  Ir37  1  0.977479  0.754692  0.000000  1
