# generated using pymatgen
data_Ga2Co(TeO3)4
_symmetry_space_group_name_H-M   'P 1'
_cell_length_a   9.34133050
_cell_length_b   9.34097863
_cell_length_c   9.34122276
_cell_angle_alpha   109.76273810
_cell_angle_beta   109.76412143
_cell_angle_gamma   108.88850233
_symmetry_Int_Tables_number   1
_chemical_formula_structural   Ga2Co(TeO3)4
_chemical_formula_sum   'Ga4 Co2 Te8 O24'
_cell_volume   627.40588103
_cell_formula_units_Z   2
loop_
 _symmetry_equiv_pos_site_id
 _symmetry_equiv_pos_as_xyz
  1  'x, y, z'
loop_
 _atom_site_type_symbol
 _atom_site_label
 _atom_site_symmetry_multiplicity
 _atom_site_fract_x
 _atom_site_fract_y
 _atom_site_fract_z
 _atom_site_occupancy
  Ga  Ga0  1  0.993162  0.624968  0.868081  1
  Ga  Ga1  1  0.756873  0.125077  0.131913  1
  Ga  Ga2  1  0.874919  0.006836  0.631799  1
  Ga  Ga3  1  0.375048  0.243125  0.368204  1
  Co  Co4  1  0.500005  0.499989  0.000005  1
  Co  Co5  1  0.249999  0.749989  0.500007  1
  Te  Te6  1  0.906211  0.873349  0.260838  1
  Te  Te7  1  0.843835  0.604697  0.466950  1
  Te  Te8  1  0.137727  0.376878  0.533050  1
  Te  Te9  1  0.612501  0.645363  0.739161  1
  Te  Te10  1  0.395328  0.862263  0.239151  1
  Te  Te11  1  0.354639  0.093804  0.967148  1
  Te  Te12  1  0.623122  0.156169  0.760849  1
  Te  Te13  1  0.126643  0.387495  0.032859  1
  O  O14  1  0.714202  0.682977  0.223886  1
  O  O15  1  0.035855  0.759841  0.468685  1
  O  O16  1  0.291108  0.567192  0.531330  1
  O  O17  1  0.459075  0.490308  0.776105  1
  O  O18  1  0.208649  0.828995  0.036892  1
  O  O19  1  0.541402  0.078346  0.120600  1
  O  O20  1  0.792119  0.171764  0.963118  1
  O  O21  1  0.957736  0.420794  0.879387  1
  O  O22  1  0.930653  0.332197  0.340176  1
  O  O23  1  0.992027  0.590482  0.659826  1
  O  O24  1  0.819529  0.659507  0.901632  1
  O  O25  1  0.757866  0.917891  0.098370  1
  O  O26  1  0.082098  0.180479  0.839977  1
  O  O27  1  0.340505  0.242120  0.160028  1
  O  O28  1  0.409519  0.069344  0.401546  1
  O  O29  1  0.667799  0.007971  0.598446  1
  O  O30  1  0.579192  0.458597  0.536941  1
  O  O31  1  0.828237  0.791358  0.620358  1
  O  O32  1  0.921643  0.042252  0.463049  1
  O  O33  1  0.171006  0.207891  0.379650  1
  O  O34  1  0.432844  0.964137  0.723960  1
  O  O35  1  0.509700  0.285798  0.968762  1
  O  O36  1  0.317021  0.540897  0.031219  1
  O  O37  1  0.240202  0.708856  0.276041  1
