# generated using pymatgen
data_Dy2Fe8MoP6W
_symmetry_space_group_name_H-M   'P 1'
_cell_length_a   3.71047400
_cell_length_b   10.44963700
_cell_length_c   11.99187400
_cell_angle_alpha   90.00000000
_cell_angle_beta   90.00000000
_cell_angle_gamma   90.00000000
_symmetry_Int_Tables_number   1
_chemical_formula_structural   Dy2Fe8MoP6W
_chemical_formula_sum   'Dy4 Fe16 Mo2 P12 W2'
_cell_volume   464.96220651
_cell_formula_units_Z   2
loop_
 _symmetry_equiv_pos_site_id
 _symmetry_equiv_pos_as_xyz
  1  'x, y, z'
loop_
 _atom_site_type_symbol
 _atom_site_label
 _atom_site_symmetry_multiplicity
 _atom_site_fract_x
 _atom_site_fract_y
 _atom_site_fract_z
 _atom_site_occupancy
  Dy  Dy0  1  0.250000  0.581704  0.707635  1
  Dy  Dy1  1  0.250000  0.918296  0.207635  1
  Dy  Dy2  1  0.750000  0.416533  0.292465  1
  Dy  Dy3  1  0.750000  0.083467  0.792465  1
  Fe  Fe4  1  0.250000  0.407080  0.492160  1
  Fe  Fe5  1  0.250000  0.092920  0.992160  1
  Fe  Fe6  1  0.750000  0.589789  0.507201  1
  Fe  Fe7  1  0.750000  0.910211  0.007201  1
  Fe  Fe8  1  0.250000  0.218621  0.176265  1
  Fe  Fe9  1  0.250000  0.281379  0.676265  1
  Fe  Fe10  1  0.750000  0.783171  0.822175  1
  Fe  Fe11  1  0.750000  0.716829  0.322175  1
  Fe  Fe12  1  0.250000  0.876380  0.701552  1
  Fe  Fe13  1  0.250000  0.623620  0.201552  1
  Fe  Fe14  1  0.750000  0.122062  0.299593  1
  Fe  Fe15  1  0.750000  0.377938  0.799593  1
  Fe  Fe16  1  0.250000  0.463448  0.933877  1
  Fe  Fe17  1  0.250000  0.036552  0.433877  1
  Fe  Fe18  1  0.750000  0.536974  0.067342  1
  Fe  Fe19  1  0.750000  0.963026  0.567342  1
  Mo  Mo20  1  0.250000  0.706459  0.987879  1
  Mo  Mo21  1  0.250000  0.793541  0.487879  1
  P  P22  1  0.250000  0.425716  0.114322  1
  P  P23  1  0.250000  0.074284  0.614322  1
  P  P24  1  0.750000  0.575026  0.886568  1
  P  P25  1  0.750000  0.924974  0.386568  1
  P  P26  1  0.250000  0.267648  0.865289  1
  P  P27  1  0.250000  0.232352  0.365289  1
  P  P28  1  0.750000  0.734742  0.132415  1
  P  P29  1  0.750000  0.765258  0.632415  1
  P  P30  1  0.250000  0.593184  0.390249  1
  P  P31  1  0.250000  0.906816  0.890249  1
  P  P32  1  0.750000  0.405338  0.611598  1
  P  P33  1  0.750000  0.094662  0.111598  1
  W  W34  1  0.750000  0.295418  0.011415  1
  W  W35  1  0.750000  0.204582  0.511415  1
