# generated using pymatgen
data_HoZr2Al7Cu2
_symmetry_space_group_name_H-M   'P 1'
_cell_length_a   8.92911222
_cell_length_b   8.92911293
_cell_length_c   8.92911227
_cell_angle_alpha   34.81712059
_cell_angle_beta   34.81711428
_cell_angle_gamma   34.81711230
_symmetry_Int_Tables_number   1
_chemical_formula_structural   HoZr2Al7Cu2
_chemical_formula_sum   'Ho1 Zr2 Al7 Cu2'
_cell_volume   207.15361876
_cell_formula_units_Z   1
loop_
 _symmetry_equiv_pos_site_id
 _symmetry_equiv_pos_as_xyz
  1  'x, y, z'
loop_
 _atom_site_type_symbol
 _atom_site_label
 _atom_site_symmetry_multiplicity
 _atom_site_fract_x
 _atom_site_fract_y
 _atom_site_fract_z
 _atom_site_occupancy
  Ho  Ho0  1  0.000000  0.000000  0.000000  1
  Zr  Zr1  1  0.855834  0.855834  0.855834  1
  Zr  Zr2  1  0.144166  0.144166  0.144166  1
  Al  Al3  1  0.415492  0.415492  0.924045  1
  Al  Al4  1  0.924045  0.415492  0.415492  1
  Al  Al5  1  0.415492  0.924045  0.415492  1
  Al  Al6  1  0.500000  0.500000  0.500000  1
  Al  Al7  1  0.584508  0.075955  0.584508  1
  Al  Al8  1  0.075955  0.584508  0.584508  1
  Al  Al9  1  0.584508  0.584508  0.075955  1
  Cu  Cu10  1  0.665492  0.665492  0.665492  1
  Cu  Cu11  1  0.334508  0.334508  0.334508  1
