# generated using pymatgen
data_Tb9Pr8Lu3Sn16
_symmetry_space_group_name_H-M   'P 1'
_cell_length_a   8.10183842
_cell_length_b   8.33499343
_cell_length_c   15.72679500
_cell_angle_alpha   90.00000000
_cell_angle_beta   90.00000000
_cell_angle_gamma   89.96311956
_symmetry_Int_Tables_number   1
_chemical_formula_structural   Tb9Pr8Lu3Sn16
_chemical_formula_sum   'Tb9 Pr8 Lu3 Sn16'
_cell_volume   1062.01090257
_cell_formula_units_Z   1
loop_
 _symmetry_equiv_pos_site_id
 _symmetry_equiv_pos_as_xyz
  1  'x, y, z'
loop_
 _atom_site_type_symbol
 _atom_site_label
 _atom_site_symmetry_multiplicity
 _atom_site_fract_x
 _atom_site_fract_y
 _atom_site_fract_z
 _atom_site_occupancy
  Tb  Tb0  1  0.349422  0.835550  0.875760  1
  Tb  Tb1  1  0.848502  0.664886  0.624168  1
  Tb  Tb2  1  0.650900  0.164696  0.375609  1
  Tb  Tb3  1  0.151227  0.335535  0.124537  1
  Tb  Tb4  1  0.650900  0.164696  0.124391  1
  Tb  Tb5  1  0.151227  0.335535  0.375463  1
  Tb  Tb6  1  0.349422  0.835550  0.624240  1
  Tb  Tb7  1  0.848502  0.664886  0.875832  1
  Tb  Tb8  1  0.181904  0.500949  0.750000  1
  Pr  Pr9  1  0.508699  0.323442  0.903935  1
  Pr  Pr10  1  0.007980  0.176084  0.596099  1
  Pr  Pr11  1  0.491559  0.676203  0.403634  1
  Pr  Pr12  1  0.991829  0.823670  0.096288  1
  Pr  Pr13  1  0.491559  0.676203  0.096366  1
  Pr  Pr14  1  0.991829  0.823670  0.403712  1
  Pr  Pr15  1  0.508699  0.323442  0.596065  1
  Pr  Pr16  1  0.007980  0.176084  0.903901  1
  Lu  Lu17  1  0.682340  0.998424  0.750000  1
  Lu  Lu18  1  0.817751  0.498748  0.250000  1
  Lu  Lu19  1  0.317960  0.001352  0.250000  1
  Sn  Sn20  1  0.313372  0.040907  0.042516  1
  Sn  Sn21  1  0.813319  0.459250  0.457457  1
  Sn  Sn22  1  0.686364  0.959024  0.542310  1
  Sn  Sn23  1  0.186460  0.541319  0.958441  1
  Sn  Sn24  1  0.686364  0.959024  0.957690  1
  Sn  Sn25  1  0.186460  0.541319  0.541559  1
  Sn  Sn26  1  0.313372  0.040907  0.457484  1
  Sn  Sn27  1  0.813319  0.459250  0.042543  1
  Sn  Sn28  1  0.547853  0.623365  0.750000  1
  Sn  Sn29  1  0.045161  0.878239  0.750000  1
  Sn  Sn30  1  0.454604  0.377489  0.250000  1
  Sn  Sn31  1  0.954414  0.122458  0.250000  1
  Sn  Sn32  1  0.316051  0.143910  0.750000  1
  Sn  Sn33  1  0.815097  0.353738  0.750000  1
  Sn  Sn34  1  0.683921  0.854030  0.250000  1
  Sn  Sn35  1  0.183676  0.646169  0.250000  1
