# generated using pymatgen
data_VFe4P4W3
_symmetry_space_group_name_H-M   'P 1'
_cell_length_a   3.57832500
_cell_length_b   5.94830800
_cell_length_c   6.74153488
_cell_angle_alpha   89.93254633
_cell_angle_beta   90.00000000
_cell_angle_gamma   90.00000000
_symmetry_Int_Tables_number   1
_chemical_formula_structural   VFe4P4W3
_chemical_formula_sum   'V1 Fe4 P4 W3'
_cell_volume   143.49333040
_cell_formula_units_Z   1
loop_
 _symmetry_equiv_pos_site_id
 _symmetry_equiv_pos_as_xyz
  1  'x, y, z'
loop_
 _atom_site_type_symbol
 _atom_site_label
 _atom_site_symmetry_multiplicity
 _atom_site_fract_x
 _atom_site_fract_y
 _atom_site_fract_z
 _atom_site_occupancy
  V  V0  1  0.250000  0.526557  0.673648  1
  Fe  Fe1  1  0.250000  0.643248  0.061708  1
  Fe  Fe2  1  0.750000  0.357596  0.937144  1
  Fe  Fe3  1  0.250000  0.141723  0.437418  1
  Fe  Fe4  1  0.750000  0.858494  0.561801  1
  P  P5  1  0.250000  0.274891  0.122895  1
  P  P6  1  0.750000  0.720769  0.870051  1
  P  P7  1  0.250000  0.770334  0.384038  1
  P  P8  1  0.750000  0.234457  0.622681  1
  W  W9  1  0.750000  0.970034  0.168410  1
  W  W10  1  0.250000  0.026246  0.829595  1
  W  W11  1  0.750000  0.475654  0.330611  1
