# generated using pymatgen
data_Dy20AlSi7Hg4
_symmetry_space_group_name_H-M   'P 1'
_cell_length_a   7.60548711
_cell_length_b   7.60548713
_cell_length_c   14.25028200
_cell_angle_alpha   90.00958259
_cell_angle_beta   90.00958259
_cell_angle_gamma   89.63417016
_symmetry_Int_Tables_number   1
_chemical_formula_structural   Dy20AlSi7Hg4
_chemical_formula_sum   'Dy20 Al1 Si7 Hg4'
_cell_volume   824.26842612
_cell_formula_units_Z   1
loop_
 _symmetry_equiv_pos_site_id
 _symmetry_equiv_pos_as_xyz
  1  'x, y, z'
loop_
 _atom_site_type_symbol
 _atom_site_label
 _atom_site_symmetry_multiplicity
 _atom_site_fract_x
 _atom_site_fract_y
 _atom_site_fract_z
 _atom_site_occupancy
  Dy  Dy0  1  0.830251  0.824607  0.891904  1
  Dy  Dy1  1  0.175393  0.169749  0.608096  1
  Dy  Dy2  1  0.831612  0.172357  0.389871  1
  Dy  Dy3  1  0.168685  0.827413  0.389124  1
  Dy  Dy4  1  0.328007  0.331287  0.389444  1
  Dy  Dy5  1  0.827643  0.168388  0.110129  1
  Dy  Dy6  1  0.327928  0.667626  0.889763  1
  Dy  Dy7  1  0.172587  0.831315  0.110876  1
  Dy  Dy8  1  0.496378  0.998599  0.754280  1
  Dy  Dy9  1  0.000105  0.500016  0.246169  1
  Dy  Dy10  1  0.332374  0.672072  0.610237  1
  Dy  Dy11  1  0.668713  0.671993  0.110556  1
  Dy  Dy12  1  0.665157  0.329989  0.607905  1
  Dy  Dy13  1  0.001401  0.503622  0.745720  1
  Dy  Dy14  1  0.825907  0.829134  0.607997  1
  Dy  Dy15  1  0.670011  0.334843  0.892095  1
  Dy  Dy16  1  0.170866  0.174093  0.892003  1
  Dy  Dy17  1  0.499984  0.999895  0.253831  1
  Dy  Dy18  1  0.672974  0.667923  0.389481  1
  Dy  Dy19  1  0.332077  0.327026  0.110519  1
  Al  Al20  1  0.876802  0.123198  0.750000  1
  Si  Si21  1  0.625785  0.374215  0.250000  1
  Si  Si22  1  0.374298  0.625702  0.250000  1
  Si  Si23  1  0.126002  0.126322  0.250021  1
  Si  Si24  1  0.374361  0.373584  0.750034  1
  Si  Si25  1  0.124258  0.875742  0.750000  1
  Si  Si26  1  0.873678  0.873998  0.249979  1
  Si  Si27  1  0.626416  0.625639  0.749966  1
  Hg  Hg28  1  0.000825  0.500746  0.002382  1
  Hg  Hg29  1  0.499370  0.999101  0.999900  1
  Hg  Hg30  1  0.499254  0.999175  0.497618  1
  Hg  Hg31  1  0.000899  0.500630  0.500100  1
