# generated using pymatgen
data_Hf5ZrFe5Si12Pt
_symmetry_space_group_name_H-M   'P 1'
_cell_length_a   9.76327660
_cell_length_b   9.76446890
_cell_length_c   9.76446882
_cell_angle_alpha   149.03438664
_cell_angle_beta   133.30554402
_cell_angle_gamma   57.08818713
_symmetry_Int_Tables_number   1
_chemical_formula_structural   Hf5ZrFe5Si12Pt
_chemical_formula_sum   'Hf5 Zr1 Fe5 Si12 Pt1'
_cell_volume   346.03900772
_cell_formula_units_Z   1
loop_
 _symmetry_equiv_pos_site_id
 _symmetry_equiv_pos_as_xyz
  1  'x, y, z'
loop_
 _atom_site_type_symbol
 _atom_site_label
 _atom_site_symmetry_multiplicity
 _atom_site_fract_x
 _atom_site_fract_y
 _atom_site_fract_z
 _atom_site_occupancy
  Hf  Hf0  1  0.144413  0.402490  0.741922  1
  Hf  Hf1  1  0.661911  0.403445  0.258466  1
  Hf  Hf2  1  0.339655  0.597504  0.742151  1
  Hf  Hf3  1  0.143829  0.141577  0.002252  1
  Hf  Hf4  1  0.860950  0.858373  0.002578  1
  Zr  Zr5  1  0.853629  0.596081  0.257550  1
  Fe  Fe6  1  0.002677  0.001391  0.499607  1
  Fe  Fe7  1  0.499015  0.497492  0.499504  1
  Fe  Fe8  1  0.499015  0.999511  0.001523  1
  Fe  Fe9  1  0.253901  0.000179  0.253722  1
  Fe  Fe10  1  0.002677  0.503070  0.001287  1
  Si  Si11  1  0.489318  0.138417  0.350901  1
  Si  Si12  1  0.504118  0.853208  0.650911  1
  Si  Si13  1  0.212898  0.861937  0.350962  1
  Si  Si14  1  0.798082  0.146927  0.651155  1
  Si  Si15  1  0.705352  0.704058  0.001294  1
  Si  Si16  1  0.298055  0.296250  0.001804  1
  Si  Si17  1  0.486515  0.726687  0.213732  1
  Si  Si18  1  0.486515  0.272781  0.759828  1
  Si  Si19  1  0.008965  0.266506  0.275954  1
  Si  Si20  1  0.212966  0.713982  0.498985  1
  Si  Si21  1  0.008965  0.733011  0.742460  1
  Si  Si22  1  0.785038  0.286380  0.498658  1
  Pt  Pt23  1  0.741540  0.998745  0.742796  1
