# generated using pymatgen
data_Zr6PBr14
_symmetry_space_group_name_H-M   'P 1'
_cell_length_a   10.15964944
_cell_length_b   10.15965011
_cell_length_c   12.26665000
_cell_angle_alpha   90.00000000
_cell_angle_beta   90.00000000
_cell_angle_gamma   95.13368767
_symmetry_Int_Tables_number   1
_chemical_formula_structural   Zr6PBr14
_chemical_formula_sum   'Zr12 P2 Br28'
_cell_volume   1261.06603081
_cell_formula_units_Z   2
loop_
 _symmetry_equiv_pos_site_id
 _symmetry_equiv_pos_as_xyz
  1  'x, y, z'
loop_
 _atom_site_type_symbol
 _atom_site_label
 _atom_site_symmetry_multiplicity
 _atom_site_fract_x
 _atom_site_fract_y
 _atom_site_fract_z
 _atom_site_occupancy
  Zr  Zr0  1  0.951312  0.185992  0.119236  1
  Zr  Zr1  1  0.048688  0.814008  0.880764  1
  Zr  Zr2  1  0.548688  0.314008  0.619236  1
  Zr  Zr3  1  0.685992  0.451312  0.380764  1
  Zr  Zr4  1  0.451312  0.685992  0.380764  1
  Zr  Zr5  1  0.314008  0.548688  0.619236  1
  Zr  Zr6  1  0.814008  0.048688  0.880764  1
  Zr  Zr7  1  0.185992  0.951312  0.119236  1
  Zr  Zr8  1  0.351821  0.351821  0.391065  1
  Zr  Zr9  1  0.648179  0.648179  0.608935  1
  Zr  Zr10  1  0.148179  0.148179  0.891065  1
  Zr  Zr11  1  0.851821  0.851821  0.108935  1
  P  P12  1  0.000000  0.000000  0.000000  1
  P  P13  1  0.500000  0.500000  0.500000  1
  Br  Br14  1  0.282728  0.535841  0.249354  1
  Br  Br15  1  0.717272  0.464159  0.750646  1
  Br  Br16  1  0.217272  0.964159  0.749354  1
  Br  Br17  1  0.035841  0.782728  0.250646  1
  Br  Br18  1  0.782728  0.035841  0.250646  1
  Br  Br19  1  0.964159  0.217272  0.749354  1
  Br  Br20  1  0.464159  0.717272  0.750646  1
  Br  Br21  1  0.535841  0.282728  0.249354  1
  Br  Br22  1  0.116331  0.366936  0.009842  1
  Br  Br23  1  0.883669  0.633064  0.990158  1
  Br  Br24  1  0.383669  0.133064  0.509842  1
  Br  Br25  1  0.866936  0.616331  0.490158  1
  Br  Br26  1  0.616331  0.866936  0.490158  1
  Br  Br27  1  0.133064  0.383669  0.509842  1
  Br  Br28  1  0.633064  0.883669  0.990158  1
  Br  Br29  1  0.366936  0.116331  0.009842  1
  Br  Br30  1  0.901257  0.401257  0.250000  1
  Br  Br31  1  0.098743  0.598743  0.750000  1
  Br  Br32  1  0.598743  0.098743  0.750000  1
  Br  Br33  1  0.401257  0.901257  0.250000  1
  Br  Br34  1  0.745685  0.254315  0.000000  1
  Br  Br35  1  0.254315  0.745685  0.000000  1
  Br  Br36  1  0.754315  0.245685  0.500000  1
  Br  Br37  1  0.245685  0.754315  0.500000  1
  Br  Br38  1  0.154046  0.154046  0.268582  1
  Br  Br39  1  0.845954  0.845954  0.731418  1
  Br  Br40  1  0.345954  0.345954  0.768582  1
  Br  Br41  1  0.654046  0.654046  0.231418  1
