# generated using pymatgen
data_Ac2Ho3(Sn5Ir2)2
_symmetry_space_group_name_H-M   'P 1'
_cell_length_a   14.24672600
_cell_length_b   14.24672600
_cell_length_c   4.65526600
_cell_angle_alpha   90.00000000
_cell_angle_beta   90.00000000
_cell_angle_gamma   90.00000000
_symmetry_Int_Tables_number   1
_chemical_formula_structural   Ac2Ho3(Sn5Ir2)2
_chemical_formula_sum   'Ac4 Ho6 Sn20 Ir8'
_cell_volume   944.87562381
_cell_formula_units_Z   2
loop_
 _symmetry_equiv_pos_site_id
 _symmetry_equiv_pos_as_xyz
  1  'x, y, z'
loop_
 _atom_site_type_symbol
 _atom_site_label
 _atom_site_symmetry_multiplicity
 _atom_site_fract_x
 _atom_site_fract_y
 _atom_site_fract_z
 _atom_site_occupancy
  Ac  Ac0  1  0.887619  0.387619  0.500000  1
  Ac  Ac1  1  0.112381  0.612381  0.500000  1
  Ac  Ac2  1  0.387619  0.112381  0.500000  1
  Ac  Ac3  1  0.612381  0.887619  0.500000  1
  Ho  Ho4  1  0.500000  0.500000  0.000000  1
  Ho  Ho5  1  0.000000  0.000000  0.000000  1
  Ho  Ho6  1  0.677201  0.177201  0.500000  1
  Ho  Ho7  1  0.322799  0.822799  0.500000  1
  Ho  Ho8  1  0.177201  0.322799  0.500000  1
  Ho  Ho9  1  0.822799  0.677201  0.500000  1
  Sn  Sn10  1  0.572643  0.072643  0.000000  1
  Sn  Sn11  1  0.427357  0.927357  0.000000  1
  Sn  Sn12  1  0.072643  0.427357  0.000000  1
  Sn  Sn13  1  0.927357  0.572643  0.000000  1
  Sn  Sn14  1  0.655551  0.697399  0.000000  1
  Sn  Sn15  1  0.344449  0.302601  0.000000  1
  Sn  Sn16  1  0.155551  0.802601  0.000000  1
  Sn  Sn17  1  0.844449  0.197399  0.000000  1
  Sn  Sn18  1  0.302601  0.655551  0.000000  1
  Sn  Sn19  1  0.697399  0.344449  0.000000  1
  Sn  Sn20  1  0.197399  0.155551  0.000000  1
  Sn  Sn21  1  0.802601  0.844449  0.000000  1
  Sn  Sn22  1  0.658344  0.510484  0.500000  1
  Sn  Sn23  1  0.341656  0.489516  0.500000  1
  Sn  Sn24  1  0.158344  0.989516  0.500000  1
  Sn  Sn25  1  0.841656  0.010484  0.500000  1
  Sn  Sn26  1  0.489516  0.658344  0.500000  1
  Sn  Sn27  1  0.510484  0.341656  0.500000  1
  Sn  Sn28  1  0.010484  0.158344  0.500000  1
  Sn  Sn29  1  0.989516  0.841656  0.500000  1
  Ir  Ir30  1  0.743798  0.528916  0.000000  1
  Ir  Ir31  1  0.256202  0.471084  0.000000  1
  Ir  Ir32  1  0.243798  0.971084  0.000000  1
  Ir  Ir33  1  0.756202  0.028916  0.000000  1
  Ir  Ir34  1  0.471084  0.743798  0.000000  1
  Ir  Ir35  1  0.528916  0.256202  0.000000  1
  Ir  Ir36  1  0.028916  0.243798  0.000000  1
  Ir  Ir37  1  0.971084  0.756202  0.000000  1
