# generated using pymatgen
data_PrNdCI
_symmetry_space_group_name_H-M   'P 1'
_cell_length_a   3.90430100
_cell_length_b   3.90430138
_cell_length_c   15.67907700
_cell_angle_alpha   90.00000000
_cell_angle_beta   90.00000000
_cell_angle_gamma   120.00000525
_symmetry_Int_Tables_number   1
_chemical_formula_structural   PrNdCI
_chemical_formula_sum   'Pr2 Nd2 C2 I2'
_cell_volume   206.98445390
_cell_formula_units_Z   2
loop_
 _symmetry_equiv_pos_site_id
 _symmetry_equiv_pos_as_xyz
  1  'x, y, z'
loop_
 _atom_site_type_symbol
 _atom_site_label
 _atom_site_symmetry_multiplicity
 _atom_site_fract_x
 _atom_site_fract_y
 _atom_site_fract_z
 _atom_site_occupancy
  Pr  Pr0  1  0.333333  0.666667  0.413021  1
  Pr  Pr1  1  0.666667  0.333333  0.913021  1
  Nd  Nd2  1  0.666667  0.333333  0.587056  1
  Nd  Nd3  1  0.333333  0.666667  0.087056  1
  C  C4  1  0.000000  0.000000  0.501587  1
  C  C5  1  0.000000  0.000000  0.001587  1
  I  I6  1  0.666667  0.333333  0.248337  1
  I  I7  1  0.333333  0.666667  0.748337  1
