# generated using pymatgen
data_Li2TiRh3O8
_symmetry_space_group_name_H-M   'P 1'
_cell_length_a   6.17163033
_cell_length_b   5.91105355
_cell_length_c   8.54559102
_cell_angle_alpha   93.54057842
_cell_angle_beta   89.91909138
_cell_angle_gamma   89.94191650
_symmetry_Int_Tables_number   1
_chemical_formula_structural   Li2TiRh3O8
_chemical_formula_sum   'Li4 Ti2 Rh6 O16'
_cell_volume   311.15478221
_cell_formula_units_Z   2
loop_
 _symmetry_equiv_pos_site_id
 _symmetry_equiv_pos_as_xyz
  1  'x, y, z'
loop_
 _atom_site_type_symbol
 _atom_site_label
 _atom_site_symmetry_multiplicity
 _atom_site_fract_x
 _atom_site_fract_y
 _atom_site_fract_z
 _atom_site_occupancy
  Li  Li0  1  0.999834  0.241518  0.121584  1
  Li  Li1  1  0.500641  0.743450  0.620545  1
  Li  Li2  1  0.999437  0.756550  0.879446  1
  Li  Li3  1  0.500233  0.258484  0.378436  1
  Ti  Ti4  1  0.000518  0.000583  0.502259  1
  Ti  Ti5  1  0.499577  0.499410  0.997711  1
  Rh  Rh6  1  0.749975  0.250065  0.749916  1
  Rh  Rh7  1  0.749948  0.749989  0.250095  1
  Rh  Rh8  1  0.250053  0.250047  0.749865  1
  Rh  Rh9  1  0.999992  0.499206  0.499650  1
  Rh  Rh10  1  0.499968  0.000786  0.000351  1
  Rh  Rh11  1  0.249937  0.749946  0.250102  1
  O  O12  1  0.000005  0.521514  0.260651  1
  O  O13  1  0.500172  0.022276  0.761289  1
  O  O14  1  0.999879  0.477741  0.738676  1
  O  O15  1  0.499859  0.978410  0.239377  1
  O  O16  1  0.225667  0.754502  0.490584  1
  O  O17  1  0.725788  0.257383  0.991394  1
  O  O18  1  0.774905  0.754979  0.490320  1
  O  O19  1  0.273804  0.257526  0.991159  1
  O  O20  1  0.999292  0.980083  0.265843  1
  O  O21  1  0.499763  0.483084  0.763952  1
  O  O22  1  0.000289  0.016941  0.736021  1
  O  O23  1  0.500573  0.519882  0.234195  1
  O  O24  1  0.226219  0.242458  0.508708  1
  O  O25  1  0.725099  0.745046  0.009772  1
  O  O26  1  0.774219  0.242616  0.508586  1
  O  O27  1  0.274353  0.745525  0.009515  1
