# generated using pymatgen
data_Dy6Y3ErCd3Ru
_symmetry_space_group_name_H-M   'P 1'
_cell_length_a   9.60517400
_cell_length_b   9.60517340
_cell_length_c   9.85101800
_cell_angle_alpha   90.00000000
_cell_angle_beta   90.00000000
_cell_angle_gamma   120.00000206
_symmetry_Int_Tables_number   1
_chemical_formula_structural   Dy6Y3ErCd3Ru
_chemical_formula_sum   'Dy12 Y6 Er2 Cd6 Ru2'
_cell_volume   787.08598880
_cell_formula_units_Z   2
loop_
 _symmetry_equiv_pos_site_id
 _symmetry_equiv_pos_as_xyz
  1  'x, y, z'
loop_
 _atom_site_type_symbol
 _atom_site_label
 _atom_site_symmetry_multiplicity
 _atom_site_fract_x
 _atom_site_fract_y
 _atom_site_fract_z
 _atom_site_occupancy
  Dy  Dy0  1  0.209572  0.790428  0.440321  1
  Dy  Dy1  1  0.209572  0.419147  0.440321  1
  Dy  Dy2  1  0.580853  0.790428  0.440321  1
  Dy  Dy3  1  0.790428  0.209572  0.559679  1
  Dy  Dy4  1  0.790428  0.580853  0.559679  1
  Dy  Dy5  1  0.419147  0.209572  0.559679  1
  Dy  Dy6  1  0.790428  0.209572  0.940321  1
  Dy  Dy7  1  0.790428  0.580853  0.940321  1
  Dy  Dy8  1  0.419147  0.209572  0.940321  1
  Dy  Dy9  1  0.209572  0.790428  0.059679  1
  Dy  Dy10  1  0.209572  0.419147  0.059679  1
  Dy  Dy11  1  0.580853  0.790428  0.059679  1
  Y  Y12  1  0.541224  0.458776  0.250000  1
  Y  Y13  1  0.541224  0.082449  0.250000  1
  Y  Y14  1  0.917551  0.458776  0.250000  1
  Y  Y15  1  0.458776  0.541224  0.750000  1
  Y  Y16  1  0.458776  0.917551  0.750000  1
  Y  Y17  1  0.082449  0.541224  0.750000  1
  Er  Er18  1  0.000000  0.000000  0.500000  1
  Er  Er19  1  0.000000  0.000000  0.000000  1
  Cd  Cd20  1  0.885611  0.114389  0.250000  1
  Cd  Cd21  1  0.885611  0.771223  0.250000  1
  Cd  Cd22  1  0.228777  0.114389  0.250000  1
  Cd  Cd23  1  0.114389  0.885611  0.750000  1
  Cd  Cd24  1  0.114389  0.228777  0.750000  1
  Cd  Cd25  1  0.771223  0.885611  0.750000  1
  Ru  Ru26  1  0.333333  0.666667  0.250000  1
  Ru  Ru27  1  0.666667  0.333333  0.750000  1
