# generated using pymatgen
data_NaTb2ErHg4
_symmetry_space_group_name_H-M   'P 1'
_cell_length_a   7.31657600
_cell_length_b   7.31617900
_cell_length_c   7.36119300
_cell_angle_alpha   90.00000000
_cell_angle_beta   90.00000000
_cell_angle_gamma   90.00000000
_symmetry_Int_Tables_number   1
_chemical_formula_structural   NaTb2ErHg4
_chemical_formula_sum   'Na2 Tb4 Er2 Hg8'
_cell_volume   394.04009502
_cell_formula_units_Z   2
loop_
 _symmetry_equiv_pos_site_id
 _symmetry_equiv_pos_as_xyz
  1  'x, y, z'
loop_
 _atom_site_type_symbol
 _atom_site_label
 _atom_site_symmetry_multiplicity
 _atom_site_fract_x
 _atom_site_fract_y
 _atom_site_fract_z
 _atom_site_occupancy
  Na  Na0  1  0.250030  0.750000  0.501073  1
  Na  Na1  1  0.750029  0.250000  0.998928  1
  Tb  Tb2  1  0.249969  0.250000  0.999986  1
  Tb  Tb3  1  0.750024  0.750000  0.999995  1
  Tb  Tb4  1  0.749969  0.750000  0.500012  1
  Tb  Tb5  1  0.250025  0.250000  0.500007  1
  Er  Er6  1  0.249984  0.750000  0.000525  1
  Er  Er7  1  0.749984  0.250000  0.499475  1
  Hg  Hg8  1  0.500222  0.000193  0.249923  1
  Hg  Hg9  1  0.500222  0.499807  0.249923  1
  Hg  Hg10  1  0.000223  0.500193  0.250078  1
  Hg  Hg11  1  0.000223  0.999807  0.250078  1
  Hg  Hg12  1  0.999774  0.000189  0.750024  1
  Hg  Hg13  1  0.999774  0.499811  0.750024  1
  Hg  Hg14  1  0.499774  0.500189  0.749976  1
  Hg  Hg15  1  0.499774  0.999811  0.749976  1
