# generated using pymatgen
data_AgIrRu3Pb3O14
_symmetry_space_group_name_H-M   'P 1'
_cell_length_a   7.37702334
_cell_length_b   7.27820939
_cell_length_c   7.37702400
_cell_angle_alpha   59.54986752
_cell_angle_beta   60.00000599
_cell_angle_gamma   59.54986021
_symmetry_Int_Tables_number   1
_chemical_formula_structural   AgIrRu3Pb3O14
_chemical_formula_sum   'Ag1 Ir1 Ru3 Pb3 O14'
_cell_volume   278.15272117
_cell_formula_units_Z   1
loop_
 _symmetry_equiv_pos_site_id
 _symmetry_equiv_pos_as_xyz
  1  'x, y, z'
loop_
 _atom_site_type_symbol
 _atom_site_label
 _atom_site_symmetry_multiplicity
 _atom_site_fract_x
 _atom_site_fract_y
 _atom_site_fract_z
 _atom_site_occupancy
  Ag  Ag0  1  0.125000  0.625000  0.125000  1
  Ir  Ir1  1  0.625000  0.125000  0.625000  1
  Ru  Ru2  1  0.125000  0.625000  0.625000  1
  Ru  Ru3  1  0.625000  0.625000  0.125000  1
  Ru  Ru4  1  0.625000  0.625000  0.625000  1
  Pb  Pb5  1  0.625000  0.125000  0.125000  1
  Pb  Pb6  1  0.125000  0.125000  0.625000  1
  Pb  Pb7  1  0.125000  0.125000  0.125000  1
  O  O8  1  0.684960  0.699548  0.307746  1
  O  O9  1  0.299670  0.295473  0.702429  1
  O  O10  1  0.702429  0.295473  0.702429  1
  O  O11  1  0.307746  0.699548  0.307746  1
  O  O12  1  0.307746  0.699548  0.684960  1
  O  O13  1  0.702429  0.295473  0.299670  1
  O  O14  1  0.565040  0.550452  0.942254  1
  O  O15  1  0.950330  0.954527  0.547571  1
  O  O16  1  0.547571  0.954527  0.547571  1
  O  O17  1  0.942254  0.550452  0.942254  1
  O  O18  1  0.942254  0.550452  0.565040  1
  O  O19  1  0.547571  0.954527  0.950330  1
  O  O20  1  0.241765  0.274705  0.241765  1
  O  O21  1  0.008235  0.975295  0.008235  1
