# generated using pymatgen
data_Ho12Si12IrAu3
_symmetry_space_group_name_H-M   'P 1'
_cell_length_a   4.23670600
_cell_length_b   10.82639013
_cell_length_c   12.37487622
_cell_angle_alpha   90.00211328
_cell_angle_beta   90.00000000
_cell_angle_gamma   90.00000000
_symmetry_Int_Tables_number   1
_chemical_formula_structural   Ho12Si12IrAu3
_chemical_formula_sum   'Ho12 Si12 Ir1 Au3'
_cell_volume   567.61369312
_cell_formula_units_Z   1
loop_
 _symmetry_equiv_pos_site_id
 _symmetry_equiv_pos_as_xyz
  1  'x, y, z'
loop_
 _atom_site_type_symbol
 _atom_site_label
 _atom_site_symmetry_multiplicity
 _atom_site_fract_x
 _atom_site_fract_y
 _atom_site_fract_z
 _atom_site_occupancy
  Ho  Ho0  1  0.250000  0.876859  0.019241  1
  Ho  Ho1  1  0.250000  0.625729  0.521337  1
  Ho  Ho2  1  0.750000  0.120523  0.978637  1
  Ho  Ho3  1  0.750000  0.375391  0.481557  1
  Ho  Ho4  1  0.250000  0.921548  0.602711  1
  Ho  Ho5  1  0.250000  0.579520  0.099106  1
  Ho  Ho6  1  0.750000  0.078074  0.399118  1
  Ho  Ho7  1  0.750000  0.420919  0.896205  1
  Ho  Ho8  1  0.250000  0.666895  0.802113  1
  Ho  Ho9  1  0.250000  0.836256  0.302768  1
  Ho  Ho10  1  0.750000  0.336971  0.196790  1
  Ho  Ho11  1  0.750000  0.155281  0.699998  1
  Si  Si12  1  0.250000  0.009369  0.824138  1
  Si  Si13  1  0.250000  0.475170  0.326450  1
  Si  Si14  1  0.750000  0.975067  0.176759  1
  Si  Si15  1  0.750000  0.528240  0.673065  1
  Si  Si16  1  0.250000  0.240394  0.846349  1
  Si  Si17  1  0.250000  0.252778  0.347724  1
  Si  Si18  1  0.750000  0.754119  0.151559  1
  Si  Si19  1  0.750000  0.753799  0.660768  1
  Si  Si20  1  0.250000  0.185259  0.537971  1
  Si  Si21  1  0.250000  0.315094  0.034576  1
  Si  Si22  1  0.750000  0.815788  0.465679  1
  Si  Si23  1  0.750000  0.701641  0.955227  1
  Ir  Ir24  1  0.750000  0.889579  0.820093  1
  Au  Au25  1  0.250000  0.389903  0.681946  1
  Au  Au26  1  0.250000  0.110050  0.181237  1
  Au  Au27  1  0.750000  0.609781  0.316877  1
