# generated using pymatgen
data_Er3Tm4Sn23Ru6
_symmetry_space_group_name_H-M   'P 1'
_cell_length_a   9.82078518
_cell_length_b   9.89055490
_cell_length_c   10.01445954
_cell_angle_alpha   90.00000136
_cell_angle_beta   89.89268873
_cell_angle_gamma   120.23529239
_symmetry_Int_Tables_number   1
_chemical_formula_structural   Er3Tm4Sn23Ru6
_chemical_formula_sum   'Er3 Tm4 Sn23 Ru6'
_cell_volume   840.40651466
_cell_formula_units_Z   1
loop_
 _symmetry_equiv_pos_site_id
 _symmetry_equiv_pos_as_xyz
  1  'x, y, z'
loop_
 _atom_site_type_symbol
 _atom_site_label
 _atom_site_symmetry_multiplicity
 _atom_site_fract_x
 _atom_site_fract_y
 _atom_site_fract_z
 _atom_site_occupancy
  Er  Er0  1  0.028396  0.514199  0.304569  1
  Er  Er1  1  0.971604  0.485801  0.695431  1
  Er  Er2  1  0.000000  0.000000  0.000000  1
  Tm  Tm3  1  0.486359  0.512516  0.303484  1
  Tm  Tm4  1  0.513641  0.487484  0.696516  1
  Tm  Tm5  1  0.486359  0.973845  0.303484  1
  Tm  Tm6  1  0.513641  0.026155  0.696516  1
  Sn  Sn7  1  0.117394  0.880949  0.276634  1
  Sn  Sn8  1  0.882606  0.119051  0.723366  1
  Sn  Sn9  1  0.117394  0.236445  0.276634  1
  Sn  Sn10  1  0.882606  0.763555  0.723366  1
  Sn  Sn11  1  0.760948  0.880474  0.273177  1
  Sn  Sn12  1  0.239052  0.119526  0.726823  1
  Sn  Sn13  1  0.778380  0.222417  0.465210  1
  Sn  Sn14  1  0.221620  0.777583  0.534790  1
  Sn  Sn15  1  0.778380  0.555962  0.465210  1
  Sn  Sn16  1  0.221620  0.444038  0.534790  1
  Sn  Sn17  1  0.444249  0.222125  0.466153  1
  Sn  Sn18  1  0.555751  0.777875  0.533847  1
  Sn  Sn19  1  0.348876  0.000467  0.000236  1
  Sn  Sn20  1  0.651124  0.999533  0.999764  1
  Sn  Sn21  1  0.000000  0.348567  0.000000  1
  Sn  Sn22  1  0.000000  0.651433  0.000000  1
  Sn  Sn23  1  0.651124  0.651590  0.999764  1
  Sn  Sn24  1  0.348876  0.348410  0.000236  1
  Sn  Sn25  1  0.334726  0.667363  0.132354  1
  Sn  Sn26  1  0.665274  0.332637  0.867646  1
  Sn  Sn27  1  0.333050  0.666526  0.823162  1
  Sn  Sn28  1  0.666950  0.333474  0.176838  1
  Sn  Sn29  1  0.000000  0.000000  0.500000  1
  Ru  Ru30  1  0.828694  0.169653  0.203090  1
  Ru  Ru31  1  0.171306  0.830347  0.796910  1
  Ru  Ru32  1  0.828694  0.659042  0.203090  1
  Ru  Ru33  1  0.171306  0.340958  0.796910  1
  Ru  Ru34  1  0.340542  0.170271  0.203918  1
  Ru  Ru35  1  0.659458  0.829729  0.796082  1
