# generated using pymatgen
data_Er2Ga4PtAu
_symmetry_space_group_name_H-M   'P 1'
_cell_length_a   5.55408337
_cell_length_b   5.55408307
_cell_length_c   6.63054500
_cell_angle_alpha   90.00000000
_cell_angle_beta   90.00000000
_cell_angle_gamma   132.82403610
_symmetry_Int_Tables_number   1
_chemical_formula_structural   Er2Ga4PtAu
_chemical_formula_sum   'Er2 Ga4 Pt1 Au1'
_cell_volume   150.01732165
_cell_formula_units_Z   1
loop_
 _symmetry_equiv_pos_site_id
 _symmetry_equiv_pos_as_xyz
  1  'x, y, z'
loop_
 _atom_site_type_symbol
 _atom_site_label
 _atom_site_symmetry_multiplicity
 _atom_site_fract_x
 _atom_site_fract_y
 _atom_site_fract_z
 _atom_site_occupancy
  Er  Er0  1  0.587065  0.412935  0.250000  1
  Er  Er1  1  0.411769  0.588231  0.750000  1
  Ga  Ga2  1  0.874861  0.125139  0.446117  1
  Ga  Ga3  1  0.125473  0.874527  0.545916  1
  Ga  Ga4  1  0.874861  0.125139  0.053883  1
  Ga  Ga5  1  0.125473  0.874527  0.954084  1
  Pt  Pt6  1  0.298787  0.701213  0.250000  1
  Au  Au7  1  0.701711  0.298289  0.750000  1
