# generated using pymatgen
data_DyHo7Sc12Si15Rh
_symmetry_space_group_name_H-M   'P 1'
_cell_length_a   7.06890730
_cell_length_b   7.42718194
_cell_length_c   13.94284708
_cell_angle_alpha   90.01176178
_cell_angle_beta   89.99592976
_cell_angle_gamma   90.21789929
_symmetry_Int_Tables_number   1
_chemical_formula_structural   DyHo7Sc12Si15Rh
_chemical_formula_sum   'Dy1 Ho7 Sc12 Si15 Rh1'
_cell_volume   732.02289161
_cell_formula_units_Z   1
loop_
 _symmetry_equiv_pos_site_id
 _symmetry_equiv_pos_as_xyz
  1  'x, y, z'
loop_
 _atom_site_type_symbol
 _atom_site_label
 _atom_site_symmetry_multiplicity
 _atom_site_fract_x
 _atom_site_fract_y
 _atom_site_fract_z
 _atom_site_occupancy
  Dy  Dy0  1  0.489175  0.676753  0.595479  1
  Ho  Ho1  1  0.011405  0.178337  0.096067  1
  Ho  Ho2  1  0.991066  0.824516  0.904642  1
  Ho  Ho3  1  0.489135  0.677019  0.904335  1
  Ho  Ho4  1  0.991070  0.824585  0.595363  1
  Ho  Ho5  1  0.511211  0.322792  0.096381  1
  Ho  Ho6  1  0.011387  0.178343  0.403894  1
  Ho  Ho7  1  0.511208  0.322773  0.403544  1
  Sc  Sc8  1  0.158909  0.503972  0.750048  1
  Sc  Sc9  1  0.837880  0.495870  0.250021  1
  Sc  Sc10  1  0.338759  0.005008  0.250011  1
  Sc  Sc11  1  0.668728  0.998784  0.750036  1
  Sc  Sc12  1  0.320089  0.172603  0.626842  1
  Sc  Sc13  1  0.671221  0.825279  0.374043  1
  Sc  Sc14  1  0.170693  0.677389  0.374335  1
  Sc  Sc15  1  0.671155  0.825207  0.125939  1
  Sc  Sc16  1  0.834053  0.322086  0.626517  1
  Sc  Sc17  1  0.320112  0.172660  0.873178  1
  Sc  Sc18  1  0.834060  0.322113  0.873504  1
  Sc  Sc19  1  0.170737  0.677406  0.125657  1
  Si  Si20  1  0.968535  0.884881  0.250002  1
  Si  Si21  1  0.468134  0.614643  0.249989  1
  Si  Si22  1  0.530641  0.387496  0.750088  1
  Si  Si23  1  0.287558  0.868242  0.750143  1
  Si  Si24  1  0.713447  0.129571  0.249999  1
  Si  Si25  1  0.213361  0.371367  0.249999  1
  Si  Si26  1  0.780898  0.626928  0.750142  1
  Si  Si27  1  0.159381  0.467124  0.537891  1
  Si  Si28  1  0.842605  0.535587  0.461184  1
  Si  Si29  1  0.344191  0.966177  0.460453  1
  Si  Si30  1  0.842494  0.535598  0.038787  1
  Si  Si31  1  0.658013  0.034816  0.538621  1
  Si  Si32  1  0.159744  0.467311  0.962041  1
  Si  Si33  1  0.657917  0.034551  0.961327  1
  Si  Si34  1  0.344241  0.965942  0.039484  1
  Rh  Rh35  1  0.026782  0.106269  0.750013  1
