# generated using pymatgen
data_Re(S4Cl3)2
_symmetry_space_group_name_H-M   'P 1'
_cell_length_a   8.39509381
_cell_length_b   8.39890294
_cell_length_c   14.19884067
_cell_angle_alpha   95.65690087
_cell_angle_beta   99.38849578
_cell_angle_gamma   89.94540223
_symmetry_Int_Tables_number   1
_chemical_formula_structural   Re(S4Cl3)2
_chemical_formula_sum   'Re2 S16 Cl12'
_cell_volume   982.81675415
_cell_formula_units_Z   2
loop_
 _symmetry_equiv_pos_site_id
 _symmetry_equiv_pos_as_xyz
  1  'x, y, z'
loop_
 _atom_site_type_symbol
 _atom_site_label
 _atom_site_symmetry_multiplicity
 _atom_site_fract_x
 _atom_site_fract_y
 _atom_site_fract_z
 _atom_site_occupancy
  Re  Re0  1  0.712371  0.223138  0.893125  1
  Re  Re1  1  0.287629  0.776862  0.106875  1
  S  S2  1  0.431069  0.751426  0.657171  1
  S  S3  1  0.568931  0.248574  0.342829  1
  S  S4  1  0.269905  0.900663  0.585302  1
  S  S5  1  0.730095  0.099337  0.414698  1
  S  S6  1  0.092450  0.961382  0.666410  1
  S  S7  1  0.907550  0.038618  0.333590  1
  S  S8  1  0.893352  0.814115  0.618072  1
  S  S9  1  0.106648  0.185885  0.381928  1
  S  S10  1  0.898225  0.628802  0.703561  1
  S  S11  1  0.101775  0.371198  0.296439  1
  S  S12  1  0.995039  0.431204  0.637351  1
  S  S13  1  0.004961  0.568796  0.362649  1
  S  S14  1  0.236563  0.419168  0.694242  1
  S  S15  1  0.763437  0.580832  0.305758  1
  S  S16  1  0.628696  0.482174  0.395157  1
  S  S17  1  0.371304  0.517826  0.604843  1
  Cl  Cl18  1  0.752126  0.249533  0.057101  1
  Cl  Cl19  1  0.247874  0.750467  0.942899  1
  Cl  Cl20  1  0.671913  0.195957  0.727850  1
  Cl  Cl21  1  0.328087  0.804043  0.272150  1
  Cl  Cl22  1  0.447953  0.145702  0.889521  1
  Cl  Cl23  1  0.552047  0.854298  0.110479  1
  Cl  Cl24  1  0.634924  0.486178  0.891964  1
  Cl  Cl25  1  0.365076  0.513822  0.108036  1
  Cl  Cl26  1  0.976486  0.301602  0.895602  1
  Cl  Cl27  1  0.023514  0.698398  0.104398  1
  Cl  Cl28  1  0.790084  0.960346  0.892989  1
  Cl  Cl29  1  0.209916  0.039654  0.107011  1
