# generated using pymatgen
data_La8AlAgPd23
_symmetry_space_group_name_H-M   'P 1'
_cell_length_a   8.56101700
_cell_length_b   8.61477300
_cell_length_c   8.54153700
_cell_angle_alpha   90.00000000
_cell_angle_beta   90.00000000
_cell_angle_gamma   90.00000000
_symmetry_Int_Tables_number   1
_chemical_formula_structural   La8AlAgPd23
_chemical_formula_sum   'La8 Al1 Ag1 Pd23'
_cell_volume   629.94875823
_cell_formula_units_Z   1
loop_
 _symmetry_equiv_pos_site_id
 _symmetry_equiv_pos_as_xyz
  1  'x, y, z'
loop_
 _atom_site_type_symbol
 _atom_site_label
 _atom_site_symmetry_multiplicity
 _atom_site_fract_x
 _atom_site_fract_y
 _atom_site_fract_z
 _atom_site_occupancy
  La  La0  1  0.252192  0.247305  0.258364  1
  La  La1  1  0.747461  0.746899  0.748251  1
  La  La2  1  0.747461  0.746899  0.251749  1
  La  La3  1  0.747461  0.253101  0.748251  1
  La  La4  1  0.252192  0.247305  0.741636  1
  La  La5  1  0.252192  0.752695  0.258364  1
  La  La6  1  0.252192  0.752695  0.741636  1
  La  La7  1  0.747461  0.253101  0.251749  1
  Al  Al8  1  0.998375  0.000000  0.000000  1
  Ag  Ag9  1  0.264191  0.500000  0.000000  1
  Pd  Pd10  1  0.741478  0.500000  0.000000  1
  Pd  Pd11  1  0.997872  0.260225  0.500000  1
  Pd  Pd12  1  0.499255  0.258219  0.000000  1
  Pd  Pd13  1  0.997872  0.739775  0.500000  1
  Pd  Pd14  1  0.499255  0.741781  0.000000  1
  Pd  Pd15  1  0.500808  0.000000  0.259782  1
  Pd  Pd16  1  0.259993  0.000000  0.500000  1
  Pd  Pd17  1  0.500808  0.000000  0.740218  1
  Pd  Pd18  1  0.739227  0.000000  0.500000  1
  Pd  Pd19  1  0.001651  0.500000  0.259945  1
  Pd  Pd20  1  0.001651  0.500000  0.740055  1
  Pd  Pd21  1  0.252945  0.500000  0.500000  1
  Pd  Pd22  1  0.747148  0.500000  0.500000  1
  Pd  Pd23  1  0.501679  0.253494  0.500000  1
  Pd  Pd24  1  0.501679  0.746506  0.500000  1
  Pd  Pd25  1  0.499480  0.500000  0.254921  1
  Pd  Pd26  1  0.499480  0.500000  0.745079  1
  Pd  Pd27  1  0.288886  0.000000  0.000000  1
  Pd  Pd28  1  0.708069  0.000000  0.000000  1
  Pd  Pd29  1  0.002024  0.289263  0.000000  1
  Pd  Pd30  1  0.002024  0.710737  0.000000  1
  Pd  Pd31  1  0.997772  0.000000  0.291000  1
  Pd  Pd32  1  0.997772  0.000000  0.709000  1
