# generated using pymatgen
data_GaSi4SnPt4
_symmetry_space_group_name_H-M   'P 1'
_cell_length_a   4.02874300
_cell_length_b   4.02874380
_cell_length_c   12.37504700
_cell_angle_alpha   90.00000000
_cell_angle_beta   90.00000000
_cell_angle_gamma   119.99998519
_symmetry_Int_Tables_number   1
_chemical_formula_structural   GaSi4SnPt4
_chemical_formula_sum   'Ga1 Si4 Sn1 Pt4'
_cell_volume   173.94692991
_cell_formula_units_Z   1
loop_
 _symmetry_equiv_pos_site_id
 _symmetry_equiv_pos_as_xyz
  1  'x, y, z'
loop_
 _atom_site_type_symbol
 _atom_site_label
 _atom_site_symmetry_multiplicity
 _atom_site_fract_x
 _atom_site_fract_y
 _atom_site_fract_z
 _atom_site_occupancy
  Ga  Ga0  1  0.000000  0.000000  0.750000  1
  Si  Si1  1  0.333333  0.666667  0.571872  1
  Si  Si2  1  0.666667  0.333333  0.060095  1
  Si  Si3  1  0.666667  0.333333  0.439905  1
  Si  Si4  1  0.333333  0.666667  0.928128  1
  Sn  Sn5  1  0.000000  0.000000  0.250000  1
  Pt  Pt6  1  0.333333  0.666667  0.374497  1
  Pt  Pt7  1  0.666667  0.333333  0.864460  1
  Pt  Pt8  1  0.666667  0.333333  0.635540  1
  Pt  Pt9  1  0.333333  0.666667  0.125503  1
