# generated using pymatgen
data_CeZn3Ga
_symmetry_space_group_name_H-M   'P 1'
_cell_length_a   5.93751800
_cell_length_b   5.93751797
_cell_length_c   5.90277600
_cell_angle_alpha   90.00000000
_cell_angle_beta   90.00000000
_cell_angle_gamma   117.31549765
_symmetry_Int_Tables_number   1
_chemical_formula_structural   CeZn3Ga
_chemical_formula_sum   'Ce2 Zn6 Ga2'
_cell_volume   184.89291065
_cell_formula_units_Z   2
loop_
 _symmetry_equiv_pos_site_id
 _symmetry_equiv_pos_as_xyz
  1  'x, y, z'
loop_
 _atom_site_type_symbol
 _atom_site_label
 _atom_site_symmetry_multiplicity
 _atom_site_fract_x
 _atom_site_fract_y
 _atom_site_fract_z
 _atom_site_occupancy
  Ce  Ce0  1  0.265973  0.734027  0.750000  1
  Ce  Ce1  1  0.734027  0.265973  0.250000  1
  Zn  Zn2  1  0.608342  0.391658  0.750000  1
  Zn  Zn3  1  0.391658  0.608342  0.250000  1
  Zn  Zn4  1  0.778227  0.778227  0.000000  1
  Zn  Zn5  1  0.778227  0.778227  0.500000  1
  Zn  Zn6  1  0.221773  0.221773  0.000000  1
  Zn  Zn7  1  0.221773  0.221773  0.500000  1
  Ga  Ga8  1  0.847413  0.152587  0.750000  1
  Ga  Ga9  1  0.152587  0.847413  0.250000  1
