# generated using pymatgen
data_Dy12Y4Cd4Ir3Pt
_symmetry_space_group_name_H-M   'P 1'
_cell_length_a   9.64916396
_cell_length_b   9.64768045
_cell_length_c   9.64767921
_cell_angle_alpha   60.05845694
_cell_angle_beta   60.05157479
_cell_angle_gamma   60.05157495
_symmetry_Int_Tables_number   1
_chemical_formula_structural   Dy12Y4Cd4Ir3Pt
_chemical_formula_sum   'Dy12 Y4 Cd4 Ir3 Pt1'
_cell_volume   635.84369247
_cell_formula_units_Z   1
loop_
 _symmetry_equiv_pos_site_id
 _symmetry_equiv_pos_as_xyz
  1  'x, y, z'
loop_
 _atom_site_type_symbol
 _atom_site_label
 _atom_site_symmetry_multiplicity
 _atom_site_fract_x
 _atom_site_fract_y
 _atom_site_fract_z
 _atom_site_occupancy
  Dy  Dy0  1  0.348149  0.348406  0.348406  1
  Dy  Dy1  1  0.351825  0.351603  0.950112  1
  Dy  Dy2  1  0.351825  0.950112  0.351603  1
  Dy  Dy3  1  0.950114  0.351811  0.351811  1
  Dy  Dy4  1  0.806339  0.190572  0.190572  1
  Dy  Dy5  1  0.188567  0.810297  0.810297  1
  Dy  Dy6  1  0.190550  0.806380  0.190581  1
  Dy  Dy7  1  0.810335  0.188536  0.810284  1
  Dy  Dy8  1  0.190550  0.190581  0.806380  1
  Dy  Dy9  1  0.810335  0.810284  0.188536  1
  Dy  Dy10  1  0.938333  0.562353  0.562353  1
  Dy  Dy11  1  0.563849  0.937478  0.937478  1
  Y  Y12  1  0.562707  0.937973  0.562747  1
  Y  Y13  1  0.937156  0.564137  0.937129  1
  Y  Y14  1  0.562707  0.562747  0.937973  1
  Y  Y15  1  0.937156  0.937129  0.564137  1
  Cd  Cd16  1  0.580777  0.580802  0.580802  1
  Cd  Cd17  1  0.580902  0.580900  0.256724  1
  Cd  Cd18  1  0.580902  0.256724  0.580900  1
  Cd  Cd19  1  0.256705  0.580916  0.580916  1
  Ir  Ir20  1  0.141573  0.141717  0.574439  1
  Ir  Ir21  1  0.141573  0.574439  0.141717  1
  Ir  Ir22  1  0.574435  0.141544  0.141544  1
  Pt  Pt23  1  0.142634  0.142558  0.142558  1
