# generated using pymatgen
data_CaLaPr7Rh6
_symmetry_space_group_name_H-M   'P 1'
_cell_length_a   7.68467214
_cell_length_b   7.68467097
_cell_length_c   7.68467055
_cell_angle_alpha   70.88647642
_cell_angle_beta   70.88647663
_cell_angle_gamma   70.88647768
_symmetry_Int_Tables_number   1
_chemical_formula_structural   CaLaPr7Rh6
_chemical_formula_sum   'Ca1 La1 Pr7 Rh6'
_cell_volume   392.63572311
_cell_formula_units_Z   1
loop_
 _symmetry_equiv_pos_site_id
 _symmetry_equiv_pos_as_xyz
  1  'x, y, z'
loop_
 _atom_site_type_symbol
 _atom_site_label
 _atom_site_symmetry_multiplicity
 _atom_site_fract_x
 _atom_site_fract_y
 _atom_site_fract_z
 _atom_site_occupancy
  Ca  Ca0  1  0.000530  0.000530  0.000530  1
  La  La1  1  0.799142  0.799142  0.799142  1
  Pr  Pr2  1  0.200382  0.200382  0.200382  1
  Pr  Pr3  1  0.161375  0.386710  0.667451  1
  Pr  Pr4  1  0.667451  0.161375  0.386710  1
  Pr  Pr5  1  0.386710  0.667451  0.161375  1
  Pr  Pr6  1  0.840551  0.610387  0.332276  1
  Pr  Pr7  1  0.332276  0.840551  0.610387  1
  Pr  Pr8  1  0.610387  0.332276  0.840551  1
  Rh  Rh9  1  0.954996  0.168880  0.583254  1
  Rh  Rh10  1  0.583254  0.954996  0.168880  1
  Rh  Rh11  1  0.168880  0.583254  0.954996  1
  Rh  Rh12  1  0.041566  0.830139  0.422360  1
  Rh  Rh13  1  0.422360  0.041566  0.830139  1
  Rh  Rh14  1  0.830139  0.422360  0.041566  1
