# generated using pymatgen
data_Lu12TlTc3Sn
_symmetry_space_group_name_H-M   'P 1'
_cell_length_a   8.30323561
_cell_length_b   8.30323440
_cell_length_c   8.30323500
_cell_angle_alpha   108.93778356
_cell_angle_beta   109.02566115
_cell_angle_gamma   110.45472734
_symmetry_Int_Tables_number   1
_chemical_formula_structural   Lu12TlTc3Sn
_chemical_formula_sum   'Lu12 Tl1 Tc3 Sn1'
_cell_volume   440.57888298
_cell_formula_units_Z   1
loop_
 _symmetry_equiv_pos_site_id
 _symmetry_equiv_pos_as_xyz
  1  'x, y, z'
loop_
 _atom_site_type_symbol
 _atom_site_label
 _atom_site_symmetry_multiplicity
 _atom_site_fract_x
 _atom_site_fract_y
 _atom_site_fract_z
 _atom_site_occupancy
  Lu  Lu0  1  0.305125  0.306048  0.611174  1
  Lu  Lu1  1  0.694875  0.693952  0.388826  1
  Lu  Lu2  1  0.694875  0.306048  0.000924  1
  Lu  Lu3  1  0.305125  0.693952  0.999076  1
  Lu  Lu4  1  0.189509  0.428741  0.239232  1
  Lu  Lu5  1  0.810491  0.571259  0.760768  1
  Lu  Lu6  1  0.189509  0.950276  0.760768  1
  Lu  Lu7  1  0.951438  0.190650  0.760789  1
  Lu  Lu8  1  0.810491  0.049724  0.239232  1
  Lu  Lu9  1  0.048562  0.809350  0.239211  1
  Lu  Lu10  1  0.429861  0.190650  0.239211  1
  Lu  Lu11  1  0.570139  0.809350  0.760789  1
  Tl  Tl12  1  0.000000  0.500000  0.500000  1
  Tc  Tc13  1  0.370270  0.370270  0.000000  1
  Tc  Tc14  1  0.629730  0.629730  0.000000  1
  Tc  Tc15  1  0.000000  0.000000  0.000000  1
  Sn  Sn16  1  0.500000  0.000000  0.500000  1
