# generated using pymatgen
data_NdEu3H10
_symmetry_space_group_name_H-M   'P 1'
_cell_length_a   6.68236463
_cell_length_b   6.68236461
_cell_length_c   6.68236459
_cell_angle_alpha   131.37249602
_cell_angle_beta   130.81760383
_cell_angle_gamma   71.66303807
_symmetry_Int_Tables_number   1
_chemical_formula_structural   NdEu3H10
_chemical_formula_sum   'Nd1 Eu3 H10'
_cell_volume   165.80190602
_cell_formula_units_Z   1
loop_
 _symmetry_equiv_pos_site_id
 _symmetry_equiv_pos_as_xyz
  1  'x, y, z'
loop_
 _atom_site_type_symbol
 _atom_site_label
 _atom_site_symmetry_multiplicity
 _atom_site_fract_x
 _atom_site_fract_y
 _atom_site_fract_z
 _atom_site_occupancy
  Nd  Nd0  1  0.266156  0.266156  0.000000  1
  Eu  Eu1  1  0.487051  0.987051  0.500000  1
  Eu  Eu2  1  0.736163  0.736163  0.000000  1
  Eu  Eu3  1  0.014367  0.514367  0.500000  1
  H  H4  1  0.373578  0.345471  0.466063  1
  H  H5  1  0.879408  0.907515  0.533937  1
  H  H6  1  0.651699  0.127182  0.031609  1
  H  H7  1  0.095573  0.620090  0.968391  1
  H  H8  1  0.373578  0.907515  0.028107  1
  H  H9  1  0.879408  0.345471  0.971893  1
  H  H10  1  0.651699  0.620090  0.524517  1
  H  H11  1  0.095573  0.127182  0.475483  1
  H  H12  1  0.251571  0.751571  0.500000  1
  H  H13  1  0.494174  0.494174  0.000000  1
