# generated using pymatgen
data_Dy12InCo4Ru
_symmetry_space_group_name_H-M   'P 1'
_cell_length_a   8.29376321
_cell_length_b   8.29376328
_cell_length_c   8.29376400
_cell_angle_alpha   111.19086493
_cell_angle_beta   110.53087059
_cell_angle_gamma   106.72701348
_symmetry_Int_Tables_number   1
_chemical_formula_structural   Dy12InCo4Ru
_chemical_formula_sum   'Dy12 In1 Co4 Ru1'
_cell_volume   438.40406133
_cell_formula_units_Z   1
loop_
 _symmetry_equiv_pos_site_id
 _symmetry_equiv_pos_as_xyz
  1  'x, y, z'
loop_
 _atom_site_type_symbol
 _atom_site_label
 _atom_site_symmetry_multiplicity
 _atom_site_fract_x
 _atom_site_fract_y
 _atom_site_fract_z
 _atom_site_occupancy
  Dy  Dy0  1  0.410659  0.217850  0.192810  1
  Dy  Dy1  1  0.589341  0.782150  0.807190  1
  Dy  Dy2  1  0.025040  0.217850  0.807190  1
  Dy  Dy3  1  0.974960  0.782150  0.192810  1
  Dy  Dy4  1  0.183122  0.284686  0.467808  1
  Dy  Dy5  1  0.816878  0.715314  0.532192  1
  Dy  Dy6  1  0.183122  0.715314  0.898437  1
  Dy  Dy7  1  0.816878  0.284686  0.101563  1
  Dy  Dy8  1  0.314707  0.621056  0.306349  1
  Dy  Dy9  1  0.685293  0.378944  0.693651  1
  Dy  Dy10  1  0.314707  0.008358  0.693651  1
  Dy  Dy11  1  0.685293  0.991642  0.306349  1
  In  In12  1  0.500000  0.500000  0.000000  1
  Co  Co13  1  0.376359  0.000000  0.376359  1
  Co  Co14  1  0.623641  0.000000  0.623641  1
  Co  Co15  1  0.111468  0.611468  0.500000  1
  Co  Co16  1  0.888532  0.388532  0.500000  1
  Ru  Ru17  1  0.000000  0.000000  0.000000  1
