# generated using pymatgen
data_CsPa3(SeO6)2
_symmetry_space_group_name_H-M   'P 1'
_cell_length_a   8.06763100
_cell_length_b   8.06763091
_cell_length_c   13.35521400
_cell_angle_alpha   90.00000000
_cell_angle_beta   90.00000000
_cell_angle_gamma   120.00000448
_symmetry_Int_Tables_number   1
_chemical_formula_structural   CsPa3(SeO6)2
_chemical_formula_sum   'Cs2 Pa6 Se4 O24'
_cell_volume   752.78942704
_cell_formula_units_Z   2
loop_
 _symmetry_equiv_pos_site_id
 _symmetry_equiv_pos_as_xyz
  1  'x, y, z'
loop_
 _atom_site_type_symbol
 _atom_site_label
 _atom_site_symmetry_multiplicity
 _atom_site_fract_x
 _atom_site_fract_y
 _atom_site_fract_z
 _atom_site_occupancy
  Cs  Cs0  1  0.666667  0.333333  0.448741  1
  Cs  Cs1  1  0.333333  0.666667  0.948741  1
  Pa  Pa2  1  0.833758  0.667237  0.796052  1
  Pa  Pa3  1  0.833480  0.166242  0.796052  1
  Pa  Pa4  1  0.667237  0.833480  0.296052  1
  Pa  Pa5  1  0.166242  0.332763  0.296052  1
  Pa  Pa6  1  0.332763  0.166520  0.796052  1
  Pa  Pa7  1  0.166520  0.833758  0.296052  1
  Se  Se8  1  0.000000  0.000000  0.576430  1
  Se  Se9  1  0.666667  0.333333  0.016704  1
  Se  Se10  1  0.333333  0.666667  0.516704  1
  Se  Se11  1  0.000000  0.000000  0.076430  1
  O  O12  1  0.249377  0.124765  0.329201  1
  O  O13  1  0.124612  0.249377  0.829201  1
  O  O14  1  0.124765  0.875388  0.829201  1
  O  O15  1  0.875235  0.124612  0.329201  1
  O  O16  1  0.875388  0.750623  0.329201  1
  O  O17  1  0.750623  0.875235  0.829201  1
  O  O18  1  0.457743  0.915231  0.269700  1
  O  O19  1  0.542512  0.457743  0.769700  1
  O  O20  1  0.915231  0.457488  0.769700  1
  O  O21  1  0.084769  0.542512  0.269700  1
  O  O22  1  0.457488  0.542257  0.269700  1
  O  O23  1  0.542257  0.084769  0.769700  1
  O  O24  1  0.777453  0.221572  0.959664  1
  O  O25  1  0.555881  0.777453  0.459664  1
  O  O26  1  0.221572  0.444119  0.459664  1
  O  O27  1  0.778428  0.555881  0.959664  1
  O  O28  1  0.444119  0.222547  0.959664  1
  O  O29  1  0.222547  0.778428  0.459664  1
  O  O30  1  0.888471  0.110960  0.633952  1
  O  O31  1  0.777511  0.888471  0.133952  1
  O  O32  1  0.110960  0.222489  0.133952  1
  O  O33  1  0.889040  0.777511  0.633952  1
  O  O34  1  0.222489  0.111529  0.633952  1
  O  O35  1  0.111529  0.889040  0.133952  1
