# generated using pymatgen
data_Tb5Y3(LuBi)12
_symmetry_space_group_name_H-M   'P 1'
_cell_length_a   8.19993201
_cell_length_b   9.41152900
_cell_length_c   11.99526601
_cell_angle_alpha   90.00000000
_cell_angle_beta   89.99523860
_cell_angle_gamma   90.00000000
_symmetry_Int_Tables_number   1
_chemical_formula_structural   Tb5Y3(LuBi)12
_chemical_formula_sum   'Tb5 Y3 Lu12 Bi12'
_cell_volume   925.72143096
_cell_formula_units_Z   1
loop_
 _symmetry_equiv_pos_site_id
 _symmetry_equiv_pos_as_xyz
  1  'x, y, z'
loop_
 _atom_site_type_symbol
 _atom_site_label
 _atom_site_symmetry_multiplicity
 _atom_site_fract_x
 _atom_site_fract_y
 _atom_site_fract_z
 _atom_site_occupancy
  Tb  Tb0  1  0.186218  0.750000  0.718752  1
  Tb  Tb1  1  0.686201  0.750000  0.781253  1
  Tb  Tb2  1  0.813788  0.250000  0.281284  1
  Tb  Tb3  1  0.313817  0.250000  0.218744  1
  Tb  Tb4  1  0.353213  0.750000  0.216659  1
  Y  Y5  1  0.853183  0.750000  0.283381  1
  Y  Y6  1  0.646860  0.250000  0.783386  1
  Y  Y7  1  0.146787  0.250000  0.716620  1
  Lu  Lu8  1  0.023666  0.750000  0.989524  1
  Lu  Lu9  1  0.523771  0.750000  0.510511  1
  Lu  Lu10  1  0.976210  0.250000  0.010436  1
  Lu  Lu11  1  0.476305  0.250000  0.489549  1
  Lu  Lu12  1  0.307374  0.433563  0.940889  1
  Lu  Lu13  1  0.807367  0.066482  0.559115  1
  Lu  Lu14  1  0.692628  0.933530  0.059095  1
  Lu  Lu15  1  0.192613  0.566471  0.440906  1
  Lu  Lu16  1  0.692628  0.566470  0.059095  1
  Lu  Lu17  1  0.192613  0.933529  0.440906  1
  Lu  Lu18  1  0.307374  0.066437  0.940889  1
  Lu  Lu19  1  0.807367  0.433518  0.559115  1
  Bi  Bi20  1  0.433902  0.004040  0.671681  1
  Bi  Bi21  1  0.933889  0.495983  0.828309  1
  Bi  Bi22  1  0.566174  0.503938  0.328368  1
  Bi  Bi23  1  0.066052  0.996007  0.171693  1
  Bi  Bi24  1  0.566174  0.996062  0.328368  1
  Bi  Bi25  1  0.066052  0.503993  0.171693  1
  Bi  Bi26  1  0.433902  0.495960  0.671681  1
  Bi  Bi27  1  0.933889  0.004017  0.828309  1
  Bi  Bi28  1  0.404509  0.750000  0.957350  1
  Bi  Bi29  1  0.904493  0.750000  0.542420  1
  Bi  Bi30  1  0.595481  0.250000  0.042425  1
  Bi  Bi31  1  0.095500  0.250000  0.457595  1
