# generated using pymatgen
data_Hf18Ti2FeRe5MoSe
_symmetry_space_group_name_H-M   'P 1'
_cell_length_a   8.65025815
_cell_length_b   8.65025744
_cell_length_c   8.52070400
_cell_angle_alpha   90.00000000
_cell_angle_beta   90.00000000
_cell_angle_gamma   120.02123611
_symmetry_Int_Tables_number   1
_chemical_formula_structural   Hf18Ti2FeRe5MoSe
_chemical_formula_sum   'Hf18 Ti2 Fe1 Re5 Mo1 Se1'
_cell_volume   552.04087724
_cell_formula_units_Z   1
loop_
 _symmetry_equiv_pos_site_id
 _symmetry_equiv_pos_as_xyz
  1  'x, y, z'
loop_
 _atom_site_type_symbol
 _atom_site_label
 _atom_site_symmetry_multiplicity
 _atom_site_fract_x
 _atom_site_fract_y
 _atom_site_fract_z
 _atom_site_occupancy
  Hf  Hf0  1  0.201773  0.798227  0.440070  1
  Hf  Hf1  1  0.201137  0.402771  0.440854  1
  Hf  Hf2  1  0.597229  0.798863  0.440854  1
  Hf  Hf3  1  0.807470  0.192530  0.547035  1
  Hf  Hf4  1  0.806090  0.613234  0.546084  1
  Hf  Hf5  1  0.386766  0.193910  0.546084  1
  Hf  Hf6  1  0.807470  0.192530  0.952965  1
  Hf  Hf7  1  0.806090  0.613234  0.953916  1
  Hf  Hf8  1  0.386766  0.193910  0.953916  1
  Hf  Hf9  1  0.201773  0.798227  0.059930  1
  Hf  Hf10  1  0.201137  0.402771  0.059146  1
  Hf  Hf11  1  0.597229  0.798863  0.059146  1
  Hf  Hf12  1  0.541018  0.458982  0.250000  1
  Hf  Hf13  1  0.541717  0.082688  0.250000  1
  Hf  Hf14  1  0.917312  0.458283  0.250000  1
  Hf  Hf15  1  0.454619  0.545381  0.750000  1
  Hf  Hf16  1  0.455653  0.910038  0.750000  1
  Hf  Hf17  1  0.089962  0.544347  0.750000  1
  Ti  Ti18  1  0.999598  0.000402  0.497446  1
  Ti  Ti19  1  0.999598  0.000402  0.002554  1
  Fe  Fe20  1  0.333583  0.666417  0.250000  1
  Re  Re21  1  0.887004  0.112996  0.250000  1
  Re  Re22  1  0.886922  0.774277  0.250000  1
  Re  Re23  1  0.225723  0.113078  0.250000  1
  Re  Re24  1  0.112471  0.225075  0.750000  1
  Re  Re25  1  0.774925  0.887529  0.750000  1
  Mo  Mo26  1  0.111940  0.888060  0.750000  1
  Se  Se27  1  0.667025  0.332975  0.750000  1
