# generated using pymatgen
data_Gd3Mg3NiGe2
_symmetry_space_group_name_H-M   'P 1'
_cell_length_a   7.37411300
_cell_length_b   7.37411345
_cell_length_c   4.39754800
_cell_angle_alpha   90.00000000
_cell_angle_beta   90.00000000
_cell_angle_gamma   119.99999348
_symmetry_Int_Tables_number   1
_chemical_formula_structural   Gd3Mg3NiGe2
_chemical_formula_sum   'Gd3 Mg3 Ni1 Ge2'
_cell_volume   207.09082214
_cell_formula_units_Z   1
loop_
 _symmetry_equiv_pos_site_id
 _symmetry_equiv_pos_as_xyz
  1  'x, y, z'
loop_
 _atom_site_type_symbol
 _atom_site_label
 _atom_site_symmetry_multiplicity
 _atom_site_fract_x
 _atom_site_fract_y
 _atom_site_fract_z
 _atom_site_occupancy
  Gd  Gd0  1  0.000000  0.590971  0.000000  1
  Gd  Gd1  1  0.409029  0.409029  0.000000  1
  Gd  Gd2  1  0.590971  0.000000  0.000000  1
  Mg  Mg3  1  0.237633  0.000000  0.500000  1
  Mg  Mg4  1  0.762367  0.762367  0.500000  1
  Mg  Mg5  1  0.000000  0.237633  0.500000  1
  Ni  Ni6  1  0.000000  0.000000  0.000000  1
  Ge  Ge7  1  0.666667  0.333333  0.500000  1
  Ge  Ge8  1  0.333333  0.666667  0.500000  1
