# generated using pymatgen
data_HoTm5Al14(Si5Ru4)2
_symmetry_space_group_name_H-M   'P 1'
_cell_length_a   8.65098506
_cell_length_b   8.65906076
_cell_length_c   9.29516500
_cell_angle_alpha   90.00000000
_cell_angle_beta   90.00000000
_cell_angle_gamma   119.96369918
_symmetry_Int_Tables_number   1
_chemical_formula_structural   HoTm5Al14(Si5Ru4)2
_chemical_formula_sum   'Ho1 Tm5 Al14 Si10 Ru8'
_cell_volume   603.22985720
_cell_formula_units_Z   1
loop_
 _symmetry_equiv_pos_site_id
 _symmetry_equiv_pos_as_xyz
  1  'x, y, z'
loop_
 _atom_site_type_symbol
 _atom_site_label
 _atom_site_symmetry_multiplicity
 _atom_site_fract_x
 _atom_site_fract_y
 _atom_site_fract_z
 _atom_site_occupancy
  Ho  Ho0  1  0.808950  0.192658  0.750000  1
  Tm  Tm1  1  0.191496  0.803979  0.250000  1
  Tm  Tm2  1  0.386581  0.194095  0.750000  1
  Tm  Tm3  1  0.612338  0.803961  0.250000  1
  Tm  Tm4  1  0.806049  0.612115  0.750000  1
  Tm  Tm5  1  0.194612  0.389378  0.250000  1
  Al  Al6  1  0.835317  0.163290  0.418597  1
  Al  Al7  1  0.164877  0.834672  0.581177  1
  Al  Al8  1  0.327532  0.163142  0.418857  1
  Al  Al9  1  0.164877  0.834672  0.918823  1
  Al  Al10  1  0.668769  0.833945  0.580829  1
  Al  Al11  1  0.835317  0.163290  0.081403  1
  Al  Al12  1  0.836070  0.672228  0.418672  1
  Al  Al13  1  0.668769  0.833945  0.919171  1
  Al  Al14  1  0.166277  0.332033  0.580051  1
  Al  Al15  1  0.327532  0.163142  0.081143  1
  Al  Al16  1  0.166277  0.332033  0.919949  1
  Al  Al17  1  0.836070  0.672228  0.081328  1
  Al  Al18  1  0.563984  0.128453  0.250000  1
  Al  Al19  1  0.000335  0.000501  0.250000  1
  Si  Si20  1  0.665495  0.331211  0.958771  1
  Si  Si21  1  0.334050  0.668414  0.042449  1
  Si  Si22  1  0.334050  0.668414  0.457551  1
  Si  Si23  1  0.665495  0.331211  0.541229  1
  Si  Si24  1  0.438971  0.562301  0.750000  1
  Si  Si25  1  0.563769  0.438923  0.250000  1
  Si  Si26  1  0.124703  0.563609  0.750000  1
  Si  Si27  1  0.875255  0.439173  0.250000  1
  Si  Si28  1  0.436542  0.874515  0.750000  1
  Si  Si29  1  0.001447  0.997192  0.750000  1
  Ru  Ru30  1  0.500011  0.500719  0.999107  1
  Ru  Ru31  1  0.000986  0.501296  0.999346  1
  Ru  Ru32  1  0.500011  0.500719  0.500893  1
  Ru  Ru33  1  0.498613  0.998196  0.993792  1
  Ru  Ru34  1  0.000986  0.501296  0.500654  1
  Ru  Ru35  1  0.498613  0.998196  0.506208  1
  Ru  Ru36  1  0.999488  0.000431  0.992566  1
  Ru  Ru37  1  0.999488  0.000431  0.507434  1
