# generated using pymatgen
data_Lu8NbV8Si16Mo3
_symmetry_space_group_name_H-M   'P 1'
_cell_length_a   6.64214420
_cell_length_b   6.82555815
_cell_length_c   12.84404700
_cell_angle_alpha   90.00000000
_cell_angle_beta   90.00000000
_cell_angle_gamma   89.98094011
_symmetry_Int_Tables_number   1
_chemical_formula_structural   Lu8NbV8Si16Mo3
_chemical_formula_sum   'Lu8 Nb1 V8 Si16 Mo3'
_cell_volume   582.30206880
_cell_formula_units_Z   1
loop_
 _symmetry_equiv_pos_site_id
 _symmetry_equiv_pos_as_xyz
  1  'x, y, z'
loop_
 _atom_site_type_symbol
 _atom_site_label
 _atom_site_symmetry_multiplicity
 _atom_site_fract_x
 _atom_site_fract_y
 _atom_site_fract_z
 _atom_site_occupancy
  Lu  Lu0  1  0.498623  0.330238  0.094595  1
  Lu  Lu1  1  0.998888  0.170357  0.405302  1
  Lu  Lu2  1  0.500777  0.670216  0.594286  1
  Lu  Lu3  1  0.000784  0.829670  0.905852  1
  Lu  Lu4  1  0.500777  0.670216  0.905714  1
  Lu  Lu5  1  0.000784  0.829670  0.594148  1
  Lu  Lu6  1  0.498623  0.330238  0.405405  1
  Lu  Lu7  1  0.998888  0.170357  0.094698  1
  Nb  Nb8  1  0.664158  0.008503  0.750000  1
  V  V9  1  0.835264  0.331101  0.625376  1
  V  V10  1  0.335878  0.169362  0.874824  1
  V  V11  1  0.164920  0.668337  0.125987  1
  V  V12  1  0.665100  0.831316  0.373319  1
  V  V13  1  0.164920  0.668337  0.374013  1
  V  V14  1  0.665100  0.831316  0.126681  1
  V  V15  1  0.835264  0.331101  0.874624  1
  V  V16  1  0.335878  0.169362  0.625176  1
  Si  Si17  1  0.663273  0.043053  0.540654  1
  Si  Si18  1  0.163024  0.455746  0.957343  1
  Si  Si19  1  0.337385  0.956143  0.043177  1
  Si  Si20  1  0.837126  0.543884  0.457150  1
  Si  Si21  1  0.337385  0.956143  0.456823  1
  Si  Si22  1  0.837126  0.543884  0.042850  1
  Si  Si23  1  0.663273  0.043053  0.959346  1
  Si  Si24  1  0.163024  0.455746  0.542657  1
  Si  Si25  1  0.535972  0.372522  0.750000  1
  Si  Si26  1  0.041543  0.131604  0.750000  1
  Si  Si27  1  0.462231  0.630751  0.250000  1
  Si  Si28  1  0.963033  0.869717  0.250000  1
  Si  Si29  1  0.800140  0.623317  0.750000  1
  Si  Si30  1  0.295861  0.872457  0.750000  1
  Si  Si31  1  0.199575  0.374799  0.250000  1
  Si  Si32  1  0.699591  0.125553  0.250000  1
  Mo  Mo33  1  0.163360  0.491313  0.750000  1
  Mo  Mo34  1  0.336281  0.991514  0.250000  1
  Mo  Mo35  1  0.836172  0.509103  0.250000  1
