# generated using pymatgen
data_La7Os(RuC3)3
_symmetry_space_group_name_H-M   'P 1'
_cell_length_a   6.58805176
_cell_length_b   6.58805291
_cell_length_c   11.99745070
_cell_angle_alpha   71.29325141
_cell_angle_beta   71.29324683
_cell_angle_gamma   48.48297997
_symmetry_Int_Tables_number   1
_chemical_formula_structural   La7Os(RuC3)3
_chemical_formula_sum   'La7 Os1 Ru3 C9'
_cell_volume   364.97761470
_cell_formula_units_Z   1
loop_
 _symmetry_equiv_pos_site_id
 _symmetry_equiv_pos_as_xyz
  1  'x, y, z'
loop_
 _atom_site_type_symbol
 _atom_site_label
 _atom_site_symmetry_multiplicity
 _atom_site_fract_x
 _atom_site_fract_y
 _atom_site_fract_z
 _atom_site_occupancy
  La  La0  1  0.374505  0.374505  0.841909  1
  La  La1  1  0.145308  0.145308  0.680088  1
  La  La2  1  0.854591  0.854591  0.319462  1
  La  La3  1  0.138337  0.138337  0.382910  1
  La  La4  1  0.860298  0.860298  0.617879  1
  La  La5  1  0.000871  0.000871  0.999700  1
  La  La6  1  0.627185  0.627185  0.157060  1
  Os  Os7  1  0.357903  0.357903  0.141093  1
  Ru  Ru8  1  0.566209  0.566209  0.570682  1
  Ru  Ru9  1  0.434244  0.434244  0.429501  1
  Ru  Ru10  1  0.642021  0.642021  0.858825  1
  C  C11  1  0.384739  0.384739  0.289703  1
  C  C12  1  0.921413  0.921413  0.819415  1
  C  C13  1  0.392212  0.392212  0.612707  1
  C  C14  1  0.196289  0.196289  0.144314  1
  C  C15  1  0.803585  0.803585  0.856973  1
  C  C16  1  0.498924  0.498924  0.000305  1
  C  C17  1  0.078259  0.078259  0.181002  1
  C  C18  1  0.615378  0.615378  0.709720  1
  C  C19  1  0.607729  0.607729  0.386753  1
