# generated using pymatgen
data_Y12InCo2Ni2Rh
_symmetry_space_group_name_H-M   'P 1'
_cell_length_a   8.35135562
_cell_length_b   8.35135510
_cell_length_c   8.35135496
_cell_angle_alpha   110.70216015
_cell_angle_beta   109.86952972
_cell_angle_gamma   107.85507540
_symmetry_Int_Tables_number   1
_chemical_formula_structural   Y12InCo2Ni2Rh
_chemical_formula_sum   'Y12 In1 Co2 Ni2 Rh1'
_cell_volume   448.09183069
_cell_formula_units_Z   1
loop_
 _symmetry_equiv_pos_site_id
 _symmetry_equiv_pos_as_xyz
  1  'x, y, z'
loop_
 _atom_site_type_symbol
 _atom_site_label
 _atom_site_symmetry_multiplicity
 _atom_site_fract_x
 _atom_site_fract_y
 _atom_site_fract_z
 _atom_site_occupancy
  Y  Y0  1  0.406965  0.214066  0.192899  1
  Y  Y1  1  0.593035  0.785934  0.807101  1
  Y  Y2  1  0.021168  0.214066  0.807101  1
  Y  Y3  1  0.978832  0.785934  0.192899  1
  Y  Y4  1  0.185281  0.293918  0.479200  1
  Y  Y5  1  0.814719  0.706082  0.520800  1
  Y  Y6  1  0.185281  0.706082  0.891364  1
  Y  Y7  1  0.814719  0.293918  0.108636  1
  Y  Y8  1  0.314820  0.618794  0.303975  1
  Y  Y9  1  0.685180  0.381206  0.696025  1
  Y  Y10  1  0.314820  0.010844  0.696025  1
  Y  Y11  1  0.685180  0.989156  0.303975  1
  In  In12  1  0.500000  0.500000  0.000000  1
  Co  Co13  1  0.112627  0.612627  0.500000  1
  Co  Co14  1  0.887373  0.387373  0.500000  1
  Ni  Ni15  1  0.372600  0.000000  0.372600  1
  Ni  Ni16  1  0.627400  0.000000  0.627400  1
  Rh  Rh17  1  0.000000  0.000000  0.000000  1
