# generated using pymatgen
data_Nd6GaNi23B6
_symmetry_space_group_name_H-M   'P 1'
_cell_length_a   5.04829487
_cell_length_b   6.95102251
_cell_length_c   14.04050406
_cell_angle_alpha   104.33166829
_cell_angle_beta   100.35672468
_cell_angle_gamma   89.99999888
_symmetry_Int_Tables_number   1
_chemical_formula_structural   Nd6GaNi23B6
_chemical_formula_sum   'Nd6 Ga1 Ni23 B6'
_cell_volume   469.07012231
_cell_formula_units_Z   1
loop_
 _symmetry_equiv_pos_site_id
 _symmetry_equiv_pos_as_xyz
  1  'x, y, z'
loop_
 _atom_site_type_symbol
 _atom_site_label
 _atom_site_symmetry_multiplicity
 _atom_site_fract_x
 _atom_site_fract_y
 _atom_site_fract_z
 _atom_site_occupancy
  Nd  Nd0  1  0.504822  0.254822  0.009643  1
  Nd  Nd1  1  0.165688  0.915688  0.331376  1
  Nd  Nd2  1  0.178252  0.428252  0.356502  1
  Nd  Nd3  1  0.832012  0.582012  0.664023  1
  Nd  Nd4  1  0.834294  0.084293  0.668585  1
  Nd  Nd5  1  0.489947  0.739947  0.979894  1
  Ga  Ga6  1  0.069242  0.319243  0.138486  1
  Ni  Ni7  1  0.999344  0.010575  0.998689  1
  Ni  Ni8  1  0.999344  0.488113  0.998689  1
  Ni  Ni9  1  0.330776  0.024541  0.160522  1
  Ni  Ni10  1  0.829746  0.024541  0.160522  1
  Ni  Ni11  1  0.330776  0.635980  0.160522  1
  Ni  Ni12  1  0.829746  0.635980  0.160522  1
  Ni  Ni13  1  0.612287  0.362286  0.224571  1
  Ni  Ni14  1  0.666360  0.121189  0.332720  1
  Ni  Ni15  1  0.666360  0.711532  0.332720  1
  Ni  Ni16  1  0.723184  0.473184  0.446367  1
  Ni  Ni17  1  0.999588  0.204398  0.500670  1
  Ni  Ni18  1  0.501082  0.204398  0.500670  1
  Ni  Ni19  1  0.999588  0.796272  0.500670  1
  Ni  Ni20  1  0.501082  0.796272  0.500670  1
  Ni  Ni21  1  0.280685  0.530686  0.561371  1
  Ni  Ni22  1  0.333693  0.286121  0.667385  1
  Ni  Ni23  1  0.333693  0.881265  0.667385  1
  Ni  Ni24  1  0.386252  0.636252  0.772503  1
  Ni  Ni25  1  0.167813  0.368032  0.835566  1
  Ni  Ni26  1  0.667755  0.368032  0.835566  1
  Ni  Ni27  1  0.167813  0.967533  0.835566  1
  Ni  Ni28  1  0.667755  0.967533  0.835566  1
  Ni  Ni29  1  0.937665  0.687665  0.875330  1
  B  B30  1  0.043218  0.793218  0.086436  1
  B  B31  1  0.611045  0.861044  0.222089  1
  B  B32  1  0.721473  0.971472  0.442946  1
  B  B33  1  0.278294  0.028293  0.556588  1
  B  B34  1  0.389206  0.139205  0.778410  1
  B  B35  1  0.950133  0.200131  0.900263  1
