# generated using pymatgen
data_La12Hg(RuBr4)3
_symmetry_space_group_name_H-M   'P 1'
_cell_length_a   10.79913966
_cell_length_b   10.79913996
_cell_length_c   10.53047900
_cell_angle_alpha   108.96803512
_cell_angle_beta   108.96803567
_cell_angle_gamma   109.96968116
_symmetry_Int_Tables_number   1
_chemical_formula_structural   La12Hg(RuBr4)3
_chemical_formula_sum   'La12 Hg1 Ru3 Br12'
_cell_volume   951.18268698
_cell_formula_units_Z   1
loop_
 _symmetry_equiv_pos_site_id
 _symmetry_equiv_pos_as_xyz
  1  'x, y, z'
loop_
 _atom_site_type_symbol
 _atom_site_label
 _atom_site_symmetry_multiplicity
 _atom_site_fract_x
 _atom_site_fract_y
 _atom_site_fract_z
 _atom_site_occupancy
  La  La0  1  0.254177  0.725495  0.225383  1
  La  La1  1  0.471318  0.725495  0.000112  1
  La  La2  1  0.234033  0.468065  0.484033  1
  La  La3  1  0.014873  0.029746  0.264873  1
  La  La4  1  0.234033  0.265967  0.750000  1
  La  La5  1  0.014873  0.485127  0.750000  1
  La  La6  1  0.471318  0.245823  0.471205  1
  La  La7  1  0.254177  0.028682  0.028795  1
  La  La8  1  0.774505  0.245823  0.274617  1
  La  La9  1  0.774505  0.028682  0.499888  1
  La  La10  1  0.470254  0.485127  0.235127  1
  La  La11  1  0.031935  0.265967  0.015967  1
  Hg  Hg12  1  0.500000  0.000000  0.250000  1
  Ru  Ru13  1  0.250219  0.500438  0.000219  1
  Ru  Ru14  1  0.999562  0.249781  0.499781  1
  Ru  Ru15  1  0.250219  0.249781  0.250000  1
  Br  Br16  1  0.247807  0.996111  0.501349  1
  Br  Br17  1  0.513263  0.506631  0.756631  1
  Br  Br18  1  0.247807  0.751696  0.746458  1
  Br  Br19  1  0.996013  0.748007  0.998007  1
  Br  Br20  1  0.993369  0.506631  0.250000  1
  Br  Br21  1  0.748304  0.996111  0.994761  1
  Br  Br22  1  0.751993  0.748007  0.250000  1
  Br  Br23  1  0.503889  0.751696  0.505239  1
  Br  Br24  1  0.503889  0.252193  0.998651  1
  Br  Br25  1  0.751993  0.503987  0.501993  1
  Br  Br26  1  0.748304  0.252193  0.753542  1
  Br  Br27  1  0.993369  0.986737  0.743369  1
