# generated using pymatgen
data_YEr5TaBiO14
_symmetry_space_group_name_H-M   'P 1'
_cell_length_a   6.41959229
_cell_length_b   6.46143410
_cell_length_c   7.61179300
_cell_angle_alpha   106.59030720
_cell_angle_beta   89.82692336
_cell_angle_gamma   98.03252491
_symmetry_Int_Tables_number   1
_chemical_formula_structural   YEr5TaBiO14
_chemical_formula_sum   'Y1 Er5 Ta1 Bi1 O14'
_cell_volume   299.39658062
_cell_formula_units_Z   1
loop_
 _symmetry_equiv_pos_site_id
 _symmetry_equiv_pos_as_xyz
  1  'x, y, z'
loop_
 _atom_site_type_symbol
 _atom_site_label
 _atom_site_symmetry_multiplicity
 _atom_site_fract_x
 _atom_site_fract_y
 _atom_site_fract_z
 _atom_site_occupancy
  Y  Y0  1  0.733359  0.460404  0.114070  1
  Er  Er1  1  0.730846  0.467098  0.604579  1
  Er  Er2  1  0.542197  0.994694  0.754545  1
  Er  Er3  1  0.457064  0.004874  0.245369  1
  Er  Er4  1  0.268772  0.533537  0.397000  1
  Er  Er5  1  0.266989  0.540271  0.885739  1
  Ta  Ta6  1  0.000848  0.000273  0.999715  1
  Bi  Bi7  1  0.000366  0.000858  0.500662  1
  O  O8  1  0.695753  0.073580  0.488191  1
  O  O9  1  0.929364  0.689534  0.983195  1
  O  O10  1  0.708996  0.071880  0.053802  1
  O  O11  1  0.931977  0.643416  0.385041  1
  O  O12  1  0.885306  0.906818  0.735624  1
  O  O13  1  0.556588  0.350799  0.831854  1
  O  O14  1  0.541551  0.359693  0.344459  1
  O  O15  1  0.457092  0.640337  0.657463  1
  O  O16  1  0.438637  0.648869  0.166365  1
  O  O17  1  0.114069  0.093641  0.264372  1
  O  O18  1  0.069165  0.357701  0.617007  1
  O  O19  1  0.291906  0.926263  0.946466  1
  O  O20  1  0.074416  0.308949  0.012740  1
  O  O21  1  0.304743  0.926513  0.511743  1
