# generated using pymatgen
data_Na4Si2S5
_symmetry_space_group_name_H-M   'P 1'
_cell_length_a   6.80279342
_cell_length_b   7.82094008
_cell_length_c   10.08892631
_cell_angle_alpha   73.51164550
_cell_angle_beta   70.44932074
_cell_angle_gamma   81.18453340
_symmetry_Int_Tables_number   1
_chemical_formula_structural   Na4Si2S5
_chemical_formula_sum   'Na8 Si4 S10'
_cell_volume   484.01583486
_cell_formula_units_Z   2
loop_
 _symmetry_equiv_pos_site_id
 _symmetry_equiv_pos_as_xyz
  1  'x, y, z'
loop_
 _atom_site_type_symbol
 _atom_site_label
 _atom_site_symmetry_multiplicity
 _atom_site_fract_x
 _atom_site_fract_y
 _atom_site_fract_z
 _atom_site_occupancy
  Na  Na0  1  0.204747  0.000624  0.593567  1
  Na  Na1  1  0.795253  0.999376  0.406433  1
  Na  Na2  1  0.913790  0.518833  0.684360  1
  Na  Na3  1  0.086210  0.481167  0.315640  1
  Na  Na4  1  0.500000  0.500000  0.500000  1
  Na  Na5  1  0.000000  0.000000  0.000000  1
  Na  Na6  1  0.270395  0.499374  0.897270  1
  Na  Na7  1  0.729605  0.500626  0.102730  1
  Si  Si8  1  0.426275  0.844471  0.227864  1
  Si  Si9  1  0.573725  0.155529  0.772136  1
  Si  Si10  1  0.382523  0.156072  0.165057  1
  Si  Si11  1  0.617477  0.843928  0.834943  1
  S  S12  1  0.076662  0.242825  0.153420  1
  S  S13  1  0.923338  0.757175  0.846580  1
  S  S14  1  0.626185  0.247456  0.949504  1
  S  S15  1  0.373815  0.752544  0.050496  1
  S  S16  1  0.824189  0.248492  0.582065  1
  S  S17  1  0.175811  0.751508  0.417935  1
  S  S18  1  0.539166  0.750763  0.682791  1
  S  S19  1  0.460834  0.249237  0.317209  1
  S  S20  1  0.275135  0.243082  0.747663  1
  S  S21  1  0.724865  0.756918  0.252337  1
