# generated using pymatgen
data_Nd4Dy3TmS12
_symmetry_space_group_name_H-M   'P 1'
_cell_length_a   3.94622300
_cell_length_b   10.48126088
_cell_length_c   10.79198200
_cell_angle_alpha   90.34123168
_cell_angle_beta   90.00000000
_cell_angle_gamma   90.00000000
_symmetry_Int_Tables_number   1
_chemical_formula_structural   Nd4Dy3TmS12
_chemical_formula_sum   'Nd4 Dy3 Tm1 S12'
_cell_volume   446.36348992
_cell_formula_units_Z   1
loop_
 _symmetry_equiv_pos_site_id
 _symmetry_equiv_pos_as_xyz
  1  'x, y, z'
loop_
 _atom_site_type_symbol
 _atom_site_label
 _atom_site_symmetry_multiplicity
 _atom_site_fract_x
 _atom_site_fract_y
 _atom_site_fract_z
 _atom_site_occupancy
  Nd  Nd0  1  0.750000  0.498922  0.694753  1
  Nd  Nd1  1  0.750000  0.001689  0.196142  1
  Nd  Nd2  1  0.250000  0.501176  0.304869  1
  Nd  Nd3  1  0.250000  0.997772  0.804398  1
  Dy  Dy4  1  0.250000  0.312323  0.990648  1
  Dy  Dy5  1  0.750000  0.813157  0.508743  1
  Dy  Dy6  1  0.750000  0.687055  0.009164  1
  Tm  Tm7  1  0.250000  0.187885  0.491791  1
  S  S8  1  0.250000  0.297400  0.729405  1
  S  S9  1  0.250000  0.202859  0.232780  1
  S  S10  1  0.750000  0.703601  0.268427  1
  S  S11  1  0.750000  0.796241  0.768527  1
  S  S12  1  0.750000  0.056048  0.613675  1
  S  S13  1  0.750000  0.445087  0.114163  1
  S  S14  1  0.250000  0.947021  0.386751  1
  S  S15  1  0.250000  0.554124  0.885827  1
  S  S16  1  0.250000  0.631432  0.542996  1
  S  S17  1  0.250000  0.868688  0.043453  1
  S  S18  1  0.750000  0.366836  0.456663  1
  S  S19  1  0.750000  0.130684  0.956826  1
