# generated using pymatgen
data_TbDy7Ti11Si16Mo
_symmetry_space_group_name_H-M   'P 1'
_cell_length_a   7.05472525
_cell_length_b   7.05488229
_cell_length_c   12.96829315
_cell_angle_alpha   90.00861206
_cell_angle_beta   89.98437162
_cell_angle_gamma   89.97341543
_symmetry_Int_Tables_number   1
_chemical_formula_structural   TbDy7Ti11Si16Mo
_chemical_formula_sum   'Tb1 Dy7 Ti11 Si16 Mo1'
_cell_volume   645.43517219
_cell_formula_units_Z   1
loop_
 _symmetry_equiv_pos_site_id
 _symmetry_equiv_pos_as_xyz
  1  'x, y, z'
loop_
 _atom_site_type_symbol
 _atom_site_label
 _atom_site_symmetry_multiplicity
 _atom_site_fract_x
 _atom_site_fract_y
 _atom_site_fract_z
 _atom_site_occupancy
  Tb  Tb0  1  0.996637  0.660107  0.032901  1
  Dy  Dy1  1  0.001250  0.341500  0.532919  1
  Dy  Dy2  1  0.659951  0.996912  0.967007  1
  Dy  Dy3  1  0.160137  0.502779  0.782523  1
  Dy  Dy4  1  0.839992  0.498958  0.284542  1
  Dy  Dy5  1  0.502799  0.160120  0.217424  1
  Dy  Dy6  1  0.499027  0.840034  0.715502  1
  Dy  Dy7  1  0.341484  0.001255  0.467146  1
  Ti  Ti8  1  0.348241  0.508363  0.375227  1
  Ti  Ti9  1  0.846199  0.990610  0.376943  1
  Ti  Ti10  1  0.008001  0.152203  0.123949  1
  Ti  Ti11  1  0.990567  0.846217  0.623069  1
  Ti  Ti12  1  0.508373  0.348210  0.624798  1
  Ti  Ti13  1  0.152164  0.008020  0.876016  1
  Ti  Ti14  1  0.826039  0.172607  0.749576  1
  Ti  Ti15  1  0.172617  0.826110  0.250438  1
  Ti  Ti16  1  0.327150  0.327000  0.999992  1
  Ti  Ti17  1  0.492295  0.651906  0.126670  1
  Ti  Ti18  1  0.651879  0.492210  0.873312  1
  Si  Si19  1  0.046543  0.709515  0.435149  1
  Si  Si20  1  0.952620  0.290922  0.934825  1
  Si  Si21  1  0.709528  0.046532  0.564880  1
  Si  Si22  1  0.208507  0.453541  0.185160  1
  Si  Si23  1  0.791454  0.547363  0.684558  1
  Si  Si24  1  0.453745  0.208402  0.814942  1
  Si  Si25  1  0.547339  0.791462  0.315456  1
  Si  Si26  1  0.291321  0.952872  0.065114  1
  Si  Si27  1  0.797838  0.870274  0.185039  1
  Si  Si28  1  0.298715  0.629400  0.565392  1
  Si  Si29  1  0.702311  0.370011  0.065374  1
  Si  Si30  1  0.629394  0.298732  0.434618  1
  Si  Si31  1  0.370449  0.702484  0.934551  1
  Si  Si32  1  0.129614  0.202056  0.315332  1
  Si  Si33  1  0.202042  0.129592  0.684656  1
  Si  Si34  1  0.870071  0.798020  0.814987  1
  Mo  Mo35  1  0.673702  0.673701  0.500008  1
