# generated using pymatgen
data_Nb6Al2Au2CN
_symmetry_space_group_name_H-M   'P 1'
_cell_length_a   7.14313518
_cell_length_b   7.14213018
_cell_length_c   7.14196700
_cell_angle_alpha   90.00000000
_cell_angle_beta   90.00000000
_cell_angle_gamma   89.84925690
_symmetry_Int_Tables_number   1
_chemical_formula_structural   Nb6Al2Au2CN
_chemical_formula_sum   'Nb12 Al4 Au4 C2 N2'
_cell_volume   364.36190743
_cell_formula_units_Z   2
loop_
 _symmetry_equiv_pos_site_id
 _symmetry_equiv_pos_as_xyz
  1  'x, y, z'
loop_
 _atom_site_type_symbol
 _atom_site_label
 _atom_site_symmetry_multiplicity
 _atom_site_fract_x
 _atom_site_fract_y
 _atom_site_fract_z
 _atom_site_occupancy
  Nb  Nb0  1  0.788856  0.956306  0.376832  1
  Nb  Nb1  1  0.711144  0.043694  0.876832  1
  Nb  Nb2  1  0.213863  0.457158  0.124140  1
  Nb  Nb3  1  0.286137  0.542842  0.624140  1
  Nb  Nb4  1  0.957355  0.376837  0.787772  1
  Nb  Nb5  1  0.043477  0.876081  0.712890  1
  Nb  Nb6  1  0.456523  0.123919  0.212890  1
  Nb  Nb7  1  0.542645  0.623163  0.287772  1
  Nb  Nb8  1  0.375055  0.786998  0.955996  1
  Nb  Nb9  1  0.877568  0.712232  0.043040  1
  Nb  Nb10  1  0.124945  0.213002  0.455996  1
  Nb  Nb11  1  0.622432  0.287768  0.543040  1
  Al  Al12  1  0.572336  0.428969  0.928194  1
  Al  Al13  1  0.429015  0.927704  0.571403  1
  Al  Al14  1  0.927664  0.571031  0.428194  1
  Al  Al15  1  0.070985  0.072296  0.071403  1
  Au  Au16  1  0.177879  0.820784  0.321180  1
  Au  Au17  1  0.322121  0.179216  0.821180  1
  Au  Au18  1  0.820997  0.322345  0.178110  1
  Au  Au19  1  0.679003  0.677655  0.678110  1
  C  C20  1  0.876775  0.125194  0.624056  1
  C  C21  1  0.623225  0.874806  0.124056  1
  N  N22  1  0.124586  0.622622  0.876388  1
  N  N23  1  0.375414  0.377378  0.376388  1
