# generated using pymatgen
data_Ho3FeCo2(NiP)6
_symmetry_space_group_name_H-M   'P 1'
_cell_length_a   3.74667600
_cell_length_b   10.53073200
_cell_length_c   12.17257900
_cell_angle_alpha   90.00000000
_cell_angle_beta   90.00000000
_cell_angle_gamma   90.00000000
_symmetry_Int_Tables_number   1
_chemical_formula_structural   Ho3FeCo2(NiP)6
_chemical_formula_sum   'Ho6 Fe2 Co4 Ni12 P12'
_cell_volume   480.27203617
_cell_formula_units_Z   2
loop_
 _symmetry_equiv_pos_site_id
 _symmetry_equiv_pos_as_xyz
  1  'x, y, z'
loop_
 _atom_site_type_symbol
 _atom_site_label
 _atom_site_symmetry_multiplicity
 _atom_site_fract_x
 _atom_site_fract_y
 _atom_site_fract_z
 _atom_site_occupancy
  Ho  Ho0  1  0.000000  0.500000  0.520021  1
  Ho  Ho1  1  0.500000  0.000000  0.479979  1
  Ho  Ho2  1  0.500000  0.817738  0.205894  1
  Ho  Ho3  1  0.500000  0.182262  0.205894  1
  Ho  Ho4  1  0.000000  0.682262  0.794106  1
  Ho  Ho5  1  0.000000  0.317738  0.794106  1
  Fe  Fe6  1  0.000000  0.500000  0.986794  1
  Fe  Fe7  1  0.500000  0.000000  0.013206  1
  Co  Co8  1  0.500000  0.332995  0.995696  1
  Co  Co9  1  0.500000  0.667005  0.995696  1
  Co  Co10  1  0.000000  0.167005  0.004304  1
  Co  Co11  1  0.000000  0.832995  0.004304  1
  Ni  Ni12  1  0.500000  0.302086  0.428172  1
  Ni  Ni13  1  0.500000  0.697914  0.428172  1
  Ni  Ni14  1  0.000000  0.197914  0.571828  1
  Ni  Ni15  1  0.000000  0.802086  0.571828  1
  Ni  Ni16  1  0.500000  0.879447  0.713765  1
  Ni  Ni17  1  0.500000  0.120553  0.713765  1
  Ni  Ni18  1  0.000000  0.620553  0.286235  1
  Ni  Ni19  1  0.000000  0.379447  0.286235  1
  Ni  Ni20  1  0.500000  0.500000  0.155691  1
  Ni  Ni21  1  0.000000  0.000000  0.844309  1
  Ni  Ni22  1  0.500000  0.500000  0.703955  1
  Ni  Ni23  1  0.000000  0.000000  0.296045  1
  P  P24  1  0.500000  0.313444  0.615989  1
  P  P25  1  0.500000  0.686556  0.615989  1
  P  P26  1  0.000000  0.186556  0.384011  1
  P  P27  1  0.000000  0.813444  0.384011  1
  P  P28  1  0.500000  0.500000  0.885296  1
  P  P29  1  0.000000  0.000000  0.114704  1
  P  P30  1  0.500000  0.844366  0.897734  1
  P  P31  1  0.500000  0.155634  0.897734  1
  P  P32  1  0.000000  0.655634  0.102266  1
  P  P33  1  0.000000  0.344366  0.102266  1
  P  P34  1  0.500000  0.500000  0.342783  1
  P  P35  1  0.000000  0.000000  0.657217  1
