# generated using pymatgen
data_La3LuTe6
_symmetry_space_group_name_H-M   'P 1'
_cell_length_a   4.51130100
_cell_length_b   15.86692800
_cell_length_c   19.08129600
_cell_angle_alpha   90.00000000
_cell_angle_beta   90.00000000
_cell_angle_gamma   90.00000000
_symmetry_Int_Tables_number   1
_chemical_formula_structural   La3LuTe6
_chemical_formula_sum   'La12 Lu4 Te24'
_cell_volume   1365.84848228
_cell_formula_units_Z   4
loop_
 _symmetry_equiv_pos_site_id
 _symmetry_equiv_pos_as_xyz
  1  'x, y, z'
loop_
 _atom_site_type_symbol
 _atom_site_label
 _atom_site_symmetry_multiplicity
 _atom_site_fract_x
 _atom_site_fract_y
 _atom_site_fract_z
 _atom_site_occupancy
  La  La0  1  0.000000  0.251553  0.399531  1
  La  La1  1  0.500000  0.248447  0.899531  1
  La  La2  1  0.000000  0.951252  0.780809  1
  La  La3  1  0.500000  0.319912  0.150521  1
  La  La4  1  0.000000  0.748447  0.600469  1
  La  La5  1  0.500000  0.751553  0.100469  1
  La  La6  1  0.500000  0.451252  0.719191  1
  La  La7  1  0.000000  0.048748  0.219191  1
  La  La8  1  0.000000  0.180088  0.650521  1
  La  La9  1  0.500000  0.548748  0.280809  1
  La  La10  1  0.500000  0.680088  0.849479  1
  La  La11  1  0.000000  0.819912  0.349479  1
  Lu  Lu12  1  0.000000  0.500000  0.000000  1
  Lu  Lu13  1  0.000000  0.500000  0.500000  1
  Lu  Lu14  1  0.500000  0.000000  0.500000  1
  Lu  Lu15  1  0.500000  0.000000  0.000000  1
  Te  Te16  1  0.000000  0.313213  0.789592  1
  Te  Te17  1  0.500000  0.590919  0.579066  1
  Te  Te18  1  0.500000  0.186787  0.289592  1
  Te  Te19  1  0.500000  0.813213  0.710408  1
  Te  Te20  1  0.000000  0.604661  0.744671  1
  Te  Te21  1  0.500000  0.409081  0.420934  1
  Te  Te22  1  0.000000  0.090919  0.920934  1
  Te  Te23  1  0.500000  0.104661  0.755329  1
  Te  Te24  1  0.000000  0.375195  0.611214  1
  Te  Te25  1  0.500000  0.875195  0.888786  1
  Te  Te26  1  0.000000  0.686787  0.210408  1
  Te  Te27  1  0.000000  0.624805  0.388786  1
  Te  Te28  1  0.500000  0.895339  0.244671  1
  Te  Te29  1  0.000000  0.688347  0.977409  1
  Te  Te30  1  0.000000  0.395339  0.255329  1
  Te  Te31  1  0.500000  0.811653  0.477409  1
  Te  Te32  1  0.000000  0.976072  0.605514  1
  Te  Te33  1  0.500000  0.476072  0.894486  1
  Te  Te34  1  0.000000  0.023928  0.394486  1
  Te  Te35  1  0.500000  0.124805  0.111214  1
  Te  Te36  1  0.000000  0.311653  0.022591  1
  Te  Te37  1  0.500000  0.188347  0.522591  1
  Te  Te38  1  0.500000  0.523928  0.105514  1
  Te  Te39  1  0.000000  0.909081  0.079066  1
