# generated using pymatgen
data_Nd8Fe(Si4Pt)3
_symmetry_space_group_name_H-M   'P 1'
_cell_length_a   8.22341500
_cell_length_b   8.22341116
_cell_length_c   8.55708000
_cell_angle_alpha   89.99998478
_cell_angle_beta   89.99998634
_cell_angle_gamma   120.00004143
_symmetry_Int_Tables_number   1
_chemical_formula_structural   Nd8Fe(Si4Pt)3
_chemical_formula_sum   'Nd8 Fe1 Si12 Pt3'
_cell_volume   501.14136955
_cell_formula_units_Z   1
loop_
 _symmetry_equiv_pos_site_id
 _symmetry_equiv_pos_as_xyz
  1  'x, y, z'
loop_
 _atom_site_type_symbol
 _atom_site_label
 _atom_site_symmetry_multiplicity
 _atom_site_fract_x
 _atom_site_fract_y
 _atom_site_fract_z
 _atom_site_occupancy
  Nd  Nd0  1  0.000000  0.000000  0.749991  1
  Nd  Nd1  1  0.000000  0.000000  0.250053  1
  Nd  Nd2  1  0.498122  0.501878  0.753397  1
  Nd  Nd3  1  0.498122  0.996244  0.753397  1
  Nd  Nd4  1  0.003756  0.501878  0.753397  1
  Nd  Nd5  1  0.499010  0.500990  0.246570  1
  Nd  Nd6  1  0.001980  0.500990  0.246570  1
  Nd  Nd7  1  0.499010  0.998020  0.246570  1
  Fe  Fe8  1  0.333333  0.666667  0.001318  1
  Si  Si9  1  0.834985  0.165015  0.999525  1
  Si  Si10  1  0.834985  0.669969  0.999525  1
  Si  Si11  1  0.330031  0.165015  0.999525  1
  Si  Si12  1  0.834111  0.165890  0.500576  1
  Si  Si13  1  0.834110  0.668221  0.500576  1
  Si  Si14  1  0.331779  0.165890  0.500576  1
  Si  Si15  1  0.165327  0.834673  0.499518  1
  Si  Si16  1  0.669346  0.834673  0.499518  1
  Si  Si17  1  0.165327  0.330654  0.499518  1
  Si  Si18  1  0.172212  0.827788  0.000446  1
  Si  Si19  1  0.655575  0.827787  0.000446  1
  Si  Si20  1  0.172213  0.344425  0.000446  1
  Pt  Pt21  1  0.666667  0.333333  0.998877  1
  Pt  Pt22  1  0.666667  0.333333  0.500877  1
  Pt  Pt23  1  0.333333  0.666667  0.498783  1
