# generated using pymatgen
data_MnNb12Cr2Fe9N4
_symmetry_space_group_name_H-M   'P 1'
_cell_length_a   8.04773358
_cell_length_b   8.04773411
_cell_length_c   8.05667791
_cell_angle_alpha   59.60512951
_cell_angle_beta   59.60513098
_cell_angle_gamma   59.50463315
_symmetry_Int_Tables_number   1
_chemical_formula_structural   MnNb12Cr2Fe9N4
_chemical_formula_sum   'Mn1 Nb12 Cr2 Fe9 N4'
_cell_volume   365.37381605
_cell_formula_units_Z   1
loop_
 _symmetry_equiv_pos_site_id
 _symmetry_equiv_pos_as_xyz
  1  'x, y, z'
loop_
 _atom_site_type_symbol
 _atom_site_label
 _atom_site_symmetry_multiplicity
 _atom_site_fract_x
 _atom_site_fract_y
 _atom_site_fract_z
 _atom_site_occupancy
  Mn  Mn0  1  0.625000  0.625000  0.125000  1
  Nb  Nb1  1  0.800203  0.800203  0.199814  1
  Nb  Nb2  1  0.195451  0.195451  0.804384  1
  Nb  Nb3  1  0.801280  0.199618  0.801990  1
  Nb  Nb4  1  0.197780  0.802709  0.195793  1
  Nb  Nb5  1  0.199618  0.801280  0.801990  1
  Nb  Nb6  1  0.802709  0.197780  0.195793  1
  Nb  Nb7  1  0.449797  0.449797  0.050186  1
  Nb  Nb8  1  0.054549  0.054549  0.445616  1
  Nb  Nb9  1  0.448720  0.050382  0.448010  1
  Nb  Nb10  1  0.052220  0.447291  0.054207  1
  Nb  Nb11  1  0.050382  0.448720  0.448010  1
  Nb  Nb12  1  0.447291  0.052220  0.054207  1
  Cr  Cr13  1  0.125000  0.625000  0.625000  1
  Cr  Cr14  1  0.625000  0.125000  0.625000  1
  Fe  Fe15  1  0.625000  0.625000  0.625000  1
  Fe  Fe16  1  0.725030  0.424692  0.425149  1
  Fe  Fe17  1  0.424692  0.725030  0.425149  1
  Fe  Fe18  1  0.424316  0.424316  0.727209  1
  Fe  Fe19  1  0.422893  0.422893  0.423515  1
  Fe  Fe20  1  0.524970  0.825308  0.824851  1
  Fe  Fe21  1  0.825308  0.524970  0.824851  1
  Fe  Fe22  1  0.825684  0.825684  0.522791  1
  Fe  Fe23  1  0.827107  0.827107  0.826485  1
  N  N24  1  0.625000  0.125000  0.125000  1
  N  N25  1  0.125000  0.625000  0.125000  1
  N  N26  1  0.125000  0.125000  0.625000  1
  N  N27  1  0.125000  0.125000  0.125000  1
