# generated using pymatgen
data_Ce4InPt4Au
_symmetry_space_group_name_H-M   'P 1'
_cell_length_a   7.80420100
_cell_length_b   7.80420100
_cell_length_c   3.75087300
_cell_angle_alpha   90.00000000
_cell_angle_beta   90.00000000
_cell_angle_gamma   90.00000000
_symmetry_Int_Tables_number   1
_chemical_formula_structural   Ce4InPt4Au
_chemical_formula_sum   'Ce4 In1 Pt4 Au1'
_cell_volume   228.44899523
_cell_formula_units_Z   1
loop_
 _symmetry_equiv_pos_site_id
 _symmetry_equiv_pos_as_xyz
  1  'x, y, z'
loop_
 _atom_site_type_symbol
 _atom_site_label
 _atom_site_symmetry_multiplicity
 _atom_site_fract_x
 _atom_site_fract_y
 _atom_site_fract_z
 _atom_site_occupancy
  Ce  Ce0  1  0.177714  0.334294  0.500000  1
  Ce  Ce1  1  0.334294  0.822286  0.500000  1
  Ce  Ce2  1  0.822286  0.665706  0.500000  1
  Ce  Ce3  1  0.665706  0.177714  0.500000  1
  In  In4  1  0.000000  0.000000  0.000000  1
  Pt  Pt5  1  0.634712  0.872115  0.000000  1
  Pt  Pt6  1  0.127885  0.634712  0.000000  1
  Pt  Pt7  1  0.872115  0.365288  0.000000  1
  Pt  Pt8  1  0.365288  0.127885  0.000000  1
  Au  Au9  1  0.500000  0.500000  0.000000  1
