# generated using pymatgen
data_ErPu(SnPd)2
_symmetry_space_group_name_H-M   'P 1'
_cell_length_a   4.67812300
_cell_length_b   7.10025800
_cell_length_c   7.99797900
_cell_angle_alpha   90.00000000
_cell_angle_beta   90.00000000
_cell_angle_gamma   90.00000000
_symmetry_Int_Tables_number   1
_chemical_formula_structural   ErPu(SnPd)2
_chemical_formula_sum   'Er2 Pu2 Sn4 Pd4'
_cell_volume   265.65991275
_cell_formula_units_Z   2
loop_
 _symmetry_equiv_pos_site_id
 _symmetry_equiv_pos_as_xyz
  1  'x, y, z'
loop_
 _atom_site_type_symbol
 _atom_site_label
 _atom_site_symmetry_multiplicity
 _atom_site_fract_x
 _atom_site_fract_y
 _atom_site_fract_z
 _atom_site_occupancy
  Er  Er0  1  0.750000  0.489854  0.204772  1
  Er  Er1  1  0.750000  0.989854  0.295228  1
  Pu  Pu2  1  0.250000  0.512755  0.793003  1
  Pu  Pu3  1  0.250000  0.012755  0.706997  1
  Sn  Sn4  1  0.250000  0.693357  0.412814  1
  Sn  Sn5  1  0.250000  0.193357  0.087186  1
  Sn  Sn6  1  0.750000  0.305890  0.586524  1
  Sn  Sn7  1  0.750000  0.805890  0.913476  1
  Pd  Pd8  1  0.250000  0.785630  0.085771  1
  Pd  Pd9  1  0.250000  0.285630  0.414229  1
  Pd  Pd10  1  0.750000  0.212513  0.919825  1
  Pd  Pd11  1  0.750000  0.712513  0.580175  1
