# generated using pymatgen
data_TcNiCl6
_symmetry_space_group_name_H-M   'P 1'
_cell_length_a   6.15579992
_cell_length_b   6.15545881
_cell_length_c   20.07824155
_cell_angle_alpha   90.01989460
_cell_angle_beta   90.00987114
_cell_angle_gamma   119.99673122
_symmetry_Int_Tables_number   1
_chemical_formula_structural   TcNiCl6
_chemical_formula_sum   'Tc3 Ni3 Cl18'
_cell_volume   658.89388235
_cell_formula_units_Z   3
loop_
 _symmetry_equiv_pos_site_id
 _symmetry_equiv_pos_as_xyz
  1  'x, y, z'
loop_
 _atom_site_type_symbol
 _atom_site_label
 _atom_site_symmetry_multiplicity
 _atom_site_fract_x
 _atom_site_fract_y
 _atom_site_fract_z
 _atom_site_occupancy
  Tc  Tc0  1  0.222073  0.444276  0.166663  1
  Tc  Tc1  1  0.555759  0.777904  0.500038  1
  Tc  Tc2  1  0.222105  0.777789  0.833390  1
  Ni  Ni3  1  0.554655  0.111225  0.166357  1
  Ni  Ni4  1  0.890063  0.445213  0.500120  1
  Ni  Ni5  1  0.555117  0.443562  0.833204  1
  Cl  Cl6  1  0.524772  0.751200  0.765792  1
  Cl  Cl7  1  0.893030  0.751213  0.901029  1
  Cl  Cl8  1  0.524869  0.107183  0.900995  1
  Cl  Cl9  1  0.858127  0.751049  0.432396  1
  Cl  Cl10  1  0.226466  0.475074  0.432456  1
  Cl  Cl11  1  0.892807  0.141621  0.098966  1
  Cl  Cl12  1  0.524989  0.773646  0.234175  1
  Cl  Cl13  1  0.892843  0.475170  0.765719  1
  Cl  Cl14  1  0.248780  0.475249  0.900932  1
  Cl  Cl15  1  0.582489  0.475352  0.567673  1
  Cl  Cl16  1  0.858369  0.107252  0.567708  1
  Cl  Cl17  1  0.226661  0.751501  0.567677  1
  Cl  Cl18  1  0.248876  0.141794  0.234269  1
  Cl  Cl19  1  0.582247  0.107011  0.432456  1
  Cl  Cl20  1  0.893030  0.417754  0.234247  1
  Cl  Cl21  1  0.524729  0.417625  0.098986  1
  Cl  Cl22  1  0.248688  0.106960  0.765705  1
  Cl  Cl23  1  0.248457  0.773374  0.099048  1
