# generated using pymatgen
data_Hf3Co2SiN
_symmetry_space_group_name_H-M   'P 1'
_cell_length_a   8.21074410
_cell_length_b   8.21074431
_cell_length_c   8.21074400
_cell_angle_alpha   60.00000123
_cell_angle_beta   60.00000039
_cell_angle_gamma   60.00000575
_symmetry_Int_Tables_number   1
_chemical_formula_structural   Hf3Co2SiN
_chemical_formula_sum   'Hf12 Co8 Si4 N4'
_cell_volume   391.41059974
_cell_formula_units_Z   4
loop_
 _symmetry_equiv_pos_site_id
 _symmetry_equiv_pos_as_xyz
  1  'x, y, z'
loop_
 _atom_site_type_symbol
 _atom_site_label
 _atom_site_symmetry_multiplicity
 _atom_site_fract_x
 _atom_site_fract_y
 _atom_site_fract_z
 _atom_site_occupancy
  Hf  Hf0  1  0.694341  0.305659  0.694341  1
  Hf  Hf1  1  0.555659  0.555659  0.944341  1
  Hf  Hf2  1  0.555659  0.944341  0.555659  1
  Hf  Hf3  1  0.944341  0.944341  0.555659  1
  Hf  Hf4  1  0.944341  0.555659  0.555659  1
  Hf  Hf5  1  0.944341  0.555659  0.944341  1
  Hf  Hf6  1  0.694341  0.305659  0.305659  1
  Hf  Hf7  1  0.305659  0.694341  0.305659  1
  Hf  Hf8  1  0.305659  0.305659  0.694341  1
  Hf  Hf9  1  0.305659  0.694341  0.694341  1
  Hf  Hf10  1  0.694341  0.694341  0.305659  1
  Hf  Hf11  1  0.555659  0.944341  0.944341  1
  Co  Co12  1  0.241921  0.919360  0.919360  1
  Co  Co13  1  0.919360  0.241921  0.919360  1
  Co  Co14  1  0.919360  0.919360  0.919360  1
  Co  Co15  1  0.919360  0.919360  0.241921  1
  Co  Co16  1  0.008079  0.330640  0.330640  1
  Co  Co17  1  0.330640  0.330640  0.008079  1
  Co  Co18  1  0.330640  0.008079  0.330640  1
  Co  Co19  1  0.330640  0.330640  0.330640  1
  Si  Si20  1  0.625000  0.125000  0.125000  1
  Si  Si21  1  0.125000  0.125000  0.625000  1
  Si  Si22  1  0.125000  0.625000  0.125000  1
  Si  Si23  1  0.125000  0.125000  0.125000  1
  N  N24  1  0.625000  0.625000  0.625000  1
  N  N25  1  0.125000  0.625000  0.625000  1
  N  N26  1  0.625000  0.125000  0.625000  1
  N  N27  1  0.625000  0.625000  0.125000  1
