# generated using pymatgen
data_Nd2Si4IrRh5
_symmetry_space_group_name_H-M   'P 1'
_cell_length_a   6.70203297
_cell_length_b   6.69981779
_cell_length_c   6.70203407
_cell_angle_alpha   130.32364923
_cell_angle_beta   114.84003200
_cell_angle_gamma   86.15837248
_symmetry_Int_Tables_number   1
_chemical_formula_structural   Nd2Si4IrRh5
_chemical_formula_sum   'Nd2 Si4 Ir1 Rh5'
_cell_volume   198.87394479
_cell_formula_units_Z   1
loop_
 _symmetry_equiv_pos_site_id
 _symmetry_equiv_pos_as_xyz
  1  'x, y, z'
loop_
 _atom_site_type_symbol
 _atom_site_label
 _atom_site_symmetry_multiplicity
 _atom_site_fract_x
 _atom_site_fract_y
 _atom_site_fract_z
 _atom_site_occupancy
  Nd  Nd0  1  0.749381  0.035844  0.285253  1
  Nd  Nd1  1  0.249409  0.964156  0.713537  1
  Si  Si2  1  0.578893  0.380057  0.802721  1
  Si  Si3  1  0.422664  0.619943  0.198836  1
  Si  Si4  1  0.078616  0.276887  0.198137  1
  Si  Si5  1  0.921250  0.723113  0.801730  1
  Ir  Ir6  1  0.216576  0.500000  0.716576  1
  Rh  Rh7  1  0.716364  0.000000  0.716364  1
  Rh  Rh8  1  0.783859  0.500000  0.283859  1
  Rh  Rh9  1  0.284208  0.000000  0.284208  1
  Rh  Rh10  1  0.499618  0.500223  0.499386  1
  Rh  Rh11  1  0.999162  0.499777  0.999395  1
