# generated using pymatgen
data_TbHo15(In3Co)2
_symmetry_space_group_name_H-M   'P 1'
_cell_length_a   10.34209800
_cell_length_b   10.34259892
_cell_length_c   6.96503600
_cell_angle_alpha   89.99948474
_cell_angle_beta   90.00000000
_cell_angle_gamma   119.99839788
_symmetry_Int_Tables_number   1
_chemical_formula_structural   TbHo15(In3Co)2
_chemical_formula_sum   'Tb1 Ho15 In6 Co2'
_cell_volume   645.20740054
_cell_formula_units_Z   1
loop_
 _symmetry_equiv_pos_site_id
 _symmetry_equiv_pos_as_xyz
  1  'x, y, z'
loop_
 _atom_site_type_symbol
 _atom_site_label
 _atom_site_symmetry_multiplicity
 _atom_site_fract_x
 _atom_site_fract_y
 _atom_site_fract_z
 _atom_site_occupancy
  Tb  Tb0  1  0.534524  0.069048  0.504284  1
  Ho  Ho1  1  0.930770  0.465453  0.504969  1
  Ho  Ho2  1  0.534683  0.465453  0.504969  1
  Ho  Ho3  1  0.465043  0.930087  0.004659  1
  Ho  Ho4  1  0.069517  0.534726  0.004970  1
  Ho  Ho5  1  0.465209  0.534726  0.004970  1
  Ho  Ho6  1  0.178249  0.356496  0.713244  1
  Ho  Ho7  1  0.643803  0.821525  0.713539  1
  Ho  Ho8  1  0.177724  0.821525  0.713539  1
  Ho  Ho9  1  0.821785  0.643570  0.213141  1
  Ho  Ho10  1  0.356060  0.178323  0.212830  1
  Ho  Ho11  1  0.822261  0.178323  0.212830  1
  Ho  Ho12  1  0.666907  0.333812  0.894912  1
  Ho  Ho13  1  0.333119  0.666240  0.394557  1
  Ho  Ho14  1  0.999973  0.999945  0.493886  1
  Ho  Ho15  1  0.000049  0.000097  0.994001  1
  In  In16  1  0.837151  0.674302  0.751353  1
  In  In17  1  0.325288  0.162810  0.751773  1
  In  In18  1  0.837521  0.162810  0.751773  1
  In  In19  1  0.162809  0.325619  0.251476  1
  In  In20  1  0.674359  0.837130  0.251182  1
  In  In21  1  0.162771  0.837130  0.251182  1
  Co  Co22  1  0.667112  0.334223  0.281831  1
  Co  Co23  1  0.333313  0.666627  0.782173  1
