# generated using pymatgen
data_Hf2Nb3Re19Tc5
_symmetry_space_group_name_H-M   'P 1'
_cell_length_a   8.40609336
_cell_length_b   8.40429662
_cell_length_c   8.39406400
_cell_angle_alpha   109.46894861
_cell_angle_beta   109.45337850
_cell_angle_gamma   109.52523539
_symmetry_Int_Tables_number   1
_chemical_formula_structural   Hf2Nb3Re19Tc5
_chemical_formula_sum   'Hf2 Nb3 Re19 Tc5'
_cell_volume   456.31420854
_cell_formula_units_Z   1
loop_
 _symmetry_equiv_pos_site_id
 _symmetry_equiv_pos_as_xyz
  1  'x, y, z'
loop_
 _atom_site_type_symbol
 _atom_site_label
 _atom_site_symmetry_multiplicity
 _atom_site_fract_x
 _atom_site_fract_y
 _atom_site_fract_z
 _atom_site_occupancy
  Hf  Hf0  1  0.001109  0.999786  0.000153  1
  Hf  Hf1  1  0.627087  0.000143  0.000157  1
  Nb  Nb2  1  0.998325  0.627753  0.999142  1
  Nb  Nb3  1  0.999563  0.999871  0.629696  1
  Nb  Nb4  1  0.369831  0.369711  0.370557  1
  Re  Re5  1  0.317424  0.718318  0.317144  1
  Re  Re6  1  0.317673  0.318233  0.718452  1
  Re  Re7  1  0.999588  0.681362  0.399469  1
  Re  Re8  1  0.681376  0.000937  0.399073  1
  Re  Re9  1  0.598909  0.599390  0.281635  1
  Re  Re10  1  0.283159  0.601777  0.600802  1
  Re  Re11  1  0.600915  0.282570  0.600422  1
  Re  Re12  1  0.377085  0.195235  0.999966  1
  Re  Re13  1  0.181316  0.805669  0.805059  1
  Re  Re14  1  0.375602  0.999974  0.194831  1
  Re  Re15  1  0.196238  0.376519  0.999698  1
  Re  Re16  1  0.001171  0.376380  0.194762  1
  Re  Re17  1  0.807287  0.182593  0.806015  1
  Re  Re18  1  0.806961  0.806162  0.183372  1
  Re  Re19  1  0.000896  0.194272  0.378406  1
  Re  Re20  1  0.195326  0.999932  0.377060  1
  Re  Re21  1  0.623976  0.623015  0.817140  1
  Re  Re22  1  0.818529  0.623055  0.622642  1
  Re  Re23  1  0.623955  0.817018  0.622834  1
  Tc  Tc24  1  0.396765  0.677578  0.999120  1
  Tc  Tc25  1  0.719696  0.322365  0.321783  1
  Tc  Tc26  1  0.397859  0.000724  0.677836  1
  Tc  Tc27  1  0.682312  0.398620  0.999761  1
  Tc  Tc28  1  0.000071  0.401036  0.683012  1
