# generated using pymatgen
data_DyY5Tm14(Cd3Ru)2
_symmetry_space_group_name_H-M   'P 1'
_cell_length_a   9.53213826
_cell_length_b   9.53213760
_cell_length_c   9.73326500
_cell_angle_alpha   90.00000000
_cell_angle_beta   90.00000000
_cell_angle_gamma   120.20506575
_symmetry_Int_Tables_number   1
_chemical_formula_structural   DyY5Tm14(Cd3Ru)2
_chemical_formula_sum   'Dy1 Y5 Tm14 Cd6 Ru2'
_cell_volume   764.30849189
_cell_formula_units_Z   1
loop_
 _symmetry_equiv_pos_site_id
 _symmetry_equiv_pos_as_xyz
  1  'x, y, z'
loop_
 _atom_site_type_symbol
 _atom_site_label
 _atom_site_symmetry_multiplicity
 _atom_site_fract_x
 _atom_site_fract_y
 _atom_site_fract_z
 _atom_site_occupancy
  Dy  Dy0  1  0.539737  0.460263  0.250000  1
  Y  Y1  1  0.540105  0.080450  0.250000  1
  Y  Y2  1  0.919550  0.459895  0.250000  1
  Y  Y3  1  0.460088  0.539912  0.750000  1
  Y  Y4  1  0.460026  0.919924  0.750000  1
  Y  Y5  1  0.080076  0.539974  0.750000  1
  Tm  Tm6  1  0.000019  0.999981  0.500070  1
  Tm  Tm7  1  0.000019  0.999981  0.999930  1
  Tm  Tm8  1  0.209869  0.790131  0.440080  1
  Tm  Tm9  1  0.210338  0.419909  0.439997  1
  Tm  Tm10  1  0.580091  0.789662  0.439997  1
  Tm  Tm11  1  0.790178  0.209822  0.560147  1
  Tm  Tm12  1  0.789763  0.579975  0.559775  1
  Tm  Tm13  1  0.420025  0.210237  0.559775  1
  Tm  Tm14  1  0.790178  0.209822  0.939853  1
  Tm  Tm15  1  0.789763  0.579975  0.940225  1
  Tm  Tm16  1  0.420025  0.210237  0.940225  1
  Tm  Tm17  1  0.209869  0.790131  0.059920  1
  Tm  Tm18  1  0.210338  0.419909  0.060003  1
  Tm  Tm19  1  0.580091  0.789662  0.060003  1
  Cd  Cd20  1  0.886128  0.113872  0.250000  1
  Cd  Cd21  1  0.886078  0.772164  0.250000  1
  Cd  Cd22  1  0.227836  0.113922  0.250000  1
  Cd  Cd23  1  0.113911  0.886089  0.750000  1
  Cd  Cd24  1  0.113543  0.227693  0.750000  1
  Cd  Cd25  1  0.772307  0.886457  0.750000  1
  Ru  Ru26  1  0.333662  0.666338  0.250000  1
  Ru  Ru27  1  0.666391  0.333609  0.750000  1
