# generated using pymatgen
data_Ca5Ni16(MoAs4)3
_symmetry_space_group_name_H-M   'P 1'
_cell_length_a   12.67685400
_cell_length_b   12.67685398
_cell_length_c   3.88866400
_cell_angle_alpha   90.00000000
_cell_angle_beta   90.00000000
_cell_angle_gamma   120.00000528
_symmetry_Int_Tables_number   1
_chemical_formula_structural   Ca5Ni16(MoAs4)3
_chemical_formula_sum   'Ca5 Ni16 Mo3 As12'
_cell_volume   541.19528525
_cell_formula_units_Z   1
loop_
 _symmetry_equiv_pos_site_id
 _symmetry_equiv_pos_as_xyz
  1  'x, y, z'
loop_
 _atom_site_type_symbol
 _atom_site_label
 _atom_site_symmetry_multiplicity
 _atom_site_fract_x
 _atom_site_fract_y
 _atom_site_fract_z
 _atom_site_occupancy
  Ca  Ca0  1  0.186053  0.186053  0.500000  1
  Ca  Ca1  1  0.813947  0.000000  0.500000  1
  Ca  Ca2  1  0.000000  0.813947  0.500000  1
  Ca  Ca3  1  0.333333  0.666667  0.000000  1
  Ca  Ca4  1  0.666667  0.333333  0.000000  1
  Ni  Ni5  1  0.718178  0.718178  0.500000  1
  Ni  Ni6  1  0.281822  0.000000  0.500000  1
  Ni  Ni7  1  0.000000  0.281822  0.500000  1
  Ni  Ni8  1  0.182527  0.377419  0.000000  1
  Ni  Ni9  1  0.622581  0.805109  0.000000  1
  Ni  Ni10  1  0.194891  0.817473  0.000000  1
  Ni  Ni11  1  0.805109  0.622581  0.000000  1
  Ni  Ni12  1  0.817473  0.194891  0.000000  1
  Ni  Ni13  1  0.377419  0.182527  0.000000  1
  Ni  Ni14  1  0.360308  0.482571  0.500000  1
  Ni  Ni15  1  0.517429  0.877737  0.500000  1
  Ni  Ni16  1  0.122263  0.639692  0.500000  1
  Ni  Ni17  1  0.877737  0.517429  0.500000  1
  Ni  Ni18  1  0.639692  0.122263  0.500000  1
  Ni  Ni19  1  0.482571  0.360308  0.500000  1
  Ni  Ni20  1  0.000000  0.000000  0.000000  1
  Mo  Mo21  1  0.562400  0.562400  0.000000  1
  Mo  Mo22  1  0.437600  0.000000  0.000000  1
  Mo  Mo23  1  0.000000  0.437600  0.000000  1
  As  As24  1  0.820788  0.820788  0.000000  1
  As  As25  1  0.179212  0.000000  0.000000  1
  As  As26  1  0.000000  0.179212  0.000000  1
  As  As27  1  0.167033  0.480343  0.500000  1
  As  As28  1  0.519657  0.686689  0.500000  1
  As  As29  1  0.313311  0.832967  0.500000  1
  As  As30  1  0.686689  0.519657  0.500000  1
  As  As31  1  0.832967  0.313311  0.500000  1
  As  As32  1  0.480343  0.167033  0.500000  1
  As  As33  1  0.364757  0.364757  0.000000  1
  As  As34  1  0.635243  0.000000  0.000000  1
  As  As35  1  0.000000  0.635243  0.000000  1
