# generated using pymatgen
data_LaGdDy2(TeO6)2
_symmetry_space_group_name_H-M   'P 1'
_cell_length_a   5.41383300
_cell_length_b   9.27936255
_cell_length_c   10.16997772
_cell_angle_alpha   90.49975622
_cell_angle_beta   90.00000000
_cell_angle_gamma   90.00000000
_symmetry_Int_Tables_number   1
_chemical_formula_structural   LaGdDy2(TeO6)2
_chemical_formula_sum   'La2 Gd2 Dy4 Te4 O24'
_cell_volume   510.88891395
_cell_formula_units_Z   2
loop_
 _symmetry_equiv_pos_site_id
 _symmetry_equiv_pos_as_xyz
  1  'x, y, z'
loop_
 _atom_site_type_symbol
 _atom_site_label
 _atom_site_symmetry_multiplicity
 _atom_site_fract_x
 _atom_site_fract_y
 _atom_site_fract_z
 _atom_site_occupancy
  La  La0  1  0.471281  0.719466  0.143952  1
  La  La1  1  0.971281  0.780534  0.856048  1
  Gd  Gd2  1  0.536248  0.219125  0.361749  1
  Gd  Gd3  1  0.036248  0.280875  0.638251  1
  Dy  Dy4  1  0.521653  0.103939  0.956064  1
  Dy  Dy5  1  0.021653  0.396061  0.043936  1
  Dy  Dy6  1  0.479659  0.601960  0.543235  1
  Dy  Dy7  1  0.979659  0.898040  0.456765  1
  Te  Te8  1  0.465091  0.995378  0.640231  1
  Te  Te9  1  0.965091  0.504622  0.359769  1
  Te  Te10  1  0.535158  0.486889  0.855114  1
  Te  Te11  1  0.035158  0.013111  0.144886  1
  O  O12  1  0.310102  0.146491  0.176235  1
  O  O13  1  0.810102  0.353509  0.823765  1
  O  O14  1  0.690577  0.639282  0.335050  1
  O  O15  1  0.190577  0.860718  0.664950  1
  O  O16  1  0.731989  0.112369  0.562813  1
  O  O17  1  0.231989  0.387631  0.437187  1
  O  O18  1  0.273091  0.605389  0.936771  1
  O  O19  1  0.773091  0.894611  0.063229  1
  O  O20  1  0.670235  0.633707  0.741746  1
  O  O21  1  0.170235  0.866293  0.258254  1
  O  O22  1  0.315947  0.137866  0.755710  1
  O  O23  1  0.815947  0.362134  0.244290  1
  O  O24  1  0.662528  0.952362  0.792672  1
  O  O25  1  0.162528  0.547638  0.207328  1
  O  O26  1  0.327034  0.447060  0.704544  1
  O  O27  1  0.827034  0.052940  0.295456  1
  O  O28  1  0.260046  0.081585  0.499895  1
  O  O29  1  0.760046  0.418415  0.500105  1
  O  O30  1  0.745844  0.573150  0.994458  1
  O  O31  1  0.245844  0.926850  0.005542  1
  O  O32  1  0.101218  0.658714  0.469221  1
  O  O33  1  0.601218  0.841286  0.530779  1
  O  O34  1  0.902299  0.161893  0.031479  1
  O  O35  1  0.402299  0.338107  0.968521  1
