# generated using pymatgen
data_Dy4Al18Ir4PtAu
_symmetry_space_group_name_H-M   'P 1'
_cell_length_a   7.60076602
_cell_length_b   7.60076942
_cell_length_c   9.46357022
_cell_angle_alpha   89.99019249
_cell_angle_beta   89.99014856
_cell_angle_gamma   119.60676053
_symmetry_Int_Tables_number   1
_chemical_formula_structural   Dy4Al18Ir4PtAu
_chemical_formula_sum   'Dy4 Al18 Ir4 Pt1 Au1'
_cell_volume   475.34381102
_cell_formula_units_Z   1
loop_
 _symmetry_equiv_pos_site_id
 _symmetry_equiv_pos_as_xyz
  1  'x, y, z'
loop_
 _atom_site_type_symbol
 _atom_site_label
 _atom_site_symmetry_multiplicity
 _atom_site_fract_x
 _atom_site_fract_y
 _atom_site_fract_z
 _atom_site_occupancy
  Dy  Dy0  1  0.994992  0.672848  0.751455  1
  Dy  Dy1  1  0.003919  0.326518  0.248561  1
  Dy  Dy2  1  0.673482  0.996082  0.751439  1
  Dy  Dy3  1  0.327152  0.005007  0.248545  1
  Al  Al4  1  0.135036  0.134369  0.756700  1
  Al  Al5  1  0.865631  0.864964  0.243300  1
  Al  Al6  1  0.004789  0.344207  0.579790  1
  Al  Al7  1  0.001531  0.659229  0.420159  1
  Al  Al8  1  0.000793  0.664388  0.072673  1
  Al  Al9  1  0.335612  0.999207  0.927327  1
  Al  Al10  1  0.999600  0.335337  0.926915  1
  Al  Al11  1  0.664663  0.000400  0.073085  1
  Al  Al12  1  0.655793  0.995212  0.420210  1
  Al  Al13  1  0.340771  0.998468  0.579841  1
  Al  Al14  1  0.332665  0.332697  0.051603  1
  Al  Al15  1  0.667303  0.667335  0.948397  1
  Al  Al16  1  0.657944  0.661013  0.560535  1
  Al  Al17  1  0.338986  0.342057  0.439465  1
  Al  Al18  1  0.339485  0.550647  0.751848  1
  Al  Al19  1  0.660943  0.451493  0.246292  1
  Al  Al20  1  0.548507  0.339057  0.753708  1
  Al  Al21  1  0.449353  0.660515  0.248152  1
  Ir  Ir22  1  0.328191  0.671809  0.500000  1
  Ir  Ir23  1  0.328379  0.671620  0.000000  1
  Ir  Ir24  1  0.672154  0.327847  0.000000  1
  Ir  Ir25  1  0.000170  0.999830  0.000000  1
  Pt  Pt26  1  0.672313  0.327687  0.500000  1
  Au  Au27  1  0.999845  0.000155  0.500000  1
