# generated using pymatgen
data_Ti3Ga3RuPt2
_symmetry_space_group_name_H-M   'P 1'
_cell_length_a   7.20501800
_cell_length_b   7.20501906
_cell_length_c   6.31121600
_cell_angle_alpha   90.00000000
_cell_angle_beta   90.00000000
_cell_angle_gamma   119.99998473
_symmetry_Int_Tables_number   1
_chemical_formula_structural   Ti3Ga3RuPt2
_chemical_formula_sum   'Ti6 Ga6 Ru2 Pt4'
_cell_volume   283.73567644
_cell_formula_units_Z   2
loop_
 _symmetry_equiv_pos_site_id
 _symmetry_equiv_pos_as_xyz
  1  'x, y, z'
loop_
 _atom_site_type_symbol
 _atom_site_label
 _atom_site_symmetry_multiplicity
 _atom_site_fract_x
 _atom_site_fract_y
 _atom_site_fract_z
 _atom_site_occupancy
  Ti  Ti0  1  0.394284  0.379331  0.750000  1
  Ti  Ti1  1  0.985047  0.605716  0.750000  1
  Ti  Ti2  1  0.620669  0.014953  0.750000  1
  Ti  Ti3  1  0.622175  0.016543  0.250000  1
  Ti  Ti4  1  0.983457  0.605632  0.250000  1
  Ti  Ti5  1  0.394368  0.377825  0.250000  1
  Ga  Ga6  1  0.281911  0.996636  0.999780  1
  Ga  Ga7  1  0.714725  0.718089  0.999780  1
  Ga  Ga8  1  0.003364  0.285275  0.999780  1
  Ga  Ga9  1  0.714725  0.718089  0.500220  1
  Ga  Ga10  1  0.281911  0.996636  0.500220  1
  Ga  Ga11  1  0.003364  0.285275  0.500220  1
  Ru  Ru12  1  0.666667  0.333333  0.999435  1
  Ru  Ru13  1  0.666667  0.333333  0.500565  1
  Pt  Pt14  1  0.000000  0.000000  0.750000  1
  Pt  Pt15  1  0.333333  0.666667  0.498824  1
  Pt  Pt16  1  0.333333  0.666667  0.001176  1
  Pt  Pt17  1  0.000000  0.000000  0.250000  1
