# generated using pymatgen
data_Ba20Tl3Si8Br
_symmetry_space_group_name_H-M   'P 1'
_cell_length_a   8.60131900
_cell_length_b   8.60131900
_cell_length_c   17.53492200
_cell_angle_alpha   90.00000000
_cell_angle_beta   90.00000000
_cell_angle_gamma   90.00000000
_symmetry_Int_Tables_number   1
_chemical_formula_structural   Ba20Tl3Si8Br
_chemical_formula_sum   'Ba20 Tl3 Si8 Br1'
_cell_volume   1297.28067290
_cell_formula_units_Z   1
loop_
 _symmetry_equiv_pos_site_id
 _symmetry_equiv_pos_as_xyz
  1  'x, y, z'
loop_
 _atom_site_type_symbol
 _atom_site_label
 _atom_site_symmetry_multiplicity
 _atom_site_fract_x
 _atom_site_fract_y
 _atom_site_fract_z
 _atom_site_occupancy
  Ba  Ba0  1  0.324764  0.669849  0.110175  1
  Ba  Ba1  1  0.169849  0.175236  0.110175  1
  Ba  Ba2  1  0.500000  0.000000  0.744124  1
  Ba  Ba3  1  0.332409  0.684795  0.384237  1
  Ba  Ba4  1  0.666941  0.682424  0.891872  1
  Ba  Ba5  1  0.184795  0.167591  0.384237  1
  Ba  Ba6  1  0.667591  0.315205  0.384237  1
  Ba  Ba7  1  0.169303  0.817913  0.619589  1
  Ba  Ba8  1  0.333059  0.317576  0.891872  1
  Ba  Ba9  1  0.182424  0.833059  0.891872  1
  Ba  Ba10  1  0.500000  0.000000  0.233935  1
  Ba  Ba11  1  0.830697  0.182087  0.619589  1
  Ba  Ba12  1  0.317913  0.330697  0.619589  1
  Ba  Ba13  1  0.815205  0.832409  0.384237  1
  Ba  Ba14  1  0.817576  0.166941  0.891872  1
  Ba  Ba15  1  0.830151  0.824764  0.110175  1
  Ba  Ba16  1  0.000000  0.500000  0.244358  1
  Ba  Ba17  1  0.000000  0.500000  0.775491  1
  Ba  Ba18  1  0.675236  0.330151  0.110175  1
  Ba  Ba19  1  0.682087  0.669303  0.619589  1
  Tl  Tl20  1  0.000000  0.500000  0.998035  1
  Tl  Tl21  1  0.500000  0.000000  0.008691  1
  Tl  Tl22  1  0.500000  0.000000  0.512882  1
  Si  Si23  1  0.101609  0.100207  0.753176  1
  Si  Si24  1  0.399793  0.601609  0.753176  1
  Si  Si25  1  0.601532  0.600988  0.250802  1
  Si  Si26  1  0.100988  0.898468  0.250802  1
  Si  Si27  1  0.600207  0.398391  0.753176  1
  Si  Si28  1  0.898391  0.899793  0.753176  1
  Si  Si29  1  0.398468  0.399012  0.250802  1
  Si  Si30  1  0.899012  0.101532  0.250802  1
  Br  Br31  1  0.000000  0.500000  0.443083  1
