# generated using pymatgen
data_Ho6Sc2HgAu9
_symmetry_space_group_name_H-M   'P 1'
_cell_length_a   7.94275407
_cell_length_b   7.94275372
_cell_length_c   7.94275183
_cell_angle_alpha   65.90533135
_cell_angle_beta   65.90533097
_cell_angle_gamma   65.90532220
_symmetry_Int_Tables_number   1
_chemical_formula_structural   Ho6Sc2HgAu9
_chemical_formula_sum   'Ho6 Sc2 Hg1 Au9'
_cell_volume   399.64222257
_cell_formula_units_Z   1
loop_
 _symmetry_equiv_pos_site_id
 _symmetry_equiv_pos_as_xyz
  1  'x, y, z'
loop_
 _atom_site_type_symbol
 _atom_site_label
 _atom_site_symmetry_multiplicity
 _atom_site_fract_x
 _atom_site_fract_y
 _atom_site_fract_z
 _atom_site_occupancy
  Ho  Ho0  1  0.894657  0.187139  0.618721  1
  Ho  Ho1  1  0.618721  0.894657  0.187139  1
  Ho  Ho2  1  0.187139  0.618721  0.894657  1
  Ho  Ho3  1  0.105343  0.812861  0.381279  1
  Ho  Ho4  1  0.381279  0.105343  0.812861  1
  Ho  Ho5  1  0.812861  0.381279  0.105343  1
  Sc  Sc6  1  0.661356  0.661356  0.661356  1
  Sc  Sc7  1  0.338644  0.338644  0.338644  1
  Hg  Hg8  1  0.500000  0.500000  0.500000  1
  Au  Au9  1  0.000000  0.000000  0.000000  1
  Au  Au10  1  0.807408  0.807408  0.807408  1
  Au  Au11  1  0.192592  0.192592  0.192592  1
  Au  Au12  1  0.937011  0.550702  0.318725  1
  Au  Au13  1  0.318725  0.937011  0.550702  1
  Au  Au14  1  0.550702  0.318725  0.937011  1
  Au  Au15  1  0.062989  0.449298  0.681275  1
  Au  Au16  1  0.681275  0.062989  0.449298  1
  Au  Au17  1  0.449298  0.681275  0.062989  1
