# generated using pymatgen
data_Y2Ga9NiRu2
_symmetry_space_group_name_H-M   'P 1'
_cell_length_a   7.50966053
_cell_length_b   7.50966515
_cell_length_c   9.61989700
_cell_angle_alpha   90.00000000
_cell_angle_beta   90.00000000
_cell_angle_gamma   120.22667507
_symmetry_Int_Tables_number   1
_chemical_formula_structural   Y2Ga9NiRu2
_chemical_formula_sum   'Y4 Ga18 Ni2 Ru4'
_cell_volume   468.75445574
_cell_formula_units_Z   2
loop_
 _symmetry_equiv_pos_site_id
 _symmetry_equiv_pos_as_xyz
  1  'x, y, z'
loop_
 _atom_site_type_symbol
 _atom_site_label
 _atom_site_symmetry_multiplicity
 _atom_site_fract_x
 _atom_site_fract_y
 _atom_site_fract_z
 _atom_site_occupancy
  Y  Y0  1  0.997064  0.664212  0.250000  1
  Y  Y1  1  0.002936  0.335788  0.750000  1
  Y  Y2  1  0.664212  0.997064  0.250000  1
  Y  Y3  1  0.335788  0.002936  0.750000  1
  Ga  Ga4  1  0.120262  0.120262  0.250000  1
  Ga  Ga5  1  0.879738  0.879738  0.750000  1
  Ga  Ga6  1  0.002635  0.329344  0.075098  1
  Ga  Ga7  1  0.997365  0.670656  0.924902  1
  Ga  Ga8  1  0.997365  0.670656  0.575098  1
  Ga  Ga9  1  0.329344  0.002635  0.424902  1
  Ga  Ga10  1  0.002635  0.329344  0.424902  1
  Ga  Ga11  1  0.670656  0.997365  0.575098  1
  Ga  Ga12  1  0.670656  0.997365  0.924902  1
  Ga  Ga13  1  0.329344  0.002635  0.075098  1
  Ga  Ga14  1  0.334529  0.334528  0.561046  1
  Ga  Ga15  1  0.665471  0.665472  0.438954  1
  Ga  Ga16  1  0.665471  0.665472  0.061046  1
  Ga  Ga17  1  0.334529  0.334528  0.938954  1
  Ga  Ga18  1  0.335787  0.545699  0.250000  1
  Ga  Ga19  1  0.664213  0.454301  0.750000  1
  Ga  Ga20  1  0.545700  0.335788  0.250000  1
  Ga  Ga21  1  0.454300  0.664212  0.750000  1
  Ni  Ni22  1  0.000000  0.000000  0.000000  1
  Ni  Ni23  1  0.000000  0.000000  0.500000  1
  Ru  Ru24  1  0.673626  0.326375  0.000000  1
  Ru  Ru25  1  0.326374  0.673625  0.000000  1
  Ru  Ru26  1  0.326374  0.673625  0.500000  1
  Ru  Ru27  1  0.673626  0.326375  0.500000  1
