# generated using pymatgen
data_CaEr6Tm(B6Ru)4
_symmetry_space_group_name_H-M   'P 1'
_cell_length_a   3.63467100
_cell_length_b   9.10246089
_cell_length_c   11.48804605
_cell_angle_alpha   89.90217551
_cell_angle_beta   90.00000000
_cell_angle_gamma   90.00000000
_symmetry_Int_Tables_number   1
_chemical_formula_structural   CaEr6Tm(B6Ru)4
_chemical_formula_sum   'Ca1 Er6 Tm1 B24 Ru4'
_cell_volume   380.07513811
_cell_formula_units_Z   1
loop_
 _symmetry_equiv_pos_site_id
 _symmetry_equiv_pos_as_xyz
  1  'x, y, z'
loop_
 _atom_site_type_symbol
 _atom_site_label
 _atom_site_symmetry_multiplicity
 _atom_site_fract_x
 _atom_site_fract_y
 _atom_site_fract_z
 _atom_site_occupancy
  Ca  Ca0  1  0.000000  0.322315  0.414064  1
  Er  Er1  1  0.000000  0.676329  0.585076  1
  Er  Er2  1  0.000000  0.822144  0.085976  1
  Er  Er3  1  0.000000  0.178366  0.914633  1
  Er  Er4  1  0.000000  0.943714  0.371020  1
  Er  Er5  1  0.000000  0.057950  0.628452  1
  Er  Er6  1  0.000000  0.442920  0.129200  1
  Tm  Tm7  1  0.000000  0.556402  0.872304  1
  B  B8  1  0.500000  0.554769  0.432932  1
  B  B9  1  0.500000  0.446642  0.568033  1
  B  B10  1  0.500000  0.052974  0.065863  1
  B  B11  1  0.500000  0.945752  0.932806  1
  B  B12  1  0.500000  0.748770  0.419303  1
  B  B13  1  0.500000  0.252068  0.581919  1
  B  B14  1  0.500000  0.247911  0.079881  1
  B  B15  1  0.500000  0.751117  0.919742  1
  B  B16  1  0.500000  0.791759  0.265417  1
  B  B17  1  0.500000  0.209559  0.735102  1
  B  B18  1  0.500000  0.289720  0.233083  1
  B  B19  1  0.500000  0.708793  0.766117  1
  B  B20  1  0.500000  0.631860  0.185127  1
  B  B21  1  0.500000  0.369254  0.816000  1
  B  B22  1  0.500000  0.130287  0.313601  1
  B  B23  1  0.500000  0.868620  0.685012  1
  B  B24  1  0.500000  0.982480  0.211411  1
  B  B25  1  0.500000  0.016930  0.787542  1
  B  B26  1  0.500000  0.483909  0.287321  1
  B  B27  1  0.500000  0.517544  0.713295  1
  B  B28  1  0.500000  0.606875  0.029379  1
  B  B29  1  0.500000  0.393722  0.970722  1
  B  B30  1  0.500000  0.102962  0.471499  1
  B  B31  1  0.500000  0.895060  0.529027  1
  Ru  Ru32  1  0.000000  0.640100  0.319943  1
  Ru  Ru33  1  0.000000  0.362600  0.681441  1
  Ru  Ru34  1  0.000000  0.136009  0.176622  1
  Ru  Ru35  1  0.000000  0.861813  0.821135  1
