# generated using pymatgen
data_Ho3TmCr6O24
_symmetry_space_group_name_H-M   'P 1'
_cell_length_a   9.97435095
_cell_length_b   9.97417211
_cell_length_c   9.97435814
_cell_angle_alpha   58.19261270
_cell_angle_beta   58.19147878
_cell_angle_gamma   58.19352180
_symmetry_Int_Tables_number   1
_chemical_formula_structural   Ho3TmCr6O24
_chemical_formula_sum   'Ho3 Tm1 Cr6 O24'
_cell_volume   672.60614615
_cell_formula_units_Z   1
loop_
 _symmetry_equiv_pos_site_id
 _symmetry_equiv_pos_as_xyz
  1  'x, y, z'
loop_
 _atom_site_type_symbol
 _atom_site_label
 _atom_site_symmetry_multiplicity
 _atom_site_fract_x
 _atom_site_fract_y
 _atom_site_fract_z
 _atom_site_occupancy
  Ho  Ho0  1  0.357497  0.357451  0.357449  1
  Ho  Ho1  1  0.142590  0.142549  0.142552  1
  Ho  Ho2  1  0.857493  0.857536  0.857527  1
  Tm  Tm3  1  0.642657  0.642679  0.642718  1
  Cr  Cr4  1  0.749823  0.034665  0.464615  1
  Cr  Cr5  1  0.963165  0.536060  0.251245  1
  Cr  Cr6  1  0.536038  0.251251  0.963167  1
  Cr  Cr7  1  0.464609  0.749821  0.034674  1
  Cr  Cr8  1  0.034677  0.464615  0.749808  1
  Cr  Cr9  1  0.251244  0.963160  0.536056  1
  O  O10  1  0.917743  0.063027  0.294284  1
  O  O11  1  0.777647  0.003690  0.630221  1
  O  O12  1  0.995216  0.369968  0.223245  1
  O  O13  1  0.705993  0.082973  0.935432  1
  O  O14  1  0.582217  0.205310  0.436262  1
  O  O15  1  0.868196  0.497731  0.721479  1
  O  O16  1  0.504039  0.277929  0.129897  1
  O  O17  1  0.793269  0.564745  0.419675  1
  O  O18  1  0.935456  0.705998  0.082972  1
  O  O19  1  0.564758  0.419673  0.793260  1
  O  O20  1  0.369946  0.223239  0.995220  1
  O  O21  1  0.277939  0.129882  0.504052  1
  O  O22  1  0.721500  0.868179  0.497730  1
  O  O23  1  0.630218  0.777652  0.003691  1
  O  O24  1  0.436239  0.582204  0.205325  1
  O  O25  1  0.063027  0.294298  0.917738  1
  O  O26  1  0.205313  0.436271  0.582202  1
  O  O27  1  0.497745  0.721483  0.868190  1
  O  O28  1  0.129883  0.504057  0.277928  1
  O  O29  1  0.419675  0.793266  0.564760  1
  O  O30  1  0.294274  0.917754  0.063037  1
  O  O31  1  0.003704  0.630223  0.777631  1
  O  O32  1  0.223241  0.995226  0.369951  1
  O  O33  1  0.082969  0.935434  0.706009  1
