# generated using pymatgen
data_Tb2Pr3Bi3O14
_symmetry_space_group_name_H-M   'P 1'
_cell_length_a   6.71449263
_cell_length_b   6.78567252
_cell_length_c   7.89594681
_cell_angle_alpha   106.73648689
_cell_angle_beta   89.75933669
_cell_angle_gamma   98.55156759
_symmetry_Int_Tables_number   1
_chemical_formula_structural   Tb2Pr3Bi3O14
_chemical_formula_sum   'Tb2 Pr3 Bi3 O14'
_cell_volume   340.40464158
_cell_formula_units_Z   1
loop_
 _symmetry_equiv_pos_site_id
 _symmetry_equiv_pos_as_xyz
  1  'x, y, z'
loop_
 _atom_site_type_symbol
 _atom_site_label
 _atom_site_symmetry_multiplicity
 _atom_site_fract_x
 _atom_site_fract_y
 _atom_site_fract_z
 _atom_site_occupancy
  Tb  Tb0  1  0.458406  0.008931  0.255620  1
  Tb  Tb1  1  0.537080  0.000362  0.748248  1
  Pr  Pr2  1  0.268915  0.536654  0.882827  1
  Pr  Pr3  1  0.741594  0.458100  0.114965  1
  Pr  Pr4  1  0.750840  0.481414  0.617859  1
  Bi  Bi5  1  0.994424  0.998176  0.499790  1
  Bi  Bi6  1  0.998744  0.996371  0.997667  1
  Bi  Bi7  1  0.286869  0.540715  0.389256  1
  O  O8  1  0.448025  0.659436  0.176265  1
  O  O9  1  0.556315  0.347963  0.833216  1
  O  O10  1  0.301433  0.932003  0.951942  1
  O  O11  1  0.697849  0.064552  0.050012  1
  O  O12  1  0.296632  0.935284  0.517153  1
  O  O13  1  0.699168  0.075901  0.486957  1
  O  O14  1  0.539063  0.357040  0.342539  1
  O  O15  1  0.459716  0.648655  0.652598  1
  O  O16  1  0.926400  0.665837  0.941494  1
  O  O17  1  0.069446  0.320687  0.036304  1
  O  O18  1  0.070426  0.328957  0.621607  1
  O  O19  1  0.910901  0.668359  0.389839  1
  O  O20  1  0.873149  0.918547  0.729798  1
  O  O21  1  0.114604  0.056056  0.264044  1
