# generated using pymatgen
data_SmDyHoGa8Ag3
_symmetry_space_group_name_H-M   'P 1'
_cell_length_a   4.35613336
_cell_length_b   8.38691894
_cell_length_c   8.38691903
_cell_angle_alpha   69.43572312
_cell_angle_beta   74.94784763
_cell_angle_gamma   74.94785533
_symmetry_Int_Tables_number   1
_chemical_formula_structural   SmDyHoGa8Ag3
_chemical_formula_sum   'Sm1 Dy1 Ho1 Ga8 Ag3'
_cell_volume   272.19193252
_cell_formula_units_Z   1
loop_
 _symmetry_equiv_pos_site_id
 _symmetry_equiv_pos_as_xyz
  1  'x, y, z'
loop_
 _atom_site_type_symbol
 _atom_site_label
 _atom_site_symmetry_multiplicity
 _atom_site_fract_x
 _atom_site_fract_y
 _atom_site_fract_z
 _atom_site_occupancy
  Sm  Sm0  1  0.500024  0.499976  0.499976  1
  Dy  Dy1  1  0.199906  0.800094  0.800094  1
  Ho  Ho2  1  0.800140  0.199860  0.199860  1
  Ga  Ga3  1  0.644213  0.072991  0.638584  1
  Ga  Ga4  1  0.355765  0.927158  0.361312  1
  Ga  Ga5  1  0.644213  0.638584  0.072991  1
  Ga  Ga6  1  0.355765  0.361312  0.927158  1
  Ga  Ga7  1  0.840792  0.790813  0.527604  1
  Ga  Ga8  1  0.159290  0.209159  0.472260  1
  Ga  Ga9  1  0.840792  0.527604  0.790813  1
  Ga  Ga10  1  0.159290  0.472260  0.209159  1
  Ag  Ag11  1  0.499940  0.000060  0.000060  1
  Ag  Ag12  1  0.999936  0.805150  0.194979  1
  Ag  Ag13  1  0.999936  0.194979  0.805150  1
