# generated using pymatgen
data_Tm3CoSn4Os
_symmetry_space_group_name_H-M   'P 1'
_cell_length_a   7.51056600
_cell_length_b   7.51056517
_cell_length_c   4.02081800
_cell_angle_alpha   90.00000000
_cell_angle_beta   90.00000000
_cell_angle_gamma   120.00000363
_symmetry_Int_Tables_number   1
_chemical_formula_structural   Tm3CoSn4Os
_chemical_formula_sum   'Tm3 Co1 Sn4 Os1'
_cell_volume   196.42208527
_cell_formula_units_Z   1
loop_
 _symmetry_equiv_pos_site_id
 _symmetry_equiv_pos_as_xyz
  1  'x, y, z'
loop_
 _atom_site_type_symbol
 _atom_site_label
 _atom_site_symmetry_multiplicity
 _atom_site_fract_x
 _atom_site_fract_y
 _atom_site_fract_z
 _atom_site_occupancy
  Tm  Tm0  1  0.306278  0.249177  0.500000  1
  Tm  Tm1  1  0.750823  0.057102  0.500000  1
  Tm  Tm2  1  0.942898  0.693722  0.500000  1
  Co  Co3  1  0.333333  0.666667  0.500000  1
  Sn  Sn4  1  0.099520  0.415557  0.000000  1
  Sn  Sn5  1  0.584443  0.683965  0.000000  1
  Sn  Sn6  1  0.316035  0.900480  0.000000  1
  Sn  Sn7  1  0.666667  0.333333  0.000000  1
  Os  Os8  1  0.000000  0.000000  0.000000  1
