# generated using pymatgen
data_Ca2NiRuO6
_symmetry_space_group_name_H-M   'P 1'
_cell_length_a   5.41972522
_cell_length_b   5.58310501
_cell_length_c   7.71263085
_cell_angle_alpha   89.99698466
_cell_angle_beta   89.89105592
_cell_angle_gamma   89.99454941
_symmetry_Int_Tables_number   1
_chemical_formula_structural   Ca2NiRuO6
_chemical_formula_sum   'Ca4 Ni2 Ru2 O12'
_cell_volume   233.37526391
_cell_formula_units_Z   2
loop_
 _symmetry_equiv_pos_site_id
 _symmetry_equiv_pos_as_xyz
  1  'x, y, z'
loop_
 _atom_site_type_symbol
 _atom_site_label
 _atom_site_symmetry_multiplicity
 _atom_site_fract_x
 _atom_site_fract_y
 _atom_site_fract_z
 _atom_site_occupancy
  Ca  Ca0  1  0.986433  0.056770  0.248295  1
  Ca  Ca1  1  0.513577  0.556847  0.251597  1
  Ca  Ca2  1  0.486422  0.443154  0.748404  1
  Ca  Ca3  1  0.013567  0.943230  0.751706  1
  Ni  Ni4  1  0.000000  0.499999  0.000000  1
  Ni  Ni5  1  0.500000  0.000000  0.500000  1
  Ru  Ru6  1  0.500000  0.000000  0.999999  1
  Ru  Ru7  1  0.000000  0.499999  0.500000  1
  O  O8  1  0.690042  0.288059  0.050033  1
  O  O9  1  0.791405  0.804433  0.047153  1
  O  O10  1  0.406865  0.973646  0.242554  1
  O  O11  1  0.093083  0.473672  0.257554  1
  O  O12  1  0.708688  0.304488  0.452869  1
  O  O13  1  0.810008  0.787984  0.449982  1
  O  O14  1  0.189991  0.212014  0.550018  1
  O  O15  1  0.291312  0.695512  0.547131  1
  O  O16  1  0.906916  0.526329  0.742446  1
  O  O17  1  0.593136  0.026354  0.757447  1
  O  O18  1  0.208594  0.195565  0.952847  1
  O  O19  1  0.309958  0.711942  0.949967  1
