# generated using pymatgen
data_LuSc3(Ta3Si4)2
_symmetry_space_group_name_H-M   'P 1'
_cell_length_a   6.89392829
_cell_length_b   6.89789485
_cell_length_c   12.70366000
_cell_angle_alpha   89.96983993
_cell_angle_beta   90.01655561
_cell_angle_gamma   90.02913880
_symmetry_Int_Tables_number   1
_chemical_formula_structural   LuSc3(Ta3Si4)2
_chemical_formula_sum   'Lu2 Sc6 Ta12 Si16'
_cell_volume   604.10448280
_cell_formula_units_Z   2
loop_
 _symmetry_equiv_pos_site_id
 _symmetry_equiv_pos_as_xyz
  1  'x, y, z'
loop_
 _atom_site_type_symbol
 _atom_site_label
 _atom_site_symmetry_multiplicity
 _atom_site_fract_x
 _atom_site_fract_y
 _atom_site_fract_z
 _atom_site_occupancy
  Lu  Lu0  1  0.497531  0.839351  0.718947  1
  Lu  Lu1  1  0.339402  0.002671  0.469018  1
  Sc  Sc2  1  0.999786  0.658946  0.030819  1
  Sc  Sc3  1  0.999059  0.341524  0.530442  1
  Sc  Sc4  1  0.659214  0.000254  0.969582  1
  Sc  Sc5  1  0.158291  0.499263  0.781175  1
  Sc  Sc6  1  0.840712  0.500377  0.280251  1
  Sc  Sc7  1  0.500240  0.159047  0.219188  1
  Ta  Ta8  1  0.349076  0.504775  0.376066  1
  Ta  Ta9  1  0.849381  0.993307  0.372958  1
  Ta  Ta10  1  0.005678  0.150616  0.125974  1
  Ta  Ta11  1  0.995322  0.848082  0.627107  1
  Ta  Ta12  1  0.651599  0.494806  0.877575  1
  Ta  Ta13  1  0.507648  0.348692  0.623797  1
  Ta  Ta14  1  0.494112  0.650140  0.123085  1
  Ta  Ta15  1  0.150669  0.007353  0.874409  1
  Ta  Ta16  1  0.672056  0.670199  0.499628  1
  Ta  Ta17  1  0.829386  0.172068  0.750799  1
  Ta  Ta18  1  0.170849  0.828585  0.249361  1
  Ta  Ta19  1  0.328442  0.328960  0.000529  1
  Si  Si20  1  0.042528  0.696603  0.435453  1
  Si  Si21  1  0.955579  0.302464  0.936417  1
  Si  Si22  1  0.704591  0.046463  0.563424  1
  Si  Si23  1  0.197783  0.456452  0.185751  1
  Si  Si24  1  0.803519  0.543049  0.686279  1
  Si  Si25  1  0.455460  0.202036  0.815028  1
  Si  Si26  1  0.545792  0.799270  0.312539  1
  Si  Si27  1  0.301920  0.955984  0.064276  1
  Si  Si28  1  0.863684  0.793804  0.823459  1
  Si  Si29  1  0.135695  0.208166  0.319986  1
  Si  Si30  1  0.794748  0.860631  0.177192  1
  Si  Si31  1  0.290803  0.632443  0.570978  1
  Si  Si32  1  0.705633  0.360452  0.072696  1
  Si  Si33  1  0.641246  0.296358  0.427525  1
  Si  Si34  1  0.359899  0.704810  0.928982  1
  Si  Si35  1  0.202663  0.141998  0.679302  1
