# generated using pymatgen
data_Li12NdDy11(TeO6)8
_symmetry_space_group_name_H-M   'P 1'
_cell_length_a   10.74757826
_cell_length_b   10.76452667
_cell_length_c   10.76452633
_cell_angle_alpha   109.61374227
_cell_angle_beta   109.43182589
_cell_angle_gamma   109.43181298
_symmetry_Int_Tables_number   1
_chemical_formula_structural   Li12NdDy11(TeO6)8
_chemical_formula_sum   'Li12 Nd1 Dy11 Te8 O48'
_cell_volume   957.93380872
_cell_formula_units_Z   1
loop_
 _symmetry_equiv_pos_site_id
 _symmetry_equiv_pos_as_xyz
  1  'x, y, z'
loop_
 _atom_site_type_symbol
 _atom_site_label
 _atom_site_symmetry_multiplicity
 _atom_site_fract_x
 _atom_site_fract_y
 _atom_site_fract_z
 _atom_site_occupancy
  Li  Li0  1  0.250001  0.374961  0.124960  1
  Li  Li1  1  0.374205  0.749863  0.125005  1
  Li  Li2  1  0.125796  0.874995  0.250137  1
  Li  Li3  1  0.625018  0.374933  0.250197  1
  Li  Li4  1  0.125796  0.250800  0.375658  1
  Li  Li5  1  0.750001  0.126178  0.376177  1
  Li  Li6  1  0.250001  0.875040  0.625038  1
  Li  Li7  1  0.874983  0.749803  0.625070  1
  Li  Li8  1  0.874981  0.125178  0.749912  1
  Li  Li9  1  0.374203  0.624341  0.749198  1
  Li  Li10  1  0.750000  0.623823  0.873821  1
  Li  Li11  1  0.625019  0.250087  0.874822  1
  Nd  Nd12  1  0.750000  0.875000  0.125000  1
  Dy  Dy13  1  0.875304  0.251012  0.124677  1
  Dy  Dy14  1  0.875302  0.624290  0.250626  1
  Dy  Dy15  1  0.374995  0.125016  0.250020  1
  Dy  Dy16  1  0.624697  0.749374  0.375709  1
  Dy  Dy17  1  0.250002  0.625001  0.375000  1
  Dy  Dy18  1  0.750001  0.375001  0.624999  1
  Dy  Dy19  1  0.374997  0.249979  0.624977  1
  Dy  Dy20  1  0.125003  0.375025  0.750021  1
  Dy  Dy21  1  0.624698  0.875325  0.748990  1
  Dy  Dy22  1  0.249999  0.125000  0.874999  1
  Dy  Dy23  1  0.125005  0.749980  0.874983  1
  Te  Te24  1  0.001014  0.000888  0.998569  1
  Te  Te25  1  0.498985  0.001431  0.999112  1
  Te  Te26  1  0.498986  0.497555  0.999874  1
  Te  Te27  1  0.000074  0.499977  0.999937  1
  Te  Te28  1  0.001014  0.000126  0.502443  1
  Te  Te29  1  0.499926  0.000063  0.500023  1
  Te  Te30  1  0.000074  0.500098  0.500137  1
  Te  Te31  1  0.499928  0.499865  0.499903  1
  O  O32  1  0.698047  0.613454  0.024728  1
  O  O33  1  0.828175  0.406563  0.027294  1
  O  O34  1  0.200497  0.172579  0.078871  1
  O  O35  1  0.379763  0.907265  0.078598  1
  O  O36  1  0.471164  0.172741  0.092547  1
  O  O37  1  0.120236  0.921401  0.092736  1
  O  O38  1  0.523959  0.695371  0.120456  1
  O  O39  1  0.093400  0.421380  0.120427  1
  O  O40  1  0.698047  0.084593  0.173318  1
  O  O41  1  0.976042  0.096496  0.171413  1
  O  O42  1  0.620431  0.526822  0.199841  1
  O  O43  1  0.079035  0.672103  0.199382  1
  O  O44  1  0.828175  0.421611  0.300881  1
  O  O45  1  0.976041  0.879545  0.304629  1
  O  O46  1  0.420966  0.800618  0.327897  1
  O  O47  1  0.406601  0.527028  0.327980  1
  O  O48  1  0.801953  0.975271  0.386545  1
  O  O49  1  0.079036  0.406933  0.379653  1
  O  O50  1  0.579036  0.379346  0.406851  1
  O  O51  1  0.328029  0.027580  0.406941  1
  O  O52  1  0.328028  0.300451  0.421089  1
  O  O53  1  0.593000  0.120439  0.421226  1
  O  O54  1  0.879569  0.800158  0.473177  1
  O  O55  1  0.093399  0.672020  0.472973  1
  O  O56  1  0.120236  0.198834  0.527501  1
  O  O57  1  0.907002  0.328228  0.527438  1
  O  O58  1  0.406600  0.879574  0.578620  1
  O  O59  1  0.671825  0.699120  0.578390  1
  O  O60  1  0.671825  0.972705  0.593436  1
  O  O61  1  0.420966  0.620349  0.593069  1
  O  O62  1  0.920964  0.593150  0.620655  1
  O  O63  1  0.200496  0.027919  0.621625  1
  O  O64  1  0.592999  0.472562  0.671773  1
  O  O65  1  0.579037  0.199691  0.672185  1
  O  O66  1  0.028836  0.121384  0.701577  1
  O  O67  1  0.171972  0.578912  0.699551  1
  O  O68  1  0.920964  0.327816  0.800309  1
  O  O69  1  0.379764  0.472499  0.801164  1
  O  O70  1  0.028835  0.907452  0.827256  1
  O  O71  1  0.299504  0.921128  0.827420  1
  O  O72  1  0.907000  0.578773  0.879560  1
  O  O73  1  0.471165  0.298422  0.878618  1
  O  O74  1  0.879570  0.079412  0.906392  1
  O  O75  1  0.523959  0.828588  0.903504  1
  O  O76  1  0.801951  0.826680  0.915406  1
  O  O77  1  0.620431  0.093609  0.920589  1
  O  O78  1  0.299503  0.378375  0.972081  1
  O  O79  1  0.171971  0.593061  0.972421  1
