# generated using pymatgen
data_Nd7Tm(Si3Pt)4
_symmetry_space_group_name_H-M   'P 1'
_cell_length_a   8.21857639
_cell_length_b   8.23149581
_cell_length_c   8.53513300
_cell_angle_alpha   90.00000000
_cell_angle_beta   90.00000000
_cell_angle_gamma   120.05200709
_symmetry_Int_Tables_number   1
_chemical_formula_structural   Nd7Tm(Si3Pt)4
_chemical_formula_sum   'Nd7 Tm1 Si12 Pt4'
_cell_volume   499.79101900
_cell_formula_units_Z   1
loop_
 _symmetry_equiv_pos_site_id
 _symmetry_equiv_pos_as_xyz
  1  'x, y, z'
loop_
 _atom_site_type_symbol
 _atom_site_label
 _atom_site_symmetry_multiplicity
 _atom_site_fract_x
 _atom_site_fract_y
 _atom_site_fract_z
 _atom_site_occupancy
  Nd  Nd0  1  0.499859  0.500088  0.750000  1
  Nd  Nd1  1  0.500095  0.499903  0.250000  1
  Nd  Nd2  1  0.999775  0.499887  0.250000  1
  Nd  Nd3  1  0.499859  0.999771  0.750000  1
  Nd  Nd4  1  0.500095  0.000192  0.250000  1
  Nd  Nd5  1  0.000008  0.000004  0.750000  1
  Nd  Nd6  1  0.000001  0.000000  0.250000  1
  Tm  Tm7  1  0.000305  0.500153  0.750000  1
  Si  Si8  1  0.834889  0.166583  0.997556  1
  Si  Si9  1  0.165106  0.833422  0.998668  1
  Si  Si10  1  0.332637  0.166319  0.999675  1
  Si  Si11  1  0.165106  0.833422  0.501332  1
  Si  Si12  1  0.667367  0.833683  0.000639  1
  Si  Si13  1  0.834889  0.166583  0.502444  1
  Si  Si14  1  0.834889  0.668306  0.997556  1
  Si  Si15  1  0.667367  0.833683  0.499361  1
  Si  Si16  1  0.165106  0.331685  0.998668  1
  Si  Si17  1  0.332637  0.166319  0.500325  1
  Si  Si18  1  0.165106  0.331685  0.501332  1
  Si  Si19  1  0.834889  0.668306  0.502444  1
  Pt  Pt20  1  0.669639  0.334819  0.994680  1
  Pt  Pt21  1  0.330367  0.665184  0.994866  1
  Pt  Pt22  1  0.330367  0.665184  0.505134  1
  Pt  Pt23  1  0.669639  0.334819  0.505320  1
