# generated using pymatgen
data_Li2V3Co4Ni5As7
_symmetry_space_group_name_H-M   'P 1'
_cell_length_a   9.40255206
_cell_length_b   9.39574705
_cell_length_c   3.69911200
_cell_angle_alpha   90.00000000
_cell_angle_beta   90.00000000
_cell_angle_gamma   120.01114273
_symmetry_Int_Tables_number   1
_chemical_formula_structural   Li2V3Co4Ni5As7
_chemical_formula_sum   'Li2 V3 Co4 Ni5 As7'
_cell_volume   282.98042938
_cell_formula_units_Z   1
loop_
 _symmetry_equiv_pos_site_id
 _symmetry_equiv_pos_as_xyz
  1  'x, y, z'
loop_
 _atom_site_type_symbol
 _atom_site_label
 _atom_site_symmetry_multiplicity
 _atom_site_fract_x
 _atom_site_fract_y
 _atom_site_fract_z
 _atom_site_occupancy
  Li  Li0  1  0.333203  0.666305  0.000000  1
  Li  Li1  1  0.999709  0.000324  0.500000  1
  V  V2  1  0.761710  0.552184  0.500000  1
  V  V3  1  0.449700  0.209885  0.500000  1
  V  V4  1  0.792258  0.238462  0.500000  1
  Co  Co5  1  0.279325  0.376924  0.500000  1
  Co  Co6  1  0.506136  0.451992  0.000000  1
  Co  Co7  1  0.548497  0.053607  0.000000  1
  Co  Co8  1  0.946360  0.495328  0.000000  1
  Ni  Ni9  1  0.619224  0.897766  0.500000  1
  Ni  Ni10  1  0.099846  0.719783  0.500000  1
  Ni  Ni11  1  0.719944  0.763251  0.000000  1
  Ni  Ni12  1  0.236674  0.959543  0.000000  1
  Ni  Ni13  1  0.042064  0.279251  0.000000  1
  As  As14  1  0.959803  0.752249  0.000000  1
  As  As15  1  0.249654  0.211968  0.000000  1
  As  As16  1  0.790963  0.039918  0.000000  1
  As  As17  1  0.666603  0.332905  0.000000  1
  As  As18  1  0.531291  0.618222  0.500000  1
  As  As19  1  0.378463  0.916323  0.500000  1
  As  As20  1  0.088573  0.463810  0.500000  1
