# generated using pymatgen
data_Si(S8Br)3
_symmetry_space_group_name_H-M   'P 1'
_cell_length_a   15.15538723
_cell_length_b   15.15538719
_cell_length_c   15.15538665
_cell_angle_alpha   118.69210731
_cell_angle_beta   118.69210738
_cell_angle_gamma   118.69210274
_symmetry_Int_Tables_number   1
_chemical_formula_structural   Si(S8Br)3
_chemical_formula_sum   'Si1 S24 Br3'
_cell_volume   1027.79299675
_cell_formula_units_Z   1
loop_
 _symmetry_equiv_pos_site_id
 _symmetry_equiv_pos_as_xyz
  1  'x, y, z'
loop_
 _atom_site_type_symbol
 _atom_site_label
 _atom_site_symmetry_multiplicity
 _atom_site_fract_x
 _atom_site_fract_y
 _atom_site_fract_z
 _atom_site_occupancy
  Si  Si0  1  0.829825  0.829825  0.829825  1
  S  S1  1  0.801712  0.518517  0.518517  1
  S  S2  1  0.518517  0.518517  0.801712  1
  S  S3  1  0.518517  0.801712  0.518517  1
  S  S4  1  0.246402  0.375380  0.636223  1
  S  S5  1  0.352978  0.951597  0.352978  1
  S  S6  1  0.352978  0.352978  0.951597  1
  S  S7  1  0.951597  0.352978  0.352978  1
  S  S8  1  0.129511  0.741639  0.258302  1
  S  S9  1  0.258302  0.129511  0.741639  1
  S  S10  1  0.741639  0.258302  0.129511  1
  S  S11  1  0.741639  0.129511  0.258302  1
  S  S12  1  0.258302  0.741639  0.129511  1
  S  S13  1  0.129511  0.258302  0.741639  1
  S  S14  1  0.346795  0.878796  0.528834  1
  S  S15  1  0.528834  0.346795  0.878796  1
  S  S16  1  0.878796  0.528834  0.346795  1
  S  S17  1  0.878796  0.346795  0.528834  1
  S  S18  1  0.528834  0.878796  0.346795  1
  S  S19  1  0.346795  0.528834  0.878796  1
  S  S20  1  0.246402  0.636223  0.375380  1
  S  S21  1  0.375380  0.246402  0.636223  1
  S  S22  1  0.636223  0.375380  0.246402  1
  S  S23  1  0.636223  0.246402  0.375380  1
  S  S24  1  0.375380  0.636223  0.246402  1
  Br  Br25  1  0.878160  0.018625  0.018625  1
  Br  Br26  1  0.018625  0.018625  0.878160  1
  Br  Br27  1  0.018625  0.878160  0.018625  1
