# generated using pymatgen
data_Er8MgAlPd23
_symmetry_space_group_name_H-M   'P 1'
_cell_length_a   8.26808200
_cell_length_b   8.39723600
_cell_length_c   8.39723600
_cell_angle_alpha   90.00000000
_cell_angle_beta   90.00000000
_cell_angle_gamma   90.00000000
_symmetry_Int_Tables_number   1
_chemical_formula_structural   Er8MgAlPd23
_chemical_formula_sum   'Er8 Mg1 Al1 Pd23'
_cell_volume   583.01199904
_cell_formula_units_Z   1
loop_
 _symmetry_equiv_pos_site_id
 _symmetry_equiv_pos_as_xyz
  1  'x, y, z'
loop_
 _atom_site_type_symbol
 _atom_site_label
 _atom_site_symmetry_multiplicity
 _atom_site_fract_x
 _atom_site_fract_y
 _atom_site_fract_z
 _atom_site_occupancy
  Er  Er0  1  0.251974  0.241291  0.241291  1
  Er  Er1  1  0.747365  0.746560  0.746560  1
  Er  Er2  1  0.747365  0.746560  0.253440  1
  Er  Er3  1  0.747365  0.253440  0.746560  1
  Er  Er4  1  0.251974  0.241291  0.758709  1
  Er  Er5  1  0.251974  0.758709  0.241291  1
  Er  Er6  1  0.251974  0.758709  0.758709  1
  Er  Er7  1  0.747365  0.253440  0.253440  1
  Mg  Mg8  1  0.255813  0.500000  0.500000  1
  Al  Al9  1  0.998357  0.000000  0.000000  1
  Pd  Pd10  1  0.257681  0.500000  0.000000  1
  Pd  Pd11  1  0.741204  0.500000  0.000000  1
  Pd  Pd12  1  0.005867  0.259300  0.500000  1
  Pd  Pd13  1  0.501962  0.262118  0.000000  1
  Pd  Pd14  1  0.005867  0.740700  0.500000  1
  Pd  Pd15  1  0.501962  0.737882  0.000000  1
  Pd  Pd16  1  0.501962  0.000000  0.262118  1
  Pd  Pd17  1  0.257681  0.000000  0.500000  1
  Pd  Pd18  1  0.501962  0.000000  0.737882  1
  Pd  Pd19  1  0.741204  0.000000  0.500000  1
  Pd  Pd20  1  0.005867  0.500000  0.259300  1
  Pd  Pd21  1  0.005867  0.500000  0.740700  1
  Pd  Pd22  1  0.747782  0.500000  0.500000  1
  Pd  Pd23  1  0.494616  0.253013  0.500000  1
  Pd  Pd24  1  0.494616  0.746987  0.500000  1
  Pd  Pd25  1  0.494616  0.500000  0.253013  1
  Pd  Pd26  1  0.494616  0.500000  0.746987  1
  Pd  Pd27  1  0.292363  0.000000  0.000000  1
  Pd  Pd28  1  0.709144  0.000000  0.000000  1
  Pd  Pd29  1  0.997908  0.287541  0.000000  1
  Pd  Pd30  1  0.997908  0.712459  0.000000  1
  Pd  Pd31  1  0.997908  0.000000  0.287541  1
  Pd  Pd32  1  0.997908  0.000000  0.712459  1
