# generated using pymatgen
data_NaYb19(Bi2As)4
_symmetry_space_group_name_H-M   'P 1'
_cell_length_a   8.28059310
_cell_length_b   9.36661629
_cell_length_c   12.50136900
_cell_angle_alpha   89.99130160
_cell_angle_beta   89.99097725
_cell_angle_gamma   90.01139464
_symmetry_Int_Tables_number   1
_chemical_formula_structural   NaYb19(Bi2As)4
_chemical_formula_sum   'Na1 Yb19 Bi8 As4'
_cell_volume   969.62036723
_cell_formula_units_Z   1
loop_
 _symmetry_equiv_pos_site_id
 _symmetry_equiv_pos_as_xyz
  1  'x, y, z'
loop_
 _atom_site_type_symbol
 _atom_site_label
 _atom_site_symmetry_multiplicity
 _atom_site_fract_x
 _atom_site_fract_y
 _atom_site_fract_z
 _atom_site_occupancy
  Na  Na0  1  0.182307  0.536718  0.929361  1
  Yb  Yb1  1  0.836220  0.748678  0.786170  1
  Yb  Yb2  1  0.166845  0.248734  0.215677  1
  Yb  Yb3  1  0.332384  0.253692  0.715523  1
  Yb  Yb4  1  0.668293  0.750347  0.284545  1
  Yb  Yb5  1  0.365460  0.745207  0.699886  1
  Yb  Yb6  1  0.632759  0.250515  0.295754  1
  Yb  Yb7  1  0.867413  0.250042  0.796080  1
  Yb  Yb8  1  0.133196  0.748279  0.205092  1
  Yb  Yb9  1  0.953644  0.750280  0.496475  1
  Yb  Yb10  1  0.048380  0.248375  0.503407  1
  Yb  Yb11  1  0.444802  0.259033  0.002046  1
  Yb  Yb12  1  0.555743  0.745779  0.999543  1
  Yb  Yb13  1  0.685204  0.038880  0.570603  1
  Yb  Yb14  1  0.314368  0.958998  0.429383  1
  Yb  Yb15  1  0.182652  0.964987  0.933037  1
  Yb  Yb16  1  0.314234  0.538576  0.430099  1
  Yb  Yb17  1  0.809298  0.043062  0.069246  1
  Yb  Yb18  1  0.687761  0.460535  0.568565  1
  Yb  Yb19  1  0.825092  0.461665  0.066648  1
  Bi  Bi20  1  0.572663  0.490077  0.826968  1
  Bi  Bi21  1  0.434947  0.512584  0.175512  1
  Bi  Bi22  1  0.069242  0.512110  0.668634  1
  Bi  Bi23  1  0.428565  0.987005  0.169101  1
  Bi  Bi24  1  0.930186  0.486326  0.327519  1
  Bi  Bi25  1  0.561249  0.009353  0.829764  1
  Bi  Bi26  1  0.927905  0.013137  0.328799  1
  Bi  Bi27  1  0.070762  0.986886  0.673607  1
  As  As28  1  0.575107  0.749841  0.513071  1
  As  As29  1  0.427394  0.248410  0.486353  1
  As  As30  1  0.069320  0.245641  0.987917  1
  As  As31  1  0.926610  0.756244  0.015615  1
