# generated using pymatgen
data_DyZr(TaC2)2
_symmetry_space_group_name_H-M   'P 1'
_cell_length_a   11.09392546
_cell_length_b   11.09392615
_cell_length_c   11.09392500
_cell_angle_alpha   16.93097835
_cell_angle_beta   16.93096672
_cell_angle_gamma   16.93097678
_symmetry_Int_Tables_number   1
_chemical_formula_structural   DyZr(TaC2)2
_chemical_formula_sum   'Dy1 Zr1 Ta2 C4'
_cell_volume   101.01255354
_cell_formula_units_Z   1
loop_
 _symmetry_equiv_pos_site_id
 _symmetry_equiv_pos_as_xyz
  1  'x, y, z'
loop_
 _atom_site_type_symbol
 _atom_site_label
 _atom_site_symmetry_multiplicity
 _atom_site_fract_x
 _atom_site_fract_y
 _atom_site_fract_z
 _atom_site_occupancy
  Dy  Dy0  1  0.500000  0.500000  0.500000  1
  Zr  Zr1  1  0.000000  0.000000  0.000000  1
  Ta  Ta2  1  0.251745  0.251745  0.251745  1
  Ta  Ta3  1  0.748255  0.748255  0.748255  1
  C  C4  1  0.375770  0.375770  0.375770  1
  C  C5  1  0.117984  0.117984  0.117984  1
  C  C6  1  0.624230  0.624230  0.624230  1
  C  C7  1  0.882016  0.882016  0.882016  1
