# generated using pymatgen
data_Er5In2(NiHg)2
_symmetry_space_group_name_H-M   'P 1'
_cell_length_a   7.77799600
_cell_length_b   17.93352300
_cell_length_c   3.57845000
_cell_angle_alpha   90.00000000
_cell_angle_beta   90.00000000
_cell_angle_gamma   90.00000000
_symmetry_Int_Tables_number   1
_chemical_formula_structural   Er5In2(NiHg)2
_chemical_formula_sum   'Er10 In4 Ni4 Hg4'
_cell_volume   499.14679052
_cell_formula_units_Z   2
loop_
 _symmetry_equiv_pos_site_id
 _symmetry_equiv_pos_as_xyz
  1  'x, y, z'
loop_
 _atom_site_type_symbol
 _atom_site_label
 _atom_site_symmetry_multiplicity
 _atom_site_fract_x
 _atom_site_fract_y
 _atom_site_fract_z
 _atom_site_occupancy
  Er  Er0  1  0.500000  0.500000  0.000000  1
  Er  Er1  1  0.000000  0.000000  0.000000  1
  Er  Er2  1  0.758061  0.280852  0.000000  1
  Er  Er3  1  0.241939  0.719148  0.000000  1
  Er  Er4  1  0.741939  0.780852  0.000000  1
  Er  Er5  1  0.258061  0.219148  0.000000  1
  Er  Er6  1  0.614195  0.089063  0.000000  1
  Er  Er7  1  0.385805  0.910937  0.000000  1
  Er  Er8  1  0.885805  0.589063  0.000000  1
  Er  Er9  1  0.114195  0.410937  0.000000  1
  In  In10  1  0.568156  0.651692  0.500000  1
  In  In11  1  0.431844  0.348308  0.500000  1
  In  In12  1  0.931844  0.151692  0.500000  1
  In  In13  1  0.068156  0.848308  0.500000  1
  Ni  Ni14  1  0.541789  0.197945  0.500000  1
  Ni  Ni15  1  0.458211  0.802055  0.500000  1
  Ni  Ni16  1  0.958211  0.697945  0.500000  1
  Ni  Ni17  1  0.041789  0.302055  0.500000  1
  Hg  Hg18  1  0.707188  0.931763  0.500000  1
  Hg  Hg19  1  0.292812  0.068237  0.500000  1
  Hg  Hg20  1  0.792812  0.431763  0.500000  1
  Hg  Hg21  1  0.207188  0.568237  0.500000  1
