# generated using pymatgen
data_Y4Mn4Co13(NiP4)3
_symmetry_space_group_name_H-M   'P 1'
_cell_length_a   3.66751000
_cell_length_b   10.31695900
_cell_length_c   11.87356700
_cell_angle_alpha   89.99897210
_cell_angle_beta   90.00000000
_cell_angle_gamma   90.00000000
_symmetry_Int_Tables_number   1
_chemical_formula_structural   Y4Mn4Co13(NiP4)3
_chemical_formula_sum   'Y4 Mn4 Co13 Ni3 P12'
_cell_volume   449.26668859
_cell_formula_units_Z   1
loop_
 _symmetry_equiv_pos_site_id
 _symmetry_equiv_pos_as_xyz
  1  'x, y, z'
loop_
 _atom_site_type_symbol
 _atom_site_label
 _atom_site_symmetry_multiplicity
 _atom_site_fract_x
 _atom_site_fract_y
 _atom_site_fract_z
 _atom_site_occupancy
  Y  Y0  1  0.250000  0.917757  0.205049  1
  Y  Y1  1  0.750000  0.082231  0.794466  1
  Y  Y2  1  0.750000  0.417203  0.295107  1
  Y  Y3  1  0.250000  0.581835  0.704722  1
  Mn  Mn4  1  0.250000  0.791884  0.488267  1
  Mn  Mn5  1  0.750000  0.209125  0.511681  1
  Mn  Mn6  1  0.750000  0.291380  0.012080  1
  Mn  Mn7  1  0.250000  0.709008  0.987919  1
  Co  Co8  1  0.250000  0.407482  0.487717  1
  Co  Co9  1  0.250000  0.277933  0.675857  1
  Co  Co10  1  0.750000  0.720601  0.323558  1
  Co  Co11  1  0.750000  0.778915  0.824323  1
  Co  Co12  1  0.250000  0.221458  0.177773  1
  Co  Co13  1  0.250000  0.616939  0.197716  1
  Co  Co14  1  0.750000  0.383533  0.800966  1
  Co  Co15  1  0.750000  0.117349  0.302905  1
  Co  Co16  1  0.250000  0.883336  0.697752  1
  Co  Co17  1  0.250000  0.034060  0.432087  1
  Co  Co18  1  0.750000  0.965898  0.566499  1
  Co  Co19  1  0.750000  0.533361  0.066991  1
  Co  Co20  1  0.250000  0.466384  0.932416  1
  Ni  Ni21  1  0.250000  0.092502  0.987820  1
  Ni  Ni22  1  0.750000  0.907703  0.013360  1
  Ni  Ni23  1  0.750000  0.592982  0.513149  1
  P  P24  1  0.250000  0.081033  0.611566  1
  P  P25  1  0.750000  0.919550  0.386808  1
  P  P26  1  0.750000  0.580859  0.887497  1
  P  P27  1  0.250000  0.418912  0.112263  1
  P  P28  1  0.250000  0.230817  0.369353  1
  P  P29  1  0.750000  0.772057  0.635351  1
  P  P30  1  0.750000  0.727616  0.134077  1
  P  P31  1  0.250000  0.272077  0.865156  1
  P  P32  1  0.250000  0.895863  0.887983  1
  P  P33  1  0.750000  0.104834  0.113049  1
  P  P34  1  0.750000  0.395879  0.608995  1
  P  P35  1  0.250000  0.599645  0.387723  1
