# generated using pymatgen
data_MgCo2Rh3O8
_symmetry_space_group_name_H-M   'P 1'
_cell_length_a   6.13341242
_cell_length_b   5.99351498
_cell_length_c   6.13302029
_cell_angle_alpha   90.03109286
_cell_angle_beta   59.99728217
_cell_angle_gamma   120.78444407
_symmetry_Int_Tables_number   1
_chemical_formula_structural   MgCo2Rh3O8
_chemical_formula_sum   'Mg1 Co2 Rh3 O8'
_cell_volume   157.54182577
_cell_formula_units_Z   1
loop_
 _symmetry_equiv_pos_site_id
 _symmetry_equiv_pos_as_xyz
  1  'x, y, z'
loop_
 _atom_site_type_symbol
 _atom_site_label
 _atom_site_symmetry_multiplicity
 _atom_site_fract_x
 _atom_site_fract_y
 _atom_site_fract_z
 _atom_site_occupancy
  Mg  Mg0  1  0.500031  0.000032  0.500001  1
  Co  Co1  1  0.737843  0.856710  0.881042  1
  Co  Co2  1  0.262158  0.143297  0.118955  1
  Rh  Rh3  1  0.500023  0.500004  0.500003  1
  Rh  Rh4  1  0.000018  0.500023  0.000018  1
  Rh  Rh5  1  0.999983  0.499993  0.499966  1
  O  O6  1  0.477920  0.734711  0.743229  1
  O  O7  1  0.478263  0.735073  0.278724  1
  O  O8  1  0.013697  0.734896  0.743254  1
  O  O9  1  0.986308  0.265096  0.256746  1
  O  O10  1  0.522058  0.265269  0.256768  1
  O  O11  1  0.016959  0.275658  0.741559  1
  O  O12  1  0.521721  0.264920  0.721291  1
  O  O13  1  0.983020  0.724322  0.258445  1
