# generated using pymatgen
data_Pr6Mg4IrPd12
_symmetry_space_group_name_H-M   'P 1'
_cell_length_a   8.49621764
_cell_length_b   8.49621802
_cell_length_c   8.49621800
_cell_angle_alpha   109.47121582
_cell_angle_beta   109.47121673
_cell_angle_gamma   109.47122699
_symmetry_Int_Tables_number   1
_chemical_formula_structural   Pr6Mg4IrPd12
_chemical_formula_sum   'Pr6 Mg4 Ir1 Pd12'
_cell_volume   472.12287820
_cell_formula_units_Z   1
loop_
 _symmetry_equiv_pos_site_id
 _symmetry_equiv_pos_as_xyz
  1  'x, y, z'
loop_
 _atom_site_type_symbol
 _atom_site_label
 _atom_site_symmetry_multiplicity
 _atom_site_fract_x
 _atom_site_fract_y
 _atom_site_fract_z
 _atom_site_occupancy
  Pr  Pr0  1  0.701584  0.701584  0.000000  1
  Pr  Pr1  1  0.298416  0.000000  0.298416  1
  Pr  Pr2  1  0.000000  0.298416  0.298416  1
  Pr  Pr3  1  0.298416  0.298416  0.000000  1
  Pr  Pr4  1  0.701584  0.000000  0.701584  1
  Pr  Pr5  1  0.000000  0.701584  0.701584  1
  Mg  Mg6  1  0.000000  0.000000  0.500000  1
  Mg  Mg7  1  0.000000  0.500000  0.000000  1
  Mg  Mg8  1  0.500000  0.000000  0.000000  1
  Mg  Mg9  1  0.500000  0.500000  0.500000  1
  Ir  Ir10  1  0.000000  0.000000  0.000000  1
  Pd  Pd11  1  0.334804  0.334804  0.669609  1
  Pd  Pd12  1  0.665196  0.000000  0.334804  1
  Pd  Pd13  1  0.000000  0.665196  0.334804  1
  Pd  Pd14  1  0.665196  0.334804  0.000000  1
  Pd  Pd15  1  0.334804  0.669609  0.334804  1
  Pd  Pd16  1  0.000000  0.334804  0.665196  1
  Pd  Pd17  1  0.334804  0.665196  0.000000  1
  Pd  Pd18  1  0.334804  0.000000  0.665196  1
  Pd  Pd19  1  0.669609  0.334804  0.334804  1
  Pd  Pd20  1  0.665196  0.665196  0.330391  1
  Pd  Pd21  1  0.665196  0.330391  0.665196  1
  Pd  Pd22  1  0.330391  0.665196  0.665196  1
