# generated using pymatgen
data_TbY4FeRuO12
_symmetry_space_group_name_H-M   'P 1'
_cell_length_a   6.84222196
_cell_length_b   6.84205730
_cell_length_c   7.30859926
_cell_angle_alpha   74.41525529
_cell_angle_beta   74.42247988
_cell_angle_gamma   51.11366092
_symmetry_Int_Tables_number   1
_chemical_formula_structural   TbY4FeRuO12
_chemical_formula_sum   'Tb1 Y4 Fe1 Ru1 O12'
_cell_volume   254.24977565
_cell_formula_units_Z   1
loop_
 _symmetry_equiv_pos_site_id
 _symmetry_equiv_pos_as_xyz
  1  'x, y, z'
loop_
 _atom_site_type_symbol
 _atom_site_label
 _atom_site_symmetry_multiplicity
 _atom_site_fract_x
 _atom_site_fract_y
 _atom_site_fract_z
 _atom_site_occupancy
  Tb  Tb0  1  0.308487  0.308095  0.330722  1
  Y  Y1  1  0.691712  0.691334  0.669651  1
  Y  Y2  1  0.693069  0.700682  0.140051  1
  Y  Y3  1  0.997199  0.002787  0.999949  1
  Y  Y4  1  0.299300  0.307043  0.859606  1
  Fe  Fe5  1  0.249248  0.750760  0.500116  1
  Ru  Ru6  1  0.760206  0.239754  0.500104  1
  O  O7  1  0.400143  0.905247  0.924866  1
  O  O8  1  0.573769  0.096932  0.582543  1
  O  O9  1  0.902462  0.426844  0.417840  1
  O  O10  1  0.094520  0.600047  0.074607  1
  O  O11  1  0.993677  0.006908  0.316357  1
  O  O12  1  0.510390  0.489262  0.686960  1
  O  O13  1  0.901121  0.405338  0.924896  1
  O  O14  1  0.101719  0.576580  0.580848  1
  O  O15  1  0.423995  0.897729  0.419596  1
  O  O16  1  0.594977  0.098546  0.074526  1
  O  O17  1  0.510837  0.489616  0.313281  1
  O  O18  1  0.993170  0.006497  0.683483  1
