# generated using pymatgen
data_LaY2Mn2W3O14
_symmetry_space_group_name_H-M   'P 1'
_cell_length_a   7.23628235
_cell_length_b   7.28200249
_cell_length_c   7.28186218
_cell_angle_alpha   117.63956775
_cell_angle_beta   62.72890289
_cell_angle_gamma   117.27060230
_symmetry_Int_Tables_number   1
_chemical_formula_structural   LaY2Mn2W3O14
_chemical_formula_sum   'La1 Y2 Mn2 W3 O14'
_cell_volume   287.06650039
_cell_formula_units_Z   1
loop_
 _symmetry_equiv_pos_site_id
 _symmetry_equiv_pos_as_xyz
  1  'x, y, z'
loop_
 _atom_site_type_symbol
 _atom_site_label
 _atom_site_symmetry_multiplicity
 _atom_site_fract_x
 _atom_site_fract_y
 _atom_site_fract_z
 _atom_site_occupancy
  La  La0  1  0.999994  0.500002  0.000008  1
  Y  Y1  1  0.499995  0.999994  0.999986  1
  Y  Y2  1  0.500008  0.500018  0.499993  1
  Mn  Mn3  1  0.499950  0.499985  0.000023  1
  Mn  Mn4  1  0.000047  0.000049  0.499996  1
  W  W5  1  0.500008  0.999961  0.500004  1
  W  W6  1  0.000016  0.500014  0.499987  1
  W  W7  1  0.000006  0.999993  0.000009  1
  O  O8  1  0.606592  0.373137  0.126849  1
  O  O9  1  0.393392  0.626856  0.873138  1
  O  O10  1  0.083830  0.322366  0.177630  1
  O  O11  1  0.677373  0.916476  0.177637  1
  O  O12  1  0.677368  0.322374  0.583539  1
  O  O13  1  0.916161  0.677616  0.822377  1
  O  O14  1  0.322619  0.083509  0.822359  1
  O  O15  1  0.322619  0.677625  0.416477  1
  O  O16  1  0.643441  0.904877  0.595139  1
  O  O17  1  0.099736  0.354201  0.587133  1
  O  O18  1  0.099723  0.912866  0.145799  1
  O  O19  1  0.356584  0.095153  0.404846  1
  O  O20  1  0.900268  0.645799  0.412873  1
  O  O21  1  0.900272  0.087131  0.854199  1
