# generated using pymatgen
data_YbEr7(Si3Pt)4
_symmetry_space_group_name_H-M   'P 1'
_cell_length_a   8.17581200
_cell_length_b   8.15972144
_cell_length_c   7.87562600
_cell_angle_alpha   90.00000000
_cell_angle_beta   90.00000000
_cell_angle_gamma   120.06525304
_symmetry_Int_Tables_number   1
_chemical_formula_structural   YbEr7(Si3Pt)4
_chemical_formula_sum   'Yb1 Er7 Si12 Pt4'
_cell_volume   454.71157173
_cell_formula_units_Z   1
loop_
 _symmetry_equiv_pos_site_id
 _symmetry_equiv_pos_as_xyz
  1  'x, y, z'
loop_
 _atom_site_type_symbol
 _atom_site_label
 _atom_site_symmetry_multiplicity
 _atom_site_fract_x
 _atom_site_fract_y
 _atom_site_fract_z
 _atom_site_occupancy
  Yb  Yb0  1  0.511635  0.023272  0.250000  1
  Er  Er1  1  0.488785  0.977568  0.750000  1
  Er  Er2  1  0.977278  0.488433  0.250000  1
  Er  Er3  1  0.022796  0.510826  0.750000  1
  Er  Er4  1  0.511154  0.488433  0.250000  1
  Er  Er5  1  0.488031  0.510826  0.750000  1
  Er  Er6  1  0.000134  0.000268  0.250000  1
  Er  Er7  1  0.000299  0.000598  0.750000  1
  Si  Si8  1  0.165066  0.330132  0.000388  1
  Si  Si9  1  0.834852  0.669703  0.997844  1
  Si  Si10  1  0.669597  0.834606  0.001785  1
  Si  Si11  1  0.834852  0.669703  0.502156  1
  Si  Si12  1  0.329976  0.165463  0.996891  1
  Si  Si13  1  0.165066  0.330132  0.499612  1
  Si  Si14  1  0.165010  0.834606  0.001785  1
  Si  Si15  1  0.329976  0.165463  0.503109  1
  Si  Si16  1  0.835486  0.165463  0.996891  1
  Si  Si17  1  0.669597  0.834606  0.498215  1
  Si  Si18  1  0.835486  0.165463  0.503109  1
  Si  Si19  1  0.165010  0.834606  0.498215  1
  Pt  Pt20  1  0.333005  0.666010  0.037864  1
  Pt  Pt21  1  0.666952  0.333903  0.960438  1
  Pt  Pt22  1  0.666952  0.333903  0.539562  1
  Pt  Pt23  1  0.333005  0.666010  0.462136  1
