# generated using pymatgen
data_Sr(AuBr4)2
_symmetry_space_group_name_H-M   'P 1'
_cell_length_a   7.93276900
_cell_length_b   8.24163941
_cell_length_c   12.95561600
_cell_angle_alpha   98.14148734
_cell_angle_beta   90.00000000
_cell_angle_gamma   90.00000000
_symmetry_Int_Tables_number   1
_chemical_formula_structural   Sr(AuBr4)2
_chemical_formula_sum   'Sr2 Au4 Br16'
_cell_volume   838.48864446
_cell_formula_units_Z   2
loop_
 _symmetry_equiv_pos_site_id
 _symmetry_equiv_pos_as_xyz
  1  'x, y, z'
loop_
 _atom_site_type_symbol
 _atom_site_label
 _atom_site_symmetry_multiplicity
 _atom_site_fract_x
 _atom_site_fract_y
 _atom_site_fract_z
 _atom_site_occupancy
  Sr  Sr0  1  0.169182  0.500000  0.250000  1
  Sr  Sr1  1  0.829195  0.500000  0.750000  1
  Au  Au2  1  0.244797  0.729237  0.626848  1
  Au  Au3  1  0.755567  0.731184  0.124990  1
  Au  Au4  1  0.755567  0.268816  0.375010  1
  Au  Au5  1  0.244797  0.270763  0.873152  1
  Br  Br6  1  0.546117  0.761779  0.679082  1
  Br  Br7  1  0.330170  0.739693  0.442612  1
  Br  Br8  1  0.843493  0.269259  0.190486  1
  Br  Br9  1  0.157392  0.730607  0.811160  1
  Br  Br10  1  0.453322  0.239292  0.324740  1
  Br  Br11  1  0.330170  0.260307  0.057388  1
  Br  Br12  1  0.669628  0.254270  0.558466  1
  Br  Br13  1  0.453322  0.760708  0.175260  1
  Br  Br14  1  0.157392  0.269393  0.688840  1
  Br  Br15  1  0.546117  0.238221  0.820918  1
  Br  Br16  1  0.843493  0.730741  0.309514  1
  Br  Br17  1  0.057985  0.719174  0.076943  1
  Br  Br18  1  0.669628  0.745730  0.941534  1
  Br  Br19  1  0.942341  0.282905  0.921458  1
  Br  Br20  1  0.057985  0.280826  0.423057  1
  Br  Br21  1  0.942341  0.717095  0.578542  1
