# generated using pymatgen
data_Sc10Zn3Ni
_symmetry_space_group_name_H-M   'P 1'
_cell_length_a   8.83061200
_cell_length_b   8.83058827
_cell_length_c   8.78671100
_cell_angle_alpha   90.00024443
_cell_angle_beta   90.00011118
_cell_angle_gamma   120.00019813
_symmetry_Int_Tables_number   1
_chemical_formula_structural   Sc10Zn3Ni
_chemical_formula_sum   'Sc20 Zn6 Ni2'
_cell_volume   593.38497584
_cell_formula_units_Z   2
loop_
 _symmetry_equiv_pos_site_id
 _symmetry_equiv_pos_as_xyz
  1  'x, y, z'
loop_
 _atom_site_type_symbol
 _atom_site_label
 _atom_site_symmetry_multiplicity
 _atom_site_fract_x
 _atom_site_fract_y
 _atom_site_fract_z
 _atom_site_occupancy
  Sc  Sc0  1  0.000002  0.000001  0.499999  1
  Sc  Sc1  1  0.000002  0.000002  0.999997  1
  Sc  Sc2  1  0.208270  0.791731  0.440600  1
  Sc  Sc3  1  0.208267  0.416538  0.440597  1
  Sc  Sc4  1  0.583463  0.791734  0.440599  1
  Sc  Sc5  1  0.791690  0.208311  0.559539  1
  Sc  Sc6  1  0.791689  0.583379  0.559538  1
  Sc  Sc7  1  0.416623  0.208313  0.559536  1
  Sc  Sc8  1  0.791684  0.208310  0.940462  1
  Sc  Sc9  1  0.791685  0.583371  0.940462  1
  Sc  Sc10  1  0.416627  0.208311  0.940459  1
  Sc  Sc11  1  0.208273  0.791731  0.059405  1
  Sc  Sc12  1  0.208268  0.416540  0.059404  1
  Sc  Sc13  1  0.583460  0.791731  0.059404  1
  Sc  Sc14  1  0.542242  0.457752  0.250002  1
  Sc  Sc15  1  0.542245  0.084488  0.250007  1
  Sc  Sc16  1  0.915509  0.457756  0.250001  1
  Sc  Sc17  1  0.457743  0.542258  0.749996  1
  Sc  Sc18  1  0.457743  0.915488  0.749995  1
  Sc  Sc19  1  0.084509  0.542256  0.749998  1
  Zn  Zn20  1  0.886620  0.113382  0.249999  1
  Zn  Zn21  1  0.886620  0.773237  0.249999  1
  Zn  Zn22  1  0.226763  0.113382  0.249997  1
  Zn  Zn23  1  0.113395  0.886605  0.750002  1
  Zn  Zn24  1  0.113393  0.226791  0.749999  1
  Zn  Zn25  1  0.773212  0.886605  0.750002  1
  Ni  Ni26  1  0.333333  0.666663  0.249999  1
  Ni  Ni27  1  0.666669  0.333335  0.750002  1
