# generated using pymatgen
data_Dy19Er(Bi2Rh)4
_symmetry_space_group_name_H-M   'P 1'
_cell_length_a   8.00541340
_cell_length_b   8.99981519
_cell_length_c   12.46716245
_cell_angle_alpha   90.00948191
_cell_angle_beta   89.97072917
_cell_angle_gamma   89.97848096
_symmetry_Int_Tables_number   1
_chemical_formula_structural   Dy19Er(Bi2Rh)4
_chemical_formula_sum   'Dy19 Er1 Bi8 Rh4'
_cell_volume   898.22446640
_cell_formula_units_Z   1
loop_
 _symmetry_equiv_pos_site_id
 _symmetry_equiv_pos_as_xyz
  1  'x, y, z'
loop_
 _atom_site_type_symbol
 _atom_site_label
 _atom_site_symmetry_multiplicity
 _atom_site_fract_x
 _atom_site_fract_y
 _atom_site_fract_z
 _atom_site_occupancy
  Dy  Dy0  1  0.662719  0.750090  0.707582  1
  Dy  Dy1  1  0.337112  0.249948  0.292438  1
  Dy  Dy2  1  0.162967  0.249933  0.792313  1
  Dy  Dy3  1  0.837090  0.750018  0.207632  1
  Dy  Dy4  1  0.125753  0.750016  0.808232  1
  Dy  Dy5  1  0.874316  0.249992  0.191724  1
  Dy  Dy6  1  0.625512  0.249906  0.691642  1
  Dy  Dy7  1  0.374223  0.750167  0.308416  1
  Dy  Dy8  1  0.548294  0.750017  0.998723  1
  Dy  Dy9  1  0.451694  0.250012  0.001261  1
  Dy  Dy10  1  0.048583  0.249878  0.501311  1
  Dy  Dy11  1  0.951816  0.750113  0.498726  1
  Dy  Dy12  1  0.823653  0.456508  0.933123  1
  Dy  Dy13  1  0.176360  0.543506  0.066851  1
  Dy  Dy14  1  0.323781  0.543540  0.566848  1
  Dy  Dy15  1  0.176356  0.956502  0.066883  1
  Dy  Dy16  1  0.676354  0.456614  0.433147  1
  Dy  Dy17  1  0.823645  0.043545  0.933120  1
  Dy  Dy18  1  0.676046  0.043497  0.433255  1
  Er  Er19  1  0.324499  0.956397  0.566768  1
  Bi  Bi20  1  0.934221  0.008664  0.673420  1
  Bi  Bi21  1  0.065979  0.991269  0.326465  1
  Bi  Bi22  1  0.433825  0.991258  0.826348  1
  Bi  Bi23  1  0.066084  0.508697  0.326478  1
  Bi  Bi24  1  0.566101  0.008689  0.173526  1
  Bi  Bi25  1  0.933911  0.491295  0.673525  1
  Bi  Bi26  1  0.566088  0.491294  0.173551  1
  Bi  Bi27  1  0.433911  0.508709  0.826486  1
  Rh  Rh28  1  0.924850  0.749997  0.989967  1
  Rh  Rh29  1  0.075106  0.249997  0.010012  1
  Rh  Rh30  1  0.424614  0.249567  0.510048  1
  Rh  Rh31  1  0.574537  0.750364  0.490177  1
