# generated using pymatgen
data_Tb4Y(CoTe)2
_symmetry_space_group_name_H-M   'P 1'
_cell_length_a   7.83726450
_cell_length_b   7.83726432
_cell_length_c   15.04949800
_cell_angle_alpha   90.00000000
_cell_angle_beta   90.00000000
_cell_angle_gamma   150.50451732
_symmetry_Int_Tables_number   1
_chemical_formula_structural   Tb4Y(CoTe)2
_chemical_formula_sum   'Tb8 Y2 Co4 Te4'
_cell_volume   455.12355111
_cell_formula_units_Z   2
loop_
 _symmetry_equiv_pos_site_id
 _symmetry_equiv_pos_as_xyz
  1  'x, y, z'
loop_
 _atom_site_type_symbol
 _atom_site_label
 _atom_site_symmetry_multiplicity
 _atom_site_fract_x
 _atom_site_fract_y
 _atom_site_fract_z
 _atom_site_occupancy
  Tb  Tb0  1  0.960464  0.039536  0.125161  1
  Tb  Tb1  1  0.039536  0.960464  0.874839  1
  Tb  Tb2  1  0.039536  0.960464  0.625161  1
  Tb  Tb3  1  0.960464  0.039536  0.374839  1
  Tb  Tb4  1  0.741995  0.258005  0.629765  1
  Tb  Tb5  1  0.258005  0.741995  0.370235  1
  Tb  Tb6  1  0.258005  0.741995  0.129765  1
  Tb  Tb7  1  0.741995  0.258005  0.870235  1
  Y  Y8  1  0.605047  0.394953  0.250000  1
  Y  Y9  1  0.394953  0.605047  0.750000  1
  Co  Co10  1  0.409924  0.590076  0.250000  1
  Co  Co11  1  0.590076  0.409924  0.750000  1
  Co  Co12  1  0.820489  0.179511  0.250000  1
  Co  Co13  1  0.179511  0.820489  0.750000  1
  Te  Te14  1  0.617023  0.382977  0.038652  1
  Te  Te15  1  0.382977  0.617023  0.961348  1
  Te  Te16  1  0.382977  0.617023  0.538652  1
  Te  Te17  1  0.617023  0.382977  0.461348  1
