# generated using pymatgen
data_Dy4MgNi2Te
_symmetry_space_group_name_H-M   'P 1'
_cell_length_a   8.66802144
_cell_length_b   8.66802149
_cell_length_c   8.66802157
_cell_angle_alpha   129.39141227
_cell_angle_beta   129.39141269
_cell_angle_gamma   74.38158103
_symmetry_Int_Tables_number   1
_chemical_formula_structural   Dy4MgNi2Te
_chemical_formula_sum   'Dy8 Mg2 Ni4 Te2'
_cell_volume   379.13693102
_cell_formula_units_Z   2
loop_
 _symmetry_equiv_pos_site_id
 _symmetry_equiv_pos_as_xyz
  1  'x, y, z'
loop_
 _atom_site_type_symbol
 _atom_site_label
 _atom_site_symmetry_multiplicity
 _atom_site_fract_x
 _atom_site_fract_y
 _atom_site_fract_z
 _atom_site_occupancy
  Dy  Dy0  1  0.792805  0.292805  0.828009  1
  Dy  Dy1  1  0.207195  0.707195  0.171991  1
  Dy  Dy2  1  0.464796  0.964796  0.171991  1
  Dy  Dy3  1  0.292805  0.464796  0.500000  1
  Dy  Dy4  1  0.035204  0.207195  0.500000  1
  Dy  Dy5  1  0.535204  0.035204  0.828009  1
  Dy  Dy6  1  0.707195  0.535204  0.500000  1
  Dy  Dy7  1  0.964796  0.792805  0.500000  1
  Mg  Mg8  1  0.000000  0.000000  0.000000  1
  Mg  Mg9  1  0.500000  0.500000  0.000000  1
  Ni  Ni10  1  0.128062  0.628062  0.756125  1
  Ni  Ni11  1  0.871938  0.371938  0.243875  1
  Ni  Ni12  1  0.628062  0.871938  0.500000  1
  Ni  Ni13  1  0.371938  0.128062  0.500000  1
  Te  Te14  1  0.250000  0.250000  0.000000  1
  Te  Te15  1  0.750000  0.750000  0.000000  1
