# generated using pymatgen
data_TlHg3P2Cl3
_symmetry_space_group_name_H-M   'P 1'
_cell_length_a   6.17922200
_cell_length_b   12.31158400
_cell_length_c   12.24483600
_cell_angle_alpha   90.00000000
_cell_angle_beta   90.00000000
_cell_angle_gamma   90.00000000
_symmetry_Int_Tables_number   1
_chemical_formula_structural   TlHg3P2Cl3
_chemical_formula_sum   'Tl4 Hg12 P8 Cl12'
_cell_volume   931.53827465
_cell_formula_units_Z   4
loop_
 _symmetry_equiv_pos_site_id
 _symmetry_equiv_pos_as_xyz
  1  'x, y, z'
loop_
 _atom_site_type_symbol
 _atom_site_label
 _atom_site_symmetry_multiplicity
 _atom_site_fract_x
 _atom_site_fract_y
 _atom_site_fract_z
 _atom_site_occupancy
  Tl  Tl0  1  0.017718  0.252533  0.250000  1
  Tl  Tl1  1  0.982283  0.752532  0.250000  1
  Tl  Tl2  1  0.017718  0.247467  0.750000  1
  Tl  Tl3  1  0.982283  0.747468  0.750000  1
  Hg  Hg4  1  0.000000  0.000000  0.000000  1
  Hg  Hg5  1  0.447072  0.250000  0.000000  1
  Hg  Hg6  1  0.000000  0.500001  0.000000  1
  Hg  Hg7  1  0.552927  0.750000  0.000000  1
  Hg  Hg8  1  0.443085  0.025232  0.250000  1
  Hg  Hg9  1  0.556916  0.525231  0.250000  1
  Hg  Hg10  1  0.000000  0.000000  0.500000  1
  Hg  Hg11  1  0.447072  0.250000  0.500000  1
  Hg  Hg12  1  0.000000  0.500001  0.500000  1
  Hg  Hg13  1  0.552927  0.750000  0.500000  1
  Hg  Hg14  1  0.443085  0.474769  0.750000  1
  Hg  Hg15  1  0.556916  0.974768  0.750000  1
  P  P16  1  0.385552  0.051504  0.046118  1
  P  P17  1  0.614449  0.551504  0.046118  1
  P  P18  1  0.385552  0.051504  0.453882  1
  P  P19  1  0.614449  0.551504  0.453882  1
  P  P20  1  0.385552  0.448496  0.546117  1
  P  P21  1  0.614449  0.948496  0.546117  1
  P  P22  1  0.385552  0.448496  0.953882  1
  P  P23  1  0.614449  0.948496  0.953882  1
  Cl  Cl24  1  0.909457  0.250000  0.000000  1
  Cl  Cl25  1  0.090544  0.750000  0.000000  1
  Cl  Cl26  1  0.905646  0.003739  0.250000  1
  Cl  Cl27  1  0.537336  0.292382  0.250000  1
  Cl  Cl28  1  0.094353  0.503738  0.250000  1
  Cl  Cl29  1  0.462665  0.792382  0.250000  1
  Cl  Cl30  1  0.909457  0.250000  0.500000  1
  Cl  Cl31  1  0.090544  0.750000  0.500000  1
  Cl  Cl32  1  0.537336  0.207618  0.750000  1
  Cl  Cl33  1  0.905646  0.496262  0.750000  1
  Cl  Cl34  1  0.462665  0.707618  0.750000  1
  Cl  Cl35  1  0.094353  0.996261  0.750000  1
