# generated using pymatgen
data_Li14SnMoN8
_symmetry_space_group_name_H-M   'P 1'
_cell_length_a   7.07276700
_cell_length_b   7.07276700
_cell_length_c   5.01519400
_cell_angle_alpha   90.00000000
_cell_angle_beta   90.00000000
_cell_angle_gamma   90.00000000
_symmetry_Int_Tables_number   1
_chemical_formula_structural   Li14SnMoN8
_chemical_formula_sum   'Li14 Sn1 Mo1 N8'
_cell_volume   250.88023034
_cell_formula_units_Z   1
loop_
 _symmetry_equiv_pos_site_id
 _symmetry_equiv_pos_as_xyz
  1  'x, y, z'
loop_
 _atom_site_type_symbol
 _atom_site_label
 _atom_site_symmetry_multiplicity
 _atom_site_fract_x
 _atom_site_fract_y
 _atom_site_fract_z
 _atom_site_occupancy
  Li  Li0  1  0.500000  0.000000  0.530813  1
  Li  Li1  1  0.232604  0.767396  0.000000  1
  Li  Li2  1  0.000000  0.500000  0.934217  1
  Li  Li3  1  0.767396  0.232604  0.000000  1
  Li  Li4  1  0.263093  0.736907  0.500000  1
  Li  Li5  1  0.000000  0.000000  0.000000  1
  Li  Li6  1  0.500000  0.000000  0.065783  1
  Li  Li7  1  0.736907  0.736907  0.500000  1
  Li  Li8  1  0.263093  0.263093  0.500000  1
  Li  Li9  1  0.232604  0.232604  0.000000  1
  Li  Li10  1  0.767396  0.767396  0.000000  1
  Li  Li11  1  0.736907  0.263093  0.500000  1
  Li  Li12  1  0.000000  0.500000  0.469187  1
  Li  Li13  1  0.500000  0.500000  0.500000  1
  Sn  Sn14  1  0.000000  0.000000  0.500000  1
  Mo  Mo15  1  0.500000  0.500000  0.000000  1
  N  N16  1  0.000000  0.250390  0.732493  1
  N  N17  1  0.281693  0.500000  0.220227  1
  N  N18  1  0.500000  0.281693  0.779773  1
  N  N19  1  0.000000  0.749610  0.732493  1
  N  N20  1  0.500000  0.718307  0.779773  1
  N  N21  1  0.749610  0.000000  0.267507  1
  N  N22  1  0.718307  0.500000  0.220227  1
  N  N23  1  0.250390  0.000000  0.267507  1
