# generated using pymatgen
data_Nd5Np4(AgO8)3
_symmetry_space_group_name_H-M   'P 1'
_cell_length_a   5.51761535
_cell_length_b   9.53812437
_cell_length_c   10.53705455
_cell_angle_alpha   89.86520418
_cell_angle_beta   90.11941276
_cell_angle_gamma   89.94973547
_symmetry_Int_Tables_number   1
_chemical_formula_structural   Nd5Np4(AgO8)3
_chemical_formula_sum   'Nd5 Np4 Ag3 O24'
_cell_volume   554.53800569
_cell_formula_units_Z   1
loop_
 _symmetry_equiv_pos_site_id
 _symmetry_equiv_pos_as_xyz
  1  'x, y, z'
loop_
 _atom_site_type_symbol
 _atom_site_label
 _atom_site_symmetry_multiplicity
 _atom_site_fract_x
 _atom_site_fract_y
 _atom_site_fract_z
 _atom_site_occupancy
  Nd  Nd0  1  0.033818  0.381215  0.044742  1
  Nd  Nd1  1  0.975192  0.785094  0.873735  1
  Nd  Nd2  1  0.455761  0.717228  0.131075  1
  Nd  Nd3  1  0.032832  0.279859  0.628518  1
  Nd  Nd4  1  0.523594  0.219916  0.372122  1
  Np  Np5  1  0.461316  0.991752  0.645785  1
  Np  Np6  1  0.952472  0.507080  0.357408  1
  Np  Np7  1  0.550030  0.495888  0.848755  1
  Np  Np8  1  0.033389  0.007063  0.148542  1
  Ag  Ag9  1  0.470800  0.625847  0.552126  1
  Ag  Ag10  1  0.941043  0.863961  0.415538  1
  Ag  Ag11  1  0.557843  0.132359  0.910085  1
  O  O12  1  0.244197  0.085767  0.510591  1
  O  O13  1  0.738533  0.411935  0.491893  1
  O  O14  1  0.749455  0.576301  0.995796  1
  O  O15  1  0.252664  0.917641  0.015028  1
  O  O16  1  0.696651  0.134308  0.575650  1
  O  O17  1  0.200812  0.372634  0.434237  1
  O  O18  1  0.271601  0.611991  0.937908  1
  O  O19  1  0.803865  0.860658  0.078365  1
  O  O20  1  0.620841  0.851074  0.531484  1
  O  O21  1  0.086684  0.658201  0.469978  1
  O  O22  1  0.425821  0.338972  0.964475  1
  O  O23  1  0.872616  0.148848  0.030160  1
  O  O24  1  0.216217  0.869968  0.262574  1
  O  O25  1  0.703590  0.646392  0.749562  1
  O  O26  1  0.804279  0.360832  0.242343  1
  O  O27  1  0.288440  0.134743  0.759075  1
  O  O28  1  0.800291  0.042656  0.296186  1
  O  O29  1  0.340459  0.442890  0.706034  1
  O  O30  1  0.177061  0.540507  0.202413  1
  O  O31  1  0.694578  0.956791  0.800023  1
  O  O32  1  0.249235  0.168698  0.192425  1
  O  O33  1  0.849204  0.369174  0.821047  1
  O  O34  1  0.698497  0.640372  0.300792  1
  O  O35  1  0.226315  0.851385  0.703530  1
