# generated using pymatgen
data_Sc2UCo2Si7
_symmetry_space_group_name_H-M   'P 1'
_cell_length_a   3.94508710
_cell_length_b   3.92562000
_cell_length_c   12.20552117
_cell_angle_alpha   90.00000000
_cell_angle_beta   99.30040638
_cell_angle_gamma   90.00000000
_symmetry_Int_Tables_number   1
_chemical_formula_structural   Sc2UCo2Si7
_chemical_formula_sum   'Sc2 U1 Co2 Si7'
_cell_volume   186.54101622
_cell_formula_units_Z   1
loop_
 _symmetry_equiv_pos_site_id
 _symmetry_equiv_pos_as_xyz
  1  'x, y, z'
loop_
 _atom_site_type_symbol
 _atom_site_label
 _atom_site_symmetry_multiplicity
 _atom_site_fract_x
 _atom_site_fract_y
 _atom_site_fract_z
 _atom_site_occupancy
  Sc  Sc0  1  0.315069  0.000000  0.630139  1
  Sc  Sc1  1  0.684931  0.000000  0.369861  1
  U  U2  1  0.000000  0.500000  0.000000  1
  Co  Co3  1  0.130731  0.500000  0.261463  1
  Co  Co4  1  0.869269  0.500000  0.738537  1
  Si  Si5  1  0.500000  0.000000  0.000000  1
  Si  Si6  1  0.411438  0.500000  0.822876  1
  Si  Si7  1  0.588562  0.500000  0.177124  1
  Si  Si8  1  0.088195  0.000000  0.176391  1
  Si  Si9  1  0.911805  0.000000  0.823609  1
  Si  Si10  1  0.222123  0.500000  0.444247  1
  Si  Si11  1  0.777877  0.500000  0.555753  1
