# generated using pymatgen
data_ScMnGaB2Ir5
_symmetry_space_group_name_H-M   'P 1'
_cell_length_a   9.43595500
_cell_length_b   9.45148000
_cell_length_c   2.98718200
_cell_angle_alpha   90.00000000
_cell_angle_beta   90.00000000
_cell_angle_gamma   90.00000000
_symmetry_Int_Tables_number   1
_chemical_formula_structural   ScMnGaB2Ir5
_chemical_formula_sum   'Sc2 Mn2 Ga2 B4 Ir10'
_cell_volume   266.40806271
_cell_formula_units_Z   2
loop_
 _symmetry_equiv_pos_site_id
 _symmetry_equiv_pos_as_xyz
  1  'x, y, z'
loop_
 _atom_site_type_symbol
 _atom_site_label
 _atom_site_symmetry_multiplicity
 _atom_site_fract_x
 _atom_site_fract_y
 _atom_site_fract_z
 _atom_site_occupancy
  Sc  Sc0  1  0.173549  0.675862  0.000000  1
  Sc  Sc1  1  0.326451  0.175862  0.000000  1
  Mn  Mn2  1  0.679126  0.821251  0.000000  1
  Mn  Mn3  1  0.820874  0.321251  0.000000  1
  Ga  Ga4  1  0.002772  0.999070  0.000000  1
  Ga  Ga5  1  0.497228  0.499070  0.000000  1
  B  B6  1  0.121483  0.375014  0.000000  1
  B  B7  1  0.378517  0.875014  0.000000  1
  B  B8  1  0.630064  0.127209  0.000000  1
  B  B9  1  0.869936  0.627209  0.000000  1
  Ir  Ir10  1  0.993465  0.497267  0.500000  1
  Ir  Ir11  1  0.069305  0.215801  0.500000  1
  Ir  Ir12  1  0.218945  0.930898  0.500000  1
  Ir  Ir13  1  0.281055  0.430898  0.500000  1
  Ir  Ir14  1  0.430695  0.715801  0.500000  1
  Ir  Ir15  1  0.506535  0.997267  0.500000  1
  Ir  Ir16  1  0.571497  0.285122  0.500000  1
  Ir  Ir17  1  0.711612  0.572507  0.500000  1
  Ir  Ir18  1  0.788388  0.072507  0.500000  1
  Ir  Ir19  1  0.928503  0.785122  0.500000  1
