# generated using pymatgen
data_KNdSiSe4
_symmetry_space_group_name_H-M   'P 1'
_cell_length_a   7.07646300
_cell_length_b   6.84719234
_cell_length_c   9.21432612
_cell_angle_alpha   72.18498858
_cell_angle_beta   90.00000000
_cell_angle_gamma   90.00000000
_symmetry_Int_Tables_number   1
_chemical_formula_structural   KNdSiSe4
_chemical_formula_sum   'K2 Nd2 Si2 Se8'
_cell_volume   425.06150017
_cell_formula_units_Z   2
loop_
 _symmetry_equiv_pos_site_id
 _symmetry_equiv_pos_as_xyz
  1  'x, y, z'
loop_
 _atom_site_type_symbol
 _atom_site_label
 _atom_site_symmetry_multiplicity
 _atom_site_fract_x
 _atom_site_fract_y
 _atom_site_fract_z
 _atom_site_occupancy
  K  K0  1  0.979592  0.734396  0.065576  1
  K  K1  1  0.479592  0.265604  0.934424  1
  Nd  Nd2  1  0.496806  0.228998  0.450002  1
  Nd  Nd3  1  0.996806  0.771002  0.549998  1
  Si  Si4  1  0.462225  0.781829  0.324438  1
  Si  Si5  1  0.962225  0.218171  0.675562  1
  Se  Se6  1  0.461750  0.586013  0.165526  1
  Se  Se7  1  0.228414  0.026663  0.272695  1
  Se  Se8  1  0.731339  0.979538  0.291299  1
  Se  Se9  1  0.906875  0.415886  0.429606  1
  Se  Se10  1  0.406875  0.584114  0.570394  1
  Se  Se11  1  0.231339  0.020462  0.708701  1
  Se  Se12  1  0.728414  0.973337  0.727305  1
  Se  Se13  1  0.961750  0.413987  0.834474  1
