# generated using pymatgen
data_Rb(MnSe2)4
_symmetry_space_group_name_H-M   'P 1'
_cell_length_a   9.55724017
_cell_length_b   9.55724016
_cell_length_c   9.55724075
_cell_angle_alpha   43.32511798
_cell_angle_beta   43.32511675
_cell_angle_gamma   43.32512143
_symmetry_Int_Tables_number   1
_chemical_formula_structural   Rb(MnSe2)4
_chemical_formula_sum   'Rb1 Mn4 Se8'
_cell_volume   372.76009895
_cell_formula_units_Z   1
loop_
 _symmetry_equiv_pos_site_id
 _symmetry_equiv_pos_as_xyz
  1  'x, y, z'
loop_
 _atom_site_type_symbol
 _atom_site_label
 _atom_site_symmetry_multiplicity
 _atom_site_fract_x
 _atom_site_fract_y
 _atom_site_fract_z
 _atom_site_occupancy
  Rb  Rb0  1  0.500000  0.500000  0.500000  1
  Mn  Mn1  1  0.000000  0.500000  0.500000  1
  Mn  Mn2  1  0.500000  0.000000  0.500000  1
  Mn  Mn3  1  0.500000  0.500000  0.000000  1
  Mn  Mn4  1  0.000000  0.000000  0.000000  1
  Se  Se5  1  0.277855  0.779747  0.779747  1
  Se  Se6  1  0.220253  0.220253  0.722145  1
  Se  Se7  1  0.722145  0.220253  0.220253  1
  Se  Se8  1  0.220253  0.722145  0.220253  1
  Se  Se9  1  0.278800  0.278800  0.278800  1
  Se  Se10  1  0.721200  0.721200  0.721200  1
  Se  Se11  1  0.779747  0.277855  0.779747  1
  Se  Se12  1  0.779747  0.779747  0.277855  1
