# generated using pymatgen
data_Mg5Co14P12Ru5
_symmetry_space_group_name_H-M   'P 1'
_cell_length_a   12.01017136
_cell_length_b   11.93923963
_cell_length_c   3.61712500
_cell_angle_alpha   90.00000000
_cell_angle_beta   90.00000000
_cell_angle_gamma   120.16250071
_symmetry_Int_Tables_number   1
_chemical_formula_structural   Mg5Co14P12Ru5
_chemical_formula_sum   'Mg5 Co14 P12 Ru5'
_cell_volume   448.44227624
_cell_formula_units_Z   1
loop_
 _symmetry_equiv_pos_site_id
 _symmetry_equiv_pos_as_xyz
  1  'x, y, z'
loop_
 _atom_site_type_symbol
 _atom_site_label
 _atom_site_symmetry_multiplicity
 _atom_site_fract_x
 _atom_site_fract_y
 _atom_site_fract_z
 _atom_site_occupancy
  Mg  Mg0  1  0.663833  0.333557  0.000000  1
  Mg  Mg1  1  0.333231  0.666901  0.000000  1
  Mg  Mg2  1  0.181133  0.180145  0.500000  1
  Mg  Mg3  1  0.820592  0.000364  0.500000  1
  Mg  Mg4  1  0.999317  0.821121  0.500000  1
  Co  Co5  1  0.829994  0.193842  0.000000  1
  Co  Co6  1  0.802208  0.632027  0.000000  1
  Co  Co7  1  0.371596  0.177746  0.000000  1
  Co  Co8  1  0.192121  0.820686  0.000000  1
  Co  Co9  1  0.624911  0.805574  0.000000  1
  Co  Co10  1  0.182132  0.372683  0.000000  1
  Co  Co11  1  0.477107  0.351853  0.500000  1
  Co  Co12  1  0.135658  0.647747  0.500000  1
  Co  Co13  1  0.512523  0.865012  0.500000  1
  Co  Co14  1  0.353243  0.482244  0.500000  1
  Co  Co15  1  0.715904  0.721246  0.500000  1
  Co  Co16  1  0.278515  0.998979  0.500000  1
  Co  Co17  1  0.006349  0.281498  0.500000  1
  Co  Co18  1  0.000011  0.999036  0.000000  1
  P  P19  1  0.357946  0.357635  0.000000  1
  P  P20  1  0.638482  0.996322  0.000000  1
  P  P21  1  0.002987  0.643148  0.000000  1
  P  P22  1  0.843860  0.318879  0.500000  1
  P  P23  1  0.676161  0.518900  0.500000  1
  P  P24  1  0.478060  0.165388  0.500000  1
  P  P25  1  0.316261  0.834360  0.500000  1
  P  P26  1  0.515456  0.681883  0.500000  1
  P  P27  1  0.169307  0.483454  0.500000  1
  P  P28  1  0.821220  0.825333  0.000000  1
  P  P29  1  0.175414  0.998912  0.000000  1
  P  P30  1  0.004310  0.176836  0.000000  1
  Ru  Ru31  1  0.548328  0.551581  0.000000  1
  Ru  Ru32  1  0.441771  0.992690  0.000000  1
  Ru  Ru33  1  0.009912  0.450971  0.000000  1
  Ru  Ru34  1  0.648541  0.129549  0.500000  1
  Ru  Ru35  1  0.871605  0.521899  0.500000  1
