# generated using pymatgen
data_Tb9Lu(In2Co)4
_symmetry_space_group_name_H-M   'P 1'
_cell_length_a   3.58180800
_cell_length_b   7.94414160
_cell_length_c   18.06292668
_cell_angle_alpha   90.07295805
_cell_angle_beta   90.00000000
_cell_angle_gamma   90.00000000
_symmetry_Int_Tables_number   1
_chemical_formula_structural   Tb9Lu(In2Co)4
_chemical_formula_sum   'Tb9 Lu1 In8 Co4'
_cell_volume   513.96914257
_cell_formula_units_Z   1
loop_
 _symmetry_equiv_pos_site_id
 _symmetry_equiv_pos_as_xyz
  1  'x, y, z'
loop_
 _atom_site_type_symbol
 _atom_site_label
 _atom_site_symmetry_multiplicity
 _atom_site_fract_x
 _atom_site_fract_y
 _atom_site_fract_z
 _atom_site_occupancy
  Tb  Tb0  1  0.000000  0.880688  0.091726  1
  Tb  Tb1  1  0.000000  0.748216  0.278398  1
  Tb  Tb2  1  0.000000  0.750364  0.776891  1
  Tb  Tb3  1  0.000000  0.382408  0.408915  1
  Tb  Tb4  1  0.000000  0.117844  0.907620  1
  Tb  Tb5  1  0.000000  0.250994  0.720814  1
  Tb  Tb6  1  0.000000  0.499162  0.999477  1
  Tb  Tb7  1  0.000000  0.247749  0.222859  1
  Tb  Tb8  1  0.000000  0.002099  0.500777  1
  Lu  Lu9  1  0.000000  0.618269  0.592740  1
  In  In10  1  0.500000  0.203051  0.070149  1
  In  In11  1  0.500000  0.435658  0.846302  1
  In  In12  1  0.500000  0.562942  0.152469  1
  In  In13  1  0.500000  0.063664  0.348610  1
  In  In14  1  0.500000  0.931114  0.651420  1
  In  In15  1  0.500000  0.795871  0.929713  1
  In  In16  1  0.500000  0.703900  0.432447  1
  In  In17  1  0.500000  0.302944  0.569110  1
  Co  Co18  1  0.500000  0.979120  0.195651  1
  Co  Co19  1  0.500000  0.018921  0.804433  1
  Co  Co20  1  0.500000  0.523400  0.693724  1
  Co  Co21  1  0.500000  0.481623  0.305755  1
