# generated using pymatgen
data_Li8Nd7ThSn7Pb
_symmetry_space_group_name_H-M   'P 1'
_cell_length_a   9.56945800
_cell_length_b   9.57066905
_cell_length_c   7.63299802
_cell_angle_alpha   89.98917699
_cell_angle_beta   90.00000000
_cell_angle_gamma   119.99581426
_symmetry_Int_Tables_number   1
_chemical_formula_structural   Li8Nd7ThSn7Pb
_chemical_formula_sum   'Li8 Nd7 Th1 Sn7 Pb1'
_cell_volume   605.44364702
_cell_formula_units_Z   1
loop_
 _symmetry_equiv_pos_site_id
 _symmetry_equiv_pos_as_xyz
  1  'x, y, z'
loop_
 _atom_site_type_symbol
 _atom_site_label
 _atom_site_symmetry_multiplicity
 _atom_site_fract_x
 _atom_site_fract_y
 _atom_site_fract_z
 _atom_site_occupancy
  Li  Li0  1  0.167143  0.334287  0.285794  1
  Li  Li1  1  0.164430  0.831946  0.285262  1
  Li  Li2  1  0.667516  0.831946  0.285262  1
  Li  Li3  1  0.833233  0.666464  0.789538  1
  Li  Li4  1  0.832694  0.166996  0.788403  1
  Li  Li5  1  0.334301  0.166996  0.788403  1
  Li  Li6  1  0.332694  0.665390  0.673149  1
  Li  Li7  1  0.666690  0.333380  0.170657  1
  Nd  Nd8  1  0.513186  0.489672  0.494154  1
  Nd  Nd9  1  0.976485  0.489672  0.494154  1
  Nd  Nd10  1  0.488309  0.976616  0.994246  1
  Nd  Nd11  1  0.490092  0.512747  0.995697  1
  Nd  Nd12  1  0.022655  0.512747  0.995697  1
  Nd  Nd13  1  0.999635  0.999269  0.497617  1
  Nd  Nd14  1  0.999705  0.999412  0.999502  1
  Th  Th15  1  0.510666  0.021334  0.494401  1
  Sn  Sn16  1  0.168366  0.834534  0.727752  1
  Sn  Sn17  1  0.666168  0.834534  0.727752  1
  Sn  Sn18  1  0.833140  0.666279  0.228109  1
  Sn  Sn19  1  0.832006  0.166139  0.232353  1
  Sn  Sn20  1  0.334133  0.166139  0.232353  1
  Sn  Sn21  1  0.333972  0.667944  0.268088  1
  Sn  Sn22  1  0.665966  0.331932  0.763632  1
  Pb  Pb23  1  0.166813  0.333627  0.729999  1
