# generated using pymatgen
data_NaTa13O33
_symmetry_space_group_name_H-M   'P 1'
_cell_length_a   11.59430829
_cell_length_b   11.59430780
_cell_length_c   15.70028700
_cell_angle_alpha   88.24650913
_cell_angle_beta   88.24650920
_cell_angle_gamma   19.17360679
_symmetry_Int_Tables_number   1
_chemical_formula_structural   NaTa13O33
_chemical_formula_sum   'Na1 Ta13 O33'
_cell_volume   692.84000763
_cell_formula_units_Z   1
loop_
 _symmetry_equiv_pos_site_id
 _symmetry_equiv_pos_as_xyz
  1  'x, y, z'
loop_
 _atom_site_type_symbol
 _atom_site_label
 _atom_site_symmetry_multiplicity
 _atom_site_fract_x
 _atom_site_fract_y
 _atom_site_fract_z
 _atom_site_occupancy
  Na  Na0  1  0.500000  0.500000  0.500000  1
  Ta  Ta1  1  0.931541  0.931541  0.229767  1
  Ta  Ta2  1  0.910614  0.910614  0.680631  1
  Ta  Ta3  1  0.861860  0.861860  0.470290  1
  Ta  Ta4  1  0.843158  0.843158  0.910436  1
  Ta  Ta5  1  0.776036  0.776036  0.140341  1
  Ta  Ta6  1  0.708204  0.708204  0.372785  1
  Ta  Ta7  1  0.000000  0.000000  0.000000  1
  Ta  Ta8  1  0.291796  0.291796  0.627215  1
  Ta  Ta9  1  0.223964  0.223964  0.859659  1
  Ta  Ta10  1  0.156842  0.156842  0.089564  1
  Ta  Ta11  1  0.138140  0.138140  0.529710  1
  Ta  Ta12  1  0.089386  0.089386  0.319369  1
  Ta  Ta13  1  0.068459  0.068459  0.770233  1
  O  O14  1  0.986804  0.986804  0.711402  1
  O  O15  1  0.965934  0.965934  0.120291  1
  O  O16  1  0.927568  0.927568  0.548886  1
  O  O17  1  0.917589  0.917589  0.953094  1
  O  O18  1  0.900702  0.900702  0.369046  1
  O  O19  1  0.870967  0.870967  0.790129  1
  O  O20  1  0.848735  0.848735  0.192595  1
  O  O21  1  0.815482  0.815482  0.614443  1
  O  O22  1  0.804934  0.804934  0.026929  1
  O  O23  1  0.777799  0.777799  0.429572  1
  O  O24  1  0.747204  0.747204  0.862850  1
  O  O25  1  0.735493  0.735493  0.262979  1
  O  O26  1  0.680293  0.680293  0.099389  1
  O  O27  1  0.654540  0.654540  0.500542  1
  O  O28  1  0.612530  0.612530  0.333815  1
  O  O29  1  0.570493  0.570493  0.751087  1
  O  O30  1  0.500000  0.500000  0.000000  1
  O  O31  1  0.429507  0.429507  0.248913  1
  O  O32  1  0.387470  0.387470  0.666185  1
  O  O33  1  0.345460  0.345460  0.499458  1
  O  O34  1  0.319707  0.319707  0.900611  1
  O  O35  1  0.264507  0.264507  0.737021  1
  O  O36  1  0.252796  0.252796  0.137150  1
  O  O37  1  0.222201  0.222201  0.570428  1
  O  O38  1  0.195066  0.195066  0.973071  1
  O  O39  1  0.184518  0.184518  0.385557  1
  O  O40  1  0.151265  0.151265  0.807405  1
  O  O41  1  0.129033  0.129033  0.209871  1
  O  O42  1  0.099298  0.099298  0.630954  1
  O  O43  1  0.082411  0.082411  0.046906  1
  O  O44  1  0.072432  0.072432  0.451114  1
  O  O45  1  0.034066  0.034066  0.879709  1
  O  O46  1  0.013196  0.013196  0.288598  1
