# generated using pymatgen
data_Cs12Mn(FeS4)3
_symmetry_space_group_name_H-M   'P 1'
_cell_length_a   10.44956841
_cell_length_b   10.44956836
_cell_length_c   13.44197154
_cell_angle_alpha   89.82497826
_cell_angle_beta   89.82498117
_cell_angle_gamma   137.85217680
_symmetry_Int_Tables_number   1
_chemical_formula_structural   Cs12Mn(FeS4)3
_chemical_formula_sum   'Cs12 Mn1 Fe3 S12'
_cell_volume   984.90897978
_cell_formula_units_Z   1
loop_
 _symmetry_equiv_pos_site_id
 _symmetry_equiv_pos_as_xyz
  1  'x, y, z'
loop_
 _atom_site_type_symbol
 _atom_site_label
 _atom_site_symmetry_multiplicity
 _atom_site_fract_x
 _atom_site_fract_y
 _atom_site_fract_z
 _atom_site_occupancy
  Cs  Cs0  1  0.873669  0.872479  0.677243  1
  Cs  Cs1  1  0.127521  0.126331  0.322757  1
  Cs  Cs2  1  0.620798  0.618202  0.190094  1
  Cs  Cs3  1  0.381798  0.379202  0.809906  1
  Cs  Cs4  1  0.161145  0.519686  0.129219  1
  Cs  Cs5  1  0.480314  0.838855  0.870781  1
  Cs  Cs6  1  0.988973  0.341921  0.622110  1
  Cs  Cs7  1  0.658079  0.011027  0.377890  1
  Cs  Cs8  1  0.841723  0.487306  0.873642  1
  Cs  Cs9  1  0.512694  0.158277  0.126358  1
  Cs  Cs10  1  0.012401  0.660065  0.377232  1
  Cs  Cs11  1  0.339935  0.987599  0.622768  1
  Mn  Mn12  1  0.928912  0.071088  0.000000  1
  Fe  Fe13  1  0.423026  0.576974  0.500000  1
  Fe  Fe14  1  0.074085  0.925915  0.000000  1
  Fe  Fe15  1  0.577256  0.422744  0.500000  1
  S  S16  1  0.287503  0.287744  0.563329  1
  S  S17  1  0.712256  0.712497  0.436671  1
  S  S18  1  0.202585  0.207717  0.057611  1
  S  S19  1  0.792283  0.797415  0.942389  1
  S  S20  1  0.734881  0.012665  0.109539  1
  S  S21  1  0.987335  0.265119  0.890461  1
  S  S22  1  0.483712  0.769610  0.620994  1
  S  S23  1  0.230390  0.516288  0.379006  1
  S  S24  1  0.268801  0.988179  0.882356  1
  S  S25  1  0.011821  0.731199  0.117644  1
  S  S26  1  0.517128  0.231020  0.378612  1
  S  S27  1  0.768980  0.482872  0.621388  1
