# generated using pymatgen
data_Ho16In2NiAg2Ir3
_symmetry_space_group_name_H-M   'P 1'
_cell_length_a   9.50657033
_cell_length_b   9.55344179
_cell_length_c   9.55105100
_cell_angle_alpha   60.00828147
_cell_angle_beta   59.84510432
_cell_angle_gamma   59.72252334
_symmetry_Int_Tables_number   1
_chemical_formula_structural   Ho16In2NiAg2Ir3
_chemical_formula_sum   'Ho16 In2 Ni1 Ag2 Ir3'
_cell_volume   611.39096303
_cell_formula_units_Z   1
loop_
 _symmetry_equiv_pos_site_id
 _symmetry_equiv_pos_as_xyz
  1  'x, y, z'
loop_
 _atom_site_type_symbol
 _atom_site_label
 _atom_site_symmetry_multiplicity
 _atom_site_fract_x
 _atom_site_fract_y
 _atom_site_fract_z
 _atom_site_occupancy
  Ho  Ho0  1  0.440660  0.435838  0.061751  1
  Ho  Ho1  1  0.646824  0.652352  0.048959  1
  Ho  Ho2  1  0.191860  0.810600  0.189014  1
  Ho  Ho3  1  0.064531  0.439931  0.057895  1
  Ho  Ho4  1  0.191860  0.810600  0.808526  1
  Ho  Ho5  1  0.064531  0.439931  0.437642  1
  Ho  Ho6  1  0.811329  0.190357  0.190246  1
  Ho  Ho7  1  0.646824  0.652352  0.651867  1
  Ho  Ho8  1  0.811329  0.190357  0.808068  1
  Ho  Ho9  1  0.190965  0.187185  0.810925  1
  Ho  Ho10  1  0.052805  0.648132  0.649531  1
  Ho  Ho11  1  0.439940  0.067049  0.060002  1
  Ho  Ho12  1  0.061073  0.062192  0.438367  1
  Ho  Ho13  1  0.645682  0.050148  0.652086  1
  Ho  Ho14  1  0.809270  0.807721  0.191505  1
  Ho  Ho15  1  0.439940  0.067049  0.433009  1
  In  In16  1  0.417765  0.743298  0.419469  1
  In  In17  1  0.741707  0.416747  0.420774  1
  Ni  Ni18  1  0.424594  0.857751  0.858827  1
  Ag  Ag19  1  0.417422  0.414867  0.417303  1
  Ag  Ag20  1  0.417422  0.414867  0.750409  1
  Ir  Ir21  1  0.857186  0.857222  0.858853  1
  Ir  Ir22  1  0.857296  0.426232  0.858235  1
  Ir  Ir23  1  0.857186  0.857222  0.426738  1
