# generated using pymatgen
data_Li2Zn20IrPd3
_symmetry_space_group_name_H-M   'P 1'
_cell_length_a   7.92955834
_cell_length_b   7.92955879
_cell_length_c   7.90724704
_cell_angle_alpha   70.87692157
_cell_angle_beta   70.87691864
_cell_angle_gamma   109.97387218
_symmetry_Int_Tables_number   1
_chemical_formula_structural   Li2Zn20IrPd3
_chemical_formula_sum   'Li2 Zn20 Ir1 Pd3'
_cell_volume   383.62854302
_cell_formula_units_Z   1
loop_
 _symmetry_equiv_pos_site_id
 _symmetry_equiv_pos_as_xyz
  1  'x, y, z'
loop_
 _atom_site_type_symbol
 _atom_site_label
 _atom_site_symmetry_multiplicity
 _atom_site_fract_x
 _atom_site_fract_y
 _atom_site_fract_z
 _atom_site_occupancy
  Li  Li0  1  0.999440  0.354286  0.649470  1
  Li  Li1  1  0.354286  0.999440  0.649470  1
  Zn  Zn2  1  0.001073  0.001073  0.786792  1
  Zn  Zn3  1  0.782070  0.782070  0.219029  1
  Zn  Zn4  1  0.214150  0.002030  0.998104  1
  Zn  Zn5  1  0.002030  0.214150  0.998104  1
  Zn  Zn6  1  0.269916  0.269916  0.384546  1
  Zn  Zn7  1  0.003502  0.735007  0.647226  1
  Zn  Zn8  1  0.735007  0.003502  0.647226  1
  Zn  Zn9  1  0.652118  0.652118  0.620449  1
  Zn  Zn10  1  0.374186  0.647992  0.352127  1
  Zn  Zn11  1  0.647992  0.374186  0.352127  1
  Zn  Zn12  1  0.350521  0.730436  0.992500  1
  Zn  Zn13  1  0.623158  0.268586  0.723698  1
  Zn  Zn14  1  0.349916  0.997673  0.272044  1
  Zn  Zn15  1  0.730436  0.350521  0.992500  1
  Zn  Zn16  1  0.997673  0.349916  0.272044  1
  Zn  Zn17  1  0.268586  0.623158  0.723698  1
  Zn  Zn18  1  0.637942  0.637942  0.011919  1
  Zn  Zn19  1  0.000656  0.643963  0.355244  1
  Zn  Zn20  1  0.643963  0.000656  0.355244  1
  Zn  Zn21  1  0.358605  0.358605  0.000309  1
  Ir  Ir22  1  0.002749  0.002749  0.345710  1
  Pd  Pd23  1  0.349041  0.349041  0.653480  1
  Pd  Pd24  1  0.652105  0.998879  0.998471  1
  Pd  Pd25  1  0.998879  0.652105  0.998471  1
