# generated using pymatgen
data_SmTh(Ga2Ir3)2
_symmetry_space_group_name_H-M   'P 1'
_cell_length_a   6.84418645
_cell_length_b   6.84418537
_cell_length_c   6.84418700
_cell_angle_alpha   131.22714484
_cell_angle_beta   110.88172611
_cell_angle_gamma   89.11269245
_symmetry_Int_Tables_number   1
_chemical_formula_structural   SmTh(Ga2Ir3)2
_chemical_formula_sum   'Sm1 Th1 Ga4 Ir6'
_cell_volume   214.02272625
_cell_formula_units_Z   1
loop_
 _symmetry_equiv_pos_site_id
 _symmetry_equiv_pos_as_xyz
  1  'x, y, z'
loop_
 _atom_site_type_symbol
 _atom_site_label
 _atom_site_symmetry_multiplicity
 _atom_site_fract_x
 _atom_site_fract_y
 _atom_site_fract_z
 _atom_site_occupancy
  Sm  Sm0  1  0.750000  0.038097  0.288097  1
  Th  Th1  1  0.250000  0.950560  0.700560  1
  Ga  Ga2  1  0.078163  0.285785  0.207622  1
  Ga  Ga3  1  0.911827  0.698966  0.787138  1
  Ga  Ga4  1  0.421837  0.629457  0.207622  1
  Ga  Ga5  1  0.588173  0.375311  0.787138  1
  Ir  Ir6  1  0.494058  0.498296  0.492355  1
  Ir  Ir7  1  0.005942  0.498296  0.004237  1
  Ir  Ir8  1  0.266493  0.001345  0.277764  1
  Ir  Ir9  1  0.723582  0.001345  0.734853  1
  Ir  Ir10  1  0.233507  0.511271  0.734853  1
  Ir  Ir11  1  0.776418  0.511271  0.277764  1
