# generated using pymatgen
data_Tb11Dy5Cd4(CoOs)2
_symmetry_space_group_name_H-M   'P 1'
_cell_length_a   9.70236030
_cell_length_b   9.60495901
_cell_length_c   9.60511627
_cell_angle_alpha   59.26781018
_cell_angle_beta   59.44389628
_cell_angle_gamma   59.45735648
_symmetry_Int_Tables_number   1
_chemical_formula_structural   Tb11Dy5Cd4(CoOs)2
_chemical_formula_sum   'Tb11 Dy5 Cd4 Co2 Os2'
_cell_volume   624.14164486
_cell_formula_units_Z   1
loop_
 _symmetry_equiv_pos_site_id
 _symmetry_equiv_pos_as_xyz
  1  'x, y, z'
loop_
 _atom_site_type_symbol
 _atom_site_label
 _atom_site_symmetry_multiplicity
 _atom_site_fract_x
 _atom_site_fract_y
 _atom_site_fract_z
 _atom_site_occupancy
  Tb  Tb0  1  0.815572  0.188646  0.805874  1
  Tb  Tb1  1  0.439540  0.056789  0.436647  1
  Tb  Tb2  1  0.593638  0.210636  0.603117  1
  Tb  Tb3  1  0.815531  0.805857  0.188671  1
  Tb  Tb4  1  0.211826  0.600501  0.599709  1
  Tb  Tb5  1  0.807487  0.192572  0.192554  1
  Tb  Tb6  1  0.060872  0.438853  0.438863  1
  Tb  Tb7  1  0.190022  0.806196  0.189330  1
  Tb  Tb8  1  0.593289  0.603218  0.210757  1
  Tb  Tb9  1  0.190133  0.189348  0.806137  1
  Tb  Tb10  1  0.065332  0.435439  0.057258  1
  Dy  Dy11  1  0.439813  0.437015  0.056687  1
  Dy  Dy12  1  0.590763  0.599237  0.599544  1
  Dy  Dy13  1  0.186746  0.813275  0.813417  1
  Dy  Dy14  1  0.064983  0.057041  0.435778  1
  Dy  Dy15  1  0.438850  0.060290  0.060449  1
  Cd  Cd16  1  0.830475  0.829571  0.507573  1
  Cd  Cd17  1  0.831091  0.829851  0.829584  1
  Cd  Cd18  1  0.507696  0.829437  0.829712  1
  Cd  Cd19  1  0.830307  0.507583  0.829592  1
  Co  Co20  1  0.388777  0.831462  0.394205  1
  Co  Co21  1  0.389038  0.394247  0.831463  1
  Os  Os22  1  0.388796  0.390978  0.390799  1
  Os  Os23  1  0.829422  0.391955  0.392280  1
