# generated using pymatgen
data_Tm5In4CuPd
_symmetry_space_group_name_H-M   'P 1'
_cell_length_a   3.60545400
_cell_length_b   8.03553050
_cell_length_c   18.05042000
_cell_angle_alpha   90.10502231
_cell_angle_beta   90.00000000
_cell_angle_gamma   90.00000000
_symmetry_Int_Tables_number   1
_chemical_formula_structural   Tm5In4CuPd
_chemical_formula_sum   'Tm10 In8 Cu2 Pd2'
_cell_volume   522.95111683
_cell_formula_units_Z   2
loop_
 _symmetry_equiv_pos_site_id
 _symmetry_equiv_pos_as_xyz
  1  'x, y, z'
loop_
 _atom_site_type_symbol
 _atom_site_label
 _atom_site_symmetry_multiplicity
 _atom_site_fract_x
 _atom_site_fract_y
 _atom_site_fract_z
 _atom_site_occupancy
  Tm  Tm0  1  0.000000  0.500000  0.500000  1
  Tm  Tm1  1  0.000000  0.000000  0.000000  1
  Tm  Tm2  1  0.000000  0.740027  0.279520  1
  Tm  Tm3  1  0.000000  0.259973  0.720480  1
  Tm  Tm4  1  0.000000  0.759849  0.780177  1
  Tm  Tm5  1  0.000000  0.240151  0.219823  1
  Tm  Tm6  1  0.000000  0.614462  0.083803  1
  Tm  Tm7  1  0.000000  0.385538  0.916197  1
  Tm  Tm8  1  0.000000  0.885161  0.583079  1
  Tm  Tm9  1  0.000000  0.114839  0.416921  1
  In  In10  1  0.500000  0.710874  0.930955  1
  In  In11  1  0.500000  0.289126  0.069045  1
  In  In12  1  0.500000  0.788696  0.431440  1
  In  In13  1  0.500000  0.211304  0.568560  1
  In  In14  1  0.500000  0.579713  0.650691  1
  In  In15  1  0.500000  0.420287  0.349309  1
  In  In16  1  0.500000  0.919561  0.148804  1
  In  In17  1  0.500000  0.080439  0.851196  1
  Cu  Cu18  1  0.500000  0.523055  0.197016  1
  Cu  Cu19  1  0.500000  0.476945  0.802984  1
  Pd  Pd20  1  0.500000  0.975830  0.696923  1
  Pd  Pd21  1  0.500000  0.024170  0.303077  1
