# generated using pymatgen
data_Eu16In4IrPt3
_symmetry_space_group_name_H-M   'P 1'
_cell_length_a   10.22243983
_cell_length_b   10.22243964
_cell_length_c   10.31417000
_cell_angle_alpha   60.29376231
_cell_angle_beta   60.29376293
_cell_angle_gamma   60.00000751
_symmetry_Int_Tables_number   1
_chemical_formula_structural   Eu16In4IrPt3
_chemical_formula_sum   'Eu16 In4 Ir1 Pt3'
_cell_volume   765.49540805
_cell_formula_units_Z   1
loop_
 _symmetry_equiv_pos_site_id
 _symmetry_equiv_pos_as_xyz
  1  'x, y, z'
loop_
 _atom_site_type_symbol
 _atom_site_label
 _atom_site_symmetry_multiplicity
 _atom_site_fract_x
 _atom_site_fract_y
 _atom_site_fract_z
 _atom_site_occupancy
  Eu  Eu0  1  0.193401  0.193401  0.808464  1
  Eu  Eu1  1  0.598643  0.598643  0.204072  1
  Eu  Eu2  1  0.445218  0.054399  0.445982  1
  Eu  Eu3  1  0.443942  0.443942  0.051976  1
  Eu  Eu4  1  0.804734  0.193401  0.808464  1
  Eu  Eu5  1  0.192549  0.807077  0.193297  1
  Eu  Eu6  1  0.443942  0.060141  0.051976  1
  Eu  Eu7  1  0.193401  0.804734  0.808464  1
  Eu  Eu8  1  0.060141  0.443942  0.051976  1
  Eu  Eu9  1  0.807077  0.807077  0.193297  1
  Eu  Eu10  1  0.209748  0.594826  0.600602  1
  Eu  Eu11  1  0.054399  0.445218  0.445982  1
  Eu  Eu12  1  0.054399  0.054399  0.445982  1
  Eu  Eu13  1  0.807077  0.192549  0.193297  1
  Eu  Eu14  1  0.594826  0.209748  0.600602  1
  Eu  Eu15  1  0.594826  0.594826  0.600602  1
  In  In16  1  0.828734  0.828734  0.828355  1
  In  In17  1  0.828226  0.828226  0.515323  1
  In  In18  1  0.514178  0.828734  0.828355  1
  In  In19  1  0.828734  0.514178  0.828355  1
  Ir  Ir20  1  0.389713  0.389713  0.830860  1
  Pt  Pt21  1  0.391631  0.828833  0.387906  1
  Pt  Pt22  1  0.391631  0.391631  0.387906  1
  Pt  Pt23  1  0.828833  0.391631  0.387906  1
