# generated using pymatgen
data_Tm3LuPt4F28
_symmetry_space_group_name_H-M   'P 1'
_cell_length_a   5.47897025
_cell_length_b   8.78393810
_cell_length_c   11.88551238
_cell_angle_alpha   62.50118230
_cell_angle_beta   89.97105708
_cell_angle_gamma   90.00298914
_symmetry_Int_Tables_number   1
_chemical_formula_structural   Tm3LuPt4F28
_chemical_formula_sum   'Tm3 Lu1 Pt4 F28'
_cell_volume   507.38734178
_cell_formula_units_Z   1
loop_
 _symmetry_equiv_pos_site_id
 _symmetry_equiv_pos_as_xyz
  1  'x, y, z'
loop_
 _atom_site_type_symbol
 _atom_site_label
 _atom_site_symmetry_multiplicity
 _atom_site_fract_x
 _atom_site_fract_y
 _atom_site_fract_z
 _atom_site_occupancy
  Tm  Tm0  1  0.261195  0.815489  0.263597  1
  Tm  Tm1  1  0.739042  0.183218  0.736547  1
  Tm  Tm2  1  0.761200  0.184341  0.236401  1
  Lu  Lu3  1  0.238545  0.815880  0.763334  1
  Pt  Pt4  1  0.759814  0.727522  0.041910  1
  Pt  Pt5  1  0.240415  0.273511  0.956889  1
  Pt  Pt6  1  0.259336  0.272111  0.457701  1
  Pt  Pt7  1  0.740093  0.727572  0.543502  1
  F  F8  1  0.939055  0.704871  0.414423  1
  F  F9  1  0.060708  0.294841  0.586734  1
  F  F10  1  0.438727  0.295646  0.086186  1
  F  F11  1  0.560173  0.704920  0.913142  1
  F  F12  1  0.464949  0.726455  0.136703  1
  F  F13  1  0.535460  0.273586  0.862671  1
  F  F14  1  0.964361  0.273369  0.363257  1
  F  F15  1  0.035053  0.727140  0.638049  1
  F  F16  1  0.953444  0.743599  0.175889  1
  F  F17  1  0.047076  0.256825  0.823222  1
  F  F18  1  0.452635  0.256222  0.323704  1
  F  F19  1  0.545147  0.744377  0.676956  1
  F  F20  1  0.771649  0.475895  0.142183  1
  F  F21  1  0.228809  0.525608  0.856973  1
  F  F22  1  0.271231  0.523976  0.357547  1
  F  F23  1  0.728534  0.475660  0.643010  1
  F  F24  1  0.937911  0.279820  0.044485  1
  F  F25  1  0.062379  0.721531  0.953783  1
  F  F26  1  0.438333  0.720619  0.455512  1
  F  F27  1  0.561820  0.278735  0.545180  1
  F  F28  1  0.740858  0.978857  0.448469  1
  F  F29  1  0.258863  0.020656  0.552681  1
  F  F30  1  0.241062  0.022051  0.051644  1
  F  F31  1  0.758692  0.978880  0.947534  1
  F  F32  1  0.586073  0.969409  0.232055  1
  F  F33  1  0.414011  0.027884  0.767704  1
  F  F34  1  0.086212  0.030374  0.267934  1
  F  F35  1  0.917135  0.968551  0.732485  1
