# generated using pymatgen
data_Dy4FeB14
_symmetry_space_group_name_H-M   'P 1'
_cell_length_a   7.19487300
_cell_length_b   7.19487300
_cell_length_c   7.55209700
_cell_angle_alpha   90.00000000
_cell_angle_beta   90.00000000
_cell_angle_gamma   90.00000000
_symmetry_Int_Tables_number   1
_chemical_formula_structural   Dy4FeB14
_chemical_formula_sum   'Dy8 Fe2 B28'
_cell_volume   390.94334474
_cell_formula_units_Z   2
loop_
 _symmetry_equiv_pos_site_id
 _symmetry_equiv_pos_as_xyz
  1  'x, y, z'
loop_
 _atom_site_type_symbol
 _atom_site_label
 _atom_site_symmetry_multiplicity
 _atom_site_fract_x
 _atom_site_fract_y
 _atom_site_fract_z
 _atom_site_occupancy
  Dy  Dy0  1  0.191786  0.329348  0.000000  1
  Dy  Dy1  1  0.670652  0.191786  0.000000  1
  Dy  Dy2  1  0.329348  0.808214  0.000000  1
  Dy  Dy3  1  0.691786  0.170652  0.500000  1
  Dy  Dy4  1  0.308214  0.829348  0.500000  1
  Dy  Dy5  1  0.808214  0.670652  0.000000  1
  Dy  Dy6  1  0.829348  0.691786  0.500000  1
  Dy  Dy7  1  0.170652  0.308214  0.500000  1
  Fe  Fe8  1  0.000000  0.000000  0.000000  1
  Fe  Fe9  1  0.500000  0.500000  0.500000  1
  B  B10  1  0.173907  0.038342  0.230554  1
  B  B11  1  0.961658  0.173907  0.230554  1
  B  B12  1  0.038342  0.826093  0.230554  1
  B  B13  1  0.673907  0.461658  0.269446  1
  B  B14  1  0.326093  0.538342  0.269446  1
  B  B15  1  0.826093  0.961658  0.230554  1
  B  B16  1  0.538342  0.673907  0.269446  1
  B  B17  1  0.461658  0.326093  0.269446  1
  B  B18  1  0.826093  0.961658  0.769446  1
  B  B19  1  0.038342  0.826093  0.769446  1
  B  B20  1  0.961658  0.173907  0.769446  1
  B  B21  1  0.326093  0.538342  0.730554  1
  B  B22  1  0.673907  0.461658  0.730554  1
  B  B23  1  0.173907  0.038342  0.769446  1
  B  B24  1  0.461658  0.326093  0.730554  1
  B  B25  1  0.538342  0.673907  0.730554  1
  B  B26  1  0.087123  0.587123  0.250000  1
  B  B27  1  0.412877  0.087123  0.250000  1
  B  B28  1  0.587123  0.912877  0.250000  1
  B  B29  1  0.912877  0.412877  0.250000  1
  B  B30  1  0.912877  0.412877  0.750000  1
  B  B31  1  0.587123  0.912877  0.750000  1
  B  B32  1  0.412877  0.087123  0.750000  1
  B  B33  1  0.087123  0.587123  0.750000  1
  B  B34  1  0.000000  0.000000  0.388783  1
  B  B35  1  0.500000  0.500000  0.111217  1
  B  B36  1  0.000000  0.000000  0.611217  1
  B  B37  1  0.500000  0.500000  0.888783  1
