# generated using pymatgen
data_Mg5Co11(P3Ru2)4
_symmetry_space_group_name_H-M   'P 1'
_cell_length_a   12.08743723
_cell_length_b   12.09284893
_cell_length_c   3.65321500
_cell_angle_alpha   90.00000000
_cell_angle_beta   90.00000000
_cell_angle_gamma   119.58845210
_symmetry_Int_Tables_number   1
_chemical_formula_structural   Mg5Co11(P3Ru2)4
_chemical_formula_sum   'Mg5 Co11 P12 Ru8'
_cell_volume   464.36005966
_cell_formula_units_Z   1
loop_
 _symmetry_equiv_pos_site_id
 _symmetry_equiv_pos_as_xyz
  1  'x, y, z'
loop_
 _atom_site_type_symbol
 _atom_site_label
 _atom_site_symmetry_multiplicity
 _atom_site_fract_x
 _atom_site_fract_y
 _atom_site_fract_z
 _atom_site_occupancy
  Mg  Mg0  1  0.666493  0.332707  0.000000  1
  Mg  Mg1  1  0.330132  0.663881  0.000000  1
  Mg  Mg2  1  0.822524  0.821341  0.500000  1
  Mg  Mg3  1  0.177135  0.999933  0.500000  1
  Mg  Mg4  1  0.999553  0.177473  0.500000  1
  Co  Co5  1  0.131102  0.482690  0.500000  1
  Co  Co6  1  0.808650  0.172845  0.000000  1
  Co  Co7  1  0.828349  0.633190  0.000000  1
  Co  Co8  1  0.362032  0.191983  0.000000  1
  Co  Co9  1  0.173838  0.806568  0.000000  1
  Co  Co10  1  0.636978  0.826620  0.000000  1
  Co  Co11  1  0.190804  0.371297  0.000000  1
  Co  Co12  1  0.273200  0.279402  0.500000  1
  Co  Co13  1  0.724595  0.000216  0.500000  1
  Co  Co14  1  0.001269  0.721486  0.500000  1
  Co  Co15  1  0.001425  0.999715  0.000000  1
  P  P16  1  0.683759  0.159014  0.500000  1
  P  P17  1  0.844110  0.524132  0.500000  1
  P  P18  1  0.472501  0.318739  0.500000  1
  P  P19  1  0.158712  0.678041  0.500000  1
  P  P20  1  0.525635  0.843669  0.500000  1
  P  P21  1  0.311459  0.478176  0.500000  1
  P  P22  1  0.172419  0.176788  0.000000  1
  P  P23  1  0.826466  0.999525  0.000000  1
  P  P24  1  0.000306  0.823943  0.000000  1
  P  P25  1  0.640026  0.639725  0.000000  1
  P  P26  1  0.358653  0.999994  0.000000  1
  P  P27  1  0.002518  0.359044  0.000000  1
  Ru  Ru28  1  0.873132  0.350622  0.500000  1
  Ru  Ru29  1  0.649795  0.517332  0.500000  1
  Ru  Ru30  1  0.482568  0.133773  0.500000  1
  Ru  Ru31  1  0.349647  0.867149  0.500000  1
  Ru  Ru32  1  0.513903  0.649192  0.500000  1
  Ru  Ru33  1  0.441498  0.443907  0.000000  1
  Ru  Ru34  1  0.556850  0.000039  0.000000  1
  Ru  Ru35  1  0.007966  0.555851  0.000000  1
