# generated using pymatgen
data_Dy7Y(TmRu2)2
_symmetry_space_group_name_H-M   'P 1'
_cell_length_a   6.35192632
_cell_length_b   7.26625319
_cell_length_c   8.47394275
_cell_angle_alpha   96.63973064
_cell_angle_beta   112.13809422
_cell_angle_gamma   90.01533569
_symmetry_Int_Tables_number   1
_chemical_formula_structural   Dy7Y(TmRu2)2
_chemical_formula_sum   'Dy7 Y1 Tm2 Ru4'
_cell_volume   359.44025177
_cell_formula_units_Z   1
loop_
 _symmetry_equiv_pos_site_id
 _symmetry_equiv_pos_as_xyz
  1  'x, y, z'
loop_
 _atom_site_type_symbol
 _atom_site_label
 _atom_site_symmetry_multiplicity
 _atom_site_fract_x
 _atom_site_fract_y
 _atom_site_fract_z
 _atom_site_occupancy
  Dy  Dy0  1  0.977313  0.416092  0.185515  1
  Dy  Dy1  1  0.207725  0.916020  0.185677  1
  Dy  Dy2  1  0.022718  0.584087  0.814644  1
  Dy  Dy3  1  0.206612  0.185466  0.566912  1
  Dy  Dy4  1  0.640080  0.315030  0.433185  1
  Dy  Dy5  1  0.793341  0.814460  0.432954  1
  Dy  Dy6  1  0.359717  0.684911  0.566586  1
  Y  Y7  1  0.791944  0.083322  0.814451  1
  Tm  Tm8  1  0.422118  0.249771  0.999868  1
  Tm  Tm9  1  0.577823  0.750217  0.000348  1
  Ru  Ru10  1  0.602512  0.426369  0.781397  1
  Ru  Ru11  1  0.821698  0.075611  0.218385  1
  Ru  Ru12  1  0.396610  0.574876  0.218481  1
  Ru  Ru13  1  0.179788  0.923768  0.781597  1
