# generated using pymatgen
data_Cs2K10Al3GaSe12
_symmetry_space_group_name_H-M   'P 1'
_cell_length_a   13.83875042
_cell_length_b   8.25094961
_cell_length_c   10.51237197
_cell_angle_alpha   52.96340629
_cell_angle_beta   89.02926539
_cell_angle_gamma   89.79563944
_symmetry_Int_Tables_number   1
_chemical_formula_structural   Cs2K10Al3GaSe12
_chemical_formula_sum   'Cs2 K10 Al3 Ga1 Se12'
_cell_volume   957.99587127
_cell_formula_units_Z   1
loop_
 _symmetry_equiv_pos_site_id
 _symmetry_equiv_pos_as_xyz
  1  'x, y, z'
loop_
 _atom_site_type_symbol
 _atom_site_label
 _atom_site_symmetry_multiplicity
 _atom_site_fract_x
 _atom_site_fract_y
 _atom_site_fract_z
 _atom_site_occupancy
  Cs  Cs0  1  0.312365  0.180518  0.056024  1
  Cs  Cs1  1  0.685814  0.818418  0.943524  1
  K  K2  1  0.818478  0.832318  0.443787  1
  K  K3  1  0.897635  0.315173  0.404235  1
  K  K4  1  0.618259  0.374093  0.470189  1
  K  K5  1  0.111659  0.640466  0.019739  1
  K  K6  1  0.382301  0.625995  0.530341  1
  K  K7  1  0.889091  0.361992  0.979841  1
  K  K8  1  0.615242  0.298606  0.909446  1
  K  K9  1  0.101112  0.686027  0.595920  1
  K  K10  1  0.385683  0.701271  0.089666  1
  K  K11  1  0.181457  0.164563  0.557672  1
  Al  Al12  1  0.566809  0.036627  0.351376  1
  Al  Al13  1  0.433112  0.963573  0.648265  1
  Al  Al14  1  0.935902  0.054650  0.842437  1
  Ga  Ga15  1  0.064722  0.944705  0.159011  1
  Se  Se16  1  0.419551  0.203506  0.356320  1
  Se  Se17  1  0.905508  0.824542  0.136388  1
  Se  Se18  1  0.580314  0.796493  0.643410  1
  Se  Se19  1  0.092911  0.178208  0.859236  1
  Se  Se20  1  0.700957  0.270517  0.227254  1
  Se  Se21  1  0.184452  0.676668  0.297858  1
  Se  Se22  1  0.299148  0.728967  0.772889  1
  Se  Se23  1  0.817201  0.319097  0.704144  1
  Se  Se24  1  0.543979  0.859894  0.240146  1
  Se  Se25  1  0.051672  0.137192  0.262735  1
  Se  Se26  1  0.455923  0.140258  0.759566  1
  Se  Se27  1  0.948745  0.865660  0.738581  1
