# generated using pymatgen
data_LiY3Co7P6Rh
_symmetry_space_group_name_H-M   'P 1'
_cell_length_a   3.72920000
_cell_length_b   10.71142800
_cell_length_c   12.32025700
_cell_angle_alpha   90.00000000
_cell_angle_beta   90.00000000
_cell_angle_gamma   90.00000000
_symmetry_Int_Tables_number   1
_chemical_formula_structural   LiY3Co7P6Rh
_chemical_formula_sum   'Li2 Y6 Co14 P12 Rh2'
_cell_volume   492.13337179
_cell_formula_units_Z   2
loop_
 _symmetry_equiv_pos_site_id
 _symmetry_equiv_pos_as_xyz
  1  'x, y, z'
loop_
 _atom_site_type_symbol
 _atom_site_label
 _atom_site_symmetry_multiplicity
 _atom_site_fract_x
 _atom_site_fract_y
 _atom_site_fract_z
 _atom_site_occupancy
  Li  Li0  1  0.500000  0.500000  0.153185  1
  Li  Li1  1  0.000000  0.000000  0.846815  1
  Y  Y2  1  0.000000  0.500000  0.519319  1
  Y  Y3  1  0.500000  0.000000  0.480681  1
  Y  Y4  1  0.500000  0.816262  0.204220  1
  Y  Y5  1  0.500000  0.183738  0.204220  1
  Y  Y6  1  0.000000  0.683738  0.795780  1
  Y  Y7  1  0.000000  0.316262  0.795780  1
  Co  Co8  1  0.000000  0.500000  0.989703  1
  Co  Co9  1  0.500000  0.000000  0.010297  1
  Co  Co10  1  0.500000  0.331899  0.997247  1
  Co  Co11  1  0.500000  0.668101  0.997247  1
  Co  Co12  1  0.000000  0.168101  0.002753  1
  Co  Co13  1  0.000000  0.831899  0.002753  1
  Co  Co14  1  0.500000  0.298097  0.431467  1
  Co  Co15  1  0.500000  0.701903  0.431467  1
  Co  Co16  1  0.000000  0.201903  0.568533  1
  Co  Co17  1  0.000000  0.798097  0.568533  1
  Co  Co18  1  0.500000  0.880253  0.707231  1
  Co  Co19  1  0.500000  0.119747  0.707231  1
  Co  Co20  1  0.000000  0.619747  0.292769  1
  Co  Co21  1  0.000000  0.380253  0.292769  1
  P  P22  1  0.500000  0.500000  0.892069  1
  P  P23  1  0.000000  0.000000  0.107931  1
  P  P24  1  0.500000  0.500000  0.344795  1
  P  P25  1  0.000000  0.000000  0.655205  1
  P  P26  1  0.500000  0.301542  0.614139  1
  P  P27  1  0.500000  0.698458  0.614139  1
  P  P28  1  0.000000  0.198458  0.385861  1
  P  P29  1  0.000000  0.801542  0.385861  1
  P  P30  1  0.500000  0.843603  0.893493  1
  P  P31  1  0.500000  0.156397  0.893493  1
  P  P32  1  0.000000  0.656397  0.106507  1
  P  P33  1  0.000000  0.343603  0.106507  1
  Rh  Rh34  1  0.500000  0.500000  0.703253  1
  Rh  Rh35  1  0.000000  0.000000  0.296747  1
