# generated using pymatgen
data_Tb3Y3Er2(HgIr)2
_symmetry_space_group_name_H-M   'P 1'
_cell_length_a   9.60344674
_cell_length_b   9.58496156
_cell_length_c   9.58707415
_cell_angle_alpha   60.20285699
_cell_angle_beta   60.10012285
_cell_angle_gamma   60.07151795
_symmetry_Int_Tables_number   1
_chemical_formula_structural   Tb3Y3Er2(HgIr)2
_chemical_formula_sum   'Tb6 Y6 Er4 Hg4 Ir4'
_cell_volume   625.76865155
_cell_formula_units_Z   2
loop_
 _symmetry_equiv_pos_site_id
 _symmetry_equiv_pos_as_xyz
  1  'x, y, z'
loop_
 _atom_site_type_symbol
 _atom_site_label
 _atom_site_symmetry_multiplicity
 _atom_site_fract_x
 _atom_site_fract_y
 _atom_site_fract_z
 _atom_site_occupancy
  Tb  Tb0  1  0.349621  0.351182  0.350968  1
  Tb  Tb1  1  0.352479  0.350325  0.946740  1
  Tb  Tb2  1  0.352339  0.946880  0.350291  1
  Tb  Tb3  1  0.947239  0.352122  0.352241  1
  Tb  Tb4  1  0.810048  0.189479  0.189747  1
  Tb  Tb5  1  0.187613  0.810152  0.810232  1
  Y  Y6  1  0.939306  0.561674  0.561581  1
  Y  Y7  1  0.560881  0.938284  0.938300  1
  Y  Y8  1  0.560662  0.940347  0.560811  1
  Y  Y9  1  0.938834  0.560204  0.938949  1
  Y  Y10  1  0.560640  0.560931  0.940349  1
  Y  Y11  1  0.938838  0.938947  0.560136  1
  Er  Er12  1  0.189700  0.809600  0.190301  1
  Er  Er13  1  0.809910  0.188003  0.809874  1
  Er  Er14  1  0.189968  0.190159  0.809489  1
  Er  Er15  1  0.809929  0.809845  0.188175  1
  Hg  Hg16  1  0.584554  0.583866  0.583889  1
  Hg  Hg17  1  0.584894  0.585603  0.245168  1
  Hg  Hg18  1  0.584860  0.245248  0.585588  1
  Hg  Hg19  1  0.245008  0.584915  0.584923  1
  Ir  Ir20  1  0.142066  0.141318  0.141333  1
  Ir  Ir21  1  0.142448  0.143067  0.575749  1
  Ir  Ir22  1  0.142500  0.575622  0.143013  1
  Ir  Ir23  1  0.575663  0.142229  0.142157  1
