# generated using pymatgen
data_Be9NbV2
_symmetry_space_group_name_H-M   'P 1'
_cell_length_a   7.31840313
_cell_length_b   7.31840332
_cell_length_c   7.31840299
_cell_angle_alpha   34.99136267
_cell_angle_beta   34.99135720
_cell_angle_gamma   34.99136292
_symmetry_Int_Tables_number   1
_chemical_formula_structural   Be9NbV2
_chemical_formula_sum   'Be9 Nb1 V2'
_cell_volume   115.08839657
_cell_formula_units_Z   1
loop_
 _symmetry_equiv_pos_site_id
 _symmetry_equiv_pos_as_xyz
  1  'x, y, z'
loop_
 _atom_site_type_symbol
 _atom_site_label
 _atom_site_symmetry_multiplicity
 _atom_site_fract_x
 _atom_site_fract_y
 _atom_site_fract_z
 _atom_site_occupancy
  Be  Be0  1  0.500000  0.500000  0.500000  1
  Be  Be1  1  0.334134  0.334134  0.334135  1
  Be  Be2  1  0.665866  0.665866  0.665865  1
  Be  Be3  1  0.078471  0.586475  0.586475  1
  Be  Be4  1  0.586475  0.586475  0.078471  1
  Be  Be5  1  0.586475  0.078471  0.586475  1
  Be  Be6  1  0.413525  0.921529  0.413525  1
  Be  Be7  1  0.921529  0.413525  0.413525  1
  Be  Be8  1  0.413525  0.413525  0.921529  1
  Nb  Nb9  1  0.000000  0.000000  0.000000  1
  V  V10  1  0.142273  0.142273  0.142273  1
  V  V11  1  0.857727  0.857727  0.857727  1
