# generated using pymatgen
data_Pu4CrB16Ir2Ru
_symmetry_space_group_name_H-M   'P 1'
_cell_length_a   5.98777001
_cell_length_b   11.60626605
_cell_length_c   3.51129300
_cell_angle_alpha   90.00000000
_cell_angle_beta   90.00000000
_cell_angle_gamma   90.06557979
_symmetry_Int_Tables_number   1
_chemical_formula_structural   Pu4CrB16Ir2Ru
_chemical_formula_sum   'Pu4 Cr1 B16 Ir2 Ru1'
_cell_volume   244.01943559
_cell_formula_units_Z   1
loop_
 _symmetry_equiv_pos_site_id
 _symmetry_equiv_pos_as_xyz
  1  'x, y, z'
loop_
 _atom_site_type_symbol
 _atom_site_label
 _atom_site_symmetry_multiplicity
 _atom_site_fract_x
 _atom_site_fract_y
 _atom_site_fract_z
 _atom_site_occupancy
  Pu  Pu0  1  0.628573  0.348479  0.000000  1
  Pu  Pu1  1  0.373010  0.649261  0.000000  1
  Pu  Pu2  1  0.125144  0.148654  0.000000  1
  Pu  Pu3  1  0.872018  0.850453  0.000000  1
  Cr  Cr4  1  0.635927  0.090594  0.000000  1
  B  B5  1  0.784748  0.185456  0.500000  1
  B  B6  1  0.212488  0.813808  0.500000  1
  B  B7  1  0.287295  0.311093  0.500000  1
  B  B8  1  0.713469  0.687291  0.500000  1
  B  B9  1  0.863082  0.033273  0.500000  1
  B  B10  1  0.134087  0.969636  0.500000  1
  B  B11  1  0.365276  0.468375  0.500000  1
  B  B12  1  0.634518  0.531388  0.500000  1
  B  B13  1  0.884499  0.453126  0.500000  1
  B  B14  1  0.112994  0.547720  0.500000  1
  B  B15  1  0.387978  0.048089  0.500000  1
  B  B16  1  0.616054  0.955413  0.500000  1
  B  B17  1  0.971378  0.306735  0.500000  1
  B  B18  1  0.026909  0.692742  0.500000  1
  B  B19  1  0.475423  0.190657  0.500000  1
  B  B20  1  0.529635  0.809187  0.500000  1
  Ir  Ir21  1  0.364794  0.909813  0.000000  1
  Ir  Ir22  1  0.138862  0.406508  0.000000  1
  Ru  Ru23  1  0.861837  0.592252  0.000000  1
