# generated using pymatgen
data_K2CuAs2O7
_symmetry_space_group_name_H-M   'P 1'
_cell_length_a   8.51005800
_cell_length_b   8.51005800
_cell_length_c   5.76313300
_cell_angle_alpha   90.00000000
_cell_angle_beta   90.00000000
_cell_angle_gamma   90.00000000
_symmetry_Int_Tables_number   1
_chemical_formula_structural   K2CuAs2O7
_chemical_formula_sum   'K4 Cu2 As4 O14'
_cell_volume   417.37235733
_cell_formula_units_Z   2
loop_
 _symmetry_equiv_pos_site_id
 _symmetry_equiv_pos_as_xyz
  1  'x, y, z'
loop_
 _atom_site_type_symbol
 _atom_site_label
 _atom_site_symmetry_multiplicity
 _atom_site_fract_x
 _atom_site_fract_y
 _atom_site_fract_z
 _atom_site_occupancy
  K  K0  1  0.334429  0.834429  0.490193  1
  K  K1  1  0.165571  0.334429  0.509807  1
  K  K2  1  0.665571  0.165571  0.490193  1
  K  K3  1  0.834429  0.665571  0.509807  1
  Cu  Cu4  1  0.500000  0.500000  0.000000  1
  Cu  Cu5  1  0.000000  0.000000  0.000000  1
  As  As6  1  0.361731  0.138269  0.986884  1
  As  As7  1  0.138269  0.638269  0.013116  1
  As  As8  1  0.638269  0.861731  0.986884  1
  As  As9  1  0.861731  0.361731  0.013116  1
  O  O10  1  0.500000  0.000000  0.858088  1
  O  O11  1  0.000000  0.500000  0.141912  1
  O  O12  1  0.581455  0.689849  0.853244  1
  O  O13  1  0.918545  0.189849  0.146756  1
  O  O14  1  0.418545  0.310151  0.853244  1
  O  O15  1  0.081455  0.810151  0.146756  1
  O  O16  1  0.689849  0.418545  0.146756  1
  O  O17  1  0.810151  0.918545  0.853244  1
  O  O18  1  0.310151  0.581455  0.146756  1
  O  O19  1  0.189849  0.081455  0.853244  1
  O  O20  1  0.365801  0.134199  0.277903  1
  O  O21  1  0.134199  0.634199  0.722097  1
  O  O22  1  0.634199  0.865801  0.277903  1
  O  O23  1  0.865801  0.365801  0.722097  1
