# generated using pymatgen
data_Tb2Al8Fe9
_symmetry_space_group_name_H-M   'P 1'
_cell_length_a   6.54812364
_cell_length_b   6.54855004
_cell_length_c   6.54798911
_cell_angle_alpha   83.92160230
_cell_angle_beta   96.08433316
_cell_angle_gamma   96.07594655
_symmetry_Int_Tables_number   1
_chemical_formula_structural   Tb2Al8Fe9
_chemical_formula_sum   'Tb2 Al8 Fe9'
_cell_volume   276.35692297
_cell_formula_units_Z   1
loop_
 _symmetry_equiv_pos_site_id
 _symmetry_equiv_pos_as_xyz
  1  'x, y, z'
loop_
 _atom_site_type_symbol
 _atom_site_label
 _atom_site_symmetry_multiplicity
 _atom_site_fract_x
 _atom_site_fract_y
 _atom_site_fract_z
 _atom_site_occupancy
  Tb  Tb0  1  0.637160  0.362835  0.362842  1
  Tb  Tb1  1  0.362840  0.637166  0.637158  1
  Al  Al2  1  0.315105  0.315160  0.999968  1
  Al  Al3  1  0.684895  0.684840  0.000032  1
  Al  Al4  1  0.878026  0.121993  0.121953  1
  Al  Al5  1  0.315188  0.999996  0.315174  1
  Al  Al6  1  0.999974  0.684841  0.315092  1
  Al  Al7  1  0.684812  0.000004  0.684825  1
  Al  Al8  1  0.000026  0.315160  0.684909  1
  Al  Al9  1  0.121974  0.878007  0.878046  1
  Fe  Fe10  1  0.499999  0.000000  0.000000  1
  Fe  Fe11  1  0.000000  0.499999  0.000000  1
  Fe  Fe12  1  0.336192  0.663828  0.162017  1
  Fe  Fe13  1  0.162022  0.336167  0.336190  1
  Fe  Fe14  1  0.663845  0.837985  0.336160  1
  Fe  Fe15  1  0.000000  0.000000  0.499999  1
  Fe  Fe16  1  0.336155  0.162014  0.663840  1
  Fe  Fe17  1  0.837979  0.663831  0.663810  1
  Fe  Fe18  1  0.663810  0.336172  0.837984  1
