# generated using pymatgen
data_KRh2PbF9
_symmetry_space_group_name_H-M   'P 1'
_cell_length_a   10.08476400
_cell_length_b   5.49367000
_cell_length_c   14.31509300
_cell_angle_alpha   90.00000000
_cell_angle_beta   90.00000000
_cell_angle_gamma   90.00000000
_symmetry_Int_Tables_number   1
_chemical_formula_structural   KRh2PbF9
_chemical_formula_sum   'K4 Rh8 Pb4 F36'
_cell_volume   793.09001375
_cell_formula_units_Z   4
loop_
 _symmetry_equiv_pos_site_id
 _symmetry_equiv_pos_as_xyz
  1  'x, y, z'
loop_
 _atom_site_type_symbol
 _atom_site_label
 _atom_site_symmetry_multiplicity
 _atom_site_fract_x
 _atom_site_fract_y
 _atom_site_fract_z
 _atom_site_occupancy
  K  K0  1  0.772563  0.750000  0.197997  1
  K  K1  1  0.272564  0.750000  0.302002  1
  K  K2  1  0.727437  0.249999  0.697997  1
  K  K3  1  0.227436  0.249999  0.802003  1
  Rh  Rh4  1  0.231074  0.750000  0.006995  1
  Rh  Rh5  1  0.066002  0.249999  0.154903  1
  Rh  Rh6  1  0.566001  0.249999  0.345096  1
  Rh  Rh7  1  0.731075  0.750000  0.493005  1
  Rh  Rh8  1  0.268926  0.249999  0.506996  1
  Rh  Rh9  1  0.433999  0.750000  0.654904  1
  Rh  Rh10  1  0.933999  0.750000  0.845096  1
  Rh  Rh11  1  0.768925  0.249999  0.993005  1
  Pb  Pb12  1  0.446465  0.249999  0.109225  1
  Pb  Pb13  1  0.946464  0.249999  0.390775  1
  Pb  Pb14  1  0.053535  0.750000  0.609224  1
  Pb  Pb15  1  0.553536  0.750000  0.890776  1
  F  F16  1  0.645873  0.498383  0.047819  1
  F  F17  1  0.645873  0.001617  0.047819  1
  F  F18  1  0.101810  0.001665  0.053608  1
  F  F19  1  0.101810  0.498335  0.053608  1
  F  F20  1  0.869862  0.249999  0.117243  1
  F  F21  1  0.347725  0.750000  0.118523  1
  F  F22  1  0.249023  0.249999  0.205402  1
  F  F23  1  0.521184  0.493011  0.246844  1
  F  F24  1  0.521184  0.006991  0.246844  1
  F  F25  1  0.021185  0.493011  0.253157  1
  F  F26  1  0.021185  0.006991  0.253157  1
  F  F27  1  0.749024  0.249999  0.294599  1
  F  F28  1  0.847726  0.750000  0.381477  1
  F  F29  1  0.369862  0.249999  0.382757  1
  F  F30  1  0.601810  0.001665  0.446393  1
  F  F31  1  0.601810  0.498335  0.446393  1
  F  F32  1  0.145874  0.498383  0.452180  1
  F  F33  1  0.145874  0.001617  0.452180  1
  F  F34  1  0.854127  0.998383  0.547820  1
  F  F35  1  0.854127  0.501616  0.547820  1
  F  F36  1  0.398190  0.501664  0.553608  1
  F  F37  1  0.398190  0.998334  0.553608  1
  F  F38  1  0.630138  0.750000  0.617243  1
  F  F39  1  0.152275  0.249999  0.618523  1
  F  F40  1  0.250977  0.750000  0.705402  1
  F  F41  1  0.978817  0.993009  0.746843  1
  F  F42  1  0.978817  0.506990  0.746843  1
  F  F43  1  0.478816  0.993009  0.753157  1
  F  F44  1  0.478816  0.506990  0.753157  1
  F  F45  1  0.750977  0.750000  0.794598  1
  F  F46  1  0.652274  0.249999  0.881477  1
  F  F47  1  0.130139  0.750000  0.882757  1
  F  F48  1  0.898189  0.501664  0.946392  1
  F  F49  1  0.898189  0.998334  0.946392  1
  F  F50  1  0.354127  0.998383  0.952181  1
  F  F51  1  0.354127  0.501616  0.952181  1
