# generated using pymatgen
data_GdErLu3Pt4
_symmetry_space_group_name_H-M   'P 1'
_cell_length_a   7.40020000
_cell_length_b   7.47976900
_cell_length_c   14.52729700
_cell_angle_alpha   90.00000000
_cell_angle_beta   90.00000000
_cell_angle_gamma   90.00000000
_symmetry_Int_Tables_number   1
_chemical_formula_structural   GdErLu3Pt4
_chemical_formula_sum   'Gd4 Er4 Lu12 Pt16'
_cell_volume   804.11184275
_cell_formula_units_Z   4
loop_
 _symmetry_equiv_pos_site_id
 _symmetry_equiv_pos_as_xyz
  1  'x, y, z'
loop_
 _atom_site_type_symbol
 _atom_site_label
 _atom_site_symmetry_multiplicity
 _atom_site_fract_x
 _atom_site_fract_y
 _atom_site_fract_z
 _atom_site_occupancy
  Gd  Gd0  1  0.499821  0.678519  0.592189  1
  Gd  Gd1  1  0.999821  0.821481  0.907811  1
  Gd  Gd2  1  0.500179  0.321481  0.092189  1
  Gd  Gd3  1  0.000179  0.178519  0.407811  1
  Er  Er4  1  0.499171  0.320400  0.406961  1
  Er  Er5  1  0.999171  0.179600  0.093039  1
  Er  Er6  1  0.500829  0.679600  0.906961  1
  Er  Er7  1  0.000829  0.820400  0.593039  1
  Lu  Lu8  1  0.656203  0.167406  0.622792  1
  Lu  Lu9  1  0.156203  0.332594  0.877208  1
  Lu  Lu10  1  0.343797  0.832594  0.122792  1
  Lu  Lu11  1  0.843797  0.667406  0.377208  1
  Lu  Lu12  1  0.343549  0.833121  0.376698  1
  Lu  Lu13  1  0.843549  0.666879  0.123302  1
  Lu  Lu14  1  0.656451  0.166879  0.876698  1
  Lu  Lu15  1  0.156451  0.333121  0.623302  1
  Lu  Lu16  1  0.819419  0.508825  0.749968  1
  Lu  Lu17  1  0.319419  0.991175  0.750032  1
  Lu  Lu18  1  0.180581  0.491175  0.249968  1
  Lu  Lu19  1  0.680581  0.008825  0.250032  1
  Pt  Pt20  1  0.682192  0.965045  0.458426  1
  Pt  Pt21  1  0.182192  0.534955  0.041574  1
  Pt  Pt22  1  0.317808  0.034955  0.958426  1
  Pt  Pt23  1  0.817808  0.465045  0.541574  1
  Pt  Pt24  1  0.316365  0.035314  0.541780  1
  Pt  Pt25  1  0.816365  0.464686  0.958220  1
  Pt  Pt26  1  0.683635  0.964686  0.041780  1
  Pt  Pt27  1  0.183635  0.535314  0.458220  1
  Pt  Pt28  1  0.454753  0.384281  0.750527  1
  Pt  Pt29  1  0.954753  0.115719  0.749473  1
  Pt  Pt30  1  0.545247  0.615719  0.250527  1
  Pt  Pt31  1  0.045247  0.884281  0.249473  1
  Pt  Pt32  1  0.682011  0.857102  0.750525  1
  Pt  Pt33  1  0.182011  0.642898  0.749475  1
  Pt  Pt34  1  0.317989  0.142898  0.250525  1
  Pt  Pt35  1  0.817989  0.357102  0.249475  1
