# generated using pymatgen
data_Eu2SbWO8
_symmetry_space_group_name_H-M   'P 1'
_cell_length_a   5.55926900
_cell_length_b   7.71529053
_cell_length_c   7.85044005
_cell_angle_alpha   78.86500029
_cell_angle_beta   90.00000000
_cell_angle_gamma   90.00000000
_symmetry_Int_Tables_number   1
_chemical_formula_structural   Eu2SbWO8
_chemical_formula_sum   'Eu4 Sb2 W2 O16'
_cell_volume   330.37744826
_cell_formula_units_Z   2
loop_
 _symmetry_equiv_pos_site_id
 _symmetry_equiv_pos_as_xyz
  1  'x, y, z'
loop_
 _atom_site_type_symbol
 _atom_site_label
 _atom_site_symmetry_multiplicity
 _atom_site_fract_x
 _atom_site_fract_y
 _atom_site_fract_z
 _atom_site_occupancy
  Eu  Eu0  1  0.779530  0.397601  0.847787  1
  Eu  Eu1  1  0.720470  0.897601  0.847787  1
  Eu  Eu2  1  0.276319  0.103626  0.142118  1
  Eu  Eu3  1  0.223681  0.603626  0.142118  1
  Sb  Sb4  1  0.263283  0.197745  0.668607  1
  Sb  Sb5  1  0.236717  0.697745  0.668607  1
  W  W6  1  0.767106  0.306110  0.333992  1
  W  W7  1  0.732894  0.806110  0.333992  1
  O  O8  1  0.661658  0.052658  0.333101  1
  O  O9  1  0.999092  0.127168  0.832104  1
  O  O10  1  0.360370  0.947516  0.662035  1
  O  O11  1  0.502695  0.365916  0.184388  1
  O  O12  1  0.139630  0.447516  0.662035  1
  O  O13  1  0.531415  0.824438  0.127274  1
  O  O14  1  0.968585  0.324438  0.127274  1
  O  O15  1  0.500908  0.627168  0.832104  1
  O  O16  1  0.997305  0.865916  0.184388  1
  O  O17  1  0.478850  0.174832  0.876352  1
  O  O18  1  0.021150  0.674832  0.876352  1
  O  O19  1  0.580931  0.292676  0.545078  1
  O  O20  1  0.838342  0.552658  0.333101  1
  O  O21  1  0.427798  0.709714  0.447163  1
  O  O22  1  0.919069  0.792676  0.545078  1
  O  O23  1  0.072202  0.209714  0.447163  1
