# generated using pymatgen
data_Rb3As2I9
_symmetry_space_group_name_H-M   'P 1'
_cell_length_a   8.27370300
_cell_length_b   8.27370277
_cell_length_c   20.83240700
_cell_angle_alpha   90.00000000
_cell_angle_beta   90.00000000
_cell_angle_gamma   119.99999694
_symmetry_Int_Tables_number   1
_chemical_formula_structural   Rb3As2I9
_chemical_formula_sum   'Rb6 As4 I18'
_cell_volume   1235.00847711
_cell_formula_units_Z   2
loop_
 _symmetry_equiv_pos_site_id
 _symmetry_equiv_pos_as_xyz
  1  'x, y, z'
loop_
 _atom_site_type_symbol
 _atom_site_label
 _atom_site_symmetry_multiplicity
 _atom_site_fract_x
 _atom_site_fract_y
 _atom_site_fract_z
 _atom_site_occupancy
  Rb  Rb0  1  0.666667  0.333333  0.076328  1
  Rb  Rb1  1  0.333333  0.666667  0.576328  1
  Rb  Rb2  1  0.333333  0.666667  0.923672  1
  Rb  Rb3  1  0.666667  0.333333  0.423672  1
  Rb  Rb4  1  0.000000  0.000000  0.250000  1
  Rb  Rb5  1  0.000000  0.000000  0.750000  1
  As  As6  1  0.666667  0.333333  0.843097  1
  As  As7  1  0.666667  0.333333  0.656903  1
  As  As8  1  0.333333  0.666667  0.156903  1
  As  As9  1  0.333333  0.666667  0.343097  1
  I  I10  1  0.170716  0.829284  0.085265  1
  I  I11  1  0.829284  0.658570  0.914735  1
  I  I12  1  0.829284  0.170716  0.914735  1
  I  I13  1  0.829284  0.658570  0.585265  1
  I  I14  1  0.341430  0.170716  0.914735  1
  I  I15  1  0.658570  0.829284  0.414735  1
  I  I16  1  0.170716  0.341430  0.414735  1
  I  I17  1  0.170716  0.829284  0.414735  1
  I  I18  1  0.497391  0.994782  0.250000  1
  I  I19  1  0.502609  0.497391  0.750000  1
  I  I20  1  0.994782  0.497391  0.750000  1
  I  I21  1  0.005218  0.502609  0.250000  1
  I  I22  1  0.497391  0.502609  0.250000  1
  I  I23  1  0.502609  0.005218  0.750000  1
  I  I24  1  0.341430  0.170716  0.585265  1
  I  I25  1  0.829284  0.170716  0.585265  1
  I  I26  1  0.170716  0.341430  0.085265  1
  I  I27  1  0.658570  0.829284  0.085265  1
