# generated using pymatgen
data_Ba14Na17DyN6
_symmetry_space_group_name_H-M   'P 1'
_cell_length_a   11.10804157
_cell_length_b   12.14477137
_cell_length_c   13.46660773
_cell_angle_alpha   66.99927390
_cell_angle_beta   67.80800399
_cell_angle_gamma   79.06485309
_symmetry_Int_Tables_number   1
_chemical_formula_structural   Ba14Na17DyN6
_chemical_formula_sum   'Ba14 Na17 Dy1 N6'
_cell_volume   1546.51142191
_cell_formula_units_Z   1
loop_
 _symmetry_equiv_pos_site_id
 _symmetry_equiv_pos_as_xyz
  1  'x, y, z'
loop_
 _atom_site_type_symbol
 _atom_site_label
 _atom_site_symmetry_multiplicity
 _atom_site_fract_x
 _atom_site_fract_y
 _atom_site_fract_z
 _atom_site_occupancy
  Ba  Ba0  1  0.366868  0.782724  0.444737  1
  Ba  Ba1  1  0.633132  0.217276  0.555263  1
  Ba  Ba2  1  0.270649  0.306635  0.701110  1
  Ba  Ba3  1  0.729351  0.693365  0.298890  1
  Ba  Ba4  1  0.258514  0.521022  0.401255  1
  Ba  Ba5  1  0.741486  0.478978  0.598745  1
  Ba  Ba6  1  0.380599  0.569323  0.741466  1
  Ba  Ba7  1  0.619401  0.430677  0.258534  1
  Ba  Ba8  1  0.344941  0.165261  0.456219  1
  Ba  Ba9  1  0.655059  0.834739  0.543781  1
  Ba  Ba10  1  0.477403  0.788552  0.119348  1
  Ba  Ba11  1  0.522597  0.211448  0.880652  1
  Ba  Ba12  1  0.033992  0.619772  0.675895  1
  Ba  Ba13  1  0.966008  0.380228  0.324105  1
  Na  Na14  1  0.000000  0.000000  0.500000  1
  Na  Na15  1  0.238560  0.096685  0.206934  1
  Na  Na16  1  0.761440  0.903315  0.793066  1
  Na  Na17  1  0.631538  0.599742  0.894538  1
  Na  Na18  1  0.368462  0.400258  0.105462  1
  Na  Na19  1  0.041326  0.815275  0.310873  1
  Na  Na20  1  0.958674  0.184725  0.689127  1
  Na  Na21  1  0.135510  0.891887  0.755347  1
  Na  Na22  1  0.864490  0.108113  0.244653  1
  Na  Na23  1  0.586429  0.084582  0.186703  1
  Na  Na24  1  0.413571  0.915418  0.813297  1
  Na  Na25  1  0.905248  0.644312  0.984494  1
  Na  Na26  1  0.094752  0.355688  0.015506  1
  Na  Na27  1  0.850992  0.972427  0.990950  1
  Na  Na28  1  0.149008  0.027573  0.009050  1
  Na  Na29  1  0.168704  0.688715  0.057196  1
  Na  Na30  1  0.831296  0.311285  0.942804  1
  Dy  Dy31  1  0.500000  0.500000  0.500000  1
  N  N32  1  0.486805  0.635556  0.311867  1
  N  N33  1  0.513195  0.364444  0.688133  1
  N  N34  1  0.429127  0.333312  0.476047  1
  N  N35  1  0.570873  0.666688  0.523953  1
  N  N36  1  0.729227  0.444363  0.408114  1
  N  N37  1  0.270773  0.555637  0.591886  1
