# generated using pymatgen
data_HoSn6(RuRh)2
_symmetry_space_group_name_H-M   'P 1'
_cell_length_a   6.95236004
_cell_length_b   6.94198466
_cell_length_c   6.95235977
_cell_angle_alpha   120.16530814
_cell_angle_beta   120.09467349
_cell_angle_gamma   89.81770850
_symmetry_Int_Tables_number   1
_chemical_formula_structural   HoSn6(RuRh)2
_chemical_formula_sum   'Ho1 Sn6 Ru2 Rh2'
_cell_volume   236.70839460
_cell_formula_units_Z   1
loop_
 _symmetry_equiv_pos_site_id
 _symmetry_equiv_pos_as_xyz
  1  'x, y, z'
loop_
 _atom_site_type_symbol
 _atom_site_label
 _atom_site_symmetry_multiplicity
 _atom_site_fract_x
 _atom_site_fract_y
 _atom_site_fract_z
 _atom_site_occupancy
  Ho  Ho0  1  0.990381  0.000000  0.990381  1
  Sn  Sn1  1  0.877043  0.535761  0.003658  1
  Sn  Sn2  1  0.538711  0.879447  0.006556  1
  Sn  Sn3  1  0.127109  0.120553  0.659263  1
  Sn  Sn4  1  0.999639  0.500000  0.499639  1
  Sn  Sn5  1  0.467897  0.464239  0.341282  1
  Sn  Sn6  1  0.502452  0.000000  0.502452  1
  Ru  Ru7  1  0.603094  0.243763  0.999176  1
  Ru  Ru8  1  0.755413  0.756237  0.359331  1
  Rh  Rh9  1  0.242487  0.603047  0.998820  1
  Rh  Rh10  1  0.395774  0.396953  0.639440  1
