# generated using pymatgen
data_Dy(BePt)2
_symmetry_space_group_name_H-M   'P 1'
_cell_length_a   3.96758100
_cell_length_b   3.96758100
_cell_length_c   9.71016400
_cell_angle_alpha   90.00000000
_cell_angle_beta   90.00000000
_cell_angle_gamma   90.00000000
_symmetry_Int_Tables_number   1
_chemical_formula_structural   Dy(BePt)2
_chemical_formula_sum   'Dy2 Be4 Pt4'
_cell_volume   152.85447885
_cell_formula_units_Z   2
loop_
 _symmetry_equiv_pos_site_id
 _symmetry_equiv_pos_as_xyz
  1  'x, y, z'
loop_
 _atom_site_type_symbol
 _atom_site_label
 _atom_site_symmetry_multiplicity
 _atom_site_fract_x
 _atom_site_fract_y
 _atom_site_fract_z
 _atom_site_occupancy
  Dy  Dy0  1  0.000000  0.500000  0.253381  1
  Dy  Dy1  1  0.500000  0.000000  0.746619  1
  Be  Be2  1  0.000000  0.000000  0.500000  1
  Be  Be3  1  0.500000  0.500000  0.500000  1
  Be  Be4  1  0.000000  0.500000  0.873153  1
  Be  Be5  1  0.500000  0.000000  0.126847  1
  Pt  Pt6  1  0.000000  0.000000  0.000000  1
  Pt  Pt7  1  0.500000  0.500000  0.000000  1
  Pt  Pt8  1  0.000000  0.500000  0.627576  1
  Pt  Pt9  1  0.500000  0.000000  0.372424  1
