# generated using pymatgen
data_Pm5Ga4
_symmetry_space_group_name_H-M   'P 1'
_cell_length_a   4.52943445
_cell_length_b   6.04072432
_cell_length_c   11.17188000
_cell_angle_alpha   118.15349623
_cell_angle_beta   113.86711232
_cell_angle_gamma   68.16390466
_symmetry_Int_Tables_number   1
_chemical_formula_structural   Pm5Ga4
_chemical_formula_sum   'Pm5 Ga4'
_cell_volume   240.16930782
_cell_formula_units_Z   1
loop_
 _symmetry_equiv_pos_site_id
 _symmetry_equiv_pos_as_xyz
  1  'x, y, z'
loop_
 _atom_site_type_symbol
 _atom_site_label
 _atom_site_symmetry_multiplicity
 _atom_site_fract_x
 _atom_site_fract_y
 _atom_site_fract_z
 _atom_site_occupancy
  Pm  Pm0  1  0.186398  0.198131  0.661701  1
  Pm  Pm1  1  0.485564  0.469025  0.095646  1
  Pm  Pm2  1  0.316388  0.503622  0.444625  1
  Pm  Pm3  1  0.900981  0.986123  0.269991  1
  Pm  Pm4  1  0.615144  0.775176  0.878482  1
  Ga  Ga5  1  0.182553  0.082110  0.099720  1
  Ga  Ga6  1  0.903691  0.763605  0.661736  1
  Ga  Ga7  1  0.619075  0.891118  0.440513  1
  Ga  Ga8  1  0.897883  0.209723  0.878468  1
