# generated using pymatgen
data_ThFeMo(PIr)3
_symmetry_space_group_name_H-M   'P 1'
_cell_length_a   3.96815500
_cell_length_b   10.81164800
_cell_length_c   12.50174300
_cell_angle_alpha   90.00000000
_cell_angle_beta   90.00000000
_cell_angle_gamma   90.00000000
_symmetry_Int_Tables_number   1
_chemical_formula_structural   ThFeMo(PIr)3
_chemical_formula_sum   'Th4 Fe4 Mo4 P12 Ir12'
_cell_volume   536.35346707
_cell_formula_units_Z   4
loop_
 _symmetry_equiv_pos_site_id
 _symmetry_equiv_pos_as_xyz
  1  'x, y, z'
loop_
 _atom_site_type_symbol
 _atom_site_label
 _atom_site_symmetry_multiplicity
 _atom_site_fract_x
 _atom_site_fract_y
 _atom_site_fract_z
 _atom_site_occupancy
  Th  Th0  1  0.250000  0.581702  0.709036  1
  Th  Th1  1  0.250000  0.918298  0.209036  1
  Th  Th2  1  0.750000  0.418298  0.290964  1
  Th  Th3  1  0.750000  0.081702  0.790964  1
  Fe  Fe4  1  0.250000  0.461743  0.935731  1
  Fe  Fe5  1  0.250000  0.038257  0.435731  1
  Fe  Fe6  1  0.750000  0.538257  0.064269  1
  Fe  Fe7  1  0.750000  0.961743  0.564269  1
  Mo  Mo8  1  0.250000  0.706745  0.984043  1
  Mo  Mo9  1  0.250000  0.793255  0.484043  1
  Mo  Mo10  1  0.750000  0.293255  0.015957  1
  Mo  Mo11  1  0.750000  0.206745  0.515957  1
  P  P12  1  0.250000  0.427027  0.104006  1
  P  P13  1  0.250000  0.072973  0.604006  1
  P  P14  1  0.750000  0.572973  0.895994  1
  P  P15  1  0.750000  0.927027  0.395994  1
  P  P16  1  0.250000  0.273496  0.872027  1
  P  P17  1  0.250000  0.226504  0.372027  1
  P  P18  1  0.750000  0.726504  0.127973  1
  P  P19  1  0.750000  0.773496  0.627973  1
  P  P20  1  0.250000  0.602943  0.392080  1
  P  P21  1  0.250000  0.897057  0.892080  1
  P  P22  1  0.750000  0.397057  0.607920  1
  P  P23  1  0.750000  0.102943  0.107920  1
  Ir  Ir24  1  0.250000  0.404173  0.483364  1
  Ir  Ir25  1  0.250000  0.095827  0.983364  1
  Ir  Ir26  1  0.750000  0.595827  0.516636  1
  Ir  Ir27  1  0.750000  0.904173  0.016636  1
  Ir  Ir28  1  0.250000  0.233408  0.179414  1
  Ir  Ir29  1  0.250000  0.266592  0.679414  1
  Ir  Ir30  1  0.750000  0.766592  0.820586  1
  Ir  Ir31  1  0.750000  0.733408  0.320586  1
  Ir  Ir32  1  0.250000  0.887156  0.699824  1
  Ir  Ir33  1  0.250000  0.612844  0.199824  1
  Ir  Ir34  1  0.750000  0.112844  0.300176  1
  Ir  Ir35  1  0.750000  0.387156  0.800176  1
