# generated using pymatgen
data_Ti2MnPt2Rh3
_symmetry_space_group_name_H-M   'P 1'
_cell_length_a   4.03144400
_cell_length_b   5.44012030
_cell_length_c   10.75913731
_cell_angle_alpha   90.99265339
_cell_angle_beta   90.00000000
_cell_angle_gamma   90.00000000
_symmetry_Int_Tables_number   1
_chemical_formula_structural   Ti2MnPt2Rh3
_chemical_formula_sum   'Ti4 Mn2 Pt4 Rh6'
_cell_volume   235.92904139
_cell_formula_units_Z   2
loop_
 _symmetry_equiv_pos_site_id
 _symmetry_equiv_pos_as_xyz
  1  'x, y, z'
loop_
 _atom_site_type_symbol
 _atom_site_label
 _atom_site_symmetry_multiplicity
 _atom_site_fract_x
 _atom_site_fract_y
 _atom_site_fract_z
 _atom_site_occupancy
  Ti  Ti0  1  0.500000  0.305372  0.139491  1
  Ti  Ti1  1  0.500000  0.694628  0.860509  1
  Ti  Ti2  1  0.500000  0.791508  0.361251  1
  Ti  Ti3  1  0.500000  0.208492  0.638749  1
  Mn  Mn4  1  0.000000  0.000000  0.000000  1
  Mn  Mn5  1  0.000000  0.500000  0.500000  1
  Pt  Pt6  1  0.000000  0.000000  0.500000  1
  Pt  Pt7  1  0.000000  0.500000  0.000000  1
  Pt  Pt8  1  0.000000  0.049711  0.243393  1
  Pt  Pt9  1  0.000000  0.950289  0.756607  1
  Rh  Rh10  1  0.000000  0.550191  0.256678  1
  Rh  Rh11  1  0.000000  0.449809  0.743322  1
  Rh  Rh12  1  0.500000  0.287657  0.387236  1
  Rh  Rh13  1  0.500000  0.712343  0.612764  1
  Rh  Rh14  1  0.500000  0.785882  0.113283  1
  Rh  Rh15  1  0.500000  0.214118  0.886717  1
