# generated using pymatgen
data_SrAc3(Ga5Pt3)2
_symmetry_space_group_name_H-M   'P 1'
_cell_length_a   8.88196251
_cell_length_b   8.88093114
_cell_length_c   8.88093200
_cell_angle_alpha   139.59956927
_cell_angle_beta   106.94528457
_cell_angle_gamma   86.96077908
_symmetry_Int_Tables_number   1
_chemical_formula_structural   SrAc3(Ga5Pt3)2
_chemical_formula_sum   'Sr1 Ac3 Ga10 Pt6'
_cell_volume   417.88390103
_cell_formula_units_Z   1
loop_
 _symmetry_equiv_pos_site_id
 _symmetry_equiv_pos_as_xyz
  1  'x, y, z'
loop_
 _atom_site_type_symbol
 _atom_site_label
 _atom_site_symmetry_multiplicity
 _atom_site_fract_x
 _atom_site_fract_y
 _atom_site_fract_z
 _atom_site_occupancy
  Sr  Sr0  1  0.637373  0.367363  0.270010  1
  Ac  Ac1  1  0.363415  0.636199  0.727216  1
  Ac  Ac2  1  0.094086  0.866251  0.227834  1
  Ac  Ac3  1  0.905901  0.131782  0.774119  1
  Ga  Ga4  1  0.282541  0.529664  0.249455  1
  Ga  Ga5  1  0.719485  0.469350  0.747721  1
  Ga  Ga6  1  0.719485  0.971763  0.250134  1
  Ga  Ga7  1  0.282541  0.033086  0.752877  1
  Ga  Ga8  1  0.449133  0.102139  0.346993  1
  Ga  Ga9  1  0.551671  0.897663  0.654007  1
  Ga  Ga10  1  0.752341  0.600900  0.151443  1
  Ga  Ga11  1  0.247073  0.398829  0.848243  1
  Ga  Ga12  1  0.997280  0.252198  0.253424  1
  Ga  Ga13  1  0.997280  0.743854  0.745081  1
  Pt  Pt14  1  0.245160  0.139500  0.105660  1
  Pt  Pt15  1  0.755136  0.860093  0.895042  1
  Pt  Pt16  1  0.034094  0.641074  0.393020  1
  Pt  Pt17  1  0.967231  0.357978  0.609253  1
  Pt  Pt18  1  0.499390  0.249506  0.748582  1
  Pt  Pt19  1  0.499390  0.750808  0.249884  1
