# generated using pymatgen
data_Y3Cd2InGa2Ag
_symmetry_space_group_name_H-M   'P 1'
_cell_length_a   7.28771534
_cell_length_b   7.31709816
_cell_length_c   4.47285400
_cell_angle_alpha   90.00000000
_cell_angle_beta   90.00000000
_cell_angle_gamma   120.13346513
_symmetry_Int_Tables_number   1
_chemical_formula_structural   Y3Cd2InGa2Ag
_chemical_formula_sum   'Y3 Cd2 In1 Ga2 Ag1'
_cell_volume   206.28136091
_cell_formula_units_Z   1
loop_
 _symmetry_equiv_pos_site_id
 _symmetry_equiv_pos_as_xyz
  1  'x, y, z'
loop_
 _atom_site_type_symbol
 _atom_site_label
 _atom_site_symmetry_multiplicity
 _atom_site_fract_x
 _atom_site_fract_y
 _atom_site_fract_z
 _atom_site_occupancy
  Y  Y0  1  0.000000  0.576108  0.500000  1
  Y  Y1  1  0.422660  0.422771  0.500000  1
  Y  Y2  1  0.577340  0.000111  0.500000  1
  Cd  Cd3  1  0.750819  0.749482  0.000000  1
  Cd  Cd4  1  0.249181  0.998664  0.000000  1
  In  In5  1  0.000000  0.248458  0.000000  1
  Ga  Ga6  1  0.334731  0.669414  0.000000  1
  Ga  Ga7  1  0.665269  0.334681  0.000000  1
  Ag  Ag8  1  0.000000  0.000311  0.500000  1
