# generated using pymatgen
data_TbNdLuGa8Ag3
_symmetry_space_group_name_H-M   'P 1'
_cell_length_a   4.35108565
_cell_length_b   8.40923214
_cell_length_c   8.40923162
_cell_angle_alpha   69.48304143
_cell_angle_beta   75.00653948
_cell_angle_gamma   75.00652928
_symmetry_Int_Tables_number   1
_chemical_formula_structural   TbNdLuGa8Ag3
_chemical_formula_sum   'Tb1 Nd1 Lu1 Ga8 Ag3'
_cell_volume   273.51629693
_cell_formula_units_Z   1
loop_
 _symmetry_equiv_pos_site_id
 _symmetry_equiv_pos_as_xyz
  1  'x, y, z'
loop_
 _atom_site_type_symbol
 _atom_site_label
 _atom_site_symmetry_multiplicity
 _atom_site_fract_x
 _atom_site_fract_y
 _atom_site_fract_z
 _atom_site_occupancy
  Tb  Tb0  1  0.800518  0.199482  0.199482  1
  Nd  Nd1  1  0.499662  0.500338  0.500338  1
  Lu  Lu2  1  0.198652  0.801348  0.801348  1
  Ga  Ga3  1  0.355329  0.362265  0.927076  1
  Ga  Ga4  1  0.645020  0.639218  0.070743  1
  Ga  Ga5  1  0.355329  0.927076  0.362265  1
  Ga  Ga6  1  0.645020  0.070743  0.639218  1
  Ga  Ga7  1  0.160008  0.471996  0.207988  1
  Ga  Ga8  1  0.838761  0.529789  0.792688  1
  Ga  Ga9  1  0.160008  0.207988  0.471996  1
  Ga  Ga10  1  0.838761  0.792688  0.529789  1
  Ag  Ag11  1  0.500921  0.999079  0.999079  1
  Ag  Ag12  1  0.001006  0.803321  0.194668  1
  Ag  Ag13  1  0.001006  0.194668  0.803321  1
