# generated using pymatgen
data_Er5ZnNiBi
_symmetry_space_group_name_H-M   'P 1'
_cell_length_a   8.44087941
_cell_length_b   8.44087947
_cell_length_c   8.67276887
_cell_angle_alpha   124.87581627
_cell_angle_beta   124.87582076
_cell_angle_gamma   79.92037948
_symmetry_Int_Tables_number   1
_chemical_formula_structural   Er5ZnNiBi
_chemical_formula_sum   'Er10 Zn2 Ni2 Bi2'
_cell_volume   405.15308884
_cell_formula_units_Z   2
loop_
 _symmetry_equiv_pos_site_id
 _symmetry_equiv_pos_as_xyz
  1  'x, y, z'
loop_
 _atom_site_type_symbol
 _atom_site_label
 _atom_site_symmetry_multiplicity
 _atom_site_fract_x
 _atom_site_fract_y
 _atom_site_fract_z
 _atom_site_occupancy
  Er  Er0  1  0.000000  0.000000  0.000000  1
  Er  Er1  1  0.500000  0.500000  0.000000  1
  Er  Er2  1  0.780228  0.280228  0.785348  1
  Er  Er3  1  0.219772  0.719772  0.214652  1
  Er  Er4  1  0.494879  0.994879  0.214652  1
  Er  Er5  1  0.305414  0.463914  0.500000  1
  Er  Er6  1  0.036086  0.194586  0.500000  1
  Er  Er7  1  0.505121  0.005121  0.785348  1
  Er  Er8  1  0.694586  0.536086  0.500000  1
  Er  Er9  1  0.963914  0.805414  0.500000  1
  Zn  Zn10  1  0.139146  0.639146  0.778293  1
  Zn  Zn11  1  0.860854  0.360854  0.221707  1
  Ni  Ni12  1  0.631789  0.868211  0.500000  1
  Ni  Ni13  1  0.368211  0.131789  0.500000  1
  Bi  Bi14  1  0.250000  0.250000  0.000000  1
  Bi  Bi15  1  0.750000  0.750000  0.000000  1
