# generated using pymatgen
data_Y2HoTm(Ga3Ir)6
_symmetry_space_group_name_H-M   'P 1'
_cell_length_a   7.58943222
_cell_length_b   7.59152387
_cell_length_c   9.49171400
_cell_angle_alpha   90.00000000
_cell_angle_beta   90.00000000
_cell_angle_gamma   119.91690651
_symmetry_Int_Tables_number   1
_chemical_formula_structural   Y2HoTm(Ga3Ir)6
_chemical_formula_sum   'Y2 Ho1 Tm1 Ga18 Ir6'
_cell_volume   473.99804732
_cell_formula_units_Z   1
loop_
 _symmetry_equiv_pos_site_id
 _symmetry_equiv_pos_as_xyz
  1  'x, y, z'
loop_
 _atom_site_type_symbol
 _atom_site_label
 _atom_site_symmetry_multiplicity
 _atom_site_fract_x
 _atom_site_fract_y
 _atom_site_fract_z
 _atom_site_occupancy
  Y  Y0  1  0.997237  0.669273  0.750000  1
  Y  Y1  1  0.669252  0.997154  0.750000  1
  Ho  Ho2  1  0.002790  0.330592  0.250000  1
  Tm  Tm3  1  0.330351  0.002680  0.250000  1
  Ga  Ga4  1  0.128551  0.128285  0.750000  1
  Ga  Ga5  1  0.872293  0.871998  0.250000  1
  Ga  Ga6  1  0.999568  0.334529  0.579853  1
  Ga  Ga7  1  0.001480  0.666040  0.418685  1
  Ga  Ga8  1  0.001480  0.666040  0.081315  1
  Ga  Ga9  1  0.334537  0.999508  0.920818  1
  Ga  Ga10  1  0.999568  0.334529  0.920147  1
  Ga  Ga11  1  0.664780  0.000947  0.081350  1
  Ga  Ga12  1  0.664780  0.000947  0.418650  1
  Ga  Ga13  1  0.334537  0.999508  0.579182  1
  Ga  Ga14  1  0.332295  0.331754  0.065992  1
  Ga  Ga15  1  0.667460  0.667451  0.936077  1
  Ga  Ga16  1  0.667460  0.667451  0.563923  1
  Ga  Ga17  1  0.332295  0.331754  0.434008  1
  Ga  Ga18  1  0.339011  0.546499  0.750000  1
  Ga  Ga19  1  0.660260  0.452467  0.250000  1
  Ga  Ga20  1  0.546356  0.338720  0.750000  1
  Ga  Ga21  1  0.453166  0.661224  0.250000  1
  Ir  Ir22  1  0.671442  0.328720  0.499578  1
  Ir  Ir23  1  0.328529  0.671216  0.499577  1
  Ir  Ir24  1  0.328529  0.671216  0.000423  1
  Ir  Ir25  1  0.671442  0.328720  0.000422  1
  Ir  Ir26  1  0.000277  0.000389  0.499355  1
  Ir  Ir27  1  0.000277  0.000389  0.000645  1
