# generated using pymatgen
data_PrNd9(Sn3P)2
_symmetry_space_group_name_H-M   'P 1'
_cell_length_a   9.42790000
_cell_length_b   9.42790095
_cell_length_c   6.99492100
_cell_angle_alpha   90.00000000
_cell_angle_beta   90.00000000
_cell_angle_gamma   119.99999667
_symmetry_Int_Tables_number   1
_chemical_formula_structural   PrNd9(Sn3P)2
_chemical_formula_sum   'Pr1 Nd9 Sn6 P2'
_cell_volume   538.44759157
_cell_formula_units_Z   1
loop_
 _symmetry_equiv_pos_site_id
 _symmetry_equiv_pos_as_xyz
  1  'x, y, z'
loop_
 _atom_site_type_symbol
 _atom_site_label
 _atom_site_symmetry_multiplicity
 _atom_site_fract_x
 _atom_site_fract_y
 _atom_site_fract_z
 _atom_site_occupancy
  Pr  Pr0  1  0.666667  0.333333  0.500000  1
  Nd  Nd1  1  0.666667  0.333333  0.000000  1
  Nd  Nd2  1  0.333333  0.666667  0.000000  1
  Nd  Nd3  1  0.333333  0.666667  0.500000  1
  Nd  Nd4  1  0.759962  0.760076  0.750053  1
  Nd  Nd5  1  0.239924  0.999886  0.750053  1
  Nd  Nd6  1  0.000114  0.240038  0.750053  1
  Nd  Nd7  1  0.239924  0.240038  0.249947  1
  Nd  Nd8  1  0.759962  0.999886  0.249947  1
  Nd  Nd9  1  0.000114  0.760076  0.249947  1
  Sn  Sn10  1  0.399984  0.400349  0.750221  1
  Sn  Sn11  1  0.599651  0.999635  0.750221  1
  Sn  Sn12  1  0.000365  0.600016  0.750221  1
  Sn  Sn13  1  0.599651  0.600016  0.249779  1
  Sn  Sn14  1  0.399984  0.999635  0.249779  1
  Sn  Sn15  1  0.000365  0.400349  0.249779  1
  P  P16  1  0.000000  0.000000  0.000000  1
  P  P17  1  0.000000  0.000000  0.500000  1
