# generated using pymatgen
data_Tm7Lu3(InSb2)2
_symmetry_space_group_name_H-M   'P 1'
_cell_length_a   8.83043004
_cell_length_b   8.84256345
_cell_length_c   6.35113603
_cell_angle_alpha   89.99479163
_cell_angle_beta   90.01042456
_cell_angle_gamma   119.95461966
_symmetry_Int_Tables_number   1
_chemical_formula_structural   Tm7Lu3(InSb2)2
_chemical_formula_sum   'Tm7 Lu3 In2 Sb4'
_cell_volume   429.67540159
_cell_formula_units_Z   1
loop_
 _symmetry_equiv_pos_site_id
 _symmetry_equiv_pos_as_xyz
  1  'x, y, z'
loop_
 _atom_site_type_symbol
 _atom_site_label
 _atom_site_symmetry_multiplicity
 _atom_site_fract_x
 _atom_site_fract_y
 _atom_site_fract_z
 _atom_site_occupancy
  Tm  Tm0  1  0.334970  0.669943  0.500000  1
  Tm  Tm1  1  0.236755  0.000013  0.249936  1
  Tm  Tm2  1  0.763258  0.000013  0.750064  1
  Tm  Tm3  1  0.993164  0.237470  0.249912  1
  Tm  Tm4  1  0.755609  0.762480  0.249970  1
  Tm  Tm5  1  0.244306  0.237470  0.750088  1
  Tm  Tm6  1  0.006871  0.762480  0.750030  1
  Lu  Lu7  1  0.335105  0.670212  0.000000  1
  Lu  Lu8  1  0.664789  0.329575  0.500000  1
  Lu  Lu9  1  0.664889  0.329776  0.000000  1
  In  In10  1  0.600244  0.000557  0.249589  1
  In  In11  1  0.400314  0.000557  0.750411  1
  Sb  Sb12  1  0.996958  0.607155  0.249748  1
  Sb  Sb13  1  0.390262  0.392571  0.249705  1
  Sb  Sb14  1  0.610197  0.607155  0.750252  1
  Sb  Sb15  1  0.002309  0.392571  0.750295  1
