# generated using pymatgen
data_Th4Cd2IrPd3
_symmetry_space_group_name_H-M   'P 1'
_cell_length_a   7.94603330
_cell_length_b   7.94603357
_cell_length_c   3.81640600
_cell_angle_alpha   90.00000000
_cell_angle_beta   90.00000000
_cell_angle_gamma   89.95277763
_symmetry_Int_Tables_number   1
_chemical_formula_structural   Th4Cd2IrPd3
_chemical_formula_sum   'Th4 Cd2 Ir1 Pd3'
_cell_volume   240.96568399
_cell_formula_units_Z   1
loop_
 _symmetry_equiv_pos_site_id
 _symmetry_equiv_pos_as_xyz
  1  'x, y, z'
loop_
 _atom_site_type_symbol
 _atom_site_label
 _atom_site_symmetry_multiplicity
 _atom_site_fract_x
 _atom_site_fract_y
 _atom_site_fract_z
 _atom_site_occupancy
  Th  Th0  1  0.670836  0.170836  0.500000  1
  Th  Th1  1  0.318113  0.818113  0.500000  1
  Th  Th2  1  0.176327  0.337997  0.500000  1
  Th  Th3  1  0.837997  0.676327  0.500000  1
  Cd  Cd4  1  0.000295  0.004451  0.000000  1
  Cd  Cd5  1  0.504451  0.500295  0.000000  1
  Ir  Ir6  1  0.125677  0.625677  0.000000  1
  Pd  Pd7  1  0.866555  0.366555  0.000000  1
  Pd  Pd8  1  0.628631  0.871115  0.000000  1
  Pd  Pd9  1  0.371115  0.128631  0.000000  1
