# generated using pymatgen
data_Y2Er3P12Pd3Ru16
_symmetry_space_group_name_H-M   'P 1'
_cell_length_a   12.60034402
_cell_length_b   12.59912001
_cell_length_c   3.96760000
_cell_angle_alpha   90.00000000
_cell_angle_beta   90.00000000
_cell_angle_gamma   119.99678512
_symmetry_Int_Tables_number   1
_chemical_formula_structural   Y2Er3P12Pd3Ru16
_chemical_formula_sum   'Y2 Er3 P12 Pd3 Ru16'
_cell_volume   545.50055505
_cell_formula_units_Z   1
loop_
 _symmetry_equiv_pos_site_id
 _symmetry_equiv_pos_as_xyz
  1  'x, y, z'
loop_
 _atom_site_type_symbol
 _atom_site_label
 _atom_site_symmetry_multiplicity
 _atom_site_fract_x
 _atom_site_fract_y
 _atom_site_fract_z
 _atom_site_occupancy
  Y  Y0  1  0.181289  0.181219  0.500000  1
  Y  Y1  1  0.818711  0.999930  0.500000  1
  Er  Er2  1  0.000000  0.818971  0.500000  1
  Er  Er3  1  0.333321  0.666706  0.000000  1
  Er  Er4  1  0.666679  0.333384  0.000000  1
  P  P5  1  0.814856  0.814524  0.000000  1
  P  P6  1  0.185144  0.999668  0.000000  1
  P  P7  1  0.000000  0.185321  0.000000  1
  P  P8  1  0.179079  0.480478  0.500000  1
  P  P9  1  0.519652  0.698639  0.500000  1
  P  P10  1  0.301360  0.820954  0.500000  1
  P  P11  1  0.698640  0.519595  0.500000  1
  P  P12  1  0.820921  0.301400  0.500000  1
  P  P13  1  0.480348  0.178988  0.500000  1
  P  P14  1  0.366687  0.366684  0.000000  1
  P  P15  1  0.633313  0.999997  0.000000  1
  P  P16  1  0.000000  0.633710  0.000000  1
  Pd  Pd17  1  0.553679  0.553680  0.000000  1
  Pd  Pd18  1  0.446321  0.000001  0.000000  1
  Pd  Pd19  1  0.000000  0.446406  0.000000  1
  Ru  Ru20  1  0.713515  0.713250  0.500000  1
  Ru  Ru21  1  0.286485  0.999735  0.500000  1
  Ru  Ru22  1  0.000000  0.286860  0.500000  1
  Ru  Ru23  1  0.185834  0.378806  0.000000  1
  Ru  Ru24  1  0.621221  0.807004  0.000000  1
  Ru  Ru25  1  0.192375  0.814152  0.000000  1
  Ru  Ru26  1  0.807625  0.621776  0.000000  1
  Ru  Ru27  1  0.814166  0.192972  0.000000  1
  Ru  Ru28  1  0.378779  0.185784  0.000000  1
  Ru  Ru29  1  0.368635  0.493198  0.500000  1
  Ru  Ru30  1  0.506812  0.875432  0.500000  1
  Ru  Ru31  1  0.124544  0.631458  0.500000  1
  Ru  Ru32  1  0.875456  0.506913  0.500000  1
  Ru  Ru33  1  0.631365  0.124563  0.500000  1
  Ru  Ru34  1  0.493188  0.368618  0.500000  1
  Ru  Ru35  1  0.000000  0.999226  0.000000  1
