# generated using pymatgen
data_HoEr3(MoOs3)2
_symmetry_space_group_name_H-M   'P 1'
_cell_length_a   5.45710600
_cell_length_b   5.45710563
_cell_length_c   8.55779400
_cell_angle_alpha   90.00000000
_cell_angle_beta   90.00000000
_cell_angle_gamma   120.00000224
_symmetry_Int_Tables_number   1
_chemical_formula_structural   HoEr3(MoOs3)2
_chemical_formula_sum   'Ho1 Er3 Mo2 Os6'
_cell_volume   220.70755513
_cell_formula_units_Z   1
loop_
 _symmetry_equiv_pos_site_id
 _symmetry_equiv_pos_as_xyz
  1  'x, y, z'
loop_
 _atom_site_type_symbol
 _atom_site_label
 _atom_site_symmetry_multiplicity
 _atom_site_fract_x
 _atom_site_fract_y
 _atom_site_fract_z
 _atom_site_occupancy
  Ho  Ho0  1  0.333333  0.666667  0.434843  1
  Er  Er1  1  0.666667  0.333333  0.565159  1
  Er  Er2  1  0.666667  0.333333  0.934843  1
  Er  Er3  1  0.333333  0.666667  0.065123  1
  Mo  Mo4  1  0.000000  0.000000  0.500011  1
  Mo  Mo5  1  0.000000  0.000000  0.000000  1
  Os  Os6  1  0.827197  0.172803  0.249953  1
  Os  Os7  1  0.827197  0.654393  0.249953  1
  Os  Os8  1  0.345607  0.172803  0.249953  1
  Os  Os9  1  0.172778  0.827222  0.750054  1
  Os  Os10  1  0.172778  0.345557  0.750054  1
  Os  Os11  1  0.654443  0.827222  0.750054  1
