# generated using pymatgen
data_SmErBe2(Co3B)2
_symmetry_space_group_name_H-M   'P 1'
_cell_length_a   5.04329003
_cell_length_b   5.04256790
_cell_length_c   6.38095700
_cell_angle_alpha   90.00000000
_cell_angle_beta   90.00000000
_cell_angle_gamma   120.00821035
_symmetry_Int_Tables_number   1
_chemical_formula_structural   SmErBe2(Co3B)2
_chemical_formula_sum   'Sm1 Er1 Be2 Co6 B2'
_cell_volume   140.52261156
_cell_formula_units_Z   1
loop_
 _symmetry_equiv_pos_site_id
 _symmetry_equiv_pos_as_xyz
  1  'x, y, z'
loop_
 _atom_site_type_symbol
 _atom_site_label
 _atom_site_symmetry_multiplicity
 _atom_site_fract_x
 _atom_site_fract_y
 _atom_site_fract_z
 _atom_site_occupancy
  Sm  Sm0  1  0.999982  0.000000  0.000000  1
  Er  Er1  1  0.999992  0.000005  0.499999  1
  Be  Be2  1  0.333579  0.667027  0.000000  1
  Be  Be3  1  0.666379  0.332971  0.000000  1
  Co  Co4  1  0.499985  0.000000  0.277537  1
  Co  Co5  1  0.499985  0.500000  0.277526  1
  Co  Co6  1  0.999982  0.499999  0.277506  1
  Co  Co7  1  0.499985  0.000000  0.722463  1
  Co  Co8  1  0.499985  0.500000  0.722473  1
  Co  Co9  1  0.999982  0.499999  0.722493  1
  B  B10  1  0.333327  0.666733  0.500000  1
  B  B11  1  0.666637  0.333266  0.500000  1
