# generated using pymatgen
data_Er3Sc7(GaSb)4
_symmetry_space_group_name_H-M   'P 1'
_cell_length_a   7.97140893
_cell_length_b   8.48216896
_cell_length_c   7.57907699
_cell_angle_alpha   90.00466099
_cell_angle_beta   89.77404489
_cell_angle_gamma   125.38634947
_symmetry_Int_Tables_number   1
_chemical_formula_structural   Er3Sc7(GaSb)4
_chemical_formula_sum   'Er3 Sc7 Ga4 Sb4'
_cell_volume   417.78474774
_cell_formula_units_Z   1
loop_
 _symmetry_equiv_pos_site_id
 _symmetry_equiv_pos_as_xyz
  1  'x, y, z'
loop_
 _atom_site_type_symbol
 _atom_site_label
 _atom_site_symmetry_multiplicity
 _atom_site_fract_x
 _atom_site_fract_y
 _atom_site_fract_z
 _atom_site_occupancy
  Er  Er0  1  0.163469  0.442908  0.819833  1
  Er  Er1  1  0.668088  0.946228  0.681495  1
  Er  Er2  1  0.338581  0.056056  0.318443  1
  Sc  Sc3  1  0.031443  0.274999  0.336709  1
  Sc  Sc4  1  0.973126  0.728026  0.661315  1
  Sc  Sc5  1  0.469601  0.224758  0.836892  1
  Sc  Sc6  1  0.823198  0.554283  0.177286  1
  Sc  Sc7  1  0.530022  0.773858  0.161768  1
  Sc  Sc8  1  0.998708  0.998231  0.001883  1
  Sc  Sc9  1  0.502501  0.501462  0.498916  1
  Ga  Ga10  1  0.376120  0.373252  0.127010  1
  Ga  Ga11  1  0.627152  0.626741  0.873392  1
  Ga  Ga12  1  0.126920  0.127122  0.625886  1
  Ga  Ga13  1  0.875839  0.869368  0.368656  1
  Sb  Sb14  1  0.763385  0.186835  0.038568  1
  Sb  Sb15  1  0.223089  0.809427  0.972437  1
  Sb  Sb16  1  0.737319  0.321777  0.531146  1
  Sb  Sb17  1  0.271435  0.684669  0.468365  1
