# generated using pymatgen
data_Nb12ReMo6Os5
_symmetry_space_group_name_H-M   'P 1'
_cell_length_a   4.52648200
_cell_length_b   6.42118700
_cell_length_c   13.70758800
_cell_angle_alpha   90.00000000
_cell_angle_beta   90.00010485
_cell_angle_gamma   90.00000000
_symmetry_Int_Tables_number   1
_chemical_formula_structural   Nb12ReMo6Os5
_chemical_formula_sum   'Nb12 Re1 Mo6 Os5'
_cell_volume   398.41635518
_cell_formula_units_Z   1
loop_
 _symmetry_equiv_pos_site_id
 _symmetry_equiv_pos_as_xyz
  1  'x, y, z'
loop_
 _atom_site_type_symbol
 _atom_site_label
 _atom_site_symmetry_multiplicity
 _atom_site_fract_x
 _atom_site_fract_y
 _atom_site_fract_z
 _atom_site_occupancy
  Nb  Nb0  1  0.500000  0.249000  0.000000  1
  Nb  Nb1  1  0.500000  0.750999  0.000000  1
  Nb  Nb2  1  0.999971  0.249524  0.166063  1
  Nb  Nb3  1  0.999971  0.750477  0.166063  1
  Nb  Nb4  1  0.499965  0.249809  0.333154  1
  Nb  Nb5  1  0.499965  0.750191  0.333154  1
  Nb  Nb6  1  0.000000  0.250080  0.500000  1
  Nb  Nb7  1  0.000000  0.749921  0.500000  1
  Nb  Nb8  1  0.500034  0.249809  0.666847  1
  Nb  Nb9  1  0.500034  0.750191  0.666847  1
  Nb  Nb10  1  0.000029  0.249524  0.833937  1
  Nb  Nb11  1  0.000029  0.750477  0.833937  1
  Re  Re12  1  0.000000  0.000000  0.000000  1
  Mo  Mo13  1  0.000000  0.499999  0.000000  1
  Mo  Mo14  1  0.499974  0.000000  0.167567  1
  Mo  Mo15  1  0.999971  0.499999  0.333641  1
  Mo  Mo16  1  0.500000  0.000000  0.500000  1
  Mo  Mo17  1  0.000029  0.499999  0.666359  1
  Mo  Mo18  1  0.500025  0.000000  0.832434  1
  Os  Os19  1  0.499964  0.499999  0.167029  1
  Os  Os20  1  0.999974  0.000000  0.333612  1
  Os  Os21  1  0.500000  0.499999  0.500000  1
  Os  Os22  1  0.000026  0.000000  0.666388  1
  Os  Os23  1  0.500035  0.499999  0.832971  1
