# generated using pymatgen
data_GdHo5(BiO7)2
_symmetry_space_group_name_H-M   'P 1'
_cell_length_a   6.56086100
_cell_length_b   6.54314326
_cell_length_c   7.70311000
_cell_angle_alpha   106.94102215
_cell_angle_beta   89.76327480
_cell_angle_gamma   98.87525027
_symmetry_Int_Tables_number   1
_chemical_formula_structural   GdHo5(BiO7)2
_chemical_formula_sum   'Gd1 Ho5 Bi2 O14'
_cell_volume   312.25487881
_cell_formula_units_Z   1
loop_
 _symmetry_equiv_pos_site_id
 _symmetry_equiv_pos_as_xyz
  1  'x, y, z'
loop_
 _atom_site_type_symbol
 _atom_site_label
 _atom_site_symmetry_multiplicity
 _atom_site_fract_x
 _atom_site_fract_y
 _atom_site_fract_z
 _atom_site_occupancy
  Gd  Gd0  1  0.263977  0.521399  0.385146  1
  Ho  Ho1  1  0.463239  0.005642  0.251473  1
  Ho  Ho2  1  0.537832  0.993772  0.748348  1
  Ho  Ho3  1  0.273584  0.538377  0.883024  1
  Ho  Ho4  1  0.727570  0.462501  0.115804  1
  Ho  Ho5  1  0.730595  0.473345  0.613900  1
  Bi  Bi6  1  0.999224  0.000573  0.500589  1
  Bi  Bi7  1  0.999989  0.999590  0.999773  1
  O  O8  1  0.449943  0.650173  0.163535  1
  O  O9  1  0.553926  0.349907  0.832520  1
  O  O10  1  0.302506  0.921516  0.950837  1
  O  O11  1  0.697729  0.079069  0.048481  1
  O  O12  1  0.299433  0.926870  0.514127  1
  O  O13  1  0.699422  0.076235  0.488049  1
  O  O14  1  0.548232  0.362491  0.344538  1
  O  O15  1  0.457230  0.637102  0.658371  1
  O  O16  1  0.926397  0.665222  0.961090  1
  O  O17  1  0.075447  0.334417  0.039709  1
  O  O18  1  0.067586  0.351703  0.623087  1
  O  O19  1  0.925707  0.652190  0.377584  1
  O  O20  1  0.872416  0.899485  0.724585  1
  O  O21  1  0.128016  0.098421  0.275430  1
