# generated using pymatgen
data_Ho6ScCo16ReP12
_symmetry_space_group_name_H-M   'P 1'
_cell_length_a   3.71465200
_cell_length_b   10.58696100
_cell_length_c   12.28597000
_cell_angle_alpha   90.00000000
_cell_angle_beta   90.00000000
_cell_angle_gamma   90.00000000
_symmetry_Int_Tables_number   1
_chemical_formula_structural   Ho6ScCo16ReP12
_chemical_formula_sum   'Ho6 Sc1 Co16 Re1 P12'
_cell_volume   483.16881692
_cell_formula_units_Z   1
loop_
 _symmetry_equiv_pos_site_id
 _symmetry_equiv_pos_as_xyz
  1  'x, y, z'
loop_
 _atom_site_type_symbol
 _atom_site_label
 _atom_site_symmetry_multiplicity
 _atom_site_fract_x
 _atom_site_fract_y
 _atom_site_fract_z
 _atom_site_occupancy
  Ho  Ho0  1  0.000000  0.500000  0.524899  1
  Ho  Ho1  1  0.500000  0.000000  0.472769  1
  Ho  Ho2  1  0.500000  0.818875  0.204951  1
  Ho  Ho3  1  0.500000  0.181125  0.204951  1
  Ho  Ho4  1  0.000000  0.678671  0.794047  1
  Ho  Ho5  1  0.000000  0.321329  0.794047  1
  Sc  Sc6  1  0.000000  0.000000  0.845936  1
  Co  Co7  1  0.000000  0.500000  0.990903  1
  Co  Co8  1  0.500000  0.000000  0.015484  1
  Co  Co9  1  0.500000  0.297347  0.429684  1
  Co  Co10  1  0.500000  0.702653  0.429684  1
  Co  Co11  1  0.000000  0.205751  0.565481  1
  Co  Co12  1  0.000000  0.794249  0.565481  1
  Co  Co13  1  0.500000  0.876619  0.703468  1
  Co  Co14  1  0.500000  0.123381  0.703468  1
  Co  Co15  1  0.000000  0.620139  0.293238  1
  Co  Co16  1  0.000000  0.379861  0.293238  1
  Co  Co17  1  0.500000  0.336648  0.994573  1
  Co  Co18  1  0.500000  0.663352  0.994573  1
  Co  Co19  1  0.000000  0.173061  0.009836  1
  Co  Co20  1  0.000000  0.826939  0.009836  1
  Co  Co21  1  0.500000  0.500000  0.703104  1
  Co  Co22  1  0.000000  0.000000  0.296502  1
  Re  Re23  1  0.500000  0.500000  0.159249  1
  P  P24  1  0.500000  0.311708  0.614677  1
  P  P25  1  0.500000  0.688292  0.614677  1
  P  P26  1  0.000000  0.189308  0.382619  1
  P  P27  1  0.000000  0.810692  0.382619  1
  P  P28  1  0.500000  0.500000  0.881952  1
  P  P29  1  0.000000  0.000000  0.116690  1
  P  P30  1  0.500000  0.838060  0.896140  1
  P  P31  1  0.500000  0.161940  0.896140  1
  P  P32  1  0.000000  0.653495  0.111345  1
  P  P33  1  0.000000  0.346505  0.111345  1
  P  P34  1  0.500000  0.500000  0.351258  1
  P  P35  1  0.000000  0.000000  0.641135  1
