# generated using pymatgen
data_LiNd8Zn7Pt5Rh3
_symmetry_space_group_name_H-M   'P 1'
_cell_length_a   4.04937500
_cell_length_b   7.39496090
_cell_length_c   16.76373096
_cell_angle_alpha   90.06117264
_cell_angle_beta   90.00000000
_cell_angle_gamma   90.00000000
_symmetry_Int_Tables_number   1
_chemical_formula_structural   LiNd8Zn7Pt5Rh3
_chemical_formula_sum   'Li1 Nd8 Zn7 Pt5 Rh3'
_cell_volume   501.98913104
_cell_formula_units_Z   1
loop_
 _symmetry_equiv_pos_site_id
 _symmetry_equiv_pos_as_xyz
  1  'x, y, z'
loop_
 _atom_site_type_symbol
 _atom_site_label
 _atom_site_symmetry_multiplicity
 _atom_site_fract_x
 _atom_site_fract_y
 _atom_site_fract_z
 _atom_site_occupancy
  Li  Li0  1  0.750000  0.006447  0.559061  1
  Nd  Nd1  1  0.250000  0.167812  0.942996  1
  Nd  Nd2  1  0.250000  0.665149  0.559421  1
  Nd  Nd3  1  0.750000  0.331441  0.438319  1
  Nd  Nd4  1  0.750000  0.947852  0.281572  1
  Nd  Nd5  1  0.750000  0.829830  0.060549  1
  Nd  Nd6  1  0.750000  0.452092  0.212008  1
  Nd  Nd7  1  0.250000  0.049171  0.718135  1
  Nd  Nd8  1  0.250000  0.553692  0.787867  1
  Zn  Zn9  1  0.250000  0.620370  0.345915  1
  Zn  Zn10  1  0.750000  0.375756  0.652013  1
  Zn  Zn11  1  0.250000  0.498718  0.059822  1
  Zn  Zn12  1  0.750000  0.502958  0.941362  1
  Zn  Zn13  1  0.250000  0.999272  0.440274  1
  Zn  Zn14  1  0.250000  0.120843  0.150045  1
  Zn  Zn15  1  0.750000  0.877085  0.851600  1
  Pt  Pt16  1  0.750000  0.753768  0.434316  1
  Pt  Pt17  1  0.250000  0.247472  0.312429  1
  Pt  Pt18  1  0.750000  0.254709  0.814930  1
  Pt  Pt19  1  0.750000  0.749735  0.686818  1
  Pt  Pt20  1  0.250000  0.247066  0.564531  1
  Rh  Rh21  1  0.250000  0.747910  0.184825  1
  Rh  Rh22  1  0.750000  0.254903  0.065027  1
  Rh  Rh23  1  0.250000  0.745951  0.936164  1
