# generated using pymatgen
data_La12In4C3
_symmetry_space_group_name_H-M   'P 1'
_cell_length_a   5.22345100
_cell_length_b   5.22345100
_cell_length_c   20.72829400
_cell_angle_alpha   90.00000000
_cell_angle_beta   90.00000000
_cell_angle_gamma   90.00000000
_symmetry_Int_Tables_number   1
_chemical_formula_structural   La12In4C3
_chemical_formula_sum   'La12 In4 C3'
_cell_volume   565.55990119
_cell_formula_units_Z   1
loop_
 _symmetry_equiv_pos_site_id
 _symmetry_equiv_pos_as_xyz
  1  'x, y, z'
loop_
 _atom_site_type_symbol
 _atom_site_label
 _atom_site_symmetry_multiplicity
 _atom_site_fract_x
 _atom_site_fract_y
 _atom_site_fract_z
 _atom_site_occupancy
  La  La0  1  0.500000  0.500000  0.876260  1
  La  La1  1  0.500000  0.500000  0.123740  1
  La  La2  1  0.500000  0.500000  0.375204  1
  La  La3  1  0.500000  0.500000  0.624796  1
  La  La4  1  0.500000  0.000000  0.000000  1
  La  La5  1  0.500000  0.000000  0.249055  1
  La  La6  1  0.500000  0.000000  0.500000  1
  La  La7  1  0.500000  0.000000  0.750945  1
  La  La8  1  0.000000  0.500000  0.000000  1
  La  La9  1  0.000000  0.500000  0.249055  1
  La  La10  1  0.000000  0.500000  0.500000  1
  La  La11  1  0.000000  0.500000  0.750945  1
  In  In12  1  0.000000  0.000000  0.877737  1
  In  In13  1  0.000000  0.000000  0.122263  1
  In  In14  1  0.000000  0.000000  0.374348  1
  In  In15  1  0.000000  0.000000  0.625652  1
  C  C16  1  0.500000  0.500000  0.240609  1
  C  C17  1  0.500000  0.500000  0.500000  1
  C  C18  1  0.500000  0.500000  0.759391  1
