# generated using pymatgen
data_Hf4Zr6Al3Ga9Rh7
_symmetry_space_group_name_H-M   'P 1'
_cell_length_a   8.92622902
_cell_length_b   8.92623091
_cell_length_c   8.92623100
_cell_angle_alpha   59.84657116
_cell_angle_beta   59.84656458
_cell_angle_gamma   59.84656346
_symmetry_Int_Tables_number   1
_chemical_formula_structural   Hf4Zr6Al3Ga9Rh7
_chemical_formula_sum   'Hf4 Zr6 Al3 Ga9 Rh7'
_cell_volume   501.15767473
_cell_formula_units_Z   1
loop_
 _symmetry_equiv_pos_site_id
 _symmetry_equiv_pos_as_xyz
  1  'x, y, z'
loop_
 _atom_site_type_symbol
 _atom_site_label
 _atom_site_symmetry_multiplicity
 _atom_site_fract_x
 _atom_site_fract_y
 _atom_site_fract_z
 _atom_site_occupancy
  Hf  Hf0  1  0.878597  0.878597  0.365038  1
  Hf  Hf1  1  0.878597  0.365038  0.878597  1
  Hf  Hf2  1  0.365038  0.878597  0.878597  1
  Hf  Hf3  1  0.877826  0.877826  0.877826  1
  Zr  Zr4  1  0.691230  0.691230  0.309152  1
  Zr  Zr5  1  0.308684  0.691694  0.308684  1
  Zr  Zr6  1  0.691694  0.308684  0.308684  1
  Zr  Zr7  1  0.308684  0.308684  0.691694  1
  Zr  Zr8  1  0.691230  0.309152  0.691230  1
  Zr  Zr9  1  0.309152  0.691230  0.691230  1
  Al  Al10  1  0.122475  0.122475  0.632427  1
  Al  Al11  1  0.122475  0.632427  0.122475  1
  Al  Al12  1  0.632427  0.122475  0.122475  1
  Ga  Ga13  1  0.120897  0.120897  0.120897  1
  Ga  Ga14  1  0.656292  0.656292  0.030964  1
  Ga  Ga15  1  0.656292  0.030964  0.656292  1
  Ga  Ga16  1  0.030964  0.656292  0.656292  1
  Ga  Ga17  1  0.656284  0.656284  0.656284  1
  Ga  Ga18  1  0.341075  0.341075  0.977940  1
  Ga  Ga19  1  0.341075  0.977940  0.341075  1
  Ga  Ga20  1  0.977940  0.341075  0.341075  1
  Ga  Ga21  1  0.340909  0.340909  0.340909  1
  Rh  Rh22  1  0.998348  0.998348  0.998348  1
  Rh  Rh23  1  0.999373  0.999373  0.502125  1
  Rh  Rh24  1  0.500643  0.999659  0.500643  1
  Rh  Rh25  1  0.999659  0.500643  0.500643  1
  Rh  Rh26  1  0.500643  0.500643  0.999659  1
  Rh  Rh27  1  0.999373  0.502125  0.999373  1
  Rh  Rh28  1  0.502125  0.999373  0.999373  1
