# generated using pymatgen
data_Tb3Cd3Ag2Pd
_symmetry_space_group_name_H-M   'P 1'
_cell_length_a   7.95236300
_cell_length_b   7.95236379
_cell_length_c   3.81225700
_cell_angle_alpha   90.00000000
_cell_angle_beta   90.00000000
_cell_angle_gamma   120.00000088
_symmetry_Int_Tables_number   1
_chemical_formula_structural   Tb3Cd3Ag2Pd
_chemical_formula_sum   'Tb3 Cd3 Ag2 Pd1'
_cell_volume   208.78785543
_cell_formula_units_Z   1
loop_
 _symmetry_equiv_pos_site_id
 _symmetry_equiv_pos_as_xyz
  1  'x, y, z'
loop_
 _atom_site_type_symbol
 _atom_site_label
 _atom_site_symmetry_multiplicity
 _atom_site_fract_x
 _atom_site_fract_y
 _atom_site_fract_z
 _atom_site_occupancy
  Tb  Tb0  1  0.607100  0.020586  0.000000  1
  Tb  Tb1  1  0.979414  0.586514  0.000000  1
  Tb  Tb2  1  0.413486  0.392900  0.000000  1
  Cd  Cd3  1  0.265403  0.995689  0.500000  1
  Cd  Cd4  1  0.004311  0.269714  0.500000  1
  Cd  Cd5  1  0.730286  0.734597  0.500000  1
  Ag  Ag6  1  0.333333  0.666667  0.500000  1
  Ag  Ag7  1  0.000000  0.000000  0.000000  1
  Pd  Pd8  1  0.666667  0.333333  0.500000  1
