# generated using pymatgen
data_TbDyLu2Ga16Co3
_symmetry_space_group_name_H-M   'P 1'
_cell_length_a   6.00198700
_cell_length_b   5.99159200
_cell_length_c   11.08187500
_cell_angle_alpha   90.00000000
_cell_angle_beta   90.00000000
_cell_angle_gamma   90.00000000
_symmetry_Int_Tables_number   1
_chemical_formula_structural   TbDyLu2Ga16Co3
_chemical_formula_sum   'Tb1 Dy1 Lu2 Ga16 Co3'
_cell_volume   398.52037454
_cell_formula_units_Z   1
loop_
 _symmetry_equiv_pos_site_id
 _symmetry_equiv_pos_as_xyz
  1  'x, y, z'
loop_
 _atom_site_type_symbol
 _atom_site_label
 _atom_site_symmetry_multiplicity
 _atom_site_fract_x
 _atom_site_fract_y
 _atom_site_fract_z
 _atom_site_occupancy
  Tb  Tb0  1  0.000000  0.500000  0.193345  1
  Dy  Dy1  1  0.500000  0.000000  0.193545  1
  Lu  Lu2  1  0.500000  0.000000  0.803869  1
  Lu  Lu3  1  0.000000  0.500000  0.804198  1
  Ga  Ga4  1  0.249451  0.249769  0.617532  1
  Ga  Ga5  1  0.750549  0.750231  0.617532  1
  Ga  Ga6  1  0.750549  0.249769  0.617532  1
  Ga  Ga7  1  0.249451  0.750231  0.617532  1
  Ga  Ga8  1  0.749695  0.749929  0.385649  1
  Ga  Ga9  1  0.250305  0.250071  0.385649  1
  Ga  Ga10  1  0.250305  0.749929  0.385649  1
  Ga  Ga11  1  0.749695  0.250071  0.385649  1
  Ga  Ga12  1  0.280156  0.279584  0.996663  1
  Ga  Ga13  1  0.719844  0.720416  0.996663  1
  Ga  Ga14  1  0.719844  0.279584  0.996663  1
  Ga  Ga15  1  0.280156  0.720416  0.996663  1
  Ga  Ga16  1  0.500000  0.500000  0.804927  1
  Ga  Ga17  1  0.500000  0.500000  0.192416  1
  Ga  Ga18  1  0.000000  0.000000  0.784125  1
  Ga  Ga19  1  0.000000  0.000000  0.218945  1
  Co  Co20  1  0.500000  0.000000  0.502060  1
  Co  Co21  1  0.000000  0.500000  0.501897  1
  Co  Co22  1  0.000000  0.000000  0.001297  1
