# generated using pymatgen
data_Hf8Zr2Sn3B2Sb3
_symmetry_space_group_name_H-M   'P 1'
_cell_length_a   8.47856700
_cell_length_b   8.47856640
_cell_length_c   5.76048000
_cell_angle_alpha   90.00000000
_cell_angle_beta   90.00000000
_cell_angle_gamma   119.99999846
_symmetry_Int_Tables_number   1
_chemical_formula_structural   Hf8Zr2Sn3B2Sb3
_chemical_formula_sum   'Hf8 Zr2 Sn3 B2 Sb3'
_cell_volume   358.61974173
_cell_formula_units_Z   1
loop_
 _symmetry_equiv_pos_site_id
 _symmetry_equiv_pos_as_xyz
  1  'x, y, z'
loop_
 _atom_site_type_symbol
 _atom_site_label
 _atom_site_symmetry_multiplicity
 _atom_site_fract_x
 _atom_site_fract_y
 _atom_site_fract_z
 _atom_site_occupancy
  Hf  Hf0  1  0.666667  0.333333  0.001248  1
  Hf  Hf1  1  0.333333  0.666667  0.001248  1
  Hf  Hf2  1  0.771212  0.771212  0.749757  1
  Hf  Hf3  1  0.228788  0.000000  0.749757  1
  Hf  Hf4  1  0.000000  0.228788  0.749757  1
  Hf  Hf5  1  0.231013  0.231013  0.249764  1
  Hf  Hf6  1  0.768987  0.000000  0.249764  1
  Hf  Hf7  1  0.000000  0.768987  0.249764  1
  Zr  Zr8  1  0.333333  0.666667  0.499724  1
  Zr  Zr9  1  0.666667  0.333333  0.499724  1
  Sn  Sn10  1  0.600963  0.600963  0.248486  1
  Sn  Sn11  1  0.399037  0.000000  0.248486  1
  Sn  Sn12  1  0.000000  0.399037  0.248486  1
  B  B13  1  0.000000  0.000000  0.000997  1
  B  B14  1  0.000000  0.000000  0.498709  1
  Sb  Sb15  1  0.401527  0.401527  0.751444  1
  Sb  Sb16  1  0.598473  0.000000  0.751444  1
  Sb  Sb17  1  0.000000  0.598473  0.751444  1
