# generated using pymatgen
data_Al2SiGeW2
_symmetry_space_group_name_H-M   'P 1'
_cell_length_a   4.80378876
_cell_length_b   4.80908512
_cell_length_c   13.34584479
_cell_angle_alpha   89.77648216
_cell_angle_beta   90.21163935
_cell_angle_gamma   119.98042146
_symmetry_Int_Tables_number   1
_chemical_formula_structural   Al2SiGeW2
_chemical_formula_sum   'Al6 Si3 Ge3 W6'
_cell_volume   267.05734604
_cell_formula_units_Z   3
loop_
 _symmetry_equiv_pos_site_id
 _symmetry_equiv_pos_as_xyz
  1  'x, y, z'
loop_
 _atom_site_type_symbol
 _atom_site_label
 _atom_site_symmetry_multiplicity
 _atom_site_fract_x
 _atom_site_fract_y
 _atom_site_fract_z
 _atom_site_occupancy
  Al  Al0  1  0.169051  0.334729  0.081189  1
  Al  Al1  1  0.168638  0.334001  0.583776  1
  Al  Al2  1  0.169945  0.836090  0.251760  1
  Al  Al3  1  0.171951  0.836893  0.751373  1
  Al  Al4  1  0.666726  0.833562  0.417191  1
  Al  Al5  1  0.664788  0.836199  0.914727  1
  Si  Si6  1  0.842306  0.157961  0.749090  1
  Si  Si7  1  0.318818  0.159375  0.417636  1
  Si  Si8  1  0.314424  0.156938  0.916396  1
  Ge  Ge9  1  0.838282  0.680712  0.082917  1
  Ge  Ge10  1  0.843371  0.683879  0.584461  1
  Ge  Ge11  1  0.839873  0.157892  0.249481  1
  W  W12  1  0.499851  0.009551  0.081071  1
  W  W13  1  0.507197  0.012766  0.583619  1
  W  W14  1  0.500756  0.490540  0.251932  1
  W  W15  1  0.501670  0.491626  0.752063  1
  W  W16  1  0.994154  0.496387  0.417027  1
  W  W17  1  0.988199  0.490897  0.914294  1
