# generated using pymatgen
data_Nd4YP12Ru16Rh3
_symmetry_space_group_name_H-M   'P 1'
_cell_length_a   12.62925400
_cell_length_b   12.62925454
_cell_length_c   4.01557700
_cell_angle_alpha   90.00000000
_cell_angle_beta   90.00000000
_cell_angle_gamma   119.99999334
_symmetry_Int_Tables_number   1
_chemical_formula_structural   Nd4YP12Ru16Rh3
_chemical_formula_sum   'Nd4 Y1 P12 Ru16 Rh3'
_cell_volume   554.66917776
_cell_formula_units_Z   1
loop_
 _symmetry_equiv_pos_site_id
 _symmetry_equiv_pos_as_xyz
  1  'x, y, z'
loop_
 _atom_site_type_symbol
 _atom_site_label
 _atom_site_symmetry_multiplicity
 _atom_site_fract_x
 _atom_site_fract_y
 _atom_site_fract_z
 _atom_site_occupancy
  Nd  Nd0  1  0.999814  0.183619  0.500000  1
  Nd  Nd1  1  0.816381  0.816194  0.500000  1
  Nd  Nd2  1  0.183806  0.000186  0.500000  1
  Nd  Nd3  1  0.666667  0.333333  0.000000  1
  Y  Y4  1  0.333333  0.666667  0.000000  1
  P  P5  1  0.001340  0.812151  0.000000  1
  P  P6  1  0.187849  0.189189  0.000000  1
  P  P7  1  0.810811  0.998660  0.000000  1
  P  P8  1  0.698315  0.174888  0.500000  1
  P  P9  1  0.825112  0.523428  0.500000  1
  P  P10  1  0.476572  0.301685  0.500000  1
  P  P11  1  0.178237  0.698602  0.500000  1
  P  P12  1  0.520366  0.821763  0.500000  1
  P  P13  1  0.301398  0.479634  0.500000  1
  P  P14  1  0.999578  0.372300  0.000000  1
  P  P15  1  0.627700  0.627278  0.000000  1
  P  P16  1  0.372722  0.000422  0.000000  1
  Ru  Ru17  1  0.001505  0.712495  0.500000  1
  Ru  Ru18  1  0.287505  0.289010  0.500000  1
  Ru  Ru19  1  0.710990  0.998495  0.500000  1
  Ru  Ru20  1  0.806102  0.184509  0.000000  1
  Ru  Ru21  1  0.815491  0.621594  0.000000  1
  Ru  Ru22  1  0.378406  0.193898  0.000000  1
  Ru  Ru23  1  0.187053  0.805619  0.000000  1
  Ru  Ru24  1  0.618568  0.812947  0.000000  1
  Ru  Ru25  1  0.194381  0.381432  0.000000  1
  Ru  Ru26  1  0.876899  0.368522  0.500000  1
  Ru  Ru27  1  0.631478  0.508378  0.500000  1
  Ru  Ru28  1  0.491622  0.123101  0.500000  1
  Ru  Ru29  1  0.369855  0.875004  0.500000  1
  Ru  Ru30  1  0.505150  0.630145  0.500000  1
  Ru  Ru31  1  0.124996  0.494850  0.500000  1
  Ru  Ru32  1  0.000000  0.000000  0.000000  1
  Rh  Rh33  1  0.999691  0.552898  0.000000  1
  Rh  Rh34  1  0.447102  0.446794  0.000000  1
  Rh  Rh35  1  0.553206  0.000309  0.000000  1
