# generated using pymatgen
data_Sr2Ga2Pd5
_symmetry_space_group_name_H-M   'P 1'
_cell_length_a   5.71959709
_cell_length_b   5.71959766
_cell_length_c   12.94180038
_cell_angle_alpha   77.23374039
_cell_angle_beta   77.23375069
_cell_angle_gamma   59.99999253
_symmetry_Int_Tables_number   1
_chemical_formula_structural   Sr2Ga2Pd5
_chemical_formula_sum   'Sr4 Ga4 Pd10'
_cell_volume   354.51725651
_cell_formula_units_Z   2
loop_
 _symmetry_equiv_pos_site_id
 _symmetry_equiv_pos_as_xyz
  1  'x, y, z'
loop_
 _atom_site_type_symbol
 _atom_site_label
 _atom_site_symmetry_multiplicity
 _atom_site_fract_x
 _atom_site_fract_y
 _atom_site_fract_z
 _atom_site_occupancy
  Sr  Sr0  1  0.949154  0.949154  0.152536  1
  Sr  Sr1  1  0.050846  0.050846  0.847464  1
  Sr  Sr2  1  0.851480  0.851480  0.445560  1
  Sr  Sr3  1  0.148520  0.148520  0.554440  1
  Ga  Ga4  1  0.720852  0.720852  0.837442  1
  Ga  Ga5  1  0.279148  0.279148  0.162558  1
  Ga  Ga6  1  0.613495  0.613495  0.159514  1
  Ga  Ga7  1  0.386505  0.386505  0.840486  1
  Pd  Pd8  1  0.500000  0.500000  0.500000  1
  Pd  Pd9  1  0.000000  0.500000  0.000000  1
  Pd  Pd10  1  0.500000  0.000000  0.000000  1
  Pd  Pd11  1  0.500000  0.500000  0.000000  1
  Pd  Pd12  1  0.395230  0.395230  0.317173  1
  Pd  Pd13  1  0.892366  0.395230  0.317173  1
  Pd  Pd14  1  0.395230  0.892366  0.317173  1
  Pd  Pd15  1  0.604770  0.604770  0.682827  1
  Pd  Pd16  1  0.107634  0.604770  0.682827  1
  Pd  Pd17  1  0.604770  0.107634  0.682827  1
