# generated using pymatgen
data_Dy3Zn2Ga7Ni6
_symmetry_space_group_name_H-M   'P 1'
_cell_length_a   8.93086642
_cell_length_b   8.96917304
_cell_length_c   4.09206300
_cell_angle_alpha   90.00000000
_cell_angle_beta   90.00000000
_cell_angle_gamma   120.14198369
_symmetry_Int_Tables_number   1
_chemical_formula_structural   Dy3Zn2Ga7Ni6
_chemical_formula_sum   'Dy3 Zn2 Ga7 Ni6'
_cell_volume   283.46262543
_cell_formula_units_Z   1
loop_
 _symmetry_equiv_pos_site_id
 _symmetry_equiv_pos_as_xyz
  1  'x, y, z'
loop_
 _atom_site_type_symbol
 _atom_site_label
 _atom_site_symmetry_multiplicity
 _atom_site_fract_x
 _atom_site_fract_y
 _atom_site_fract_z
 _atom_site_occupancy
  Dy  Dy0  1  0.332353  0.666177  0.000000  1
  Dy  Dy1  1  0.664098  0.332049  0.000000  1
  Dy  Dy2  1  0.004368  0.002184  0.500000  1
  Zn  Zn3  1  0.292942  0.002600  0.000000  1
  Zn  Zn4  1  0.292942  0.290342  0.000000  1
  Ga  Ga5  1  0.002957  0.711063  0.000000  1
  Ga  Ga6  1  0.002957  0.291894  0.000000  1
  Ga  Ga7  1  0.705458  0.705055  0.000000  1
  Ga  Ga8  1  0.705458  0.000403  0.000000  1
  Ga  Ga9  1  0.497722  0.998977  0.500000  1
  Ga  Ga10  1  0.497722  0.498745  0.500000  1
  Ga  Ga11  1  0.997409  0.498705  0.500000  1
  Ni  Ni12  1  0.182367  0.368573  0.500000  1
  Ni  Ni13  1  0.817330  0.183748  0.500000  1
  Ni  Ni14  1  0.370374  0.185187  0.500000  1
  Ni  Ni15  1  0.633842  0.816921  0.500000  1
  Ni  Ni16  1  0.182367  0.813794  0.500000  1
  Ni  Ni17  1  0.817330  0.633582  0.500000  1
