# generated using pymatgen
data_Ho4ZnCo12GeB6
_symmetry_space_group_name_H-M   'P 1'
_cell_length_a   5.10850701
_cell_length_b   5.10478237
_cell_length_c   12.45312500
_cell_angle_alpha   89.99925017
_cell_angle_beta   90.00059150
_cell_angle_gamma   120.00971342
_symmetry_Int_Tables_number   1
_chemical_formula_structural   Ho4ZnCo12GeB6
_chemical_formula_sum   'Ho4 Zn1 Co12 Ge1 B6'
_cell_volume   281.21448569
_cell_formula_units_Z   1
loop_
 _symmetry_equiv_pos_site_id
 _symmetry_equiv_pos_as_xyz
  1  'x, y, z'
loop_
 _atom_site_type_symbol
 _atom_site_label
 _atom_site_symmetry_multiplicity
 _atom_site_fract_x
 _atom_site_fract_y
 _atom_site_fract_z
 _atom_site_occupancy
  Ho  Ho0  1  0.999987  0.000009  0.500014  1
  Ho  Ho1  1  0.999996  0.000002  0.259160  1
  Ho  Ho2  1  0.999993  0.000012  0.740863  1
  Ho  Ho3  1  0.000011  0.999980  0.999982  1
  Zn  Zn4  1  0.333359  0.666697  0.999994  1
  Co  Co5  1  0.499864  0.999753  0.385047  1
  Co  Co6  1  0.000250  0.500136  0.385033  1
  Co  Co7  1  0.499873  0.500128  0.385035  1
  Co  Co8  1  0.499861  0.999749  0.614951  1
  Co  Co9  1  0.499868  0.500130  0.614956  1
  Co  Co10  1  0.000245  0.500136  0.614961  1
  Co  Co11  1  0.501026  0.002062  0.158922  1
  Co  Co12  1  0.997932  0.498959  0.158957  1
  Co  Co13  1  0.501020  0.498956  0.158979  1
  Co  Co14  1  0.501026  0.002098  0.841038  1
  Co  Co15  1  0.501028  0.498949  0.841042  1
  Co  Co16  1  0.997892  0.498956  0.841013  1
  Ge  Ge17  1  0.666653  0.333260  0.999963  1
  B  B18  1  0.333383  0.666786  0.267534  1
  B  B19  1  0.666635  0.333229  0.268883  1
  B  B20  1  0.666564  0.333333  0.731162  1
  B  B21  1  0.333429  0.666685  0.732516  1
  B  B22  1  0.333393  0.666666  0.499998  1
  B  B23  1  0.666608  0.333333  0.499996  1
