# generated using pymatgen
data_Sr3U8SnSe20
_symmetry_space_group_name_H-M   'P 1'
_cell_length_a   7.80313547
_cell_length_b   8.58580903
_cell_length_c   12.24095700
_cell_angle_alpha   89.61266469
_cell_angle_beta   90.13124284
_cell_angle_gamma   90.11092992
_symmetry_Int_Tables_number   1
_chemical_formula_structural   Sr3U8SnSe20
_chemical_formula_sum   'Sr3 U8 Sn1 Se20'
_cell_volume   820.07557863
_cell_formula_units_Z   1
loop_
 _symmetry_equiv_pos_site_id
 _symmetry_equiv_pos_as_xyz
  1  'x, y, z'
loop_
 _atom_site_type_symbol
 _atom_site_label
 _atom_site_symmetry_multiplicity
 _atom_site_fract_x
 _atom_site_fract_y
 _atom_site_fract_z
 _atom_site_occupancy
  Sr  Sr0  1  0.537662  0.504054  0.176299  1
  Sr  Sr1  1  0.958438  0.505840  0.665318  1
  Sr  Sr2  1  0.460289  0.494379  0.827427  1
  U  U3  1  0.022947  0.002932  0.320054  1
  U  U4  1  0.517729  0.001361  0.182036  1
  U  U5  1  0.979089  0.000758  0.680960  1
  U  U6  1  0.479306  0.997896  0.818264  1
  U  U7  1  0.076282  0.751374  0.007414  1
  U  U8  1  0.574137  0.243792  0.492995  1
  U  U9  1  0.925989  0.246763  0.990278  1
  U  U10  1  0.426651  0.749368  0.508607  1
  Sn  Sn11  1  0.016192  0.512790  0.311393  1
  Se  Se12  1  0.665008  0.951687  0.402404  1
  Se  Se13  1  0.162787  0.046091  0.097841  1
  Se  Se14  1  0.336088  0.044341  0.597801  1
  Se  Se15  1  0.835510  0.951781  0.904244  1
  Se  Se16  1  0.457595  0.778947  0.002148  1
  Se  Se17  1  0.956591  0.219612  0.498163  1
  Se  Se18  1  0.543401  0.220062  0.000067  1
  Se  Se19  1  0.046845  0.782445  0.500414  1
  Se  Se20  1  0.837670  0.769821  0.188342  1
  Se  Se21  1  0.335024  0.224437  0.315259  1
  Se  Se22  1  0.167190  0.225801  0.813672  1
  Se  Se23  1  0.667345  0.774979  0.687461  1
  Se  Se24  1  0.305840  0.765847  0.283626  1
  Se  Se25  1  0.809111  0.239651  0.217376  1
  Se  Se26  1  0.695109  0.233598  0.717948  1
  Se  Se27  1  0.193869  0.764439  0.782336  1
  Se  Se28  1  0.169405  0.457113  0.087641  1
  Se  Se29  1  0.678086  0.540395  0.422057  1
  Se  Se30  1  0.830948  0.541315  0.915586  1
  Se  Se31  1  0.331869  0.456332  0.584568  1
