# generated using pymatgen
data_Dy2Al9IrRh2
_symmetry_space_group_name_H-M   'P 1'
_cell_length_a   7.56049644
_cell_length_b   7.56048736
_cell_length_c   9.49446370
_cell_angle_alpha   90.01322017
_cell_angle_beta   90.01335182
_cell_angle_gamma   119.45236207
_symmetry_Int_Tables_number   1
_chemical_formula_structural   Dy2Al9IrRh2
_chemical_formula_sum   'Dy4 Al18 Ir2 Rh4'
_cell_volume   472.57568205
_cell_formula_units_Z   2
loop_
 _symmetry_equiv_pos_site_id
 _symmetry_equiv_pos_as_xyz
  1  'x, y, z'
loop_
 _atom_site_type_symbol
 _atom_site_label
 _atom_site_symmetry_multiplicity
 _atom_site_fract_x
 _atom_site_fract_y
 _atom_site_fract_z
 _atom_site_occupancy
  Dy  Dy0  1  0.994914  0.670313  0.749241  1
  Dy  Dy1  1  0.005086  0.329687  0.250759  1
  Dy  Dy2  1  0.670312  0.994915  0.749241  1
  Dy  Dy3  1  0.329688  0.005085  0.250759  1
  Al  Al4  1  0.126971  0.126971  0.749979  1
  Al  Al5  1  0.873029  0.873029  0.250021  1
  Al  Al6  1  0.001603  0.334887  0.573675  1
  Al  Al7  1  0.998397  0.665113  0.426325  1
  Al  Al8  1  0.999440  0.665299  0.073978  1
  Al  Al9  1  0.334700  0.000559  0.926022  1
  Al  Al10  1  0.000560  0.334701  0.926022  1
  Al  Al11  1  0.665300  0.999441  0.073978  1
  Al  Al12  1  0.665113  0.998397  0.426325  1
  Al  Al13  1  0.334887  0.001603  0.573675  1
  Al  Al14  1  0.332990  0.332991  0.050223  1
  Al  Al15  1  0.667010  0.667009  0.949777  1
  Al  Al16  1  0.666565  0.666565  0.550519  1
  Al  Al17  1  0.333435  0.333435  0.449481  1
  Al  Al18  1  0.338844  0.547972  0.750579  1
  Al  Al19  1  0.661156  0.452028  0.249421  1
  Al  Al20  1  0.547972  0.338844  0.750579  1
  Al  Al21  1  0.452028  0.661156  0.249421  1
  Ir  Ir22  1  0.672269  0.327731  0.500000  1
  Ir  Ir23  1  0.327731  0.672269  0.500000  1
  Rh  Rh24  1  0.328046  0.671953  0.000001  1
  Rh  Rh25  1  0.671954  0.328047  0.999999  1
  Rh  Rh26  1  0.000000  0.000000  0.500000  1
  Rh  Rh27  1  0.000000  0.000000  0.000000  1
