# generated using pymatgen
data_TbYHo(Al3Os)4
_symmetry_space_group_name_H-M   'P 1'
_cell_length_a   8.84002900
_cell_length_b   8.82937335
_cell_length_c   9.57545600
_cell_angle_alpha   90.00000000
_cell_angle_beta   90.00000000
_cell_angle_gamma   120.03768259
_symmetry_Int_Tables_number   1
_chemical_formula_structural   TbYHo(Al3Os)4
_chemical_formula_sum   'Tb2 Y2 Ho2 Al24 Os8'
_cell_volume   647.00648659
_cell_formula_units_Z   2
loop_
 _symmetry_equiv_pos_site_id
 _symmetry_equiv_pos_as_xyz
  1  'x, y, z'
loop_
 _atom_site_type_symbol
 _atom_site_label
 _atom_site_symmetry_multiplicity
 _atom_site_fract_x
 _atom_site_fract_y
 _atom_site_fract_z
 _atom_site_occupancy
  Tb  Tb0  1  0.192816  0.385765  0.250000  1
  Tb  Tb1  1  0.807184  0.614235  0.750000  1
  Y  Y2  1  0.613438  0.806788  0.250000  1
  Y  Y3  1  0.386562  0.193212  0.750000  1
  Ho  Ho4  1  0.193465  0.806526  0.250000  1
  Ho  Ho5  1  0.806535  0.193474  0.750000  1
  Al  Al6  1  0.333216  0.666651  0.017047  1
  Al  Al7  1  0.666784  0.333349  0.982953  1
  Al  Al8  1  0.666784  0.333349  0.517047  1
  Al  Al9  1  0.333216  0.666651  0.482953  1
  Al  Al10  1  0.162833  0.325785  0.575630  1
  Al  Al11  1  0.837167  0.674215  0.424370  1
  Al  Al12  1  0.674211  0.837264  0.575185  1
  Al  Al13  1  0.837167  0.674215  0.075630  1
  Al  Al14  1  0.325789  0.162736  0.424815  1
  Al  Al15  1  0.162833  0.325785  0.924370  1
  Al  Al16  1  0.163008  0.837180  0.574927  1
  Al  Al17  1  0.325789  0.162736  0.075185  1
  Al  Al18  1  0.836992  0.162820  0.425073  1
  Al  Al19  1  0.674211  0.837264  0.924815  1
  Al  Al20  1  0.836992  0.162820  0.074927  1
  Al  Al21  1  0.163008  0.837180  0.925073  1
  Al  Al22  1  0.560610  0.121617  0.250000  1
  Al  Al23  1  0.439390  0.878383  0.750000  1
  Al  Al24  1  0.878281  0.439407  0.250000  1
  Al  Al25  1  0.121719  0.560593  0.750000  1
  Al  Al26  1  0.561013  0.439120  0.250000  1
  Al  Al27  1  0.438987  0.560880  0.750000  1
  Al  Al28  1  0.000007  0.999277  0.250000  1
  Al  Al29  1  0.999993  0.000723  0.750000  1
  Os  Os30  1  0.500000  0.000000  0.000000  1
  Os  Os31  1  0.000000  0.500000  0.000000  1
  Os  Os32  1  0.500000  0.000000  0.500000  1
  Os  Os33  1  0.500000  0.500000  0.000000  1
  Os  Os34  1  0.000000  0.500000  0.500000  1
  Os  Os35  1  0.500000  0.500000  0.500000  1
  Os  Os36  1  0.000000  0.000000  0.000000  1
  Os  Os37  1  0.000000  0.000000  0.500000  1
