# generated using pymatgen
data_Yb(Ce3Si2)3
_symmetry_space_group_name_H-M   'P 1'
_cell_length_a   8.50270968
_cell_length_b   8.50270867
_cell_length_c   8.50270921
_cell_angle_alpha   125.63671370
_cell_angle_beta   125.63671108
_cell_angle_gamma   80.48605061
_symmetry_Int_Tables_number   1
_chemical_formula_structural   Yb(Ce3Si2)3
_chemical_formula_sum   'Yb1 Ce9 Si6'
_cell_volume   391.66104744
_cell_formula_units_Z   1
loop_
 _symmetry_equiv_pos_site_id
 _symmetry_equiv_pos_as_xyz
  1  'x, y, z'
loop_
 _atom_site_type_symbol
 _atom_site_label
 _atom_site_symmetry_multiplicity
 _atom_site_fract_x
 _atom_site_fract_y
 _atom_site_fract_z
 _atom_site_occupancy
  Yb  Yb0  1  0.500000  0.500000  0.000000  1
  Ce  Ce1  1  0.528359  0.666443  0.504498  1
  Ce  Ce2  1  0.838056  0.976139  0.504498  1
  Ce  Ce3  1  0.333557  0.838056  0.861917  1
  Ce  Ce4  1  0.471641  0.333557  0.495502  1
  Ce  Ce5  1  0.161944  0.023861  0.495502  1
  Ce  Ce6  1  0.976139  0.471641  0.138083  1
  Ce  Ce7  1  0.666443  0.161944  0.138083  1
  Ce  Ce8  1  0.000000  0.000000  0.000000  1
  Ce  Ce9  1  0.023861  0.528359  0.861917  1
  Si  Si10  1  0.888299  0.614669  0.502968  1
  Si  Si11  1  0.385331  0.888299  0.273630  1
  Si  Si12  1  0.614669  0.111701  0.726370  1
  Si  Si13  1  0.111701  0.385331  0.497032  1
  Si  Si14  1  0.249646  0.249646  0.000000  1
  Si  Si15  1  0.750354  0.750354  0.000000  1
