# generated using pymatgen
data_EuP12IrRu3
_symmetry_space_group_name_H-M   'P 1'
_cell_length_a   7.01605607
_cell_length_b   7.01605539
_cell_length_c   7.03242900
_cell_angle_alpha   109.51850226
_cell_angle_beta   109.51850029
_cell_angle_gamma   109.42389750
_symmetry_Int_Tables_number   1
_chemical_formula_structural   EuP12IrRu3
_chemical_formula_sum   'Eu1 P12 Ir1 Ru3'
_cell_volume   266.32736081
_cell_formula_units_Z   1
loop_
 _symmetry_equiv_pos_site_id
 _symmetry_equiv_pos_as_xyz
  1  'x, y, z'
loop_
 _atom_site_type_symbol
 _atom_site_label
 _atom_site_symmetry_multiplicity
 _atom_site_fract_x
 _atom_site_fract_y
 _atom_site_fract_z
 _atom_site_occupancy
  Eu  Eu0  1  0.000000  0.000000  0.000000  1
  P  P1  1  0.360369  0.215819  0.860139  1
  P  P2  1  0.639631  0.784181  0.139861  1
  P  P3  1  0.642661  0.499486  0.856684  1
  P  P4  1  0.357339  0.500514  0.143316  1
  P  P5  1  0.215819  0.855450  0.355680  1
  P  P6  1  0.784181  0.144550  0.644320  1
  P  P7  1  0.499486  0.856825  0.642802  1
  P  P8  1  0.500514  0.143175  0.357198  1
  P  P9  1  0.856825  0.357339  0.214022  1
  P  P10  1  0.143175  0.642661  0.785978  1
  P  P11  1  0.855450  0.639631  0.499770  1
  P  P12  1  0.144550  0.360369  0.500230  1
  Ir  Ir13  1  0.000000  0.000000  0.500000  1
  Ru  Ru14  1  0.500000  0.000000  0.000000  1
  Ru  Ru15  1  0.000000  0.500000  0.000000  1
  Ru  Ru16  1  0.500000  0.500000  0.500000  1
