# generated using pymatgen
data_Pr8Zn8PtRh7
_symmetry_space_group_name_H-M   'P 1'
_cell_length_a   4.04233000
_cell_length_b   7.39072906
_cell_length_c   16.71504312
_cell_angle_alpha   89.98616319
_cell_angle_beta   90.00000000
_cell_angle_gamma   90.00000000
_symmetry_Int_Tables_number   1
_chemical_formula_structural   Pr8Zn8PtRh7
_chemical_formula_sum   'Pr8 Zn8 Pt1 Rh7'
_cell_volume   499.37469869
_cell_formula_units_Z   1
loop_
 _symmetry_equiv_pos_site_id
 _symmetry_equiv_pos_as_xyz
  1  'x, y, z'
loop_
 _atom_site_type_symbol
 _atom_site_label
 _atom_site_symmetry_multiplicity
 _atom_site_fract_x
 _atom_site_fract_y
 _atom_site_fract_z
 _atom_site_occupancy
  Pr  Pr0  1  0.750000  0.453508  0.215387  1
  Pr  Pr1  1  0.750000  0.952047  0.283198  1
  Pr  Pr2  1  0.750000  0.830930  0.060739  1
  Pr  Pr3  1  0.250000  0.044502  0.719727  1
  Pr  Pr4  1  0.250000  0.168951  0.939840  1
  Pr  Pr5  1  0.250000  0.548453  0.784063  1
  Pr  Pr6  1  0.750000  0.332303  0.436638  1
  Pr  Pr7  1  0.250000  0.669119  0.560291  1
  Zn  Zn8  1  0.250000  0.996931  0.437408  1
  Zn  Zn9  1  0.750000  0.501149  0.940315  1
  Zn  Zn10  1  0.750000  0.998778  0.560103  1
  Zn  Zn11  1  0.250000  0.625791  0.348788  1
  Zn  Zn12  1  0.750000  0.377509  0.653243  1
  Zn  Zn13  1  0.750000  0.873484  0.850644  1
  Zn  Zn14  1  0.250000  0.499204  0.059712  1
  Zn  Zn15  1  0.250000  0.125458  0.150377  1
  Pt  Pt16  1  0.250000  0.243792  0.566265  1
  Rh  Rh17  1  0.750000  0.256995  0.065430  1
  Rh  Rh18  1  0.250000  0.244637  0.313463  1
  Rh  Rh19  1  0.750000  0.254612  0.812764  1
  Rh  Rh20  1  0.250000  0.743545  0.934444  1
  Rh  Rh21  1  0.750000  0.754885  0.685845  1
  Rh  Rh22  1  0.750000  0.756771  0.434799  1
  Rh  Rh23  1  0.250000  0.746644  0.186516  1
