# generated using pymatgen
data_Y2Tm2TcOsC4
_symmetry_space_group_name_H-M   'P 1'
_cell_length_a   5.07332700
_cell_length_b   6.52883308
_cell_length_c   9.72880312
_cell_angle_alpha   89.69499429
_cell_angle_beta   90.00000000
_cell_angle_gamma   90.00000000
_symmetry_Int_Tables_number   1
_chemical_formula_structural   Y2Tm2TcOsC4
_chemical_formula_sum   'Y4 Tm4 Tc2 Os2 C8'
_cell_volume   322.24165725
_cell_formula_units_Z   2
loop_
 _symmetry_equiv_pos_site_id
 _symmetry_equiv_pos_as_xyz
  1  'x, y, z'
loop_
 _atom_site_type_symbol
 _atom_site_label
 _atom_site_symmetry_multiplicity
 _atom_site_fract_x
 _atom_site_fract_y
 _atom_site_fract_z
 _atom_site_occupancy
  Y  Y0  1  0.250000  0.533438  0.214588  1
  Y  Y1  1  0.750000  0.466562  0.785412  1
  Y  Y2  1  0.750000  0.968042  0.712099  1
  Y  Y3  1  0.250000  0.031958  0.287901  1
  Tm  Tm4  1  0.250000  0.674554  0.556476  1
  Tm  Tm5  1  0.750000  0.325446  0.443524  1
  Tm  Tm6  1  0.750000  0.826132  0.057088  1
  Tm  Tm7  1  0.250000  0.173868  0.942912  1
  Tc  Tc8  1  0.250000  0.721005  0.866097  1
  Tc  Tc9  1  0.750000  0.278995  0.133903  1
  Os  Os10  1  0.750000  0.777769  0.366089  1
  Os  Os11  1  0.250000  0.222231  0.633911  1
  C  C12  1  0.250000  0.453397  0.759492  1
  C  C13  1  0.750000  0.546603  0.240508  1
  C  C14  1  0.750000  0.045395  0.260337  1
  C  C15  1  0.250000  0.954605  0.739663  1
  C  C16  1  0.250000  0.828637  0.050875  1
  C  C17  1  0.750000  0.171363  0.949125  1
  C  C18  1  0.750000  0.669509  0.551507  1
  C  C19  1  0.250000  0.330491  0.448493  1
