# generated using pymatgen
data_Cd12PtAu3
_symmetry_space_group_name_H-M   'P 1'
_cell_length_a   7.66514279
_cell_length_b   8.69117700
_cell_length_c   5.35676845
_cell_angle_alpha   90.00000000
_cell_angle_beta   89.83660837
_cell_angle_gamma   90.00000000
_symmetry_Int_Tables_number   1
_chemical_formula_structural   Cd12PtAu3
_chemical_formula_sum   'Cd12 Pt1 Au3'
_cell_volume   356.86170990
_cell_formula_units_Z   1
loop_
 _symmetry_equiv_pos_site_id
 _symmetry_equiv_pos_as_xyz
  1  'x, y, z'
loop_
 _atom_site_type_symbol
 _atom_site_label
 _atom_site_symmetry_multiplicity
 _atom_site_fract_x
 _atom_site_fract_y
 _atom_site_fract_z
 _atom_site_occupancy
  Cd  Cd0  1  0.979673  0.250000  0.088468  1
  Cd  Cd1  1  0.672425  0.550397  0.105934  1
  Cd  Cd2  1  0.672425  0.949602  0.105934  1
  Cd  Cd3  1  0.169633  0.555905  0.396291  1
  Cd  Cd4  1  0.169633  0.944094  0.396291  1
  Cd  Cd5  1  0.503884  0.250000  0.408238  1
  Cd  Cd6  1  0.505901  0.750000  0.592129  1
  Cd  Cd7  1  0.825187  0.055744  0.608937  1
  Cd  Cd8  1  0.825187  0.444256  0.608937  1
  Cd  Cd9  1  0.333734  0.060739  0.897490  1
  Cd  Cd10  1  0.333734  0.439261  0.897490  1
  Cd  Cd11  1  0.009614  0.750000  0.905829  1
  Pt  Pt12  1  0.634254  0.250000  0.915315  1
  Au  Au13  1  0.366311  0.750000  0.081857  1
  Au  Au14  1  0.862822  0.750000  0.416753  1
  Au  Au15  1  0.135580  0.250000  0.574111  1
