# generated using pymatgen
data_Tb11DyCo3Si8Ni
_symmetry_space_group_name_H-M   'P 1'
_cell_length_a   4.12755300
_cell_length_b   11.18341601
_cell_length_c   11.40064033
_cell_angle_alpha   90.11377544
_cell_angle_beta   90.00000000
_cell_angle_gamma   90.00000000
_symmetry_Int_Tables_number   1
_chemical_formula_structural   Tb11DyCo3Si8Ni
_chemical_formula_sum   'Tb11 Dy1 Co3 Si8 Ni1'
_cell_volume   526.25414257
_cell_formula_units_Z   1
loop_
 _symmetry_equiv_pos_site_id
 _symmetry_equiv_pos_as_xyz
  1  'x, y, z'
loop_
 _atom_site_type_symbol
 _atom_site_label
 _atom_site_symmetry_multiplicity
 _atom_site_fract_x
 _atom_site_fract_y
 _atom_site_fract_z
 _atom_site_occupancy
  Tb  Tb0  1  0.250000  0.440790  0.382229  1
  Tb  Tb1  1  0.750000  0.941723  0.118485  1
  Tb  Tb2  1  0.750000  0.558851  0.618801  1
  Tb  Tb3  1  0.250000  0.125442  0.557885  1
  Tb  Tb4  1  0.250000  0.372790  0.057657  1
  Tb  Tb5  1  0.750000  0.873796  0.441941  1
  Tb  Tb6  1  0.750000  0.623648  0.943376  1
  Tb  Tb7  1  0.250000  0.803386  0.714546  1
  Tb  Tb8  1  0.250000  0.698635  0.217476  1
  Tb  Tb9  1  0.750000  0.199358  0.282487  1
  Tb  Tb10  1  0.750000  0.301037  0.782898  1
  Dy  Dy11  1  0.250000  0.060015  0.882224  1
  Co  Co12  1  0.250000  0.363809  0.630567  1
  Co  Co13  1  0.250000  0.135395  0.130110  1
  Co  Co14  1  0.750000  0.635287  0.369882  1
  Si  Si15  1  0.250000  0.815330  0.973425  1
  Si  Si16  1  0.250000  0.683942  0.474012  1
  Si  Si17  1  0.750000  0.183014  0.025429  1
  Si  Si18  1  0.750000  0.316242  0.526618  1
  Si  Si19  1  0.250000  0.494768  0.801582  1
  Si  Si20  1  0.250000  0.005835  0.301398  1
  Si  Si21  1  0.750000  0.505282  0.198445  1
  Si  Si22  1  0.750000  0.995925  0.697930  1
  Ni  Ni23  1  0.750000  0.865699  0.870596  1
