# generated using pymatgen
data_Eu16Mg4Pd3Ru
_symmetry_space_group_name_H-M   'P 1'
_cell_length_a   10.32417490
_cell_length_b   10.32417438
_cell_length_c   10.38229712
_cell_angle_alpha   60.18501518
_cell_angle_beta   60.18501760
_cell_angle_gamma   59.99999841
_symmetry_Int_Tables_number   1
_chemical_formula_structural   Eu16Mg4Pd3Ru
_chemical_formula_sum   'Eu16 Mg4 Pd3 Ru1'
_cell_volume   784.68979595
_cell_formula_units_Z   1
loop_
 _symmetry_equiv_pos_site_id
 _symmetry_equiv_pos_as_xyz
  1  'x, y, z'
loop_
 _atom_site_type_symbol
 _atom_site_label
 _atom_site_symmetry_multiplicity
 _atom_site_fract_x
 _atom_site_fract_y
 _atom_site_fract_z
 _atom_site_occupancy
  Eu  Eu0  1  0.691621  0.691621  0.307646  1
  Eu  Eu1  1  0.309113  0.691621  0.307646  1
  Eu  Eu2  1  0.691621  0.309113  0.307646  1
  Eu  Eu3  1  0.307630  0.307630  0.687370  1
  Eu  Eu4  1  0.697371  0.307630  0.687370  1
  Eu  Eu5  1  0.307630  0.697371  0.687370  1
  Eu  Eu6  1  0.061263  0.061263  0.445521  1
  Eu  Eu7  1  0.431953  0.061263  0.445521  1
  Eu  Eu8  1  0.061263  0.431953  0.445521  1
  Eu  Eu9  1  0.442999  0.442999  0.055731  1
  Eu  Eu10  1  0.058271  0.442999  0.055731  1
  Eu  Eu11  1  0.442999  0.058271  0.055731  1
  Eu  Eu12  1  0.901493  0.901493  0.295522  1
  Eu  Eu13  1  0.908736  0.282648  0.899883  1
  Eu  Eu14  1  0.282648  0.908736  0.899883  1
  Eu  Eu15  1  0.908736  0.908736  0.899883  1
  Mg  Mg16  1  0.673215  0.673215  0.980356  1
  Mg  Mg17  1  0.672522  0.981975  0.672982  1
  Mg  Mg18  1  0.981975  0.672522  0.672982  1
  Mg  Mg19  1  0.672522  0.672522  0.672982  1
  Pd  Pd20  1  0.106892  0.669740  0.116475  1
  Pd  Pd21  1  0.669740  0.106892  0.116475  1
  Pd  Pd22  1  0.106892  0.106892  0.116475  1
  Ru  Ru23  1  0.110899  0.110899  0.667303  1
