# generated using pymatgen
data_Tm4LuInSb2
_symmetry_space_group_name_H-M   'P 1'
_cell_length_a   8.83573400
_cell_length_b   8.83768477
_cell_length_c   6.36175900
_cell_angle_alpha   90.00000000
_cell_angle_beta   90.00000000
_cell_angle_gamma   119.99270596
_symmetry_Int_Tables_number   1
_chemical_formula_structural   Tm4LuInSb2
_chemical_formula_sum   'Tm8 Lu2 In2 Sb4'
_cell_volume   430.25002081
_cell_formula_units_Z   2
loop_
 _symmetry_equiv_pos_site_id
 _symmetry_equiv_pos_as_xyz
  1  'x, y, z'
loop_
 _atom_site_type_symbol
 _atom_site_label
 _atom_site_symmetry_multiplicity
 _atom_site_fract_x
 _atom_site_fract_y
 _atom_site_fract_z
 _atom_site_occupancy
  Tm  Tm0  1  0.664995  0.329988  0.000000  1
  Tm  Tm1  1  0.335005  0.670012  0.500000  1
  Tm  Tm2  1  0.236967  0.000000  0.250000  1
  Tm  Tm3  1  0.763033  0.000000  0.750000  1
  Tm  Tm4  1  0.993178  0.237489  0.249951  1
  Tm  Tm5  1  0.755690  0.762511  0.250049  1
  Tm  Tm6  1  0.244310  0.237489  0.750049  1
  Tm  Tm7  1  0.006822  0.762511  0.749951  1
  Lu  Lu8  1  0.335251  0.670504  0.000000  1
  Lu  Lu9  1  0.664749  0.329496  0.500000  1
  In  In10  1  0.600114  0.000000  0.250000  1
  In  In11  1  0.399886  0.000000  0.750000  1
  Sb  Sb12  1  0.997642  0.607985  0.250058  1
  Sb  Sb13  1  0.389658  0.392015  0.249942  1
  Sb  Sb14  1  0.610342  0.607985  0.749942  1
  Sb  Sb15  1  0.002358  0.392015  0.750058  1
