# generated using pymatgen
data_La4Nd12Cd4TcNi3
_symmetry_space_group_name_H-M   'P 1'
_cell_length_a   9.96615815
_cell_length_b   9.96615845
_cell_length_c   9.96615789
_cell_angle_alpha   59.39607788
_cell_angle_beta   59.39607504
_cell_angle_gamma   59.39608471
_symmetry_Int_Tables_number   1
_chemical_formula_structural   La4Nd12Cd4TcNi3
_chemical_formula_sum   'La4 Nd12 Cd4 Tc1 Ni3'
_cell_volume   690.33238380
_cell_formula_units_Z   1
loop_
 _symmetry_equiv_pos_site_id
 _symmetry_equiv_pos_as_xyz
  1  'x, y, z'
loop_
 _atom_site_type_symbol
 _atom_site_label
 _atom_site_symmetry_multiplicity
 _atom_site_fract_x
 _atom_site_fract_y
 _atom_site_fract_z
 _atom_site_occupancy
  La  La0  1  0.598493  0.598493  0.598493  1
  La  La1  1  0.597711  0.597711  0.208658  1
  La  La2  1  0.597711  0.208658  0.597711  1
  La  La3  1  0.208658  0.597711  0.597711  1
  Nd  Nd4  1  0.062053  0.437745  0.437745  1
  Nd  Nd5  1  0.437609  0.059457  0.059457  1
  Nd  Nd6  1  0.437745  0.062053  0.437745  1
  Nd  Nd7  1  0.059457  0.437609  0.059457  1
  Nd  Nd8  1  0.437745  0.437745  0.062053  1
  Nd  Nd9  1  0.059457  0.059457  0.437609  1
  Nd  Nd10  1  0.184958  0.815004  0.815004  1
  Nd  Nd11  1  0.805256  0.188423  0.188423  1
  Nd  Nd12  1  0.815004  0.184958  0.815004  1
  Nd  Nd13  1  0.188423  0.805256  0.188423  1
  Nd  Nd14  1  0.815004  0.815004  0.184958  1
  Nd  Nd15  1  0.188423  0.188423  0.805256  1
  Cd  Cd16  1  0.829610  0.829610  0.829610  1
  Cd  Cd17  1  0.829865  0.829865  0.508176  1
  Cd  Cd18  1  0.829865  0.508176  0.829865  1
  Cd  Cd19  1  0.508176  0.829865  0.829865  1
  Tc  Tc20  1  0.393788  0.393788  0.393788  1
  Ni  Ni21  1  0.394048  0.394048  0.826892  1
  Ni  Ni22  1  0.394048  0.826892  0.394048  1
  Ni  Ni23  1  0.826892  0.394048  0.394048  1
