# generated using pymatgen
data_Ce4Os3
_symmetry_space_group_name_H-M   'P 1'
_cell_length_a   8.25703383
_cell_length_b   8.25703286
_cell_length_c   6.01018626
_cell_angle_alpha   75.49717973
_cell_angle_beta   75.49718418
_cell_angle_gamma   118.29407897
_symmetry_Int_Tables_number   1
_chemical_formula_structural   Ce4Os3
_chemical_formula_sum   'Ce8 Os6'
_cell_volume   314.86627772
_cell_formula_units_Z   2
loop_
 _symmetry_equiv_pos_site_id
 _symmetry_equiv_pos_as_xyz
  1  'x, y, z'
loop_
 _atom_site_type_symbol
 _atom_site_label
 _atom_site_symmetry_multiplicity
 _atom_site_fract_x
 _atom_site_fract_y
 _atom_site_fract_z
 _atom_site_occupancy
  Ce  Ce0  1  0.875729  0.609009  0.173469  1
  Ce  Ce1  1  0.341523  0.341523  0.280787  1
  Ce  Ce2  1  0.124271  0.390991  0.826531  1
  Ce  Ce3  1  0.390991  0.124271  0.826531  1
  Ce  Ce4  1  0.167025  0.832975  0.500000  1
  Ce  Ce5  1  0.658477  0.658477  0.719213  1
  Ce  Ce6  1  0.832975  0.167025  0.500000  1
  Ce  Ce7  1  0.609009  0.875729  0.173469  1
  Os  Os8  1  0.811190  0.413646  0.750807  1
  Os  Os9  1  0.997730  0.997730  0.242256  1
  Os  Os10  1  0.413646  0.811190  0.750807  1
  Os  Os11  1  0.586354  0.188810  0.249193  1
  Os  Os12  1  0.002270  0.002270  0.757744  1
  Os  Os13  1  0.188810  0.586354  0.249193  1
