# generated using pymatgen
data_TmFe2Ni2MoP3
_symmetry_space_group_name_H-M   'P 1'
_cell_length_a   3.71807600
_cell_length_b   10.36325800
_cell_length_c   12.00955600
_cell_angle_alpha   90.00000000
_cell_angle_beta   90.00000000
_cell_angle_gamma   90.00000000
_symmetry_Int_Tables_number   1
_chemical_formula_structural   TmFe2Ni2MoP3
_chemical_formula_sum   'Tm4 Fe8 Ni8 Mo4 P12'
_cell_volume   462.74477609
_cell_formula_units_Z   4
loop_
 _symmetry_equiv_pos_site_id
 _symmetry_equiv_pos_as_xyz
  1  'x, y, z'
loop_
 _atom_site_type_symbol
 _atom_site_label
 _atom_site_symmetry_multiplicity
 _atom_site_fract_x
 _atom_site_fract_y
 _atom_site_fract_z
 _atom_site_occupancy
  Tm  Tm0  1  0.250000  0.579852  0.708695  1
  Tm  Tm1  1  0.250000  0.920148  0.208695  1
  Tm  Tm2  1  0.750000  0.420148  0.291305  1
  Tm  Tm3  1  0.750000  0.079852  0.791305  1
  Fe  Fe4  1  0.250000  0.878795  0.701204  1
  Fe  Fe5  1  0.250000  0.621205  0.201204  1
  Fe  Fe6  1  0.750000  0.121205  0.298796  1
  Fe  Fe7  1  0.750000  0.378795  0.798796  1
  Fe  Fe8  1  0.250000  0.462821  0.933673  1
  Fe  Fe9  1  0.250000  0.037179  0.433673  1
  Fe  Fe10  1  0.750000  0.537179  0.066327  1
  Fe  Fe11  1  0.750000  0.962821  0.566327  1
  Ni  Ni12  1  0.250000  0.408168  0.485993  1
  Ni  Ni13  1  0.250000  0.091832  0.985993  1
  Ni  Ni14  1  0.750000  0.591832  0.514007  1
  Ni  Ni15  1  0.750000  0.908168  0.014007  1
  Ni  Ni16  1  0.250000  0.226141  0.174761  1
  Ni  Ni17  1  0.250000  0.273859  0.674761  1
  Ni  Ni18  1  0.750000  0.773859  0.825239  1
  Ni  Ni19  1  0.750000  0.726141  0.325239  1
  Mo  Mo20  1  0.250000  0.707227  0.987502  1
  Mo  Mo21  1  0.250000  0.792773  0.487502  1
  Mo  Mo22  1  0.750000  0.292773  0.012498  1
  Mo  Mo23  1  0.750000  0.207227  0.512498  1
  P  P24  1  0.250000  0.430366  0.113224  1
  P  P25  1  0.250000  0.069634  0.613224  1
  P  P26  1  0.750000  0.569634  0.886776  1
  P  P27  1  0.750000  0.930366  0.386776  1
  P  P28  1  0.250000  0.270330  0.862439  1
  P  P29  1  0.250000  0.229670  0.362439  1
  P  P30  1  0.750000  0.729670  0.137561  1
  P  P31  1  0.750000  0.770330  0.637561  1
  P  P32  1  0.250000  0.597409  0.386480  1
  P  P33  1  0.250000  0.902591  0.886480  1
  P  P34  1  0.750000  0.402591  0.613520  1
  P  P35  1  0.750000  0.097409  0.113520  1
