# generated using pymatgen
data_Eu4Er3Pa(Si3Pd)4
_symmetry_space_group_name_H-M   'P 1'
_cell_length_a   8.28148200
_cell_length_b   8.28148181
_cell_length_c   8.31275100
_cell_angle_alpha   90.00000000
_cell_angle_beta   90.00000000
_cell_angle_gamma   120.00000873
_symmetry_Int_Tables_number   1
_chemical_formula_structural   Eu4Er3Pa(Si3Pd)4
_chemical_formula_sum   'Eu4 Er3 Pa1 Si12 Pd4'
_cell_volume   493.73223213
_cell_formula_units_Z   1
loop_
 _symmetry_equiv_pos_site_id
 _symmetry_equiv_pos_as_xyz
  1  'x, y, z'
loop_
 _atom_site_type_symbol
 _atom_site_label
 _atom_site_symmetry_multiplicity
 _atom_site_fract_x
 _atom_site_fract_y
 _atom_site_fract_z
 _atom_site_occupancy
  Eu  Eu0  1  0.501471  0.002940  0.250000  1
  Eu  Eu1  1  0.997060  0.498529  0.250000  1
  Eu  Eu2  1  0.501471  0.498529  0.250000  1
  Eu  Eu3  1  0.000000  0.000000  0.250000  1
  Er  Er4  1  0.498180  0.996361  0.750000  1
  Er  Er5  1  0.003639  0.501820  0.750000  1
  Er  Er6  1  0.498180  0.501820  0.750000  1
  Pa  Pa7  1  0.000000  0.000000  0.750000  1
  Si  Si8  1  0.164610  0.329221  0.988605  1
  Si  Si9  1  0.835164  0.670330  0.989562  1
  Si  Si10  1  0.670779  0.835390  0.988605  1
  Si  Si11  1  0.835164  0.670330  0.510438  1
  Si  Si12  1  0.329670  0.164836  0.989562  1
  Si  Si13  1  0.164610  0.329221  0.511395  1
  Si  Si14  1  0.164610  0.835390  0.988605  1
  Si  Si15  1  0.329670  0.164836  0.510438  1
  Si  Si16  1  0.835164  0.164836  0.989562  1
  Si  Si17  1  0.670779  0.835390  0.511395  1
  Si  Si18  1  0.835164  0.164836  0.510438  1
  Si  Si19  1  0.164610  0.835390  0.511395  1
  Pd  Pd20  1  0.333333  0.666667  0.979457  1
  Pd  Pd21  1  0.666667  0.333333  0.967411  1
  Pd  Pd22  1  0.666667  0.333333  0.532589  1
  Pd  Pd23  1  0.333333  0.666667  0.520543  1
