# generated using pymatgen
data_La5Cd4PtAu
_symmetry_space_group_name_H-M   'P 1'
_cell_length_a   3.88128700
_cell_length_b   8.45840560
_cell_length_c   19.10065246
_cell_angle_alpha   90.13396545
_cell_angle_beta   90.00000000
_cell_angle_gamma   90.00000000
_symmetry_Int_Tables_number   1
_chemical_formula_structural   La5Cd4PtAu
_chemical_formula_sum   'La10 Cd8 Pt2 Au2'
_cell_volume   627.06315027
_cell_formula_units_Z   2
loop_
 _symmetry_equiv_pos_site_id
 _symmetry_equiv_pos_as_xyz
  1  'x, y, z'
loop_
 _atom_site_type_symbol
 _atom_site_label
 _atom_site_symmetry_multiplicity
 _atom_site_fract_x
 _atom_site_fract_y
 _atom_site_fract_z
 _atom_site_occupancy
  La  La0  1  0.000000  0.119663  0.419481  1
  La  La1  1  0.000000  0.880337  0.580519  1
  La  La2  1  0.000000  0.384161  0.914641  1
  La  La3  1  0.000000  0.615839  0.085359  1
  La  La4  1  0.000000  0.250755  0.216471  1
  La  La5  1  0.000000  0.749245  0.783529  1
  La  La6  1  0.000000  0.270598  0.719988  1
  La  La7  1  0.000000  0.729402  0.280012  1
  La  La8  1  0.000000  0.000000  0.000000  1
  La  La9  1  0.000000  0.500000  0.500000  1
  Cd  Cd10  1  0.500000  0.426972  0.352047  1
  Cd  Cd11  1  0.500000  0.573028  0.647953  1
  Cd  Cd12  1  0.500000  0.070946  0.852627  1
  Cd  Cd13  1  0.500000  0.929054  0.147373  1
  Cd  Cd14  1  0.500000  0.288114  0.067369  1
  Cd  Cd15  1  0.500000  0.711886  0.932631  1
  Cd  Cd16  1  0.500000  0.212219  0.568397  1
  Cd  Cd17  1  0.500000  0.787781  0.431603  1
  Pt  Pt18  1  0.500000  0.477091  0.802701  1
  Pt  Pt19  1  0.500000  0.522909  0.197299  1
  Au  Au20  1  0.500000  0.024712  0.301532  1
  Au  Au21  1  0.500000  0.975288  0.698468  1
