# generated using pymatgen
data_Np7NbF30
_symmetry_space_group_name_H-M   'P 1'
_cell_length_a   8.67266337
_cell_length_b   8.67431651
_cell_length_c   8.67266453
_cell_angle_alpha   100.81200764
_cell_angle_beta   100.06240119
_cell_angle_gamma   100.81200636
_symmetry_Int_Tables_number   1
_chemical_formula_structural   Np7NbF30
_chemical_formula_sum   'Np7 Nb1 F30'
_cell_volume   614.40216635
_cell_formula_units_Z   1
loop_
 _symmetry_equiv_pos_site_id
 _symmetry_equiv_pos_as_xyz
  1  'x, y, z'
loop_
 _atom_site_type_symbol
 _atom_site_label
 _atom_site_symmetry_multiplicity
 _atom_site_fract_x
 _atom_site_fract_y
 _atom_site_fract_z
 _atom_site_occupancy
  Np  Np0  1  0.249370  0.250000  0.250630  1
  Np  Np1  1  0.179906  0.750000  0.320094  1
  Np  Np2  1  0.248687  0.676706  0.821023  1
  Np  Np3  1  0.678977  0.823294  0.251313  1
  Np  Np4  1  0.751506  0.750000  0.748494  1
  Np  Np5  1  0.321691  0.179035  0.751482  1
  Np  Np6  1  0.748518  0.320965  0.178309  1
  Nb  Nb7  1  0.823853  0.250000  0.676147  1
  F  F8  1  0.968013  0.527673  0.252239  1
  F  F9  1  0.817143  0.333516  0.471479  1
  F  F10  1  0.488453  0.712953  0.718500  1
  F  F11  1  0.336172  0.446777  0.825301  1
  F  F12  1  0.013496  0.782808  0.783118  1
  F  F13  1  0.759476  0.052606  0.488111  1
  F  F14  1  0.947962  0.841377  0.325297  1
  F  F15  1  0.216336  0.215505  0.985834  1
  F  F16  1  0.781305  0.019775  0.770455  1
  F  F17  1  0.324739  0.947154  0.838537  1
  F  F18  1  0.282919  0.283816  0.514999  1
  F  F19  1  0.451585  0.829658  0.349268  1
  F  F20  1  0.537293  0.250000  0.962707  1
  F  F21  1  0.285616  0.513515  0.281582  1
  F  F22  1  0.150732  0.670342  0.048415  1
  F  F23  1  0.843896  0.309501  0.915979  1
  F  F24  1  0.729545  0.480225  0.718695  1
  F  F25  1  0.463788  0.750000  0.036212  1
  F  F26  1  0.584021  0.190499  0.656104  1
  F  F27  1  0.716882  0.717192  0.486504  1
  F  F28  1  0.674699  0.053223  0.163828  1
  F  F29  1  0.218418  0.986485  0.214384  1
  F  F30  1  0.781500  0.787047  0.011547  1
  F  F31  1  0.028521  0.166484  0.682857  1
  F  F32  1  0.247761  0.972327  0.531987  1
  F  F33  1  0.985001  0.216184  0.217081  1
  F  F34  1  0.661463  0.552846  0.175261  1
  F  F35  1  0.514166  0.284495  0.283664  1
  F  F36  1  0.174703  0.658623  0.552038  1
  F  F37  1  0.011889  0.447394  0.740524  1
