# generated using pymatgen
data_ErZr2Sc(SiMo)4
_symmetry_space_group_name_H-M   'P 1'
_cell_length_a   3.55275300
_cell_length_b   7.07474922
_cell_length_c   8.29473662
_cell_angle_alpha   89.90905110
_cell_angle_beta   90.00000000
_cell_angle_gamma   90.00000000
_symmetry_Int_Tables_number   1
_chemical_formula_structural   ErZr2Sc(SiMo)4
_chemical_formula_sum   'Er1 Zr2 Sc1 Si4 Mo4'
_cell_volume   208.48658628
_cell_formula_units_Z   1
loop_
 _symmetry_equiv_pos_site_id
 _symmetry_equiv_pos_as_xyz
  1  'x, y, z'
loop_
 _atom_site_type_symbol
 _atom_site_label
 _atom_site_symmetry_multiplicity
 _atom_site_fract_x
 _atom_site_fract_y
 _atom_site_fract_z
 _atom_site_occupancy
  Er  Er0  1  0.250000  0.542126  0.165318  1
  Zr  Zr1  1  0.750000  0.957457  0.667535  1
  Zr  Zr2  1  0.750000  0.456251  0.829505  1
  Sc  Sc3  1  0.250000  0.043502  0.335367  1
  Si  Si4  1  0.250000  0.257108  0.635222  1
  Si  Si5  1  0.250000  0.759160  0.862117  1
  Si  Si6  1  0.750000  0.745462  0.366992  1
  Si  Si7  1  0.750000  0.233504  0.138165  1
  Mo  Mo8  1  0.250000  0.129416  0.937334  1
  Mo  Mo9  1  0.250000  0.629772  0.562790  1
  Mo  Mo10  1  0.750000  0.875122  0.057288  1
  Mo  Mo11  1  0.750000  0.371119  0.442366  1
