# generated using pymatgen
data_Tb2DyEr5Au4
_symmetry_space_group_name_H-M   'P 1'
_cell_length_a   4.91259800
_cell_length_b   7.12255008
_cell_length_c   8.91451506
_cell_angle_alpha   89.87536240
_cell_angle_beta   90.00000000
_cell_angle_gamma   90.00000000
_symmetry_Int_Tables_number   1
_chemical_formula_structural   Tb2DyEr5Au4
_chemical_formula_sum   'Tb2 Dy1 Er5 Au4'
_cell_volume   311.92015209
_cell_formula_units_Z   1
loop_
 _symmetry_equiv_pos_site_id
 _symmetry_equiv_pos_as_xyz
  1  'x, y, z'
loop_
 _atom_site_type_symbol
 _atom_site_label
 _atom_site_symmetry_multiplicity
 _atom_site_fract_x
 _atom_site_fract_y
 _atom_site_fract_z
 _atom_site_occupancy
  Tb  Tb0  1  0.250000  0.985741  0.322792  1
  Tb  Tb1  1  0.750000  0.014446  0.676775  1
  Dy  Dy2  1  0.750000  0.514374  0.823666  1
  Er  Er3  1  0.250000  0.851677  0.920431  1
  Er  Er4  1  0.250000  0.352528  0.579787  1
  Er  Er5  1  0.750000  0.148400  0.080205  1
  Er  Er6  1  0.750000  0.647579  0.419133  1
  Er  Er7  1  0.250000  0.485114  0.176233  1
  Au  Au8  1  0.250000  0.255857  0.901218  1
  Au  Au9  1  0.250000  0.755046  0.599964  1
  Au  Au10  1  0.750000  0.743927  0.099971  1
  Au  Au11  1  0.750000  0.245314  0.399824  1
