# generated using pymatgen
data_Tm15Sc5CoBi11
_symmetry_space_group_name_H-M   'P 1'
_cell_length_a   7.95981251
_cell_length_b   9.27187364
_cell_length_c   11.77547460
_cell_angle_alpha   89.95274017
_cell_angle_beta   89.68263657
_cell_angle_gamma   89.95222702
_symmetry_Int_Tables_number   1
_chemical_formula_structural   Tm15Sc5CoBi11
_chemical_formula_sum   'Tm15 Sc5 Co1 Bi11'
_cell_volume   869.04407531
_cell_formula_units_Z   1
loop_
 _symmetry_equiv_pos_site_id
 _symmetry_equiv_pos_as_xyz
  1  'x, y, z'
loop_
 _atom_site_type_symbol
 _atom_site_label
 _atom_site_symmetry_multiplicity
 _atom_site_fract_x
 _atom_site_fract_y
 _atom_site_fract_z
 _atom_site_occupancy
  Tm  Tm0  1  0.354400  0.249158  0.307959  1
  Tm  Tm1  1  0.652430  0.749828  0.716240  1
  Tm  Tm2  1  0.146963  0.748819  0.779716  1
  Tm  Tm3  1  0.849109  0.249480  0.214786  1
  Tm  Tm4  1  0.197049  0.249738  0.773526  1
  Tm  Tm5  1  0.811385  0.749982  0.218371  1
  Tm  Tm6  1  0.317363  0.750319  0.278410  1
  Tm  Tm7  1  0.642662  0.248811  0.701519  1
  Tm  Tm8  1  0.805610  0.935101  0.940538  1
  Tm  Tm9  1  0.314439  0.974253  0.558450  1
  Tm  Tm10  1  0.807522  0.566316  0.941774  1
  Tm  Tm11  1  0.681024  0.073790  0.446661  1
  Tm  Tm12  1  0.194857  0.434426  0.064291  1
  Tm  Tm13  1  0.680694  0.424834  0.447092  1
  Tm  Tm14  1  0.314690  0.525051  0.558707  1
  Sc  Sc15  1  0.050248  0.249709  0.507278  1
  Sc  Sc16  1  0.985773  0.749920  0.491040  1
  Sc  Sc17  1  0.478698  0.750287  0.012602  1
  Sc  Sc18  1  0.524927  0.248172  0.990399  1
  Sc  Sc19  1  0.195849  0.069587  0.063928  1
  Co  Co20  1  0.412840  0.249510  0.530049  1
  Bi  Bi21  1  0.596914  0.749370  0.458476  1
  Bi  Bi22  1  0.102775  0.757345  0.042597  1
  Bi  Bi23  1  0.908897  0.248440  0.953418  1
  Bi  Bi24  1  0.059549  0.000946  0.326032  1
  Bi  Bi25  1  0.932110  0.000039  0.669470  1
  Bi  Bi26  1  0.431855  0.993121  0.833865  1
  Bi  Bi27  1  0.931633  0.498976  0.670014  1
  Bi  Bi28  1  0.560166  0.005986  0.170412  1
  Bi  Bi29  1  0.059077  0.499328  0.327933  1
  Bi  Bi30  1  0.564088  0.493522  0.171077  1
  Bi  Bi31  1  0.434406  0.505835  0.833370  1
