# generated using pymatgen
data_Nd2Ge4(AsRh4)3
_symmetry_space_group_name_H-M   'P 1'
_cell_length_a   10.01050400
_cell_length_b   10.01050557
_cell_length_c   3.96651100
_cell_angle_alpha   90.00000000
_cell_angle_beta   90.00000000
_cell_angle_gamma   120.00000143
_symmetry_Int_Tables_number   1
_chemical_formula_structural   Nd2Ge4(AsRh4)3
_chemical_formula_sum   'Nd2 Ge4 As3 Rh12'
_cell_volume   344.23200260
_cell_formula_units_Z   1
loop_
 _symmetry_equiv_pos_site_id
 _symmetry_equiv_pos_as_xyz
  1  'x, y, z'
loop_
 _atom_site_type_symbol
 _atom_site_label
 _atom_site_symmetry_multiplicity
 _atom_site_fract_x
 _atom_site_fract_y
 _atom_site_fract_z
 _atom_site_occupancy
  Nd  Nd0  1  0.333333  0.666667  0.751221  1
  Nd  Nd1  1  0.666667  0.333333  0.249663  1
  Ge  Ge2  1  0.000000  0.000000  0.583121  1
  Ge  Ge3  1  0.885062  0.597826  0.751302  1
  Ge  Ge4  1  0.402174  0.287236  0.751302  1
  Ge  Ge5  1  0.712764  0.114938  0.751302  1
  As  As6  1  0.112654  0.401847  0.250035  1
  As  As7  1  0.598153  0.710806  0.250035  1
  As  As8  1  0.289194  0.887346  0.250035  1
  Rh  Rh9  1  0.617889  0.557145  0.752119  1
  Rh  Rh10  1  0.442855  0.060743  0.752119  1
  Rh  Rh11  1  0.939257  0.382111  0.752119  1
  Rh  Rh12  1  0.382134  0.442403  0.249652  1
  Rh  Rh13  1  0.557597  0.939731  0.249652  1
  Rh  Rh14  1  0.060269  0.617866  0.249652  1
  Rh  Rh15  1  0.121709  0.851009  0.750672  1
  Rh  Rh16  1  0.148991  0.270700  0.750672  1
  Rh  Rh17  1  0.729300  0.878291  0.750672  1
  Rh  Rh18  1  0.884857  0.142791  0.252980  1
  Rh  Rh19  1  0.857209  0.742066  0.252980  1
  Rh  Rh20  1  0.257934  0.115143  0.252980  1
