# generated using pymatgen
data_Hf6Ga6Ru7Rh5
_symmetry_space_group_name_H-M   'P 1'
_cell_length_a   4.44372500
_cell_length_b   6.31748503
_cell_length_c   13.27372006
_cell_angle_alpha   89.98935457
_cell_angle_beta   90.00011555
_cell_angle_gamma   90.00020293
_symmetry_Int_Tables_number   1
_chemical_formula_structural   Hf6Ga6Ru7Rh5
_chemical_formula_sum   'Hf6 Ga6 Ru7 Rh5'
_cell_volume   372.63534221
_cell_formula_units_Z   1
loop_
 _symmetry_equiv_pos_site_id
 _symmetry_equiv_pos_as_xyz
  1  'x, y, z'
loop_
 _atom_site_type_symbol
 _atom_site_label
 _atom_site_symmetry_multiplicity
 _atom_site_fract_x
 _atom_site_fract_y
 _atom_site_fract_z
 _atom_site_occupancy
  Hf  Hf0  1  0.000003  0.999765  0.002920  1
  Hf  Hf1  1  0.500046  0.500110  0.166962  1
  Hf  Hf2  1  0.000058  0.001221  0.331245  1
  Hf  Hf3  1  0.500009  0.497547  0.497081  1
  Hf  Hf4  1  0.999937  0.001206  0.665733  1
  Hf  Hf5  1  0.499954  0.500175  0.836125  1
  Ga  Ga6  1  0.000004  0.499921  0.003478  1
  Ga  Ga7  1  0.500051  0.000479  0.166891  1
  Ga  Ga8  1  0.000077  0.497740  0.331166  1
  Ga  Ga9  1  0.500003  0.003316  0.496648  1
  Ga  Ga10  1  0.999920  0.498165  0.665280  1
  Ga  Ga11  1  0.499955  0.000237  0.836527  1
  Ru  Ru12  1  0.500003  0.250489  0.997301  1
  Ru  Ru13  1  0.500000  0.749584  0.997406  1
  Ru  Ru14  1  0.000049  0.248860  0.166074  1
  Ru  Ru15  1  0.000038  0.751102  0.166484  1
  Ru  Ru16  1  0.500048  0.250658  0.335076  1
  Ru  Ru17  1  0.500063  0.749137  0.334938  1
  Ru  Ru18  1  0.999997  0.250244  0.502841  1
  Rh  Rh19  1  0.000006  0.749986  0.502140  1
  Rh  Rh20  1  0.499938  0.248674  0.667590  1
  Rh  Rh21  1  0.499934  0.751715  0.667396  1
  Rh  Rh22  1  0.999957  0.251121  0.831414  1
  Rh  Rh23  1  0.999952  0.748559  0.831284  1
