# generated using pymatgen
data_Li8NdU4Ta3N16
_symmetry_space_group_name_H-M   'P 1'
_cell_length_a   21.06527527
_cell_length_b   4.31175701
_cell_length_c   4.31349406
_cell_angle_alpha   89.99384846
_cell_angle_beta   90.00781969
_cell_angle_gamma   89.99210140
_symmetry_Int_Tables_number   1
_chemical_formula_structural   Li8NdU4Ta3N16
_chemical_formula_sum   'Li8 Nd1 U4 Ta3 N16'
_cell_volume   391.78753109
_cell_formula_units_Z   1
loop_
 _symmetry_equiv_pos_site_id
 _symmetry_equiv_pos_as_xyz
  1  'x, y, z'
loop_
 _atom_site_type_symbol
 _atom_site_label
 _atom_site_symmetry_multiplicity
 _atom_site_fract_x
 _atom_site_fract_y
 _atom_site_fract_z
 _atom_site_occupancy
  Li  Li0  1  0.190634  0.999690  0.748016  1
  Li  Li1  1  0.798497  0.001218  0.252755  1
  Li  Li2  1  0.278209  0.999720  0.248144  1
  Li  Li3  1  0.698362  0.000201  0.752233  1
  Li  Li4  1  0.077852  0.499325  0.748517  1
  Li  Li5  1  0.908417  0.499645  0.250180  1
  Li  Li6  1  0.441362  0.499458  0.249697  1
  Li  Li7  1  0.604568  0.499243  0.751042  1
  Nd  Nd8  1  0.441051  0.000183  0.749635  1
  U  U9  1  0.580017  0.000177  0.250218  1
  U  U10  1  0.059950  0.999783  0.248802  1
  U  U11  1  0.928729  0.000898  0.749265  1
  U  U12  1  0.301518  0.499856  0.748378  1
  Ta  Ta13  1  0.701372  0.513598  0.255278  1
  Ta  Ta14  1  0.180645  0.499353  0.247872  1
  Ta  Ta15  1  0.807383  0.515563  0.756496  1
  N  N16  1  0.305373  0.999846  0.748431  1
  N  N17  1  0.689651  0.989531  0.252416  1
  N  N18  1  0.168148  0.999906  0.248413  1
  N  N19  1  0.821212  0.988692  0.752386  1
  N  N20  1  0.400006  0.500135  0.748664  1
  N  N21  1  0.603199  0.501013  0.250184  1
  N  N22  1  0.081106  0.499813  0.248719  1
  N  N23  1  0.907564  0.501172  0.749420  1
  N  N24  1  0.039812  0.000730  0.748775  1
  N  N25  1  0.948650  0.000635  0.249256  1
  N  N26  1  0.481371  0.002404  0.249695  1
  N  N27  1  0.574616  0.000239  0.750167  1
  N  N28  1  0.192923  0.499687  0.748632  1
  N  N29  1  0.800666  0.494905  0.249713  1
  N  N30  1  0.278103  0.499727  0.248334  1
  N  N31  1  0.709037  0.493653  0.750265  1
