# generated using pymatgen
data_TbLu(Ni2As)4
_symmetry_space_group_name_H-M   'P 1'
_cell_length_a   3.77140700
_cell_length_b   7.21198571
_cell_length_c   7.21198571
_cell_angle_alpha   89.56190621
_cell_angle_beta   90.00000000
_cell_angle_gamma   90.00000000
_symmetry_Int_Tables_number   1
_chemical_formula_structural   TbLu(Ni2As)4
_chemical_formula_sum   'Tb1 Lu1 Ni8 As4'
_cell_volume   196.15546931
_cell_formula_units_Z   1
loop_
 _symmetry_equiv_pos_site_id
 _symmetry_equiv_pos_as_xyz
  1  'x, y, z'
loop_
 _atom_site_type_symbol
 _atom_site_label
 _atom_site_symmetry_multiplicity
 _atom_site_fract_x
 _atom_site_fract_y
 _atom_site_fract_z
 _atom_site_occupancy
  Tb  Tb0  1  0.000000  0.500000  0.500000  1
  Lu  Lu1  1  0.500000  0.000000  0.000000  1
  Ni  Ni2  1  0.500000  0.152605  0.589773  1
  Ni  Ni3  1  0.500000  0.847395  0.410227  1
  Ni  Ni4  1  0.000000  0.345474  0.088002  1
  Ni  Ni5  1  0.000000  0.654526  0.911998  1
  Ni  Ni6  1  0.500000  0.589773  0.152605  1
  Ni  Ni7  1  0.500000  0.410227  0.847395  1
  Ni  Ni8  1  0.000000  0.088002  0.345474  1
  Ni  Ni9  1  0.000000  0.911998  0.654526  1
  As  As10  1  0.500000  0.720271  0.720271  1
  As  As11  1  0.500000  0.279729  0.279729  1
  As  As12  1  0.000000  0.784371  0.215629  1
  As  As13  1  0.000000  0.215629  0.784371  1
