# generated using pymatgen
data_La4Al13IrAu8
_symmetry_space_group_name_H-M   'P 1'
_cell_length_a   11.80525000
_cell_length_b   11.79467570
_cell_length_c   4.28371900
_cell_angle_alpha   90.00000000
_cell_angle_beta   90.00000000
_cell_angle_gamma   120.02965585
_symmetry_Int_Tables_number   1
_chemical_formula_structural   La4Al13IrAu8
_chemical_formula_sum   'La4 Al13 Ir1 Au8'
_cell_volume   516.39608422
_cell_formula_units_Z   1
loop_
 _symmetry_equiv_pos_site_id
 _symmetry_equiv_pos_as_xyz
  1  'x, y, z'
loop_
 _atom_site_type_symbol
 _atom_site_label
 _atom_site_symmetry_multiplicity
 _atom_site_fract_x
 _atom_site_fract_y
 _atom_site_fract_z
 _atom_site_occupancy
  La  La0  1  0.199864  0.793737  0.500000  1
  La  La1  1  0.593873  0.793737  0.500000  1
  La  La2  1  0.204223  0.408446  0.500000  1
  La  La3  1  0.669057  0.338112  0.000000  1
  Al  Al4  1  0.946385  0.291481  0.000000  1
  Al  Al5  1  0.712121  0.650600  0.000000  1
  Al  Al6  1  0.938479  0.650600  0.000000  1
  Al  Al7  1  0.344931  0.053870  0.000000  1
  Al  Al8  1  0.163152  0.080429  0.500000  1
  Al  Al9  1  0.914091  0.828181  0.500000  1
  Al  Al10  1  0.708939  0.053870  0.000000  1
  Al  Al11  1  0.532212  0.064422  0.500000  1
  Al  Al12  1  0.917278  0.080429  0.500000  1
  Al  Al13  1  0.345096  0.291481  0.000000  1
  Al  Al14  1  0.544254  0.473076  0.500000  1
  Al  Al15  1  0.928824  0.473076  0.500000  1
  Al  Al16  1  0.333695  0.667390  0.000000  1
  Ir  Ir17  1  0.793377  0.586752  0.500000  1
  Au  Au18  1  0.458095  0.541897  0.000000  1
  Au  Au19  1  0.829612  0.915108  0.000000  1
  Au  Au20  1  0.458115  0.916228  0.000000  1
  Au  Au21  1  0.085744  0.171490  0.000000  1
  Au  Au22  1  0.085496  0.915108  0.000000  1
  Au  Au23  1  0.083804  0.541897  0.000000  1
  Au  Au24  1  0.791409  0.209289  0.500000  1
  Au  Au25  1  0.417881  0.209289  0.500000  1
