# generated using pymatgen
data_U(PtRh)4
_symmetry_space_group_name_H-M   'P 1'
_cell_length_a   6.32056887
_cell_length_b   6.32056862
_cell_length_c   6.32056794
_cell_angle_alpha   95.65966773
_cell_angle_beta   95.65965243
_cell_angle_gamma   143.39465201
_symmetry_Int_Tables_number   1
_chemical_formula_structural   U(PtRh)4
_chemical_formula_sum   'U1 Pt4 Rh4'
_cell_volume   142.95101541
_cell_formula_units_Z   1
loop_
 _symmetry_equiv_pos_site_id
 _symmetry_equiv_pos_as_xyz
  1  'x, y, z'
loop_
 _atom_site_type_symbol
 _atom_site_label
 _atom_site_symmetry_multiplicity
 _atom_site_fract_x
 _atom_site_fract_y
 _atom_site_fract_z
 _atom_site_occupancy
  U  U0  1  0.000000  0.000000  0.000000  1
  Pt  Pt1  1  0.000000  0.330813  0.330813  1
  Pt  Pt2  1  0.000000  0.669187  0.669187  1
  Pt  Pt3  1  0.669187  0.000000  0.669187  1
  Pt  Pt4  1  0.330813  0.000000  0.330813  1
  Rh  Rh5  1  0.336655  0.336655  0.673311  1
  Rh  Rh6  1  0.663345  0.663345  0.326689  1
  Rh  Rh7  1  0.663345  0.336655  0.000000  1
  Rh  Rh8  1  0.336655  0.663345  0.000000  1
