# generated using pymatgen
data_Cs2Cd(HgSe2)2
_symmetry_space_group_name_H-M   'P 1'
_cell_length_a   10.32218927
_cell_length_b   10.32218882
_cell_length_c   10.32218974
_cell_angle_alpha   142.18689966
_cell_angle_beta   106.74099568
_cell_angle_gamma   85.52290706
_symmetry_Int_Tables_number   1
_chemical_formula_structural   Cs2Cd(HgSe2)2
_chemical_formula_sum   'Cs4 Cd2 Hg4 Se8'
_cell_volume   624.41358875
_cell_formula_units_Z   2
loop_
 _symmetry_equiv_pos_site_id
 _symmetry_equiv_pos_as_xyz
  1  'x, y, z'
loop_
 _atom_site_type_symbol
 _atom_site_label
 _atom_site_symmetry_multiplicity
 _atom_site_fract_x
 _atom_site_fract_y
 _atom_site_fract_z
 _atom_site_occupancy
  Cs  Cs0  1  0.620079  0.231704  0.851783  1
  Cs  Cs1  1  0.379921  0.768296  0.148217  1
  Cs  Cs2  1  0.120079  0.268296  0.388376  1
  Cs  Cs3  1  0.879921  0.731704  0.611624  1
  Cd  Cd4  1  0.750000  0.750000  0.000000  1
  Cd  Cd5  1  0.250000  0.250000  0.000000  1
  Hg  Hg6  1  0.082758  0.750000  0.332758  1
  Hg  Hg7  1  0.417242  0.750000  0.667242  1
  Hg  Hg8  1  0.917242  0.250000  0.667242  1
  Hg  Hg9  1  0.582758  0.250000  0.332758  1
  Se  Se10  1  0.989629  0.640396  0.914302  1
  Se  Se11  1  0.726093  0.075326  0.085698  1
  Se  Se12  1  0.773907  0.859604  0.349233  1
  Se  Se13  1  0.510371  0.424674  0.650767  1
  Se  Se14  1  0.010371  0.359604  0.085698  1
  Se  Se15  1  0.273907  0.924674  0.914302  1
  Se  Se16  1  0.226093  0.140396  0.650767  1
  Se  Se17  1  0.489629  0.575326  0.349233  1
