# generated using pymatgen
data_Dy13Ho3MgAg3Rh4
_symmetry_space_group_name_H-M   'P 1'
_cell_length_a   9.53310907
_cell_length_b   9.55652542
_cell_length_c   9.55190187
_cell_angle_alpha   60.23610485
_cell_angle_beta   60.23633052
_cell_angle_gamma   60.23615518
_symmetry_Int_Tables_number   1
_chemical_formula_structural   Dy13Ho3MgAg3Rh4
_chemical_formula_sum   'Dy13 Ho3 Mg1 Ag3 Rh4'
_cell_volume   618.62217417
_cell_formula_units_Z   1
loop_
 _symmetry_equiv_pos_site_id
 _symmetry_equiv_pos_as_xyz
  1  'x, y, z'
loop_
 _atom_site_type_symbol
 _atom_site_label
 _atom_site_symmetry_multiplicity
 _atom_site_fract_x
 _atom_site_fract_y
 _atom_site_fract_z
 _atom_site_occupancy
  Dy  Dy0  1  0.435768  0.064410  0.064536  1
  Dy  Dy1  1  0.436254  0.434594  0.064555  1
  Dy  Dy2  1  0.189797  0.188990  0.811229  1
  Dy  Dy3  1  0.813961  0.186867  0.187110  1
  Dy  Dy4  1  0.066548  0.435566  0.063465  1
  Dy  Dy5  1  0.436559  0.064340  0.434720  1
  Dy  Dy6  1  0.062036  0.645878  0.645871  1
  Dy  Dy7  1  0.189047  0.811936  0.812231  1
  Dy  Dy8  1  0.649399  0.650673  0.049039  1
  Dy  Dy9  1  0.189382  0.811350  0.188841  1
  Dy  Dy10  1  0.066584  0.063235  0.435505  1
  Dy  Dy11  1  0.814183  0.186775  0.813172  1
  Dy  Dy12  1  0.647997  0.650645  0.650282  1
  Ho  Ho13  1  0.066945  0.435533  0.435367  1
  Ho  Ho14  1  0.649525  0.048573  0.650696  1
  Ho  Ho15  1  0.814484  0.813117  0.186907  1
  Mg  Mg16  1  0.714732  0.427944  0.428210  1
  Ag  Ag17  1  0.417455  0.415312  0.750173  1
  Ag  Ag18  1  0.417332  0.415584  0.416107  1
  Ag  Ag19  1  0.417447  0.750279  0.415513  1
  Rh  Rh20  1  0.858612  0.429219  0.854631  1
  Rh  Rh21  1  0.428627  0.857379  0.856452  1
  Rh  Rh22  1  0.858160  0.855115  0.429214  1
  Rh  Rh23  1  0.859172  0.856685  0.856173  1
