# generated using pymatgen
data_Ho2MnAl20FeRh2
_symmetry_space_group_name_H-M   'P 1'
_cell_length_a   6.81170002
_cell_length_b   6.81807543
_cell_length_c   9.08911600
_cell_angle_alpha   90.30534215
_cell_angle_beta   90.45483507
_cell_angle_gamma   96.84464606
_symmetry_Int_Tables_number   1
_chemical_formula_structural   Ho2MnAl20FeRh2
_chemical_formula_sum   'Ho2 Mn1 Al20 Fe1 Rh2'
_cell_volume   419.09287650
_cell_formula_units_Z   1
loop_
 _symmetry_equiv_pos_site_id
 _symmetry_equiv_pos_as_xyz
  1  'x, y, z'
loop_
 _atom_site_type_symbol
 _atom_site_label
 _atom_site_symmetry_multiplicity
 _atom_site_fract_x
 _atom_site_fract_y
 _atom_site_fract_z
 _atom_site_occupancy
  Ho  Ho0  1  0.871875  0.126389  0.749727  1
  Ho  Ho1  1  0.128125  0.873611  0.250273  1
  Mn  Mn2  1  0.500000  0.000000  0.500000  1
  Al  Al3  1  0.619710  0.372096  0.549408  1
  Al  Al4  1  0.380290  0.627904  0.450592  1
  Al  Al5  1  0.372574  0.620002  0.049687  1
  Al  Al6  1  0.627426  0.379998  0.950313  1
  Al  Al7  1  0.229504  0.221703  0.496479  1
  Al  Al8  1  0.770496  0.778297  0.503521  1
  Al  Al9  1  0.778121  0.770498  0.003288  1
  Al  Al10  1  0.221879  0.229502  0.996712  1
  Al  Al11  1  0.848337  0.160975  0.099791  1
  Al  Al12  1  0.151663  0.839025  0.900209  1
  Al  Al13  1  0.160693  0.848297  0.599154  1
  Al  Al14  1  0.839307  0.151703  0.400846  1
  Al  Al15  1  0.861353  0.586388  0.753745  1
  Al  Al16  1  0.138647  0.413612  0.246255  1
  Al  Al17  1  0.413587  0.138762  0.746290  1
  Al  Al18  1  0.586413  0.861238  0.253710  1
  Al  Al19  1  0.222314  0.479483  0.755264  1
  Al  Al20  1  0.777686  0.520517  0.244736  1
  Al  Al21  1  0.520687  0.777850  0.744567  1
  Al  Al22  1  0.479313  0.222150  0.255433  1
  Fe  Fe23  1  0.000000  0.500000  0.000000  1
  Rh  Rh24  1  0.000000  0.500000  0.500000  1
  Rh  Rh25  1  0.500000  0.000000  0.000000  1
