# generated using pymatgen
data_Pr8Er11ScSi15Ru
_symmetry_space_group_name_H-M   'P 1'
_cell_length_a   7.44757195
_cell_length_b   7.76715126
_cell_length_c   14.79307000
_cell_angle_alpha   90.00000000
_cell_angle_beta   90.00000000
_cell_angle_gamma   90.44732451
_symmetry_Int_Tables_number   1
_chemical_formula_structural   Pr8Er11ScSi15Ru
_chemical_formula_sum   'Pr8 Er11 Sc1 Si15 Ru1'
_cell_volume   855.70002949
_cell_formula_units_Z   1
loop_
 _symmetry_equiv_pos_site_id
 _symmetry_equiv_pos_as_xyz
  1  'x, y, z'
loop_
 _atom_site_type_symbol
 _atom_site_label
 _atom_site_symmetry_multiplicity
 _atom_site_fract_x
 _atom_site_fract_y
 _atom_site_fract_z
 _atom_site_occupancy
  Pr  Pr0  1  0.021452  0.176752  0.399897  1
  Pr  Pr1  1  0.518719  0.324013  0.401281  1
  Pr  Pr2  1  0.475245  0.680589  0.903773  1
  Pr  Pr3  1  0.475245  0.680589  0.596227  1
  Pr  Pr4  1  0.981567  0.822152  0.598090  1
  Pr  Pr5  1  0.981567  0.822152  0.901910  1
  Pr  Pr6  1  0.518719  0.324013  0.098719  1
  Pr  Pr7  1  0.021452  0.176752  0.100103  1
  Er  Er8  1  0.318322  0.171704  0.624742  1
  Er  Er9  1  0.678304  0.822421  0.376104  1
  Er  Er10  1  0.640109  0.983101  0.750000  1
  Er  Er11  1  0.179292  0.679661  0.375596  1
  Er  Er12  1  0.823671  0.322797  0.876365  1
  Er  Er13  1  0.823671  0.322797  0.623635  1
  Er  Er14  1  0.847179  0.493277  0.250000  1
  Er  Er15  1  0.318322  0.171704  0.875258  1
  Er  Er16  1  0.179292  0.679661  0.124404  1
  Er  Er17  1  0.678304  0.822421  0.123896  1
  Er  Er18  1  0.161680  0.519091  0.750000  1
  Sc  Sc19  1  0.347339  0.010466  0.250000  1
  Si  Si20  1  0.472127  0.615449  0.250000  1
  Si  Si21  1  0.023910  0.108564  0.750000  1
  Si  Si22  1  0.531780  0.384580  0.750000  1
  Si  Si23  1  0.147144  0.465460  0.537510  1
  Si  Si24  1  0.977224  0.888714  0.250000  1
  Si  Si25  1  0.719912  0.121178  0.250000  1
  Si  Si26  1  0.854786  0.529262  0.040889  1
  Si  Si27  1  0.356099  0.970785  0.042615  1
  Si  Si28  1  0.147144  0.465460  0.962490  1
  Si  Si29  1  0.648794  0.036364  0.537247  1
  Si  Si30  1  0.356099  0.970785  0.457385  1
  Si  Si31  1  0.854786  0.529262  0.459111  1
  Si  Si32  1  0.770479  0.614831  0.750000  1
  Si  Si33  1  0.227993  0.375704  0.250000  1
  Si  Si34  1  0.648794  0.036364  0.962753  1
  Ru  Ru35  1  0.273478  0.881124  0.750000  1
