# generated using pymatgen
data_La19YbIr11Ru
_symmetry_space_group_name_H-M   'P 1'
_cell_length_a   11.40786902
_cell_length_b   11.41044702
_cell_length_c   6.62853700
_cell_angle_alpha   90.00000000
_cell_angle_beta   90.00000000
_cell_angle_gamma   89.99275338
_symmetry_Int_Tables_number   1
_chemical_formula_structural   La19YbIr11Ru
_chemical_formula_sum   'La19 Yb1 Ir11 Ru1'
_cell_volume   862.82926442
_cell_formula_units_Z   1
loop_
 _symmetry_equiv_pos_site_id
 _symmetry_equiv_pos_as_xyz
  1  'x, y, z'
loop_
 _atom_site_type_symbol
 _atom_site_label
 _atom_site_symmetry_multiplicity
 _atom_site_fract_x
 _atom_site_fract_y
 _atom_site_fract_z
 _atom_site_occupancy
  La  La0  1  0.288979  0.089371  0.387736  1
  La  La1  1  0.291990  0.910023  0.889888  1
  La  La2  1  0.708010  0.089977  0.889888  1
  La  La3  1  0.711021  0.910629  0.387736  1
  La  La4  1  0.590469  0.793011  0.889001  1
  La  La5  1  0.590089  0.206971  0.385069  1
  La  La6  1  0.409911  0.793029  0.385069  1
  La  La7  1  0.409531  0.206989  0.889001  1
  La  La8  1  0.207989  0.408612  0.614920  1
  La  La9  1  0.208228  0.591304  0.113651  1
  La  La10  1  0.791772  0.408696  0.113651  1
  La  La11  1  0.792011  0.591388  0.614920  1
  La  La12  1  0.909126  0.709400  0.112635  1
  La  La13  1  0.909536  0.288176  0.612294  1
  La  La14  1  0.090464  0.711824  0.612294  1
  La  La15  1  0.090874  0.290600  0.112635  1
  La  La16  1  0.000000  0.000000  0.998306  1
  La  La17  1  0.500000  0.500000  0.998637  1
  La  La18  1  0.500000  0.500000  0.499260  1
  Yb  Yb19  1  0.000000  0.000000  0.498952  1
  Ir  Ir20  1  0.845867  0.155028  0.247825  1
  Ir  Ir21  1  0.845972  0.845049  0.751780  1
  Ir  Ir22  1  0.154028  0.154951  0.751780  1
  Ir  Ir23  1  0.154133  0.844972  0.247825  1
  Ir  Ir24  1  0.654065  0.346592  0.749221  1
  Ir  Ir25  1  0.654231  0.653348  0.250485  1
  Ir  Ir26  1  0.345769  0.346652  0.250485  1
  Ir  Ir27  1  0.345935  0.653408  0.749221  1
  Ir  Ir28  1  0.500000  0.000000  0.615488  1
  Ir  Ir29  1  0.000000  0.500000  0.883863  1
  Ir  Ir30  1  0.000000  0.500000  0.384312  1
  Ru  Ru31  1  0.500000  0.000000  0.112173  1
