# generated using pymatgen
data_Dy2Cu3Ni3(BIr)2
_symmetry_space_group_name_H-M   'P 1'
_cell_length_a   4.97096423
_cell_length_b   5.25150811
_cell_length_c   7.07447600
_cell_angle_alpha   90.00000000
_cell_angle_beta   90.00000000
_cell_angle_gamma   118.64314378
_symmetry_Int_Tables_number   1
_chemical_formula_structural   Dy2Cu3Ni3(BIr)2
_chemical_formula_sum   'Dy2 Cu3 Ni3 B2 Ir2'
_cell_volume   162.07894154
_cell_formula_units_Z   1
loop_
 _symmetry_equiv_pos_site_id
 _symmetry_equiv_pos_as_xyz
  1  'x, y, z'
loop_
 _atom_site_type_symbol
 _atom_site_label
 _atom_site_symmetry_multiplicity
 _atom_site_fract_x
 _atom_site_fract_y
 _atom_site_fract_z
 _atom_site_occupancy
  Dy  Dy0  1  0.500000  0.000000  0.003931  1
  Dy  Dy1  1  0.500000  0.000000  0.497765  1
  Cu  Cu2  1  0.824095  0.636472  0.000868  1
  Cu  Cu3  1  0.175905  0.363528  0.000868  1
  Cu  Cu4  1  0.500000  0.500000  0.711672  1
  Ni  Ni5  1  0.000000  0.500000  0.697789  1
  Ni  Ni6  1  0.500000  0.500000  0.299609  1
  Ni  Ni7  1  0.000000  0.500000  0.298245  1
  B  B8  1  0.843603  0.675130  0.496421  1
  B  B9  1  0.156397  0.324870  0.496421  1
  Ir  Ir10  1  0.000000  0.000000  0.716255  1
  Ir  Ir11  1  0.000000  0.000000  0.280158  1
