# generated using pymatgen
data_Er2RuWC3
_symmetry_space_group_name_H-M   'P 1'
_cell_length_a   6.00420178
_cell_length_b   6.00420094
_cell_length_c   5.65898524
_cell_angle_alpha   68.16973068
_cell_angle_beta   68.16973499
_cell_angle_gamma   32.30058323
_symmetry_Int_Tables_number   1
_chemical_formula_structural   Er2RuWC3
_chemical_formula_sum   'Er2 Ru1 W1 C3'
_cell_volume   100.51370001
_cell_formula_units_Z   1
loop_
 _symmetry_equiv_pos_site_id
 _symmetry_equiv_pos_as_xyz
  1  'x, y, z'
loop_
 _atom_site_type_symbol
 _atom_site_label
 _atom_site_symmetry_multiplicity
 _atom_site_fract_x
 _atom_site_fract_y
 _atom_site_fract_z
 _atom_site_occupancy
  Er  Er0  1  0.609311  0.609311  0.180068  1
  Er  Er1  1  0.391322  0.391322  0.833744  1
  Ru  Ru2  1  0.842673  0.842673  0.318578  1
  W  W3  1  0.158234  0.158234  0.674459  1
  C  C4  1  0.753260  0.753260  0.731340  1
  C  C5  1  0.245774  0.245774  0.267739  1
  C  C6  1  0.999426  0.999426  0.994071  1
