# generated using pymatgen
data_Dy3Y(TmBi)6
_symmetry_space_group_name_H-M   'P 1'
_cell_length_a   8.20949300
_cell_length_b   9.44109700
_cell_length_c   12.00943700
_cell_angle_alpha   90.00000000
_cell_angle_beta   90.00000000
_cell_angle_gamma   90.00000000
_symmetry_Int_Tables_number   1
_chemical_formula_structural   Dy3Y(TmBi)6
_chemical_formula_sum   'Dy6 Y2 Tm12 Bi12'
_cell_volume   930.81086678
_cell_formula_units_Z   2
loop_
 _symmetry_equiv_pos_site_id
 _symmetry_equiv_pos_as_xyz
  1  'x, y, z'
loop_
 _atom_site_type_symbol
 _atom_site_label
 _atom_site_symmetry_multiplicity
 _atom_site_fract_x
 _atom_site_fract_y
 _atom_site_fract_z
 _atom_site_occupancy
  Dy  Dy0  1  0.186466  0.750000  0.718705  1
  Dy  Dy1  1  0.686466  0.750000  0.781295  1
  Dy  Dy2  1  0.813530  0.250000  0.281302  1
  Dy  Dy3  1  0.313530  0.250000  0.218698  1
  Dy  Dy4  1  0.353687  0.750000  0.216254  1
  Dy  Dy5  1  0.853687  0.750000  0.283746  1
  Y  Y6  1  0.646390  0.250000  0.783948  1
  Y  Y7  1  0.146390  0.250000  0.716052  1
  Tm  Tm8  1  0.025004  0.750000  0.989009  1
  Tm  Tm9  1  0.525004  0.750000  0.510991  1
  Tm  Tm10  1  0.975005  0.250000  0.011078  1
  Tm  Tm11  1  0.475005  0.250000  0.488922  1
  Tm  Tm12  1  0.306754  0.434651  0.940645  1
  Tm  Tm13  1  0.806754  0.065349  0.559355  1
  Tm  Tm14  1  0.693217  0.934530  0.059509  1
  Tm  Tm15  1  0.193217  0.565470  0.440491  1
  Tm  Tm16  1  0.693217  0.565470  0.059509  1
  Tm  Tm17  1  0.193217  0.934530  0.440491  1
  Tm  Tm18  1  0.306754  0.065349  0.940645  1
  Tm  Tm19  1  0.806754  0.434651  0.559355  1
  Bi  Bi20  1  0.433740  0.003748  0.672489  1
  Bi  Bi21  1  0.933740  0.496252  0.827511  1
  Bi  Bi22  1  0.566290  0.503910  0.327460  1
  Bi  Bi23  1  0.066290  0.996090  0.172540  1
  Bi  Bi24  1  0.566290  0.996090  0.327460  1
  Bi  Bi25  1  0.066290  0.503910  0.172540  1
  Bi  Bi26  1  0.433740  0.496252  0.672489  1
  Bi  Bi27  1  0.933740  0.003748  0.827511  1
  Bi  Bi28  1  0.406718  0.750000  0.957771  1
  Bi  Bi29  1  0.906718  0.750000  0.542229  1
  Bi  Bi30  1  0.593198  0.250000  0.042223  1
  Bi  Bi31  1  0.093198  0.250000  0.457777  1
