# generated using pymatgen
data_NdTh2In3Ru2Rh
_symmetry_space_group_name_H-M   'P 1'
_cell_length_a   7.74676392
_cell_length_b   7.37687055
_cell_length_c   4.06921500
_cell_angle_alpha   90.00000000
_cell_angle_beta   90.00000000
_cell_angle_gamma   118.43269162
_symmetry_Int_Tables_number   1
_chemical_formula_structural   NdTh2In3Ru2Rh
_chemical_formula_sum   'Nd1 Th2 In3 Ru2 Rh1'
_cell_volume   204.49290640
_cell_formula_units_Z   1
loop_
 _symmetry_equiv_pos_site_id
 _symmetry_equiv_pos_as_xyz
  1  'x, y, z'
loop_
 _atom_site_type_symbol
 _atom_site_label
 _atom_site_symmetry_multiplicity
 _atom_site_fract_x
 _atom_site_fract_y
 _atom_site_fract_z
 _atom_site_occupancy
  Nd  Nd0  1  0.000000  0.591445  0.500000  1
  Th  Th1  1  0.582413  0.001524  0.500000  1
  Th  Th2  1  0.417587  0.419111  0.500000  1
  In  In3  1  0.237941  0.988800  0.000000  1
  In  In4  1  0.762059  0.750859  0.000000  1
  In  In5  1  0.000000  0.262429  0.000000  1
  Ru  Ru6  1  0.366218  0.670113  0.000000  1
  Ru  Ru7  1  0.633782  0.303894  0.000000  1
  Rh  Rh8  1  0.000000  0.011824  0.500000  1
