# generated using pymatgen
data_Rb2Hg3(PtO2)7
_symmetry_space_group_name_H-M   'P 1'
_cell_length_a   6.47927765
_cell_length_b   6.47927818
_cell_length_c   11.02870725
_cell_angle_alpha   90.06482851
_cell_angle_beta   90.06482760
_cell_angle_gamma   60.48312172
_symmetry_Int_Tables_number   1
_chemical_formula_structural   Rb2Hg3(PtO2)7
_chemical_formula_sum   'Rb2 Hg3 Pt7 O14'
_cell_volume   402.90422504
_cell_formula_units_Z   1
loop_
 _symmetry_equiv_pos_site_id
 _symmetry_equiv_pos_as_xyz
  1  'x, y, z'
loop_
 _atom_site_type_symbol
 _atom_site_label
 _atom_site_symmetry_multiplicity
 _atom_site_fract_x
 _atom_site_fract_y
 _atom_site_fract_z
 _atom_site_occupancy
  Rb  Rb0  1  0.501876  0.501876  0.712852  1
  Rb  Rb1  1  0.498124  0.498124  0.287148  1
  Hg  Hg2  1  0.829714  0.829714  0.197822  1
  Hg  Hg3  1  0.170286  0.170286  0.802178  1
  Hg  Hg4  1  0.000000  0.000000  0.500000  1
  Pt  Pt5  1  0.000000  0.000000  0.000000  1
  Pt  Pt6  1  0.833283  0.833283  0.775632  1
  Pt  Pt7  1  0.166717  0.166717  0.224368  1
  Pt  Pt8  1  0.000000  0.500000  0.000000  1
  Pt  Pt9  1  0.500000  0.000000  0.500000  1
  Pt  Pt10  1  0.000000  0.500000  0.500000  1
  Pt  Pt11  1  0.500000  0.000000  0.000000  1
  O  O12  1  0.695934  0.109240  0.899929  1
  O  O13  1  0.695064  0.695064  0.900469  1
  O  O14  1  0.474789  0.008234  0.319218  1
  O  O15  1  0.346169  0.346169  0.503923  1
  O  O16  1  0.991766  0.525211  0.680782  1
  O  O17  1  0.008829  0.008829  0.312754  1
  O  O18  1  0.525211  0.991766  0.680782  1
  O  O19  1  0.109240  0.695934  0.899929  1
  O  O20  1  0.304066  0.890760  0.100071  1
  O  O21  1  0.653831  0.653831  0.496077  1
  O  O22  1  0.304936  0.304936  0.099531  1
  O  O23  1  0.008234  0.474789  0.319218  1
  O  O24  1  0.991171  0.991171  0.687246  1
  O  O25  1  0.890760  0.304066  0.100071  1
