# generated using pymatgen
data_Ta3Al2GaCo6
_symmetry_space_group_name_H-M   'P 1'
_cell_length_a   4.21304400
_cell_length_b   5.93705900
_cell_length_c   12.67452700
_cell_angle_alpha   90.00000000
_cell_angle_beta   90.00000000
_cell_angle_gamma   90.00000000
_symmetry_Int_Tables_number   1
_chemical_formula_structural   Ta3Al2GaCo6
_chemical_formula_sum   'Ta6 Al4 Ga2 Co12'
_cell_volume   317.02909467
_cell_formula_units_Z   2
loop_
 _symmetry_equiv_pos_site_id
 _symmetry_equiv_pos_as_xyz
  1  'x, y, z'
loop_
 _atom_site_type_symbol
 _atom_site_label
 _atom_site_symmetry_multiplicity
 _atom_site_fract_x
 _atom_site_fract_y
 _atom_site_fract_z
 _atom_site_occupancy
  Ta  Ta0  1  0.000003  0.000000  0.999553  1
  Ta  Ta1  1  0.500189  0.500001  0.166686  1
  Ta  Ta2  1  0.000187  0.000000  0.333313  1
  Ta  Ta3  1  0.500003  0.500001  0.500447  1
  Ta  Ta4  1  0.999812  0.000000  0.667129  1
  Ta  Ta5  1  0.499812  0.500001  0.832870  1
  Al  Al6  1  0.000008  0.500001  0.000117  1
  Al  Al7  1  0.500189  0.000000  0.166586  1
  Al  Al8  1  0.000189  0.500001  0.333414  1
  Al  Al9  1  0.500008  0.000000  0.499883  1
  Ga  Ga10  1  0.999780  0.500001  0.666554  1
  Ga  Ga11  1  0.499778  0.000000  0.833446  1
  Co  Co12  1  0.500007  0.251624  0.000660  1
  Co  Co13  1  0.500007  0.748375  0.000660  1
  Co  Co14  1  0.000224  0.249512  0.166433  1
  Co  Co15  1  0.000224  0.750489  0.166433  1
  Co  Co16  1  0.500226  0.250489  0.333567  1
  Co  Co17  1  0.500226  0.749513  0.333567  1
  Co  Co18  1  0.000007  0.248376  0.499340  1
  Co  Co19  1  0.000007  0.751623  0.499340  1
  Co  Co20  1  0.499779  0.248073  0.665702  1
  Co  Co21  1  0.499779  0.751929  0.665702  1
  Co  Co22  1  0.999779  0.251928  0.834299  1
  Co  Co23  1  0.999779  0.748073  0.834299  1
