# generated using pymatgen
data_Zn20CdPd4Au
_symmetry_space_group_name_H-M   'P 1'
_cell_length_a   7.99108200
_cell_length_b   7.98868924
_cell_length_c   7.95822871
_cell_angle_alpha   70.77319196
_cell_angle_beta   70.76118541
_cell_angle_gamma   109.49606329
_symmetry_Int_Tables_number   1
_chemical_formula_structural   Zn20CdPd4Au
_chemical_formula_sum   'Zn20 Cd1 Pd4 Au1'
_cell_volume   393.25331396
_cell_formula_units_Z   1
loop_
 _symmetry_equiv_pos_site_id
 _symmetry_equiv_pos_as_xyz
  1  'x, y, z'
loop_
 _atom_site_type_symbol
 _atom_site_label
 _atom_site_symmetry_multiplicity
 _atom_site_fract_x
 _atom_site_fract_y
 _atom_site_fract_z
 _atom_site_occupancy
  Zn  Zn0  1  0.000547  0.996176  0.791271  1
  Zn  Zn1  1  0.778037  0.778344  0.222355  1
  Zn  Zn2  1  0.205260  0.001581  0.997660  1
  Zn  Zn3  1  0.000055  0.222946  0.003764  1
  Zn  Zn4  1  0.275999  0.263653  0.381970  1
  Zn  Zn5  1  0.006474  0.737004  0.648142  1
  Zn  Zn6  1  0.725315  0.992321  0.651418  1
  Zn  Zn7  1  0.658186  0.644119  0.625851  1
  Zn  Zn8  1  0.387189  0.648242  0.340662  1
  Zn  Zn9  1  0.651875  0.382013  0.354363  1
  Zn  Zn10  1  0.349109  0.736622  0.996255  1
  Zn  Zn11  1  0.598541  0.250581  0.743667  1
  Zn  Zn12  1  0.349331  0.996659  0.267593  1
  Zn  Zn13  1  0.717547  0.349136  0.002048  1
  Zn  Zn14  1  0.010265  0.355303  0.267891  1
  Zn  Zn15  1  0.274546  0.621274  0.733941  1
  Zn  Zn16  1  0.642949  0.646790  0.993502  1
  Zn  Zn17  1  0.008987  0.659738  0.342812  1
  Zn  Zn18  1  0.651910  0.002602  0.347890  1
  Zn  Zn19  1  0.357913  0.356256  0.004091  1
  Cd  Cd20  1  0.994890  0.363073  0.636718  1
  Pd  Pd21  1  0.999051  0.001369  0.346032  1
  Pd  Pd22  1  0.349121  0.357387  0.655399  1
  Pd  Pd23  1  0.653291  0.995877  0.004485  1
  Pd  Pd24  1  0.986928  0.641417  0.010472  1
  Au  Au25  1  0.366683  0.999519  0.629747  1
