# generated using pymatgen
data_PrNd3(HfPt)4
_symmetry_space_group_name_H-M   'P 1'
_cell_length_a   4.64627100
_cell_length_b   7.90450393
_cell_length_c   7.86429492
_cell_angle_alpha   89.55247373
_cell_angle_beta   90.00000000
_cell_angle_gamma   90.00000000
_symmetry_Int_Tables_number   1
_chemical_formula_structural   PrNd3(HfPt)4
_chemical_formula_sum   'Pr1 Nd3 Hf4 Pt4'
_cell_volume   288.81896037
_cell_formula_units_Z   1
loop_
 _symmetry_equiv_pos_site_id
 _symmetry_equiv_pos_as_xyz
  1  'x, y, z'
loop_
 _atom_site_type_symbol
 _atom_site_label
 _atom_site_symmetry_multiplicity
 _atom_site_fract_x
 _atom_site_fract_y
 _atom_site_fract_z
 _atom_site_occupancy
  Pr  Pr0  1  0.250000  0.035592  0.661433  1
  Nd  Nd1  1  0.250000  0.537759  0.837117  1
  Nd  Nd2  1  0.750000  0.962638  0.336549  1
  Nd  Nd3  1  0.750000  0.462515  0.163831  1
  Hf  Hf4  1  0.250000  0.138556  0.076395  1
  Hf  Hf5  1  0.250000  0.638693  0.422891  1
  Hf  Hf6  1  0.750000  0.861645  0.924056  1
  Hf  Hf7  1  0.750000  0.361306  0.577418  1
  Pt  Pt8  1  0.250000  0.301245  0.394662  1
  Pt  Pt9  1  0.250000  0.799579  0.102983  1
  Pt  Pt10  1  0.750000  0.699158  0.604388  1
  Pt  Pt11  1  0.750000  0.201315  0.898276  1
