# generated using pymatgen
data_Ho6Er2Ti12Si15Pb
_symmetry_space_group_name_H-M   'P 1'
_cell_length_a   7.10856569
_cell_length_b   7.06408997
_cell_length_c   13.00268314
_cell_angle_alpha   89.97375049
_cell_angle_beta   89.68374640
_cell_angle_gamma   89.91516198
_symmetry_Int_Tables_number   1
_chemical_formula_structural   Ho6Er2Ti12Si15Pb
_chemical_formula_sum   'Ho6 Er2 Ti12 Si15 Pb1'
_cell_volume   652.92612608
_cell_formula_units_Z   1
loop_
 _symmetry_equiv_pos_site_id
 _symmetry_equiv_pos_as_xyz
  1  'x, y, z'
loop_
 _atom_site_type_symbol
 _atom_site_label
 _atom_site_symmetry_multiplicity
 _atom_site_fract_x
 _atom_site_fract_y
 _atom_site_fract_z
 _atom_site_occupancy
  Ho  Ho0  1  0.344901  0.998078  0.460093  1
  Ho  Ho1  1  0.507279  0.834461  0.718533  1
  Ho  Ho2  1  0.502156  0.159922  0.216828  1
  Ho  Ho3  1  0.841263  0.497522  0.281923  1
  Ho  Ho4  1  0.159027  0.511052  0.786632  1
  Ho  Ho5  1  0.661522  0.996244  0.969405  1
  Er  Er6  1  0.990090  0.350819  0.526084  1
  Er  Er7  1  0.999451  0.658751  0.034285  1
  Ti  Ti8  1  0.325858  0.326921  0.001457  1
  Ti  Ti9  1  0.173885  0.826030  0.249588  1
  Ti  Ti10  1  0.813622  0.175293  0.752552  1
  Ti  Ti11  1  0.672754  0.672732  0.499407  1
  Ti  Ti12  1  0.152320  0.007454  0.884267  1
  Ti  Ti13  1  0.492702  0.650254  0.126501  1
  Ti  Ti14  1  0.517081  0.354999  0.626341  1
  Ti  Ti15  1  0.654245  0.493706  0.876221  1
  Ti  Ti16  1  0.347726  0.509080  0.372882  1
  Ti  Ti17  1  0.847233  0.992707  0.375364  1
  Ti  Ti18  1  0.009271  0.151568  0.123761  1
  Ti  Ti19  1  0.977639  0.832191  0.618179  1
  Si  Si20  1  0.370524  0.703417  0.935885  1
  Si  Si21  1  0.628435  0.296947  0.432101  1
  Si  Si22  1  0.704096  0.369503  0.067215  1
  Si  Si23  1  0.296854  0.630848  0.565975  1
  Si  Si24  1  0.797341  0.869605  0.183546  1
  Si  Si25  1  0.129993  0.203287  0.315552  1
  Si  Si26  1  0.870444  0.799804  0.817077  1
  Si  Si27  1  0.292463  0.951940  0.067260  1
  Si  Si28  1  0.550216  0.789003  0.313104  1
  Si  Si29  1  0.460526  0.210610  0.821531  1
  Si  Si30  1  0.794672  0.543762  0.687178  1
  Si  Si31  1  0.209247  0.453080  0.185145  1
  Si  Si32  1  0.706800  0.048409  0.564344  1
  Si  Si33  1  0.952509  0.292001  0.935556  1
  Si  Si34  1  0.048388  0.711064  0.432450  1
  Pb  Pb35  1  0.197467  0.126934  0.675778  1
