# generated using pymatgen
data_Nb6Ir15OsRh2
_symmetry_space_group_name_H-M   'P 1'
_cell_length_a   5.57785122
_cell_length_b   5.57768472
_cell_length_c   13.52916802
_cell_angle_alpha   89.95781463
_cell_angle_beta   90.03854755
_cell_angle_gamma   120.01125222
_symmetry_Int_Tables_number   1
_chemical_formula_structural   Nb6Ir15OsRh2
_chemical_formula_sum   'Nb6 Ir15 Os1 Rh2'
_cell_volume   364.47958847
_cell_formula_units_Z   1
loop_
 _symmetry_equiv_pos_site_id
 _symmetry_equiv_pos_as_xyz
  1  'x, y, z'
loop_
 _atom_site_type_symbol
 _atom_site_label
 _atom_site_symmetry_multiplicity
 _atom_site_fract_x
 _atom_site_fract_y
 _atom_site_fract_z
 _atom_site_occupancy
  Nb  Nb0  1  0.999601  0.000120  0.250167  1
  Nb  Nb1  1  0.001154  0.000960  0.749958  1
  Nb  Nb2  1  0.334370  0.665433  0.409830  1
  Nb  Nb3  1  0.665817  0.332753  0.588535  1
  Nb  Nb4  1  0.665959  0.333039  0.911285  1
  Nb  Nb5  1  0.334265  0.665505  0.090322  1
  Ir  Ir6  1  0.503847  0.007181  0.249934  1
  Ir  Ir7  1  0.992365  0.495922  0.249944  1
  Ir  Ir8  1  0.495418  0.503438  0.749484  1
  Ir  Ir9  1  0.495183  0.992094  0.750042  1
  Ir  Ir10  1  0.166329  0.330979  0.917193  1
  Ir  Ir11  1  0.669815  0.834650  0.916528  1
  Ir  Ir12  1  0.166018  0.835222  0.916228  1
  Ir  Ir13  1  0.833139  0.669264  0.083417  1
  Ir  Ir14  1  0.330892  0.166907  0.083161  1
  Ir  Ir15  1  0.834541  0.165388  0.082814  1
  Ir  Ir16  1  0.833155  0.669560  0.416548  1
  Ir  Ir17  1  0.330602  0.166872  0.416811  1
  Ir  Ir18  1  0.834809  0.165287  0.417690  1
  Ir  Ir19  1  0.166743  0.330401  0.582837  1
  Ir  Ir20  1  0.669965  0.834408  0.583535  1
  Os  Os21  1  0.503481  0.496397  0.250275  1
  Rh  Rh22  1  0.006189  0.503603  0.749962  1
  Rh  Rh23  1  0.166344  0.834618  0.583499  1
