# generated using pymatgen
data_TbEr(AgO2)4
_symmetry_space_group_name_H-M   'P 1'
_cell_length_a   6.60661069
_cell_length_b   6.60661045
_cell_length_c   6.60661109
_cell_angle_alpha   126.12209868
_cell_angle_beta   126.12208105
_cell_angle_gamma   79.68756026
_symmetry_Int_Tables_number   1
_chemical_formula_structural   TbEr(AgO2)4
_chemical_formula_sum   'Tb1 Er1 Ag4 O8'
_cell_volume   181.76734104
_cell_formula_units_Z   1
loop_
 _symmetry_equiv_pos_site_id
 _symmetry_equiv_pos_as_xyz
  1  'x, y, z'
loop_
 _atom_site_type_symbol
 _atom_site_label
 _atom_site_symmetry_multiplicity
 _atom_site_fract_x
 _atom_site_fract_y
 _atom_site_fract_z
 _atom_site_occupancy
  Tb  Tb0  1  0.000000  0.000000  0.000000  1
  Er  Er1  1  0.750000  0.250000  0.500000  1
  Ag  Ag2  1  0.372556  0.125896  0.748042  1
  Ag  Ag3  1  0.377854  0.624514  0.251958  1
  Ag  Ag4  1  0.874104  0.622146  0.246660  1
  Ag  Ag5  1  0.375486  0.627444  0.753340  1
  O  O6  1  0.029950  0.010399  0.653448  1
  O  O7  1  0.623498  0.970050  0.980449  1
  O  O8  1  0.989601  0.643049  0.019551  1
  O  O9  1  0.402058  0.877701  0.165071  1
  O  O10  1  0.763012  0.597942  0.475642  1
  O  O11  1  0.122299  0.287370  0.524358  1
  O  O12  1  0.356951  0.376502  0.346552  1
  O  O13  1  0.712630  0.236988  0.834929  1
