# generated using pymatgen
data_HoCr4Bi3F28
_symmetry_space_group_name_H-M   'P 1'
_cell_length_a   5.58269118
_cell_length_b   8.96378166
_cell_length_c   11.87158968
_cell_angle_alpha   62.51958720
_cell_angle_beta   89.96797602
_cell_angle_gamma   89.92623505
_symmetry_Int_Tables_number   1
_chemical_formula_structural   HoCr4Bi3F28
_chemical_formula_sum   'Ho1 Cr4 Bi3 F28'
_cell_volume   527.04727258
_cell_formula_units_Z   1
loop_
 _symmetry_equiv_pos_site_id
 _symmetry_equiv_pos_as_xyz
  1  'x, y, z'
loop_
 _atom_site_type_symbol
 _atom_site_label
 _atom_site_symmetry_multiplicity
 _atom_site_fract_x
 _atom_site_fract_y
 _atom_site_fract_z
 _atom_site_occupancy
  Ho  Ho0  1  0.730152  0.805234  0.264164  1
  Cr  Cr1  1  0.758480  0.270106  0.959104  1
  Cr  Cr2  1  0.258537  0.725282  0.539004  1
  Cr  Cr3  1  0.238303  0.727748  0.046763  1
  Cr  Cr4  1  0.742464  0.277991  0.455460  1
  Bi  Bi5  1  0.776196  0.810113  0.762475  1
  Bi  Bi6  1  0.274632  0.187479  0.737678  1
  Bi  Bi7  1  0.227180  0.180476  0.237584  1
  F  F8  1  0.426400  0.709635  0.928049  1
  F  F9  1  0.924501  0.294394  0.577119  1
  F  F10  1  0.576962  0.291355  0.079173  1
  F  F11  1  0.066109  0.710468  0.418886  1
  F  F12  1  0.454531  0.282787  0.541545  1
  F  F13  1  0.954567  0.722236  0.957785  1
  F  F14  1  0.542064  0.721317  0.449469  1
  F  F15  1  0.048126  0.277067  0.042502  1
  F  F16  1  0.771552  0.501050  0.865389  1
  F  F17  1  0.272084  0.496873  0.632329  1
  F  F18  1  0.223787  0.500400  0.139951  1
  F  F19  1  0.735208  0.511118  0.362198  1
  F  F20  1  0.754723  0.039371  0.049846  1
  F  F21  1  0.255457  0.958245  0.451586  1
  F  F22  1  0.241510  0.959891  0.954921  1
  F  F23  1  0.743693  0.045718  0.546107  1
  F  F24  1  0.980156  0.727398  0.630907  1
  F  F25  1  0.476098  0.270903  0.868736  1
  F  F26  1  0.021038  0.271994  0.366861  1
  F  F27  1  0.513256  0.730894  0.141025  1
  F  F28  1  0.043201  0.751275  0.166602  1
  F  F29  1  0.561246  0.260667  0.332344  1
  F  F30  1  0.937853  0.253057  0.834135  1
  F  F31  1  0.443635  0.744694  0.660891  1
  F  F32  1  0.410826  0.967985  0.225602  1
  F  F33  1  0.904806  0.018459  0.273521  1
  F  F34  1  0.604900  0.029396  0.776989  1
  F  F35  1  0.105767  0.966924  0.723303  1
