# generated using pymatgen
data_Dy2Th(RhPb)3
_symmetry_space_group_name_H-M   'P 1'
_cell_length_a   7.83821200
_cell_length_b   7.72802334
_cell_length_c   3.93256900
_cell_angle_alpha   90.00000000
_cell_angle_beta   90.00000000
_cell_angle_gamma   120.47279314
_symmetry_Int_Tables_number   1
_chemical_formula_structural   Dy2Th(RhPb)3
_chemical_formula_sum   'Dy2 Th1 Rh3 Pb3'
_cell_volume   205.30691647
_cell_formula_units_Z   1
loop_
 _symmetry_equiv_pos_site_id
 _symmetry_equiv_pos_as_xyz
  1  'x, y, z'
loop_
 _atom_site_type_symbol
 _atom_site_label
 _atom_site_symmetry_multiplicity
 _atom_site_fract_x
 _atom_site_fract_y
 _atom_site_fract_z
 _atom_site_occupancy
  Dy  Dy0  1  0.999408  0.404164  0.000000  1
  Dy  Dy1  1  0.595244  0.595837  0.000000  1
  Th  Th2  1  0.411658  0.000000  0.000000  1
  Rh  Rh3  1  0.009325  0.000000  0.000000  1
  Rh  Rh4  1  0.650451  0.316368  0.499999  1
  Rh  Rh5  1  0.334083  0.683633  0.499999  1
  Pb  Pb6  1  0.750741  0.000000  0.499999  1
  Pb  Pb7  1  0.261554  0.274019  0.499999  1
  Pb  Pb8  1  0.987535  0.725980  0.499999  1
