# generated using pymatgen
data_Tb4Al4RuPt3
_symmetry_space_group_name_H-M   'P 1'
_cell_length_a   4.37780100
_cell_length_b   6.89507466
_cell_length_c   7.87941076
_cell_angle_alpha   89.76728402
_cell_angle_beta   90.00000000
_cell_angle_gamma   90.00000000
_symmetry_Int_Tables_number   1
_chemical_formula_structural   Tb4Al4RuPt3
_chemical_formula_sum   'Tb4 Al4 Ru1 Pt3'
_cell_volume   237.84013769
_cell_formula_units_Z   1
loop_
 _symmetry_equiv_pos_site_id
 _symmetry_equiv_pos_as_xyz
  1  'x, y, z'
loop_
 _atom_site_type_symbol
 _atom_site_label
 _atom_site_symmetry_multiplicity
 _atom_site_fract_x
 _atom_site_fract_y
 _atom_site_fract_z
 _atom_site_occupancy
  Tb  Tb0  1  0.250000  0.033222  0.678326  1
  Tb  Tb1  1  0.250000  0.529811  0.818339  1
  Tb  Tb2  1  0.750000  0.977169  0.319080  1
  Tb  Tb3  1  0.750000  0.468106  0.186245  1
  Al  Al4  1  0.250000  0.145825  0.064060  1
  Al  Al5  1  0.250000  0.639346  0.435318  1
  Al  Al6  1  0.750000  0.856622  0.936279  1
  Al  Al7  1  0.750000  0.354153  0.561934  1
  Ru  Ru8  1  0.250000  0.265776  0.383767  1
  Pt  Pt9  1  0.250000  0.773654  0.115797  1
  Pt  Pt10  1  0.750000  0.727875  0.617864  1
  Pt  Pt11  1  0.750000  0.228440  0.882991  1
