# generated using pymatgen
data_Rb6Lu(RhBr6)3
_symmetry_space_group_name_H-M   'P 1'
_cell_length_a   7.64142100
_cell_length_b   7.64134073
_cell_length_c   19.40773700
_cell_angle_alpha   89.99896470
_cell_angle_beta   90.00006293
_cell_angle_gamma   119.99881065
_symmetry_Int_Tables_number   1
_chemical_formula_structural   Rb6Lu(RhBr6)3
_chemical_formula_sum   'Rb6 Lu1 Rh3 Br18'
_cell_volume   981.41892349
_cell_formula_units_Z   1
loop_
 _symmetry_equiv_pos_site_id
 _symmetry_equiv_pos_as_xyz
  1  'x, y, z'
loop_
 _atom_site_type_symbol
 _atom_site_label
 _atom_site_symmetry_multiplicity
 _atom_site_fract_x
 _atom_site_fract_y
 _atom_site_fract_z
 _atom_site_occupancy
  Rb  Rb0  1  0.333339  0.666651  0.066399  1
  Rb  Rb1  1  0.666679  0.333337  0.939754  1
  Rb  Rb2  1  0.666652  0.333342  0.565688  1
  Rb  Rb3  1  0.333353  0.666677  0.437300  1
  Rb  Rb4  1  0.999984  0.999992  0.250795  1
  Rb  Rb5  1  0.999998  0.000003  0.744804  1
  Lu  Lu6  1  0.333324  0.666661  0.839467  1
  Rh  Rh7  1  0.333345  0.666673  0.665423  1
  Rh  Rh8  1  0.666675  0.333327  0.334353  1
  Rh  Rh9  1  0.666677  0.333333  0.166076  1
  Br  Br10  1  0.179000  0.357987  0.592231  1
  Br  Br11  1  0.821436  0.642893  0.406856  1
  Br  Br12  1  0.642003  0.820989  0.592225  1
  Br  Br13  1  0.821254  0.642523  0.093466  1
  Br  Br14  1  0.357105  0.178563  0.406856  1
  Br  Br15  1  0.164094  0.328191  0.912307  1
  Br  Br16  1  0.179000  0.821007  0.592226  1
  Br  Br17  1  0.357502  0.178757  0.093467  1
  Br  Br18  1  0.821446  0.178554  0.406859  1
  Br  Br19  1  0.671794  0.835903  0.912306  1
  Br  Br20  1  0.821256  0.178736  0.093467  1
  Br  Br21  1  0.164090  0.835928  0.912283  1
  Br  Br22  1  0.517768  0.035536  0.250136  1
  Br  Br23  1  0.491847  0.983693  0.741658  1
  Br  Br24  1  0.964465  0.482205  0.250139  1
  Br  Br25  1  0.016296  0.508141  0.741660  1
  Br  Br26  1  0.517774  0.482253  0.250137  1
  Br  Br27  1  0.491845  0.508146  0.741662  1
