# generated using pymatgen
data_RbCdGaF6
_symmetry_space_group_name_H-M   'P 1'
_cell_length_a   7.57418000
_cell_length_b   7.53215000
_cell_length_c   10.29741400
_cell_angle_alpha   90.00000000
_cell_angle_beta   90.00000000
_cell_angle_gamma   90.00000000
_symmetry_Int_Tables_number   1
_chemical_formula_structural   RbCdGaF6
_chemical_formula_sum   'Rb4 Cd4 Ga4 F24'
_cell_volume   587.46602590
_cell_formula_units_Z   4
loop_
 _symmetry_equiv_pos_site_id
 _symmetry_equiv_pos_as_xyz
  1  'x, y, z'
loop_
 _atom_site_type_symbol
 _atom_site_label
 _atom_site_symmetry_multiplicity
 _atom_site_fract_x
 _atom_site_fract_y
 _atom_site_fract_z
 _atom_site_occupancy
  Rb  Rb0  1  0.018365  0.250000  0.624273  1
  Rb  Rb1  1  0.981635  0.750000  0.375727  1
  Rb  Rb2  1  0.481635  0.750000  0.124273  1
  Rb  Rb3  1  0.518365  0.250000  0.875727  1
  Cd  Cd4  1  0.200968  0.250000  0.252041  1
  Cd  Cd5  1  0.799032  0.750000  0.747959  1
  Cd  Cd6  1  0.299032  0.750000  0.752041  1
  Cd  Cd7  1  0.700968  0.250000  0.247959  1
  Ga  Ga8  1  0.000000  0.000000  0.000000  1
  Ga  Ga9  1  0.500000  0.000000  0.500000  1
  Ga  Ga10  1  0.000000  0.500000  0.000000  1
  Ga  Ga11  1  0.500000  0.500000  0.500000  1
  F  F12  1  0.285086  0.050861  0.413096  1
  F  F13  1  0.714914  0.949139  0.586904  1
  F  F14  1  0.214914  0.949139  0.913096  1
  F  F15  1  0.714914  0.550861  0.586904  1
  F  F16  1  0.785086  0.050861  0.086904  1
  F  F17  1  0.285086  0.449139  0.413096  1
  F  F18  1  0.785086  0.449139  0.086904  1
  F  F19  1  0.214914  0.550861  0.913096  1
  F  F20  1  0.575090  0.250000  0.492434  1
  F  F21  1  0.424910  0.750000  0.507566  1
  F  F22  1  0.924910  0.750000  0.992434  1
  F  F23  1  0.075090  0.250000  0.007566  1
  F  F24  1  0.117790  0.528340  0.162473  1
  F  F25  1  0.882210  0.471660  0.837527  1
  F  F26  1  0.382210  0.471660  0.662473  1
  F  F27  1  0.882210  0.028340  0.837527  1
  F  F28  1  0.617790  0.528340  0.337527  1
  F  F29  1  0.117790  0.971660  0.162473  1
  F  F30  1  0.617790  0.971660  0.337527  1
  F  F31  1  0.382210  0.028340  0.662473  1
  F  F32  1  0.447522  0.250000  0.145198  1
  F  F33  1  0.552478  0.750000  0.854802  1
  F  F34  1  0.052478  0.750000  0.645198  1
  F  F35  1  0.947522  0.250000  0.354802  1
