# generated using pymatgen
data_Dy19YSi15Au
_symmetry_space_group_name_H-M   'P 1'
_cell_length_a   7.45265023
_cell_length_b   7.68868031
_cell_length_c   14.64984503
_cell_angle_alpha   90.14176706
_cell_angle_beta   90.50392204
_cell_angle_gamma   90.16198556
_symmetry_Int_Tables_number   1
_chemical_formula_structural   Dy19YSi15Au
_chemical_formula_sum   'Dy19 Y1 Si15 Au1'
_cell_volume   839.41298690
_cell_formula_units_Z   1
loop_
 _symmetry_equiv_pos_site_id
 _symmetry_equiv_pos_as_xyz
  1  'x, y, z'
loop_
 _atom_site_type_symbol
 _atom_site_label
 _atom_site_symmetry_multiplicity
 _atom_site_fract_x
 _atom_site_fract_y
 _atom_site_fract_z
 _atom_site_occupancy
  Dy  Dy0  1  0.680130  0.174211  0.623282  1
  Dy  Dy1  1  0.182697  0.321655  0.877309  1
  Dy  Dy2  1  0.318282  0.819389  0.121448  1
  Dy  Dy3  1  0.823643  0.677585  0.377482  1
  Dy  Dy4  1  0.318873  0.824699  0.377696  1
  Dy  Dy5  1  0.817515  0.678717  0.121871  1
  Dy  Dy6  1  0.680926  0.179652  0.877523  1
  Dy  Dy7  1  0.178473  0.321300  0.623477  1
  Dy  Dy8  1  0.526216  0.679262  0.601035  1
  Dy  Dy9  1  0.028885  0.816452  0.901133  1
  Dy  Dy10  1  0.469917  0.317807  0.098662  1
  Dy  Dy11  1  0.976404  0.182041  0.399763  1
  Dy  Dy12  1  0.470767  0.321772  0.400021  1
  Dy  Dy13  1  0.970075  0.183471  0.098370  1
  Dy  Dy14  1  0.530582  0.682823  0.900127  1
  Dy  Dy15  1  0.025241  0.817833  0.600853  1
  Dy  Dy16  1  0.851370  0.508616  0.749991  1
  Dy  Dy17  1  0.349514  0.988807  0.748742  1
  Dy  Dy18  1  0.150003  0.488515  0.250020  1
  Y  Y19  1  0.651551  0.011239  0.250784  1
  Si  Si20  1  0.145156  0.528068  0.040198  1
  Si  Si21  1  0.353888  0.029364  0.959956  1
  Si  Si22  1  0.851005  0.471764  0.541844  1
  Si  Si23  1  0.342171  0.027922  0.542863  1
  Si  Si24  1  0.855038  0.471245  0.959228  1
  Si  Si25  1  0.644456  0.970962  0.039402  1
  Si  Si26  1  0.148398  0.530543  0.461068  1
  Si  Si27  1  0.478198  0.395279  0.750303  1
  Si  Si28  1  0.976426  0.104296  0.752077  1
  Si  Si29  1  0.522960  0.607192  0.248658  1
  Si  Si30  1  0.025000  0.894834  0.247224  1
  Si  Si31  1  0.734049  0.871250  0.752328  1
  Si  Si32  1  0.233768  0.626851  0.751206  1
  Si  Si33  1  0.267967  0.126343  0.246999  1
  Si  Si34  1  0.765661  0.375158  0.248684  1
  Au  Au35  1  0.654795  0.973082  0.458373  1
