# generated using pymatgen
data_HoMnAl8FeCu2
_symmetry_space_group_name_H-M   'P 1'
_cell_length_a   6.69416331
_cell_length_b   6.71090870
_cell_length_c   6.73282942
_cell_angle_alpha   98.38429233
_cell_angle_beta   98.26120717
_cell_angle_gamma   135.16933273
_symmetry_Int_Tables_number   1
_chemical_formula_structural   HoMnAl8FeCu2
_chemical_formula_sum   'Ho1 Mn1 Al8 Fe1 Cu2'
_cell_volume   197.28074035
_cell_formula_units_Z   1
loop_
 _symmetry_equiv_pos_site_id
 _symmetry_equiv_pos_as_xyz
  1  'x, y, z'
loop_
 _atom_site_type_symbol
 _atom_site_label
 _atom_site_symmetry_multiplicity
 _atom_site_fract_x
 _atom_site_fract_y
 _atom_site_fract_z
 _atom_site_occupancy
  Ho  Ho0  1  0.000000  0.000000  0.000000  1
  Mn  Mn1  1  0.500000  0.000000  0.000000  1
  Al  Al2  1  0.654136  0.009094  0.663577  1
  Al  Al3  1  0.009441  0.654483  0.663577  1
  Al  Al4  1  0.990559  0.345517  0.336423  1
  Al  Al5  1  0.345864  0.990906  0.336423  1
  Al  Al6  1  0.720331  0.496645  0.216250  1
  Al  Al7  1  0.495919  0.719604  0.216250  1
  Al  Al8  1  0.504081  0.280396  0.783750  1
  Al  Al9  1  0.279669  0.503355  0.783750  1
  Fe  Fe10  1  0.000000  0.500000  0.000000  1
  Cu  Cu11  1  0.000000  0.000000  0.500000  1
  Cu  Cu12  1  0.500000  0.500000  0.500000  1
