# generated using pymatgen
data_Dy5Y3Ti11Si16Pt
_symmetry_space_group_name_H-M   'P 1'
_cell_length_a   7.05339771
_cell_length_b   7.05357175
_cell_length_c   12.87505121
_cell_angle_alpha   89.83364947
_cell_angle_beta   90.16505326
_cell_angle_gamma   89.71089547
_symmetry_Int_Tables_number   1
_chemical_formula_structural   Dy5Y3Ti11Si16Pt
_chemical_formula_sum   'Dy5 Y3 Ti11 Si16 Pt1'
_cell_volume   640.54146151
_cell_formula_units_Z   1
loop_
 _symmetry_equiv_pos_site_id
 _symmetry_equiv_pos_as_xyz
  1  'x, y, z'
loop_
 _atom_site_type_symbol
 _atom_site_label
 _atom_site_symmetry_multiplicity
 _atom_site_fract_x
 _atom_site_fract_y
 _atom_site_fract_z
 _atom_site_occupancy
  Dy  Dy0  1  0.158904  0.503023  0.782059  1
  Dy  Dy1  1  0.841708  0.499006  0.285515  1
  Dy  Dy2  1  0.503114  0.158846  0.217962  1
  Dy  Dy3  1  0.499031  0.841764  0.714447  1
  Dy  Dy4  1  0.343342  0.001151  0.468484  1
  Y  Y5  1  0.996274  0.659817  0.032985  1
  Y  Y6  1  0.001304  0.343118  0.531487  1
  Y  Y7  1  0.659816  0.996284  0.967006  1
  Ti  Ti8  1  0.345256  0.506056  0.375476  1
  Ti  Ti9  1  0.850781  0.994986  0.377071  1
  Ti  Ti10  1  0.006944  0.150783  0.125142  1
  Ti  Ti11  1  0.995063  0.850870  0.622882  1
  Ti  Ti12  1  0.506103  0.345183  0.624493  1
  Ti  Ti13  1  0.150775  0.006976  0.874865  1
  Ti  Ti14  1  0.824348  0.173393  0.748645  1
  Ti  Ti15  1  0.173376  0.824464  0.251394  1
  Ti  Ti16  1  0.326841  0.326869  0.000027  1
  Ti  Ti17  1  0.492373  0.649985  0.127495  1
  Ti  Ti18  1  0.650012  0.492366  0.872486  1
  Si  Si19  1  0.055377  0.714447  0.435278  1
  Si  Si20  1  0.952222  0.291389  0.934436  1
  Si  Si21  1  0.714193  0.055372  0.564655  1
  Si  Si22  1  0.208450  0.452685  0.184898  1
  Si  Si23  1  0.790209  0.549635  0.684751  1
  Si  Si24  1  0.452704  0.208480  0.815053  1
  Si  Si25  1  0.549645  0.790422  0.315291  1
  Si  Si26  1  0.291381  0.952244  0.065585  1
  Si  Si27  1  0.798294  0.867988  0.185938  1
  Si  Si28  1  0.291470  0.626652  0.567339  1
  Si  Si29  1  0.704830  0.369305  0.066201  1
  Si  Si30  1  0.626500  0.291231  0.432690  1
  Si  Si31  1  0.369308  0.704826  0.933842  1
  Si  Si32  1  0.131224  0.202654  0.316215  1
  Si  Si33  1  0.202870  0.131148  0.683817  1
  Si  Si34  1  0.867939  0.798312  0.814088  1
  Pt  Pt35  1  0.668018  0.668268  0.500000  1
