# generated using pymatgen
data_La5Yb3(W2C3)4
_symmetry_space_group_name_H-M   'P 1'
_cell_length_a   6.73707876
_cell_length_b   5.98462127
_cell_length_c   12.01732989
_cell_angle_alpha   67.87492906
_cell_angle_beta   90.02920896
_cell_angle_gamma   89.99414139
_symmetry_Int_Tables_number   1
_chemical_formula_structural   La5Yb3(W2C3)4
_chemical_formula_sum   'La5 Yb3 W8 C12'
_cell_volume   448.84648799
_cell_formula_units_Z   1
loop_
 _symmetry_equiv_pos_site_id
 _symmetry_equiv_pos_as_xyz
  1  'x, y, z'
loop_
 _atom_site_type_symbol
 _atom_site_label
 _atom_site_symmetry_multiplicity
 _atom_site_fract_x
 _atom_site_fract_y
 _atom_site_fract_z
 _atom_site_occupancy
  La  La0  1  0.716007  0.673136  0.408744  1
  La  La1  1  0.999419  0.721837  0.635859  1
  La  La2  1  0.495279  0.279481  0.866113  1
  La  La3  1  0.006470  0.276945  0.365173  1
  La  La4  1  0.500426  0.723130  0.130972  1
  Yb  Yb5  1  0.795605  0.686898  0.909542  1
  Yb  Yb6  1  0.292517  0.307747  0.592606  1
  Yb  Yb7  1  0.203061  0.315026  0.090470  1
  W  W8  1  0.994999  0.822912  0.121282  1
  W  W9  1  0.495120  0.178238  0.378784  1
  W  W10  1  0.002975  0.178515  0.878770  1
  W  W11  1  0.504310  0.820919  0.621642  1
  W  W12  1  0.755895  0.175192  0.662565  1
  W  W13  1  0.244797  0.821646  0.339214  1
  W  W14  1  0.743187  0.182059  0.158937  1
  W  W15  1  0.255389  0.820325  0.840285  1
  C  C16  1  0.627669  0.503393  0.643480  1
  C  C17  1  0.127252  0.492828  0.858830  1
  C  C18  1  0.371598  0.493346  0.358635  1
  C  C19  1  0.869514  0.509158  0.142149  1
  C  C20  1  0.209530  0.926964  0.986925  1
  C  C21  1  0.711153  0.075151  0.513078  1
  C  C22  1  0.787471  0.074124  0.012402  1
  C  C23  1  0.287650  0.930892  0.487436  1
  C  C24  1  0.478859  0.037574  0.241390  1
  C  C25  1  0.020004  0.032943  0.744345  1
  C  C26  1  0.985126  0.976159  0.252671  1
  C  C27  1  0.518717  0.963460  0.757702  1
