# generated using pymatgen
data_Dy4Ho3Er(B6Os)4
_symmetry_space_group_name_H-M   'P 1'
_cell_length_a   3.64911200
_cell_length_b   9.13291201
_cell_length_c   11.51229101
_cell_angle_alpha   90.00577742
_cell_angle_beta   90.00000000
_cell_angle_gamma   90.00000000
_symmetry_Int_Tables_number   1
_chemical_formula_structural   Dy4Ho3Er(B6Os)4
_chemical_formula_sum   'Dy4 Ho3 Er1 B24 Os4'
_cell_volume   383.67033732
_cell_formula_units_Z   1
loop_
 _symmetry_equiv_pos_site_id
 _symmetry_equiv_pos_as_xyz
  1  'x, y, z'
loop_
 _atom_site_type_symbol
 _atom_site_label
 _atom_site_symmetry_multiplicity
 _atom_site_fract_x
 _atom_site_fract_y
 _atom_site_fract_z
 _atom_site_occupancy
  Dy  Dy0  1  0.000000  0.322064  0.413851  1
  Dy  Dy1  1  0.000000  0.677931  0.586219  1
  Dy  Dy2  1  0.000000  0.821989  0.086102  1
  Dy  Dy3  1  0.000000  0.178030  0.913819  1
  Ho  Ho4  1  0.000000  0.944197  0.372989  1
  Ho  Ho5  1  0.000000  0.055807  0.627039  1
  Ho  Ho6  1  0.000000  0.444246  0.126894  1
  Er  Er7  1  0.000000  0.555782  0.872992  1
  B  B8  1  0.500000  0.554104  0.432913  1
  B  B9  1  0.500000  0.445915  0.567127  1
  B  B10  1  0.500000  0.054091  0.067077  1
  B  B11  1  0.500000  0.945843  0.932903  1
  B  B12  1  0.500000  0.748373  0.419855  1
  B  B13  1  0.500000  0.251649  0.580156  1
  B  B14  1  0.500000  0.248399  0.080134  1
  B  B15  1  0.500000  0.751368  0.919837  1
  B  B16  1  0.500000  0.791216  0.266694  1
  B  B17  1  0.500000  0.208859  0.733327  1
  B  B18  1  0.500000  0.291226  0.233296  1
  B  B19  1  0.500000  0.708529  0.766774  1
  B  B20  1  0.500000  0.631826  0.185330  1
  B  B21  1  0.500000  0.368378  0.814751  1
  B  B22  1  0.500000  0.131846  0.314649  1
  B  B23  1  0.500000  0.868112  0.685374  1
  B  B24  1  0.500000  0.983576  0.213146  1
  B  B25  1  0.500000  0.016405  0.786859  1
  B  B26  1  0.500000  0.483567  0.286844  1
  B  B27  1  0.500000  0.516570  0.713344  1
  B  B28  1  0.500000  0.607528  0.029514  1
  B  B29  1  0.500000  0.392669  0.970068  1
  B  B30  1  0.500000  0.107668  0.470216  1
  B  B31  1  0.500000  0.892329  0.529788  1
  Os  Os32  1  0.000000  0.637838  0.321184  1
  Os  Os33  1  0.000000  0.362346  0.678943  1
  Os  Os34  1  0.000000  0.137860  0.178756  1
  Os  Os35  1  0.000000  0.861864  0.821236  1
