# generated using pymatgen
data_TbCeHo(RhPb)3
_symmetry_space_group_name_H-M   'P 1'
_cell_length_a   7.71787871
_cell_length_b   7.78922189
_cell_length_c   3.90578200
_cell_angle_alpha   90.00000000
_cell_angle_beta   90.00000000
_cell_angle_gamma   120.42425215
_symmetry_Int_Tables_number   1
_chemical_formula_structural   TbCeHo(RhPb)3
_chemical_formula_sum   'Tb1 Ce1 Ho1 Rh3 Pb3'
_cell_volume   202.46879920
_cell_formula_units_Z   1
loop_
 _symmetry_equiv_pos_site_id
 _symmetry_equiv_pos_as_xyz
  1  'x, y, z'
loop_
 _atom_site_type_symbol
 _atom_site_label
 _atom_site_symmetry_multiplicity
 _atom_site_fract_x
 _atom_site_fract_y
 _atom_site_fract_z
 _atom_site_occupancy
  Tb  Tb0  1  0.404640  0.404454  0.500000  1
  Ce  Ce1  1  0.999988  0.588998  0.500000  1
  Ho  Ho2  1  0.595695  0.999714  0.500000  1
  Rh  Rh3  1  0.999059  0.994531  0.500000  1
  Rh  Rh4  1  0.681770  0.345753  0.000000  1
  Rh  Rh5  1  0.319071  0.666278  0.000000  1
  Pb  Pb6  1  0.729479  0.737440  0.000000  1
  Pb  Pb7  1  0.271000  0.007365  0.000000  1
  Pb  Pb8  1  0.999298  0.255467  0.000000  1
