# generated using pymatgen
data_Dy12Si12Os3Pt
_symmetry_space_group_name_H-M   'P 1'
_cell_length_a   4.22640100
_cell_length_b   10.69804397
_cell_length_c   12.31693007
_cell_angle_alpha   90.15858614
_cell_angle_beta   90.00000000
_cell_angle_gamma   90.00000000
_symmetry_Int_Tables_number   1
_chemical_formula_structural   Dy12Si12Os3Pt
_chemical_formula_sum   'Dy12 Si12 Os3 Pt1'
_cell_volume   556.89829867
_cell_formula_units_Z   1
loop_
 _symmetry_equiv_pos_site_id
 _symmetry_equiv_pos_as_xyz
  1  'x, y, z'
loop_
 _atom_site_type_symbol
 _atom_site_label
 _atom_site_symmetry_multiplicity
 _atom_site_fract_x
 _atom_site_fract_y
 _atom_site_fract_z
 _atom_site_occupancy
  Dy  Dy0  1  0.250000  0.880428  0.022046  1
  Dy  Dy1  1  0.250000  0.620322  0.520997  1
  Dy  Dy2  1  0.750000  0.121293  0.980228  1
  Dy  Dy3  1  0.750000  0.381552  0.477884  1
  Dy  Dy4  1  0.250000  0.919231  0.604794  1
  Dy  Dy5  1  0.250000  0.579817  0.104901  1
  Dy  Dy6  1  0.750000  0.079238  0.396747  1
  Dy  Dy7  1  0.750000  0.419263  0.895588  1
  Dy  Dy8  1  0.250000  0.659516  0.799946  1
  Dy  Dy9  1  0.250000  0.839661  0.299520  1
  Dy  Dy10  1  0.750000  0.339614  0.199773  1
  Dy  Dy11  1  0.750000  0.160051  0.697224  1
  Si  Si12  1  0.250000  0.015814  0.822761  1
  Si  Si13  1  0.250000  0.492482  0.319954  1
  Si  Si14  1  0.750000  0.992857  0.179970  1
  Si  Si15  1  0.750000  0.506270  0.680186  1
  Si  Si16  1  0.250000  0.248586  0.838934  1
  Si  Si17  1  0.250000  0.250852  0.340700  1
  Si  Si18  1  0.750000  0.751270  0.159891  1
  Si  Si19  1  0.750000  0.745123  0.655429  1
  Si  Si20  1  0.250000  0.205747  0.543580  1
  Si  Si21  1  0.250000  0.296626  0.044376  1
  Si  Si22  1  0.750000  0.797743  0.454630  1
  Si  Si23  1  0.750000  0.696278  0.959142  1
  Os  Os24  1  0.250000  0.389684  0.680528  1
  Os  Os25  1  0.250000  0.110370  0.180649  1
  Os  Os26  1  0.750000  0.611306  0.319634  1
  Pt  Pt27  1  0.750000  0.889002  0.819990  1
