# generated using pymatgen
data_Rb2NaV3F12
_symmetry_space_group_name_H-M   'P 1'
_cell_length_a   7.58807100
_cell_length_b   7.37560060
_cell_length_c   10.39938431
_cell_angle_alpha   91.18630663
_cell_angle_beta   90.00000000
_cell_angle_gamma   90.00000000
_symmetry_Int_Tables_number   1
_chemical_formula_structural   Rb2NaV3F12
_chemical_formula_sum   'Rb4 Na2 V6 F24'
_cell_volume   581.89323498
_cell_formula_units_Z   2
loop_
 _symmetry_equiv_pos_site_id
 _symmetry_equiv_pos_as_xyz
  1  'x, y, z'
loop_
 _atom_site_type_symbol
 _atom_site_label
 _atom_site_symmetry_multiplicity
 _atom_site_fract_x
 _atom_site_fract_y
 _atom_site_fract_z
 _atom_site_occupancy
  Rb  Rb0  1  0.250000  0.530651  0.360570  1
  Rb  Rb1  1  0.250000  0.981029  0.103334  1
  Rb  Rb2  1  0.750000  0.469349  0.639430  1
  Rb  Rb3  1  0.750000  0.018971  0.896666  1
  Na  Na4  1  0.750000  0.794430  0.242484  1
  Na  Na5  1  0.250000  0.205570  0.757516  1
  V  V6  1  0.000000  0.500000  0.000000  1
  V  V7  1  0.250000  0.690193  0.718357  1
  V  V8  1  0.750000  0.309807  0.281643  1
  V  V9  1  0.500000  0.000000  0.500000  1
  V  V10  1  0.500000  0.500000  0.000000  1
  V  V11  1  0.000000  0.000000  0.500000  1
  F  F12  1  0.439815  0.777150  0.600024  1
  F  F13  1  0.035874  0.863996  0.341763  1
  F  F14  1  0.445470  0.256733  0.942690  1
  F  F15  1  0.964126  0.136004  0.658237  1
  F  F16  1  0.939815  0.222850  0.399976  1
  F  F17  1  0.250000  0.540735  0.061229  1
  F  F18  1  0.446853  0.588790  0.824805  1
  F  F19  1  0.250000  0.083546  0.501733  1
  F  F20  1  0.945470  0.743267  0.057310  1
  F  F21  1  0.250000  0.463159  0.625056  1
  F  F22  1  0.054530  0.256733  0.942690  1
  F  F23  1  0.553147  0.411210  0.175195  1
  F  F24  1  0.946853  0.411210  0.175195  1
  F  F25  1  0.750000  0.459265  0.938771  1
  F  F26  1  0.060185  0.777150  0.600024  1
  F  F27  1  0.250000  0.909755  0.818784  1
  F  F28  1  0.750000  0.090245  0.181216  1
  F  F29  1  0.464126  0.863996  0.341763  1
  F  F30  1  0.750000  0.536841  0.374944  1
  F  F31  1  0.535874  0.136004  0.658237  1
  F  F32  1  0.560185  0.222850  0.399976  1
  F  F33  1  0.053147  0.588790  0.824805  1
  F  F34  1  0.750000  0.916454  0.498267  1
  F  F35  1  0.554530  0.743267  0.057310  1
