# generated using pymatgen
data_Dy13Ho7(IrRh3)3
_symmetry_space_group_name_H-M   'P 1'
_cell_length_a   10.88080205
_cell_length_b   10.88050910
_cell_length_c   6.35899601
_cell_angle_alpha   89.99973098
_cell_angle_beta   89.99589276
_cell_angle_gamma   89.93377607
_symmetry_Int_Tables_number   1
_chemical_formula_structural   Dy13Ho7(IrRh3)3
_chemical_formula_sum   'Dy13 Ho7 Ir3 Rh9'
_cell_volume   752.83254850
_cell_formula_units_Z   1
loop_
 _symmetry_equiv_pos_site_id
 _symmetry_equiv_pos_as_xyz
  1  'x, y, z'
loop_
 _atom_site_type_symbol
 _atom_site_label
 _atom_site_symmetry_multiplicity
 _atom_site_fract_x
 _atom_site_fract_y
 _atom_site_fract_z
 _atom_site_occupancy
  Dy  Dy0  1  0.290813  0.089815  0.378489  1
  Dy  Dy1  1  0.290995  0.909872  0.878276  1
  Dy  Dy2  1  0.709242  0.088383  0.878235  1
  Dy  Dy3  1  0.708832  0.910102  0.378266  1
  Dy  Dy4  1  0.587516  0.789547  0.879466  1
  Dy  Dy5  1  0.587186  0.209618  0.378175  1
  Dy  Dy6  1  0.412365  0.789848  0.378903  1
  Dy  Dy7  1  0.410698  0.209593  0.879548  1
  Dy  Dy8  1  0.210255  0.412520  0.620491  1
  Dy  Dy9  1  0.210036  0.587510  0.121061  1
  Dy  Dy10  1  0.790555  0.412741  0.121833  1
  Dy  Dy11  1  0.790572  0.589142  0.620439  1
  Dy  Dy12  1  0.910398  0.709119  0.121374  1
  Ho  Ho13  1  0.911904  0.291010  0.621501  1
  Ho  Ho14  1  0.090037  0.708757  0.621482  1
  Ho  Ho15  1  0.089801  0.291338  0.121605  1
  Ho  Ho16  1  0.999815  0.999921  0.500003  1
  Ho  Ho17  1  0.000155  0.000331  0.000212  1
  Ho  Ho18  1  0.499709  0.499883  0.999914  1
  Ho  Ho19  1  0.500097  0.500267  0.500206  1
  Ir  Ir20  1  0.654319  0.653655  0.249979  1
  Ir  Ir21  1  0.346104  0.345631  0.249881  1
  Ir  Ir22  1  0.345398  0.654417  0.749888  1
  Rh  Rh23  1  0.846376  0.154021  0.250202  1
  Rh  Rh24  1  0.846757  0.847096  0.750203  1
  Rh  Rh25  1  0.152606  0.153550  0.749943  1
  Rh  Rh26  1  0.153051  0.846777  0.250323  1
  Rh  Rh27  1  0.654927  0.345194  0.749919  1
  Rh  Rh28  1  0.500244  0.000501  0.122800  1
  Rh  Rh29  1  0.500359  0.000754  0.623468  1
  Rh  Rh30  1  0.999300  0.499481  0.876474  1
  Rh  Rh31  1  0.999582  0.499603  0.377441  1
