# generated using pymatgen
data_Ba4Pr7SbS16
_symmetry_space_group_name_H-M   'P 1'
_cell_length_a   4.14121600
_cell_length_b   12.42753614
_cell_length_c   14.85998900
_cell_angle_alpha   89.83088145
_cell_angle_beta   90.00000000
_cell_angle_gamma   90.00000000
_symmetry_Int_Tables_number   1
_chemical_formula_structural   Ba4Pr7SbS16
_chemical_formula_sum   'Ba4 Pr7 Sb1 S16'
_cell_volume   764.76765914
_cell_formula_units_Z   1
loop_
 _symmetry_equiv_pos_site_id
 _symmetry_equiv_pos_as_xyz
  1  'x, y, z'
loop_
 _atom_site_type_symbol
 _atom_site_label
 _atom_site_symmetry_multiplicity
 _atom_site_fract_x
 _atom_site_fract_y
 _atom_site_fract_z
 _atom_site_occupancy
  Ba  Ba0  1  0.250000  0.747105  0.345301  1
  Ba  Ba1  1  0.250000  0.248613  0.157431  1
  Ba  Ba2  1  0.750000  0.248340  0.655130  1
  Ba  Ba3  1  0.750000  0.751934  0.841385  1
  Pr  Pr4  1  0.250000  0.407433  0.398197  1
  Pr  Pr5  1  0.250000  0.914497  0.106110  1
  Pr  Pr6  1  0.750000  0.584622  0.605613  1
  Pr  Pr7  1  0.750000  0.085701  0.894880  1
  Pr  Pr8  1  0.250000  0.428066  0.894228  1
  Pr  Pr9  1  0.250000  0.932991  0.601497  1
  Pr  Pr10  1  0.750000  0.571523  0.107874  1
  Sb  Sb11  1  0.750000  0.073310  0.390358  1
  S  S12  1  0.250000  0.216714  0.820854  1
  S  S13  1  0.250000  0.719488  0.674846  1
  S  S14  1  0.750000  0.783864  0.181484  1
  S  S15  1  0.750000  0.276280  0.321692  1
  S  S16  1  0.250000  0.140692  0.513530  1
  S  S17  1  0.250000  0.636824  0.982186  1
  S  S18  1  0.750000  0.868976  0.475545  1
  S  S19  1  0.750000  0.363129  0.019779  1
  S  S20  1  0.250000  0.506096  0.221155  1
  S  S21  1  0.250000  0.015676  0.284246  1
  S  S22  1  0.750000  0.493457  0.782418  1
  S  S23  1  0.750000  0.990990  0.718096  1
  S  S24  1  0.250000  0.425716  0.585881  1
  S  S25  1  0.250000  0.926768  0.918146  1
  S  S26  1  0.750000  0.568615  0.417785  1
  S  S27  1  0.750000  0.072578  0.084356  1
