# generated using pymatgen
data_Co12Ge4HN2
_symmetry_space_group_name_H-M   'P 1'
_cell_length_a   5.14406100
_cell_length_b   5.14406100
_cell_length_c   7.42426900
_cell_angle_alpha   90.00000000
_cell_angle_beta   90.00000000
_cell_angle_gamma   90.00000000
_symmetry_Int_Tables_number   1
_chemical_formula_structural   Co12Ge4HN2
_chemical_formula_sum   'Co12 Ge4 H1 N2'
_cell_volume   196.45628126
_cell_formula_units_Z   1
loop_
 _symmetry_equiv_pos_site_id
 _symmetry_equiv_pos_as_xyz
  1  'x, y, z'
loop_
 _atom_site_type_symbol
 _atom_site_label
 _atom_site_symmetry_multiplicity
 _atom_site_fract_x
 _atom_site_fract_y
 _atom_site_fract_z
 _atom_site_occupancy
  Co  Co0  1  0.318859  0.181417  0.500000  1
  Co  Co1  1  0.749690  0.745520  0.000000  1
  Co  Co2  1  0.681141  0.818583  0.500000  1
  Co  Co3  1  0.250310  0.254480  0.000000  1
  Co  Co4  1  0.181417  0.681141  0.500000  1
  Co  Co5  1  0.745520  0.250310  0.000000  1
  Co  Co6  1  0.818583  0.318859  0.500000  1
  Co  Co7  1  0.254480  0.749690  0.000000  1
  Co  Co8  1  0.500000  0.500000  0.249224  1
  Co  Co9  1  0.000000  0.000000  0.748782  1
  Co  Co10  1  0.000000  0.000000  0.251218  1
  Co  Co11  1  0.500000  0.500000  0.750776  1
  Ge  Ge12  1  0.000000  0.500000  0.220827  1
  Ge  Ge13  1  0.500000  0.000000  0.779173  1
  Ge  Ge14  1  0.500000  0.000000  0.220827  1
  Ge  Ge15  1  0.000000  0.500000  0.779173  1
  H  H16  1  0.000000  0.000000  0.000000  1
  N  N17  1  0.000000  0.000000  0.500000  1
  N  N18  1  0.500000  0.500000  0.500000  1
