# generated using pymatgen
data_Y3Tm(OsO4)4
_symmetry_space_group_name_H-M   'P 1'
_cell_length_a   5.35748108
_cell_length_b   7.72211247
_cell_length_c   7.44326940
_cell_angle_alpha   79.42954153
_cell_angle_beta   91.29512634
_cell_angle_gamma   94.28185533
_symmetry_Int_Tables_number   1
_chemical_formula_structural   Y3Tm(OsO4)4
_chemical_formula_sum   'Y3 Tm1 Os4 O16'
_cell_volume   301.85300109
_cell_formula_units_Z   1
loop_
 _symmetry_equiv_pos_site_id
 _symmetry_equiv_pos_as_xyz
  1  'x, y, z'
loop_
 _atom_site_type_symbol
 _atom_site_label
 _atom_site_symmetry_multiplicity
 _atom_site_fract_x
 _atom_site_fract_y
 _atom_site_fract_z
 _atom_site_occupancy
  Y  Y0  1  0.739614  0.887912  0.389611  1
  Y  Y1  1  0.197713  0.171111  0.100760  1
  Y  Y2  1  0.805963  0.832242  0.898876  1
  Tm  Tm3  1  0.262426  0.110373  0.611484  1
  Os  Os4  1  0.246963  0.662532  0.207813  1
  Os  Os5  1  0.752877  0.337068  0.791248  1
  Os  Os6  1  0.715974  0.335425  0.301093  1
  Os  Os7  1  0.284349  0.664363  0.700374  1
  O  O8  1  0.047809  0.472780  0.714737  1
  O  O9  1  0.950663  0.527776  0.284688  1
  O  O10  1  0.610044  0.326368  0.549105  1
  O  O11  1  0.382634  0.671804  0.451297  1
  O  O12  1  0.843653  0.314874  0.054761  1
  O  O13  1  0.152753  0.679642  0.946240  1
  O  O14  1  0.413170  0.442874  0.194692  1
  O  O15  1  0.587601  0.557186  0.803831  1
  O  O16  1  0.050673  0.886245  0.178334  1
  O  O17  1  0.953251  0.115934  0.816626  1
  O  O18  1  0.489629  0.110830  0.325674  1
  O  O19  1  0.507267  0.890101  0.678387  1
  O  O20  1  0.450286  0.194644  0.864878  1
  O  O21  1  0.548622  0.803542  0.131940  1
  O  O22  1  0.981129  0.165536  0.385299  1
  O  O23  1  0.024935  0.838837  0.618253  1
