# generated using pymatgen
data_Yb3Sc2(GeO4)3
_symmetry_space_group_name_H-M   'P 1'
_cell_length_a   10.62962436
_cell_length_b   10.62962437
_cell_length_c   10.62962400
_cell_angle_alpha   109.47121992
_cell_angle_beta   109.47121994
_cell_angle_gamma   109.47122130
_symmetry_Int_Tables_number   1
_chemical_formula_structural   Yb3Sc2(GeO4)3
_chemical_formula_sum   'Yb12 Sc8 Ge12 O48'
_cell_volume   924.55308268
_cell_formula_units_Z   4
loop_
 _symmetry_equiv_pos_site_id
 _symmetry_equiv_pos_as_xyz
  1  'x, y, z'
loop_
 _atom_site_type_symbol
 _atom_site_label
 _atom_site_symmetry_multiplicity
 _atom_site_fract_x
 _atom_site_fract_y
 _atom_site_fract_z
 _atom_site_occupancy
  Yb  Yb0  1  0.250000  0.374999  0.124999  1
  Yb  Yb1  1  0.375001  0.750001  0.125001  1
  Yb  Yb2  1  0.874999  0.625000  0.250000  1
  Yb  Yb3  1  0.374999  0.125000  0.249999  1
  Yb  Yb4  1  0.124999  0.250000  0.374999  1
  Yb  Yb5  1  0.750001  0.125001  0.375001  1
  Yb  Yb6  1  0.250000  0.875000  0.624999  1
  Yb  Yb7  1  0.875001  0.750000  0.625000  1
  Yb  Yb8  1  0.625000  0.875000  0.750000  1
  Yb  Yb9  1  0.125001  0.375001  0.750001  1
  Yb  Yb10  1  0.624999  0.250000  0.875000  1
  Yb  Yb11  1  0.750000  0.625000  0.875000  1
  Sc  Sc12  1  0.000000  0.000000  0.000000  1
  Sc  Sc13  1  0.500000  0.000000  0.000000  1
  Sc  Sc14  1  0.000000  0.500000  0.000000  1
  Sc  Sc15  1  0.500000  0.500000  0.000000  1
  Sc  Sc16  1  0.000000  0.000000  0.499999  1
  Sc  Sc17  1  0.500000  0.500000  0.500000  1
  Sc  Sc18  1  0.000000  0.500000  0.500000  1
  Sc  Sc19  1  0.500000  0.000000  0.500000  1
  Ge  Ge20  1  0.750000  0.875000  0.124999  1
  Ge  Ge21  1  0.875000  0.250000  0.125000  1
  Ge  Ge22  1  0.125000  0.875000  0.250000  1
  Ge  Ge23  1  0.625000  0.375000  0.250000  1
  Ge  Ge24  1  0.250000  0.625000  0.375000  1
  Ge  Ge25  1  0.625000  0.749999  0.375000  1
  Ge  Ge26  1  0.375000  0.250000  0.625000  1
  Ge  Ge27  1  0.749999  0.375000  0.625000  1
  Ge  Ge28  1  0.375000  0.625000  0.749999  1
  Ge  Ge29  1  0.875000  0.124999  0.750000  1
  Ge  Ge30  1  0.124999  0.750000  0.875000  1
  Ge  Ge31  1  0.250000  0.125000  0.875000  1
  O  O32  1  0.212954  0.122045  0.024375  1
  O  O33  1  0.311420  0.902330  0.024374  1
  O  O34  1  0.712954  0.688580  0.090911  1
  O  O35  1  0.877955  0.402329  0.090910  1
  O  O36  1  0.622045  0.409090  0.097671  1
  O  O37  1  0.975626  0.688581  0.097671  1
  O  O38  1  0.024374  0.212954  0.122044  1
  O  O39  1  0.597671  0.909089  0.122044  1
  O  O40  1  0.212954  0.590911  0.188580  1
  O  O41  1  0.475626  0.597671  0.188580  1
  O  O42  1  0.590911  0.188581  0.212954  1
  O  O43  1  0.122045  0.024374  0.212954  1
  O  O44  1  0.311419  0.909089  0.287045  1
  O  O45  1  0.475627  0.377956  0.287047  1
  O  O46  1  0.902329  0.024374  0.311420  1
  O  O47  1  0.909089  0.287046  0.311419  1
  O  O48  1  0.590910  0.902330  0.377956  1
  O  O49  1  0.287046  0.475626  0.377956  1
  O  O50  1  0.090911  0.877955  0.402328  1
  O  O51  1  0.811420  0.524373  0.402329  1
  O  O52  1  0.811420  0.787046  0.409089  1
  O  O53  1  0.097671  0.622045  0.409090  1
  O  O54  1  0.377956  0.287047  0.475626  1
  O  O55  1  0.597671  0.188580  0.475626  1
  O  O56  1  0.622044  0.712953  0.524373  1
  O  O57  1  0.402329  0.811420  0.524373  1
  O  O58  1  0.902330  0.377955  0.590911  1
  O  O59  1  0.188580  0.212954  0.590912  1
  O  O60  1  0.188580  0.475626  0.597671  1
  O  O61  1  0.909089  0.122044  0.597671  1
  O  O62  1  0.712953  0.524373  0.622043  1
  O  O63  1  0.409090  0.097671  0.622045  1
  O  O64  1  0.090911  0.712954  0.688581  1
  O  O65  1  0.097671  0.975626  0.688581  1
  O  O66  1  0.524373  0.622044  0.712953  1
  O  O67  1  0.688580  0.090910  0.712954  1
  O  O68  1  0.409089  0.811420  0.787046  1
  O  O69  1  0.877956  0.975626  0.787046  1
  O  O70  1  0.524373  0.402329  0.811420  1
  O  O71  1  0.787046  0.409089  0.811420  1
  O  O72  1  0.402329  0.090910  0.877955  1
  O  O73  1  0.975626  0.787046  0.877956  1
  O  O74  1  0.024374  0.311419  0.902330  1
  O  O75  1  0.377956  0.590911  0.902330  1
  O  O76  1  0.287046  0.311420  0.909089  1
  O  O77  1  0.122044  0.597671  0.909089  1
  O  O78  1  0.688581  0.097671  0.975627  1
  O  O79  1  0.787047  0.877956  0.975626  1
