# generated using pymatgen
data_YHoB6IrRh8
_symmetry_space_group_name_H-M   'P 1'
_cell_length_a   5.60551400
_cell_length_b   5.61927944
_cell_length_c   8.60553200
_cell_angle_alpha   90.00000000
_cell_angle_beta   90.00000000
_cell_angle_gamma   119.91899826
_symmetry_Int_Tables_number   1
_chemical_formula_structural   YHoB6IrRh8
_chemical_formula_sum   'Y1 Ho1 B6 Ir1 Rh8'
_cell_volume   234.94073941
_cell_formula_units_Z   1
loop_
 _symmetry_equiv_pos_site_id
 _symmetry_equiv_pos_as_xyz
  1  'x, y, z'
loop_
 _atom_site_type_symbol
 _atom_site_label
 _atom_site_symmetry_multiplicity
 _atom_site_fract_x
 _atom_site_fract_y
 _atom_site_fract_z
 _atom_site_occupancy
  Y  Y0  1  0.000000  0.000000  0.703946  1
  Ho  Ho1  1  0.000000  0.000000  0.295891  1
  B  B2  1  0.666518  0.333034  0.999986  1
  B  B3  1  0.333482  0.666966  0.999986  1
  B  B4  1  0.666106  0.332212  0.667902  1
  B  B5  1  0.333894  0.667788  0.667902  1
  B  B6  1  0.333890  0.667780  0.332049  1
  B  B7  1  0.666110  0.332220  0.332049  1
  Ir  Ir8  1  0.500000  0.000000  0.499827  1
  Rh  Rh9  1  0.500000  0.500000  0.836153  1
  Rh  Rh10  1  0.500000  0.000000  0.836793  1
  Rh  Rh11  1  0.000000  0.500000  0.836153  1
  Rh  Rh12  1  0.500000  0.500000  0.164115  1
  Rh  Rh13  1  0.500000  0.000000  0.163462  1
  Rh  Rh14  1  0.000000  0.500000  0.164115  1
  Rh  Rh15  1  0.500000  0.500000  0.499837  1
  Rh  Rh16  1  0.000000  0.500000  0.499837  1
