# generated using pymatgen
data_Zr2Mn5Cr2FeP4
_symmetry_space_group_name_H-M   'P 1'
_cell_length_a   6.90522098
_cell_length_b   6.92047481
_cell_length_c   3.67928900
_cell_angle_alpha   90.00000000
_cell_angle_beta   90.00000000
_cell_angle_gamma   89.52235022
_symmetry_Int_Tables_number   1
_chemical_formula_structural   Zr2Mn5Cr2FeP4
_chemical_formula_sum   'Zr2 Mn5 Cr2 Fe1 P4'
_cell_volume   175.81757426
_cell_formula_units_Z   1
loop_
 _symmetry_equiv_pos_site_id
 _symmetry_equiv_pos_as_xyz
  1  'x, y, z'
loop_
 _atom_site_type_symbol
 _atom_site_label
 _atom_site_symmetry_multiplicity
 _atom_site_fract_x
 _atom_site_fract_y
 _atom_site_fract_z
 _atom_site_occupancy
  Zr  Zr0  1  0.498073  0.503789  0.000000  1
  Zr  Zr1  1  0.998884  0.001654  0.500000  1
  Mn  Mn2  1  0.579294  0.156684  0.500000  1
  Mn  Mn3  1  0.411627  0.848326  0.500000  1
  Mn  Mn4  1  0.089126  0.332737  0.000000  1
  Mn  Mn5  1  0.150834  0.589204  0.500000  1
  Mn  Mn6  1  0.840664  0.415091  0.500000  1
  Cr  Cr7  1  0.920152  0.643233  0.000000  1
  Cr  Cr8  1  0.355891  0.086677  0.000000  1
  Fe  Fe9  1  0.668223  0.908666  0.000000  1
  P  P10  1  0.710609  0.718620  0.500000  1
  P  P11  1  0.280548  0.292734  0.500000  1
  P  P12  1  0.216248  0.787641  0.000000  1
  P  P13  1  0.779828  0.214944  0.000000  1
