# generated using pymatgen
data_Tb2Y3Ho3(WO6)4
_symmetry_space_group_name_H-M   'P 1'
_cell_length_a   5.40752819
_cell_length_b   7.71489012
_cell_length_c   11.47593854
_cell_angle_alpha   75.55922222
_cell_angle_beta   89.99730214
_cell_angle_gamma   90.02848701
_symmetry_Int_Tables_number   1
_chemical_formula_structural   Tb2Y3Ho3(WO6)4
_chemical_formula_sum   'Tb2 Y3 Ho3 W4 O24'
_cell_volume   463.63277219
_cell_formula_units_Z   1
loop_
 _symmetry_equiv_pos_site_id
 _symmetry_equiv_pos_as_xyz
  1  'x, y, z'
loop_
 _atom_site_type_symbol
 _atom_site_label
 _atom_site_symmetry_multiplicity
 _atom_site_fract_x
 _atom_site_fract_y
 _atom_site_fract_z
 _atom_site_occupancy
  Tb  Tb0  1  0.683567  0.499648  0.750446  1
  Tb  Tb1  1  0.316738  0.499857  0.249852  1
  Y  Y2  1  0.739579  0.000282  0.750545  1
  Y  Y3  1  0.260549  0.000154  0.249585  1
  Y  Y4  1  0.185982  0.795360  0.577729  1
  Ho  Ho5  1  0.814684  0.795008  0.077863  1
  Ho  Ho6  1  0.185470  0.205003  0.922118  1
  Ho  Ho7  1  0.814159  0.205197  0.421954  1
  W  W8  1  0.254729  0.723262  0.886072  1
  W  W9  1  0.745628  0.723395  0.385128  1
  W  W10  1  0.254424  0.276448  0.614347  1
  W  W11  1  0.745570  0.276513  0.114368  1
  O  O12  1  0.043845  0.939891  0.896184  1
  O  O13  1  0.531413  0.847283  0.932066  1
  O  O14  1  0.956042  0.940270  0.395304  1
  O  O15  1  0.458672  0.789241  0.728583  1
  O  O16  1  0.469668  0.848263  0.430234  1
  O  O17  1  0.981808  0.710475  0.772406  1
  O  O18  1  0.542790  0.789248  0.227179  1
  O  O19  1  0.849456  0.635212  0.547846  1
  O  O20  1  0.359500  0.489748  0.886886  1
  O  O21  1  0.018172  0.710736  0.271296  1
  O  O22  1  0.361153  0.509332  0.613302  1
  O  O23  1  0.851430  0.364057  0.951820  1
  O  O24  1  0.148586  0.635648  0.048494  1
  O  O25  1  0.640083  0.489708  0.386258  1
  O  O26  1  0.982628  0.289648  0.728863  1
  O  O27  1  0.640539  0.510049  0.113179  1
  O  O28  1  0.148615  0.364301  0.451771  1
  O  O29  1  0.457105  0.210094  0.772547  1
  O  O30  1  0.017744  0.289196  0.228544  1
  O  O31  1  0.530824  0.152306  0.568548  1
  O  O32  1  0.542652  0.210520  0.272293  1
  O  O33  1  0.041544  0.061417  0.604012  1
  O  O34  1  0.468323  0.153044  0.068464  1
  O  O35  1  0.956324  0.060184  0.103913  1
