# generated using pymatgen
data_Sc3Nb3Re5Si6Ru
_symmetry_space_group_name_H-M   'P 1'
_cell_length_a   7.63243210
_cell_length_b   7.68636794
_cell_length_c   7.63134804
_cell_angle_alpha   125.99475182
_cell_angle_beta   128.04713285
_cell_angle_gamma   78.06589533
_symmetry_Int_Tables_number   1
_chemical_formula_structural   Sc3Nb3Re5Si6Ru
_chemical_formula_sum   'Sc3 Nb3 Re5 Si6 Ru1'
_cell_volume   276.63210689
_cell_formula_units_Z   1
loop_
 _symmetry_equiv_pos_site_id
 _symmetry_equiv_pos_as_xyz
  1  'x, y, z'
loop_
 _atom_site_type_symbol
 _atom_site_label
 _atom_site_symmetry_multiplicity
 _atom_site_fract_x
 _atom_site_fract_y
 _atom_site_fract_z
 _atom_site_occupancy
  Sc  Sc0  1  0.550059  0.090390  0.041045  1
  Sc  Sc1  1  0.450068  0.494025  0.544316  1
  Sc  Sc2  1  0.948859  0.495149  0.046321  1
  Nb  Nb3  1  0.047029  0.085491  0.535524  1
  Nb  Nb4  1  0.753432  0.909016  0.657674  1
  Nb  Nb5  1  0.251178  0.904345  0.149289  1
  Re  Re6  1  0.496680  0.237659  0.737766  1
  Re  Re7  1  0.000514  0.236716  0.239493  1
  Re  Re8  1  0.123934  0.756790  0.625484  1
  Re  Re9  1  0.878475  0.499889  0.632593  1
  Re  Re10  1  0.630150  0.756780  0.134675  1
  Si  Si11  1  0.746989  0.497332  0.250029  1
  Si  Si12  1  0.251148  0.498242  0.749239  1
  Si  Si13  1  0.334003  0.827596  0.492404  1
  Si  Si14  1  0.668846  0.164779  0.497965  1
  Si  Si15  1  0.833782  0.826317  0.993338  1
  Si  Si16  1  0.166381  0.163691  0.993746  1
  Ru  Ru17  1  0.368474  0.497990  0.121297  1
