# generated using pymatgen
data_Y2Er2AlNi
_symmetry_space_group_name_H-M   'P 1'
_cell_length_a   9.41930663
_cell_length_b   9.41930607
_cell_length_c   9.43543600
_cell_angle_alpha   59.94334401
_cell_angle_beta   59.94334600
_cell_angle_gamma   60.11332179
_symmetry_Int_Tables_number   1
_chemical_formula_structural   Y2Er2AlNi
_chemical_formula_sum   'Y8 Er8 Al4 Ni4'
_cell_volume   591.94629533
_cell_formula_units_Z   4
loop_
 _symmetry_equiv_pos_site_id
 _symmetry_equiv_pos_as_xyz
  1  'x, y, z'
loop_
 _atom_site_type_symbol
 _atom_site_label
 _atom_site_symmetry_multiplicity
 _atom_site_fract_x
 _atom_site_fract_y
 _atom_site_fract_z
 _atom_site_occupancy
  Y  Y0  1  0.440425  0.440425  0.059575  1
  Y  Y1  1  0.059575  0.059575  0.440425  1
  Y  Y2  1  0.186374  0.813626  0.813626  1
  Y  Y3  1  0.813626  0.186374  0.186374  1
  Y  Y4  1  0.813626  0.186374  0.813626  1
  Y  Y5  1  0.186374  0.813626  0.186374  1
  Y  Y6  1  0.811784  0.811784  0.188216  1
  Y  Y7  1  0.188216  0.188216  0.811784  1
  Er  Er8  1  0.599186  0.599186  0.601219  1
  Er  Er9  1  0.599186  0.599186  0.200408  1
  Er  Er10  1  0.601219  0.200408  0.599186  1
  Er  Er11  1  0.200408  0.601219  0.599186  1
  Er  Er12  1  0.058711  0.441289  0.441289  1
  Er  Er13  1  0.441289  0.058711  0.058711  1
  Er  Er14  1  0.441289  0.058711  0.441289  1
  Er  Er15  1  0.058711  0.441289  0.058711  1
  Al  Al16  1  0.827363  0.827363  0.826284  1
  Al  Al17  1  0.827363  0.827363  0.518988  1
  Al  Al18  1  0.826284  0.518988  0.827363  1
  Al  Al19  1  0.518988  0.826284  0.827363  1
  Ni  Ni20  1  0.388978  0.388978  0.399503  1
  Ni  Ni21  1  0.388978  0.388978  0.822540  1
  Ni  Ni22  1  0.399503  0.822540  0.388978  1
  Ni  Ni23  1  0.822540  0.399503  0.388978  1
