# generated using pymatgen
data_Y7Er13(Bi2Ir)4
_symmetry_space_group_name_H-M   'P 1'
_cell_length_a   7.96583078
_cell_length_b   8.99379500
_cell_length_c   12.51920325
_cell_angle_alpha   90.00000000
_cell_angle_beta   90.05097685
_cell_angle_gamma   90.00000000
_symmetry_Int_Tables_number   1
_chemical_formula_structural   Y7Er13(Bi2Ir)4
_chemical_formula_sum   'Y7 Er13 Bi8 Ir4'
_cell_volume   896.91353751
_cell_formula_units_Z   1
loop_
 _symmetry_equiv_pos_site_id
 _symmetry_equiv_pos_as_xyz
  1  'x, y, z'
loop_
 _atom_site_type_symbol
 _atom_site_label
 _atom_site_symmetry_multiplicity
 _atom_site_fract_x
 _atom_site_fract_y
 _atom_site_fract_z
 _atom_site_occupancy
  Y  Y0  1  0.661992  0.750000  0.707439  1
  Y  Y1  1  0.337770  0.250000  0.292122  1
  Y  Y2  1  0.161958  0.250000  0.792242  1
  Y  Y3  1  0.837439  0.750000  0.207975  1
  Y  Y4  1  0.128303  0.750000  0.808370  1
  Y  Y5  1  0.871752  0.250000  0.191793  1
  Y  Y6  1  0.628230  0.250000  0.691701  1
  Er  Er7  1  0.373403  0.750000  0.310357  1
  Er  Er8  1  0.555668  0.750000  0.998253  1
  Er  Er9  1  0.444294  0.250000  0.001837  1
  Er  Er10  1  0.055569  0.250000  0.501493  1
  Er  Er11  1  0.944527  0.750000  0.498206  1
  Er  Er12  1  0.826637  0.458309  0.933266  1
  Er  Er13  1  0.173652  0.541843  0.066987  1
  Er  Er14  1  0.326052  0.541923  0.566266  1
  Er  Er15  1  0.173652  0.958157  0.066987  1
  Er  Er16  1  0.673205  0.458682  0.432902  1
  Er  Er17  1  0.826637  0.041691  0.933266  1
  Er  Er18  1  0.673205  0.041318  0.432902  1
  Er  Er19  1  0.326052  0.958077  0.566266  1
  Bi  Bi20  1  0.936141  0.007804  0.671465  1
  Bi  Bi21  1  0.064901  0.991458  0.328550  1
  Bi  Bi22  1  0.436430  0.992145  0.828274  1
  Bi  Bi23  1  0.064901  0.508542  0.328550  1
  Bi  Bi24  1  0.563009  0.007191  0.171944  1
  Bi  Bi25  1  0.936141  0.492196  0.671465  1
  Bi  Bi26  1  0.563009  0.492809  0.171944  1
  Bi  Bi27  1  0.436430  0.507855  0.828274  1
  Ir  Ir28  1  0.928812  0.750000  0.991697  1
  Ir  Ir29  1  0.071324  0.250000  0.008480  1
  Ir  Ir30  1  0.428938  0.250000  0.508265  1
  Ir  Ir31  1  0.569966  0.750000  0.490462  1
