# generated using pymatgen
data_Ba4PrTi5O15
_symmetry_space_group_name_H-M   'P 1'
_cell_length_a   4.00599500
_cell_length_b   4.00599500
_cell_length_c   20.26382100
_cell_angle_alpha   90.00000000
_cell_angle_beta   90.00000000
_cell_angle_gamma   90.00000000
_symmetry_Int_Tables_number   1
_chemical_formula_structural   Ba4PrTi5O15
_chemical_formula_sum   'Ba4 Pr1 Ti5 O15'
_cell_volume   325.19371714
_cell_formula_units_Z   1
loop_
 _symmetry_equiv_pos_site_id
 _symmetry_equiv_pos_as_xyz
  1  'x, y, z'
loop_
 _atom_site_type_symbol
 _atom_site_label
 _atom_site_symmetry_multiplicity
 _atom_site_fract_x
 _atom_site_fract_y
 _atom_site_fract_z
 _atom_site_occupancy
  Ba  Ba0  1  0.000000  0.000000  0.200496  1
  Ba  Ba1  1  0.000000  0.000000  0.400383  1
  Ba  Ba2  1  0.000000  0.000000  0.599617  1
  Ba  Ba3  1  0.000000  0.000000  0.799504  1
  Pr  Pr4  1  0.000000  0.000000  0.000000  1
  Ti  Ti5  1  0.500000  0.500000  0.097848  1
  Ti  Ti6  1  0.500000  0.500000  0.302279  1
  Ti  Ti7  1  0.500000  0.500000  0.500000  1
  Ti  Ti8  1  0.500000  0.500000  0.697721  1
  Ti  Ti9  1  0.500000  0.500000  0.902152  1
  O  O10  1  0.500000  0.500000  0.000000  1
  O  O11  1  0.500000  0.500000  0.192272  1
  O  O12  1  0.500000  0.500000  0.397751  1
  O  O13  1  0.500000  0.500000  0.602249  1
  O  O14  1  0.500000  0.500000  0.807728  1
  O  O15  1  0.500000  0.000000  0.088791  1
  O  O16  1  0.500000  0.000000  0.297471  1
  O  O17  1  0.500000  0.000000  0.500000  1
  O  O18  1  0.500000  0.000000  0.702529  1
  O  O19  1  0.500000  0.000000  0.911209  1
  O  O20  1  0.000000  0.500000  0.088791  1
  O  O21  1  0.000000  0.500000  0.297471  1
  O  O22  1  0.000000  0.500000  0.500000  1
  O  O23  1  0.000000  0.500000  0.702529  1
  O  O24  1  0.000000  0.500000  0.911209  1
