# generated using pymatgen
data_CeSmSi3Pd
_symmetry_space_group_name_H-M   'P 1'
_cell_length_a   8.23449985
_cell_length_b   8.23449874
_cell_length_c   8.41320300
_cell_angle_alpha   90.00000000
_cell_angle_beta   90.00000000
_cell_angle_gamma   119.76696669
_symmetry_Int_Tables_number   1
_chemical_formula_structural   CeSmSi3Pd
_chemical_formula_sum   'Ce4 Sm4 Si12 Pd4'
_cell_volume   495.20089494
_cell_formula_units_Z   4
loop_
 _symmetry_equiv_pos_site_id
 _symmetry_equiv_pos_as_xyz
  1  'x, y, z'
loop_
 _atom_site_type_symbol
 _atom_site_label
 _atom_site_symmetry_multiplicity
 _atom_site_fract_x
 _atom_site_fract_y
 _atom_site_fract_z
 _atom_site_occupancy
  Ce  Ce0  1  0.500402  0.499598  0.250000  1
  Ce  Ce1  1  0.499598  0.500402  0.750000  1
  Ce  Ce2  1  0.000033  0.999967  0.250000  1
  Ce  Ce3  1  0.999967  0.000033  0.750000  1
  Sm  Sm4  1  0.500360  0.000753  0.250000  1
  Sm  Sm5  1  0.499640  0.999247  0.750000  1
  Sm  Sm6  1  0.999247  0.499640  0.250000  1
  Sm  Sm7  1  0.000753  0.500360  0.750000  1
  Si  Si8  1  0.164948  0.330032  0.000194  1
  Si  Si9  1  0.835052  0.669968  0.999806  1
  Si  Si10  1  0.669968  0.835052  0.000194  1
  Si  Si11  1  0.835052  0.669968  0.500194  1
  Si  Si12  1  0.330032  0.164948  0.999806  1
  Si  Si13  1  0.164948  0.330032  0.499806  1
  Si  Si14  1  0.164999  0.835001  0.000074  1
  Si  Si15  1  0.330032  0.164948  0.500194  1
  Si  Si16  1  0.835001  0.164999  0.999926  1
  Si  Si17  1  0.669968  0.835052  0.499806  1
  Si  Si18  1  0.835001  0.164999  0.500074  1
  Si  Si19  1  0.164999  0.835001  0.499926  1
  Pd  Pd20  1  0.333278  0.666722  0.001105  1
  Pd  Pd21  1  0.666722  0.333278  0.998895  1
  Pd  Pd22  1  0.666722  0.333278  0.501105  1
  Pd  Pd23  1  0.333278  0.666722  0.498895  1
