# generated using pymatgen
data_Dy5SiSe4
_symmetry_space_group_name_H-M   'P 1'
_cell_length_a   7.09860457
_cell_length_b   7.09860513
_cell_length_c   7.09860507
_cell_angle_alpha   99.59201931
_cell_angle_beta   99.59201466
_cell_angle_gamma   131.81573843
_symmetry_Int_Tables_number   1
_chemical_formula_structural   Dy5SiSe4
_chemical_formula_sum   'Dy5 Si1 Se4'
_cell_volume   243.36861682
_cell_formula_units_Z   1
loop_
 _symmetry_equiv_pos_site_id
 _symmetry_equiv_pos_as_xyz
  1  'x, y, z'
loop_
 _atom_site_type_symbol
 _atom_site_label
 _atom_site_symmetry_multiplicity
 _atom_site_fract_x
 _atom_site_fract_y
 _atom_site_fract_z
 _atom_site_occupancy
  Dy  Dy0  1  0.404677  0.789640  0.194317  1
  Dy  Dy1  1  0.000000  0.000000  0.000000  1
  Dy  Dy2  1  0.595323  0.210360  0.805683  1
  Dy  Dy3  1  0.210360  0.404677  0.615037  1
  Dy  Dy4  1  0.789640  0.595323  0.384963  1
  Si  Si5  1  0.500000  0.500000  0.000000  1
  Se  Se6  1  0.097568  0.698542  0.796109  1
  Se  Se7  1  0.698542  0.902432  0.600975  1
  Se  Se8  1  0.301458  0.097568  0.399025  1
  Se  Se9  1  0.902432  0.301458  0.203891  1
