# generated using pymatgen
data_TbLu2In3CuAu2
_symmetry_space_group_name_H-M   'P 1'
_cell_length_a   7.69010800
_cell_length_b   7.72587652
_cell_length_c   3.82353100
_cell_angle_alpha   90.00000000
_cell_angle_beta   90.00000000
_cell_angle_gamma   119.84696842
_symmetry_Int_Tables_number   1
_chemical_formula_structural   TbLu2In3CuAu2
_chemical_formula_sum   'Tb1 Lu2 In3 Cu1 Au2'
_cell_volume   197.03486872
_cell_formula_units_Z   1
loop_
 _symmetry_equiv_pos_site_id
 _symmetry_equiv_pos_as_xyz
  1  'x, y, z'
loop_
 _atom_site_type_symbol
 _atom_site_label
 _atom_site_symmetry_multiplicity
 _atom_site_fract_x
 _atom_site_fract_y
 _atom_site_fract_z
 _atom_site_occupancy
  Tb  Tb0  1  0.403627  0.000000  0.500000  1
  Lu  Lu1  1  0.000211  0.402688  0.500000  1
  Lu  Lu2  1  0.597524  0.597312  0.500000  1
  In  In3  1  0.750625  0.000000  0.000000  1
  In  In4  1  0.998383  0.749152  0.000000  1
  In  In5  1  0.249231  0.250848  0.000000  1
  Cu  Cu6  1  0.998116  0.000000  0.500000  1
  Au  Au7  1  0.332074  0.661867  0.000000  1
  Au  Au8  1  0.670208  0.338133  0.000000  1
