# generated using pymatgen
data_Ho6Th2MgHgIr2
_symmetry_space_group_name_H-M   'P 1'
_cell_length_a   9.73251654
_cell_length_b   9.73251607
_cell_length_c   9.75731600
_cell_angle_alpha   59.91567195
_cell_angle_beta   59.91567356
_cell_angle_gamma   59.99779401
_symmetry_Int_Tables_number   1
_chemical_formula_structural   Ho6Th2MgHgIr2
_chemical_formula_sum   'Ho12 Th4 Mg2 Hg2 Ir4'
_cell_volume   652.68509970
_cell_formula_units_Z   2
loop_
 _symmetry_equiv_pos_site_id
 _symmetry_equiv_pos_as_xyz
  1  'x, y, z'
loop_
 _atom_site_type_symbol
 _atom_site_label
 _atom_site_symmetry_multiplicity
 _atom_site_fract_x
 _atom_site_fract_y
 _atom_site_fract_z
 _atom_site_occupancy
  Ho  Ho0  1  0.812785  0.185679  0.188512  1
  Ho  Ho1  1  0.185679  0.812785  0.813024  1
  Ho  Ho2  1  0.185679  0.812785  0.188512  1
  Ho  Ho3  1  0.812785  0.185679  0.813024  1
  Ho  Ho4  1  0.187533  0.187533  0.812467  1
  Ho  Ho5  1  0.811431  0.811431  0.188569  1
  Ho  Ho6  1  0.933972  0.564189  0.565368  1
  Ho  Ho7  1  0.564189  0.933972  0.936472  1
  Ho  Ho8  1  0.564189  0.933972  0.565368  1
  Ho  Ho9  1  0.933972  0.564189  0.936472  1
  Ho  Ho10  1  0.564178  0.564178  0.935822  1
  Ho  Ho11  1  0.934009  0.934009  0.565991  1
  Th  Th12  1  0.349428  0.349428  0.348906  1
  Th  Th13  1  0.349428  0.349428  0.952237  1
  Th  Th14  1  0.351432  0.948745  0.349911  1
  Th  Th15  1  0.948745  0.351432  0.349911  1
  Mg  Mg16  1  0.580314  0.264999  0.577343  1
  Mg  Mg17  1  0.264999  0.580314  0.577343  1
  Hg  Hg18  1  0.583950  0.583950  0.589780  1
  Hg  Hg19  1  0.583950  0.583950  0.242318  1
  Ir  Ir20  1  0.142701  0.142701  0.144071  1
  Ir  Ir21  1  0.142701  0.142701  0.570530  1
  Ir  Ir22  1  0.142241  0.569710  0.144026  1
  Ir  Ir23  1  0.569710  0.142241  0.144026  1
