# generated using pymatgen
data_Sr2CrH3Pd16
_symmetry_space_group_name_H-M   'P 1'
_cell_length_a   7.01832217
_cell_length_b   7.05970715
_cell_length_c   7.01832126
_cell_angle_alpha   83.54279283
_cell_angle_beta   82.71077141
_cell_angle_gamma   83.54280299
_symmetry_Int_Tables_number   1
_chemical_formula_structural   Sr2CrH3Pd16
_chemical_formula_sum   'Sr2 Cr1 H3 Pd16'
_cell_volume   341.03528014
_cell_formula_units_Z   1
loop_
 _symmetry_equiv_pos_site_id
 _symmetry_equiv_pos_as_xyz
  1  'x, y, z'
loop_
 _atom_site_type_symbol
 _atom_site_label
 _atom_site_symmetry_multiplicity
 _atom_site_fract_x
 _atom_site_fract_y
 _atom_site_fract_z
 _atom_site_occupancy
  Sr  Sr0  1  0.657134  0.664165  0.657134  1
  Sr  Sr1  1  0.342866  0.335835  0.342866  1
  Cr  Cr2  1  0.000000  0.500000  0.000000  1
  H  H3  1  0.500000  0.500000  0.000000  1
  H  H4  1  0.000000  0.500000  0.500000  1
  H  H5  1  0.500000  0.000000  0.500000  1
  Pd  Pd6  1  0.000000  0.000000  0.500000  1
  Pd  Pd7  1  0.500000  0.000000  0.000000  1
  Pd  Pd8  1  0.709270  0.298185  0.002091  1
  Pd  Pd9  1  0.997909  0.701815  0.290730  1
  Pd  Pd10  1  0.295254  0.000000  0.704746  1
  Pd  Pd11  1  0.002091  0.298185  0.709270  1
  Pd  Pd12  1  0.704746  0.000000  0.295254  1
  Pd  Pd13  1  0.290730  0.701815  0.997909  1
  Pd  Pd14  1  0.344144  0.349411  0.857681  1
  Pd  Pd15  1  0.857681  0.349411  0.344144  1
  Pd  Pd16  1  0.347100  0.848005  0.347100  1
  Pd  Pd17  1  0.655856  0.650589  0.142319  1
  Pd  Pd18  1  0.142319  0.650589  0.655856  1
  Pd  Pd19  1  0.652900  0.151995  0.652900  1
  Pd  Pd20  1  0.904089  0.892612  0.904089  1
  Pd  Pd21  1  0.095911  0.107388  0.095911  1
