# generated using pymatgen
data_Ba4NdIrO8
_symmetry_space_group_name_H-M   'P 1'
_cell_length_a   7.46085640
_cell_length_b   7.46085603
_cell_length_c   6.08354600
_cell_angle_alpha   90.00000000
_cell_angle_beta   90.00000000
_cell_angle_gamma   132.21090634
_symmetry_Int_Tables_number   1
_chemical_formula_structural   Ba4NdIrO8
_chemical_formula_sum   'Ba4 Nd1 Ir1 O8'
_cell_volume   250.82038577
_cell_formula_units_Z   1
loop_
 _symmetry_equiv_pos_site_id
 _symmetry_equiv_pos_as_xyz
  1  'x, y, z'
loop_
 _atom_site_type_symbol
 _atom_site_label
 _atom_site_symmetry_multiplicity
 _atom_site_fract_x
 _atom_site_fract_y
 _atom_site_fract_z
 _atom_site_occupancy
  Ba  Ba0  1  0.356045  0.643955  0.000000  1
  Ba  Ba1  1  0.852864  0.147136  0.500000  1
  Ba  Ba2  1  0.147136  0.852864  0.500000  1
  Ba  Ba3  1  0.643955  0.356045  0.000000  1
  Nd  Nd4  1  0.000000  0.000000  0.000000  1
  Ir  Ir5  1  0.500000  0.500000  0.500000  1
  O  O6  1  0.264755  0.264755  0.727502  1
  O  O7  1  0.735245  0.735245  0.272498  1
  O  O8  1  0.735245  0.735245  0.727502  1
  O  O9  1  0.264755  0.264755  0.272498  1
  O  O10  1  0.171533  0.828467  0.000000  1
  O  O11  1  0.648776  0.351224  0.500000  1
  O  O12  1  0.351224  0.648776  0.500000  1
  O  O13  1  0.828467  0.171533  0.000000  1
