# generated using pymatgen
data_Ac3Yb(MgPb)4
_symmetry_space_group_name_H-M   'P 1'
_cell_length_a   4.87434100
_cell_length_b   8.04151779
_cell_length_c   9.55715908
_cell_angle_alpha   90.18318972
_cell_angle_beta   90.00000000
_cell_angle_gamma   90.00000000
_symmetry_Int_Tables_number   1
_chemical_formula_structural   Ac3Yb(MgPb)4
_chemical_formula_sum   'Ac3 Yb1 Mg4 Pb4'
_cell_volume   374.61100438
_cell_formula_units_Z   1
loop_
 _symmetry_equiv_pos_site_id
 _symmetry_equiv_pos_as_xyz
  1  'x, y, z'
loop_
 _atom_site_type_symbol
 _atom_site_label
 _atom_site_symmetry_multiplicity
 _atom_site_fract_x
 _atom_site_fract_y
 _atom_site_fract_z
 _atom_site_occupancy
  Ac  Ac0  1  0.750000  0.980074  0.181839  1
  Ac  Ac1  1  0.750000  0.477218  0.318736  1
  Ac  Ac2  1  0.250000  0.518583  0.682513  1
  Yb  Yb3  1  0.250000  0.021453  0.816332  1
  Mg  Mg4  1  0.250000  0.645417  0.060653  1
  Mg  Mg5  1  0.250000  0.150012  0.442938  1
  Mg  Mg6  1  0.750000  0.848483  0.566995  1
  Mg  Mg7  1  0.750000  0.356618  0.933937  1
  Pb  Pb8  1  0.250000  0.269473  0.101866  1
  Pb  Pb9  1  0.250000  0.775301  0.385054  1
  Pb  Pb10  1  0.750000  0.218996  0.620841  1
  Pb  Pb11  1  0.750000  0.738373  0.888298  1
