# generated using pymatgen
data_La5Tc5(P6Ir7)2
_symmetry_space_group_name_H-M   'P 1'
_cell_length_a   12.79039540
_cell_length_b   12.86734126
_cell_length_c   4.03870600
_cell_angle_alpha   90.00000000
_cell_angle_beta   90.00000000
_cell_angle_gamma   120.06617619
_symmetry_Int_Tables_number   1
_chemical_formula_structural   La5Tc5(P6Ir7)2
_chemical_formula_sum   'La5 Tc5 P12 Ir14'
_cell_volume   575.24873398
_cell_formula_units_Z   1
loop_
 _symmetry_equiv_pos_site_id
 _symmetry_equiv_pos_as_xyz
  1  'x, y, z'
loop_
 _atom_site_type_symbol
 _atom_site_label
 _atom_site_symmetry_multiplicity
 _atom_site_fract_x
 _atom_site_fract_y
 _atom_site_fract_z
 _atom_site_occupancy
  La  La0  1  0.334386  0.668118  0.500000  1
  La  La1  1  0.666681  0.333521  0.500000  1
  La  La2  1  0.999819  0.811574  0.000000  1
  La  La3  1  0.186464  0.185271  0.000000  1
  La  La4  1  0.810818  0.998074  0.000000  1
  Tc  Tc5  1  0.996814  0.449339  0.500000  1
  Tc  Tc6  1  0.549283  0.545417  0.500000  1
  Tc  Tc7  1  0.455958  0.009138  0.500000  1
  Tc  Tc8  1  0.619130  0.797740  0.500000  1
  Tc  Tc9  1  0.202713  0.822050  0.500000  1
  P  P10  1  0.006952  0.635636  0.500000  1
  P  P11  1  0.367489  0.368783  0.500000  1
  P  P12  1  0.628199  0.992940  0.500000  1
  P  P13  1  0.522498  0.694840  0.000000  1
  P  P14  1  0.307062  0.830815  0.000000  1
  P  P15  1  0.168755  0.481116  0.000000  1
  P  P16  1  0.481426  0.167857  0.000000  1
  P  P17  1  0.686773  0.518427  0.000000  1
  P  P18  1  0.833358  0.313839  0.000000  1
  P  P19  1  0.998881  0.179777  0.500000  1
  P  P20  1  0.813650  0.816232  0.500000  1
  P  P21  1  0.181406  0.995074  0.500000  1
  Ir  Ir22  1  0.509693  0.878086  0.000000  1
  Ir  Ir23  1  0.124372  0.634209  0.000000  1
  Ir  Ir24  1  0.363056  0.491779  0.000000  1
  Ir  Ir25  1  0.489547  0.360490  0.000000  1
  Ir  Ir26  1  0.868996  0.507988  0.000000  1
  Ir  Ir27  1  0.642154  0.133523  0.000000  1
  Ir  Ir28  1  0.000346  0.287509  0.000000  1
  Ir  Ir29  1  0.713432  0.708976  0.000000  1
  Ir  Ir30  1  0.289521  0.004644  0.000000  1
  Ir  Ir31  1  0.179228  0.377773  0.500000  1
  Ir  Ir32  1  0.376932  0.183409  0.500000  1
  Ir  Ir33  1  0.804585  0.620603  0.500000  1
  Ir  Ir34  1  0.820228  0.196223  0.500000  1
  Ir  Ir35  1  0.999394  0.999207  0.500000  1
