# generated using pymatgen
data_YHf2Al7Pd2
_symmetry_space_group_name_H-M   'P 1'
_cell_length_a   8.96692867
_cell_length_b   8.96692767
_cell_length_c   8.96692829
_cell_angle_alpha   34.81423605
_cell_angle_beta   34.81424378
_cell_angle_gamma   34.81423946
_symmetry_Int_Tables_number   1
_chemical_formula_structural   YHf2Al7Pd2
_chemical_formula_sum   'Y1 Hf2 Al7 Pd2'
_cell_volume   209.76542419
_cell_formula_units_Z   1
loop_
 _symmetry_equiv_pos_site_id
 _symmetry_equiv_pos_as_xyz
  1  'x, y, z'
loop_
 _atom_site_type_symbol
 _atom_site_label
 _atom_site_symmetry_multiplicity
 _atom_site_fract_x
 _atom_site_fract_y
 _atom_site_fract_z
 _atom_site_occupancy
  Y  Y0  1  0.000000  0.000000  0.000000  1
  Hf  Hf1  1  0.854904  0.854904  0.854904  1
  Hf  Hf2  1  0.145096  0.145096  0.145096  1
  Al  Al3  1  0.413236  0.413236  0.923663  1
  Al  Al4  1  0.923663  0.413236  0.413236  1
  Al  Al5  1  0.413236  0.923663  0.413236  1
  Al  Al6  1  0.500000  0.500000  0.500000  1
  Al  Al7  1  0.586764  0.076337  0.586764  1
  Al  Al8  1  0.076337  0.586764  0.586764  1
  Al  Al9  1  0.586764  0.586764  0.076337  1
  Pd  Pd10  1  0.665429  0.665429  0.665429  1
  Pd  Pd11  1  0.334571  0.334571  0.334571  1
