# generated using pymatgen
data_SmLuSbTe
_symmetry_space_group_name_H-M   'P 1'
_cell_length_a   7.63036065
_cell_length_b   7.63036166
_cell_length_c   7.63036059
_cell_angle_alpha   33.36447480
_cell_angle_beta   33.36446376
_cell_angle_gamma   33.36446827
_symmetry_Int_Tables_number   1
_chemical_formula_structural   SmLuSbTe
_chemical_formula_sum   'Sm1 Lu1 Sb1 Te1'
_cell_volume   119.64860274
_cell_formula_units_Z   1
loop_
 _symmetry_equiv_pos_site_id
 _symmetry_equiv_pos_as_xyz
  1  'x, y, z'
loop_
 _atom_site_type_symbol
 _atom_site_label
 _atom_site_symmetry_multiplicity
 _atom_site_fract_x
 _atom_site_fract_y
 _atom_site_fract_z
 _atom_site_occupancy
  Sm  Sm0  1  0.253985  0.253985  0.253985  1
  Lu  Lu1  1  0.745789  0.745789  0.745789  1
  Sb  Sb2  1  0.004171  0.004171  0.004171  1
  Te  Te3  1  0.496055  0.496055  0.496055  1
