# generated using pymatgen
data_HoTl3Pd2Pt2F28
_symmetry_space_group_name_H-M   'P 1'
_cell_length_a   5.46586242
_cell_length_b   8.82243301
_cell_length_c   11.96527265
_cell_angle_alpha   62.66304448
_cell_angle_beta   90.10361489
_cell_angle_gamma   90.02591551
_symmetry_Int_Tables_number   1
_chemical_formula_structural   HoTl3Pd2Pt2F28
_chemical_formula_sum   'Ho1 Tl3 Pd2 Pt2 F28'
_cell_volume   512.55320298
_cell_formula_units_Z   1
loop_
 _symmetry_equiv_pos_site_id
 _symmetry_equiv_pos_as_xyz
  1  'x, y, z'
loop_
 _atom_site_type_symbol
 _atom_site_label
 _atom_site_symmetry_multiplicity
 _atom_site_fract_x
 _atom_site_fract_y
 _atom_site_fract_z
 _atom_site_occupancy
  Ho  Ho0  1  0.738820  0.813151  0.265467  1
  Tl  Tl1  1  0.763630  0.813163  0.761994  1
  Tl  Tl2  1  0.263121  0.186633  0.737602  1
  Tl  Tl3  1  0.235468  0.184323  0.235761  1
  Pd  Pd4  1  0.760591  0.274050  0.956423  1
  Pd  Pd5  1  0.259680  0.726218  0.543890  1
  Pt  Pt6  1  0.240482  0.725546  0.043988  1
  Pt  Pt7  1  0.738958  0.272614  0.455561  1
  F  F8  1  0.428536  0.691609  0.918517  1
  F  F9  1  0.922426  0.303485  0.584130  1
  F  F10  1  0.574492  0.305755  0.082393  1
  F  F11  1  0.068537  0.703935  0.414500  1
  F  F12  1  0.426178  0.277659  0.535215  1
  F  F13  1  0.930327  0.718149  0.962839  1
  F  F14  1  0.564115  0.725950  0.458044  1
  F  F15  1  0.070946  0.281098  0.036017  1
  F  F16  1  0.787890  0.522504  0.853716  1
  F  F17  1  0.289182  0.476311  0.642179  1
  F  F18  1  0.214758  0.475963  0.148591  1
  F  F19  1  0.722391  0.523175  0.358474  1
  F  F20  1  0.754558  0.026227  0.051221  1
  F  F21  1  0.252192  0.973620  0.455903  1
  F  F22  1  0.248006  0.974505  0.954341  1
  F  F23  1  0.745292  0.023646  0.543842  1
  F  F24  1  0.955439  0.716814  0.631571  1
  F  F25  1  0.453970  0.280010  0.870091  1
  F  F26  1  0.049173  0.279134  0.370031  1
  F  F27  1  0.540178  0.724280  0.135683  1
  F  F28  1  0.053499  0.747460  0.176839  1
  F  F29  1  0.565998  0.259433  0.314666  1
  F  F30  1  0.934886  0.256219  0.818753  1
  F  F31  1  0.436153  0.738485  0.682687  1
  F  F32  1  0.405343  0.966314  0.228957  1
  F  F33  1  0.901472  0.033775  0.270595  1
  F  F34  1  0.601223  0.033669  0.771808  1
  F  F35  1  0.102089  0.965116  0.727711  1
