# generated using pymatgen
data_Ti4SnC2O
_symmetry_space_group_name_H-M   'P 1'
_cell_length_a   3.10206200
_cell_length_b   3.10206244
_cell_length_c   23.99550600
_cell_angle_alpha   90.00000000
_cell_angle_beta   90.00000000
_cell_angle_gamma   119.99999535
_symmetry_Int_Tables_number   1
_chemical_formula_structural   Ti4SnC2O
_chemical_formula_sum   'Ti8 Sn2 C4 O2'
_cell_volume   199.96849267
_cell_formula_units_Z   2
loop_
 _symmetry_equiv_pos_site_id
 _symmetry_equiv_pos_as_xyz
  1  'x, y, z'
loop_
 _atom_site_type_symbol
 _atom_site_label
 _atom_site_symmetry_multiplicity
 _atom_site_fract_x
 _atom_site_fract_y
 _atom_site_fract_z
 _atom_site_occupancy
  Ti  Ti0  1  0.000000  0.000000  0.348380  1
  Ti  Ti1  1  0.000000  0.000000  0.651620  1
  Ti  Ti2  1  0.000000  0.000000  0.848380  1
  Ti  Ti3  1  0.000000  0.000000  0.151620  1
  Ti  Ti4  1  0.333333  0.666667  0.443358  1
  Ti  Ti5  1  0.666667  0.333333  0.556642  1
  Ti  Ti6  1  0.666667  0.333333  0.943358  1
  Ti  Ti7  1  0.333333  0.666667  0.056642  1
  Sn  Sn8  1  0.333333  0.666667  0.250000  1
  Sn  Sn9  1  0.666667  0.333333  0.750000  1
  C  C10  1  0.666667  0.333333  0.395521  1
  C  C11  1  0.333333  0.666667  0.604479  1
  C  C12  1  0.333333  0.666667  0.895521  1
  C  C13  1  0.666667  0.333333  0.104479  1
  O  O14  1  0.000000  0.000000  0.500000  1
  O  O15  1  0.000000  0.000000  0.000000  1
