# generated using pymatgen
data_Rb2ScFeCu2(PO4)4
_symmetry_space_group_name_H-M   'P 1'
_cell_length_a   10.05073500
_cell_length_b   8.26816503
_cell_length_c   9.33415200
_cell_angle_alpha   63.22169655
_cell_angle_beta   90.00000000
_cell_angle_gamma   90.00000000
_symmetry_Int_Tables_number   1
_chemical_formula_structural   Rb2ScFeCu2(PO4)4
_chemical_formula_sum   'Rb4 Sc2 Fe2 Cu4 P8 O32'
_cell_volume   692.49213333
_cell_formula_units_Z   2
loop_
 _symmetry_equiv_pos_site_id
 _symmetry_equiv_pos_as_xyz
  1  'x, y, z'
loop_
 _atom_site_type_symbol
 _atom_site_label
 _atom_site_symmetry_multiplicity
 _atom_site_fract_x
 _atom_site_fract_y
 _atom_site_fract_z
 _atom_site_occupancy
  Rb  Rb0  1  0.135885  0.841058  0.573759  1
  Rb  Rb1  1  0.364115  0.841058  0.073759  1
  Rb  Rb2  1  0.868071  0.162940  0.423800  1
  Rb  Rb3  1  0.631929  0.162940  0.923800  1
  Sc  Sc4  1  0.625438  0.771196  0.743978  1
  Sc  Sc5  1  0.874562  0.771196  0.243978  1
  Fe  Fe6  1  0.374254  0.228783  0.255879  1
  Fe  Fe7  1  0.125746  0.228783  0.755879  1
  Cu  Cu8  1  0.378263  0.576244  0.557156  1
  Cu  Cu9  1  0.121737  0.576244  0.057156  1
  Cu  Cu10  1  0.617595  0.423129  0.445648  1
  Cu  Cu11  1  0.882405  0.423129  0.945648  1
  P  P12  1  0.582272  0.881697  0.351911  1
  P  P13  1  0.917728  0.881697  0.851911  1
  P  P14  1  0.410879  0.125839  0.642838  1
  P  P15  1  0.089121  0.125839  0.142838  1
  P  P16  1  0.337615  0.503049  0.861306  1
  P  P17  1  0.162385  0.503049  0.361306  1
  P  P18  1  0.658126  0.488547  0.143584  1
  P  P19  1  0.841874  0.488547  0.643584  1
  O  O20  1  0.518399  0.690756  0.401008  1
  O  O21  1  0.981601  0.690756  0.901008  1
  O  O22  1  0.476227  0.314799  0.598061  1
  O  O23  1  0.023773  0.314799  0.098061  1
  O  O24  1  0.481720  0.030691  0.250322  1
  O  O25  1  0.018280  0.030691  0.750322  1
  O  O26  1  0.510497  0.975762  0.744588  1
  O  O27  1  0.989503  0.975762  0.244588  1
  O  O28  1  0.798660  0.899137  0.742179  1
  O  O29  1  0.701340  0.899137  0.242179  1
  O  O30  1  0.208236  0.104532  0.253790  1
  O  O31  1  0.291764  0.104532  0.753790  1
  O  O32  1  0.628703  0.899875  0.500459  1
  O  O33  1  0.871297  0.899875  0.000459  1
  O  O34  1  0.366936  0.110062  0.491763  1
  O  O35  1  0.133064  0.110062  0.991763  1
  O  O36  1  0.238810  0.642857  0.395724  1
  O  O37  1  0.261190  0.642857  0.895724  1
  O  O38  1  0.761478  0.355224  0.604417  1
  O  O39  1  0.738522  0.355224  0.104417  1
  O  O40  1  0.385968  0.340840  0.012842  1
  O  O41  1  0.114032  0.340840  0.512842  1
  O  O42  1  0.609699  0.654204  0.995246  1
  O  O43  1  0.890301  0.654204  0.495246  1
  O  O44  1  0.252286  0.448837  0.746771  1
  O  O45  1  0.247714  0.448837  0.246771  1
  O  O46  1  0.742631  0.543459  0.258133  1
  O  O47  1  0.757369  0.543459  0.758133  1
  O  O48  1  0.458316  0.600525  0.746085  1
  O  O49  1  0.041684  0.600525  0.246085  1
  O  O50  1  0.538716  0.385957  0.258757  1
  O  O51  1  0.961284  0.385957  0.758757  1
