# generated using pymatgen
data_Ho2Er6B24MoRh3
_symmetry_space_group_name_H-M   'P 1'
_cell_length_a   3.64889200
_cell_length_b   9.14583429
_cell_length_c   11.51263054
_cell_angle_alpha   90.24431800
_cell_angle_beta   90.00000000
_cell_angle_gamma   90.00000000
_symmetry_Int_Tables_number   1
_chemical_formula_structural   Ho2Er6B24MoRh3
_chemical_formula_sum   'Ho2 Er6 B24 Mo1 Rh3'
_cell_volume   384.19787361
_cell_formula_units_Z   1
loop_
 _symmetry_equiv_pos_site_id
 _symmetry_equiv_pos_as_xyz
  1  'x, y, z'
loop_
 _atom_site_type_symbol
 _atom_site_label
 _atom_site_symmetry_multiplicity
 _atom_site_fract_x
 _atom_site_fract_y
 _atom_site_fract_z
 _atom_site_occupancy
  Ho  Ho0  1  0.500000  0.319216  0.410702  1
  Ho  Ho1  1  0.500000  0.676794  0.585138  1
  Er  Er2  1  0.500000  0.178275  0.916947  1
  Er  Er3  1  0.500000  0.823975  0.086881  1
  Er  Er4  1  0.500000  0.444828  0.125561  1
  Er  Er5  1  0.500000  0.557011  0.872102  1
  Er  Er6  1  0.500000  0.055899  0.628946  1
  Er  Er7  1  0.500000  0.945209  0.373937  1
  B  B8  1  0.000000  0.107123  0.472675  1
  B  B9  1  0.000000  0.891842  0.530625  1
  B  B10  1  0.000000  0.394311  0.968885  1
  B  B11  1  0.000000  0.609481  0.028709  1
  B  B12  1  0.000000  0.132158  0.316902  1
  B  B13  1  0.000000  0.866588  0.683950  1
  B  B14  1  0.000000  0.368138  0.816235  1
  B  B15  1  0.000000  0.633230  0.183646  1
  B  B16  1  0.000000  0.051610  0.064471  1
  B  B17  1  0.000000  0.946579  0.933171  1
  B  B18  1  0.000000  0.445130  0.565673  1
  B  B19  1  0.000000  0.553214  0.433650  1
  B  B20  1  0.000000  0.483495  0.286974  1
  B  B21  1  0.000000  0.517027  0.712196  1
  B  B22  1  0.000000  0.017212  0.787691  1
  B  B23  1  0.000000  0.979873  0.213843  1
  B  B24  1  0.000000  0.250901  0.078179  1
  B  B25  1  0.000000  0.751369  0.919913  1
  B  B26  1  0.000000  0.250095  0.579600  1
  B  B27  1  0.000000  0.748823  0.420928  1
  B  B28  1  0.000000  0.295439  0.235609  1
  B  B29  1  0.000000  0.706213  0.763925  1
  B  B30  1  0.000000  0.207613  0.736228  1
  B  B31  1  0.000000  0.792244  0.265936  1
  Mo  Mo32  1  0.500000  0.138082  0.178899  1
  Rh  Rh33  1  0.500000  0.860797  0.820809  1
  Rh  Rh34  1  0.500000  0.361133  0.679294  1
  Rh  Rh35  1  0.500000  0.639072  0.321167  1
