# generated using pymatgen
data_SmTcP2Ru
_symmetry_space_group_name_H-M   'P 1'
_cell_length_a   5.64887256
_cell_length_b   5.64887283
_cell_length_c   5.64887264
_cell_angle_alpha   137.07617359
_cell_angle_beta   137.07617421
_cell_angle_gamma   62.32087050
_symmetry_Int_Tables_number   1
_chemical_formula_structural   SmTcP2Ru
_chemical_formula_sum   'Sm1 Tc1 P2 Ru1'
_cell_volume   82.59648789
_cell_formula_units_Z   1
loop_
 _symmetry_equiv_pos_site_id
 _symmetry_equiv_pos_as_xyz
  1  'x, y, z'
loop_
 _atom_site_type_symbol
 _atom_site_label
 _atom_site_symmetry_multiplicity
 _atom_site_fract_x
 _atom_site_fract_y
 _atom_site_fract_z
 _atom_site_occupancy
  Sm  Sm0  1  0.000000  0.000000  0.000000  1
  Tc  Tc1  1  0.250000  0.750000  0.500000  1
  P  P2  1  0.632004  0.632004  0.000000  1
  P  P3  1  0.367996  0.367996  0.000000  1
  Ru  Ru4  1  0.750000  0.250000  0.500000  1
