# generated using pymatgen
data_CsTb5Tm5(C2I9)2
_symmetry_space_group_name_H-M   'P 1'
_cell_length_a   11.43948935
_cell_length_b   11.46149310
_cell_length_c   11.47016466
_cell_angle_alpha   113.19117184
_cell_angle_beta   86.76678846
_cell_angle_gamma   119.99772407
_symmetry_Int_Tables_number   1
_chemical_formula_structural   CsTb5Tm5(C2I9)2
_chemical_formula_sum   'Cs1 Tb5 Tm5 C4 I18'
_cell_volume   1178.40856949
_cell_formula_units_Z   1
loop_
 _symmetry_equiv_pos_site_id
 _symmetry_equiv_pos_as_xyz
  1  'x, y, z'
loop_
 _atom_site_type_symbol
 _atom_site_label
 _atom_site_symmetry_multiplicity
 _atom_site_fract_x
 _atom_site_fract_y
 _atom_site_fract_z
 _atom_site_occupancy
  Cs  Cs0  1  0.499954  0.999661  0.499824  1
  Tb  Tb1  1  0.104872  0.945531  0.001072  1
  Tb  Tb2  1  0.035922  0.962419  0.675206  1
  Tb  Tb3  1  0.321720  0.275069  0.288471  1
  Tb  Tb4  1  0.722452  0.646734  0.984934  1
  Tb  Tb5  1  0.895408  0.055247  0.999485  1
  Tm  Tm6  1  0.681647  0.726565  0.714121  1
  Tm  Tm7  1  0.274406  0.350122  0.016707  1
  Tm  Tm8  1  0.093524  0.386346  0.289110  1
  Tm  Tm9  1  0.965409  0.038995  0.321640  1
  Tm  Tm10  1  0.906696  0.613570  0.711014  1
  C  C11  1  0.151645  0.221030  0.121299  1
  C  C12  1  0.846712  0.778122  0.877694  1
  C  C13  1  0.922937  0.854581  0.801236  1
  C  C14  1  0.075361  0.144544  0.197639  1
  I  I15  1  0.449162  0.530566  0.830722  1
  I  I16  1  0.384500  0.038895  0.157554  1
  I  I17  1  0.776113  0.854917  0.501175  1
  I  I18  1  0.840664  0.311997  0.155537  1
  I  I19  1  0.547742  0.469261  0.166455  1
  I  I20  1  0.219282  0.143725  0.497399  1
  I  I21  1  0.318859  0.100248  0.832100  1
  I  I22  1  0.684554  0.905356  0.172885  1
  I  I23  1  0.975374  0.759369  0.172844  1
  I  I24  1  0.935530  0.296430  0.497900  1
  I  I25  1  0.028390  0.246636  0.832311  1
  I  I26  1  0.064823  0.698634  0.500070  1
  I  I27  1  0.259485  0.617181  0.182046  1
  I  I28  1  0.741933  0.379092  0.814459  1
  I  I29  1  0.645496  0.440259  0.504846  1
  I  I30  1  0.158889  0.687756  0.844148  1
  I  I31  1  0.616253  0.956383  0.839924  1
  I  I32  1  0.354285  0.564760  0.498171  1
