# generated using pymatgen
data_CaNd2Si5AsPd20
_symmetry_space_group_name_H-M   'P 1'
_cell_length_a   8.77370302
_cell_length_b   8.79836641
_cell_length_c   8.79836647
_cell_angle_alpha   59.81463447
_cell_angle_beta   60.09268567
_cell_angle_gamma   60.09268409
_symmetry_Int_Tables_number   1
_chemical_formula_structural   CaNd2Si5AsPd20
_chemical_formula_sum   'Ca1 Nd2 Si5 As1 Pd20'
_cell_volume   480.24763193
_cell_formula_units_Z   1
loop_
 _symmetry_equiv_pos_site_id
 _symmetry_equiv_pos_as_xyz
  1  'x, y, z'
loop_
 _atom_site_type_symbol
 _atom_site_label
 _atom_site_symmetry_multiplicity
 _atom_site_fract_x
 _atom_site_fract_y
 _atom_site_fract_z
 _atom_site_occupancy
  Ca  Ca0  1  0.000558  0.999442  0.999442  1
  Nd  Nd1  1  0.250087  0.249913  0.249913  1
  Nd  Nd2  1  0.750087  0.749913  0.749913  1
  Si  Si3  1  0.265697  0.734303  0.734303  1
  Si  Si4  1  0.265464  0.734536  0.265249  1
  Si  Si5  1  0.734751  0.265249  0.734536  1
  Si  Si6  1  0.265464  0.265249  0.734536  1
  Si  Si7  1  0.734751  0.734536  0.265249  1
  As  As8  1  0.735971  0.264029  0.264029  1
  Pd  Pd9  1  0.347279  0.999481  0.999481  1
  Pd  Pd10  1  0.653759  0.999481  0.999481  1
  Pd  Pd11  1  0.000519  0.346241  0.652721  1
  Pd  Pd12  1  0.000519  0.652721  0.346241  1
  Pd  Pd13  1  0.006041  0.348452  0.993959  1
  Pd  Pd14  1  0.651548  0.993959  0.348452  1
  Pd  Pd15  1  0.999803  0.654211  0.000197  1
  Pd  Pd16  1  0.345789  0.000197  0.654211  1
  Pd  Pd17  1  0.006041  0.993959  0.348452  1
  Pd  Pd18  1  0.999803  0.000197  0.654211  1
  Pd  Pd19  1  0.651548  0.348452  0.993959  1
  Pd  Pd20  1  0.345789  0.654211  0.000197  1
  Pd  Pd21  1  0.379829  0.387708  0.387708  1
  Pd  Pd22  1  0.613846  0.615109  0.615109  1
  Pd  Pd23  1  0.384891  0.386154  0.844063  1
  Pd  Pd24  1  0.384891  0.844063  0.386154  1
  Pd  Pd25  1  0.612292  0.620171  0.155245  1
  Pd  Pd26  1  0.612292  0.155245  0.620171  1
  Pd  Pd27  1  0.844755  0.387708  0.387708  1
  Pd  Pd28  1  0.155937  0.615109  0.615109  1
