# generated using pymatgen
data_Hf3Nb3Al16Ir7
_symmetry_space_group_name_H-M   'P 1'
_cell_length_a   8.62845082
_cell_length_b   8.65201444
_cell_length_c   8.67363176
_cell_angle_alpha   59.73751801
_cell_angle_beta   60.00676884
_cell_angle_gamma   60.25571748
_symmetry_Int_Tables_number   1
_chemical_formula_structural   Hf3Nb3Al16Ir7
_chemical_formula_sum   'Hf3 Nb3 Al16 Ir7'
_cell_volume   457.84480580
_cell_formula_units_Z   1
loop_
 _symmetry_equiv_pos_site_id
 _symmetry_equiv_pos_as_xyz
  1  'x, y, z'
loop_
 _atom_site_type_symbol
 _atom_site_label
 _atom_site_symmetry_multiplicity
 _atom_site_fract_x
 _atom_site_fract_y
 _atom_site_fract_z
 _atom_site_occupancy
  Hf  Hf0  1  0.684522  0.315478  0.684522  1
  Hf  Hf1  1  0.317878  0.318472  0.681528  1
  Hf  Hf2  1  0.681528  0.682122  0.317878  1
  Nb  Nb3  1  0.681265  0.318735  0.318602  1
  Nb  Nb4  1  0.318602  0.681398  0.681265  1
  Nb  Nb5  1  0.321713  0.678287  0.321713  1
  Al  Al6  1  0.339219  0.340059  0.336321  1
  Al  Al7  1  0.659177  0.663200  0.662285  1
  Al  Al8  1  0.336800  0.340823  0.984662  1
  Al  Al9  1  0.336321  0.984402  0.339219  1
  Al  Al10  1  0.659941  0.660781  0.015598  1
  Al  Al11  1  0.662285  0.015338  0.659177  1
  Al  Al12  1  0.984662  0.337715  0.336800  1
  Al  Al13  1  0.015598  0.663679  0.659941  1
  Al  Al14  1  0.118878  0.118594  0.121335  1
  Al  Al15  1  0.882107  0.878618  0.879109  1
  Al  Al16  1  0.121382  0.117893  0.639834  1
  Al  Al17  1  0.121335  0.641193  0.118878  1
  Al  Al18  1  0.881406  0.881122  0.358807  1
  Al  Al19  1  0.879109  0.360166  0.882107  1
  Al  Al20  1  0.639834  0.120891  0.121382  1
  Al  Al21  1  0.358807  0.878665  0.881406  1
  Ir  Ir22  1  0.499716  0.999479  0.000521  1
  Ir  Ir23  1  0.000521  0.500284  0.499716  1
  Ir  Ir24  1  0.998724  0.501276  0.998724  1
  Ir  Ir25  1  0.498724  0.001276  0.498724  1
  Ir  Ir26  1  0.000623  0.999377  0.499661  1
  Ir  Ir27  1  0.499661  0.500339  0.000623  1
  Ir  Ir28  1  0.999663  0.000337  0.999663  1
