# generated using pymatgen
data_Lu7(PtSe)2
_symmetry_space_group_name_H-M   'P 1'
_cell_length_a   8.85359337
_cell_length_b   8.85359274
_cell_length_c   8.85359351
_cell_angle_alpha   154.13230385
_cell_angle_beta   118.30090419
_cell_angle_gamma   68.04329161
_symmetry_Int_Tables_number   1
_chemical_formula_structural   Lu7(PtSe)2
_chemical_formula_sum   'Lu7 Pt2 Se2'
_cell_volume   264.07561154
_cell_formula_units_Z   1
loop_
 _symmetry_equiv_pos_site_id
 _symmetry_equiv_pos_as_xyz
  1  'x, y, z'
loop_
 _atom_site_type_symbol
 _atom_site_label
 _atom_site_symmetry_multiplicity
 _atom_site_fract_x
 _atom_site_fract_y
 _atom_site_fract_z
 _atom_site_occupancy
  Lu  Lu0  1  0.538894  0.124808  0.414086  1
  Lu  Lu1  1  0.289277  0.875192  0.414086  1
  Lu  Lu2  1  0.946233  0.318542  0.627690  1
  Lu  Lu3  1  0.309148  0.681458  0.627690  1
  Lu  Lu4  1  0.623206  0.361578  0.261627  1
  Lu  Lu5  1  0.900049  0.638422  0.261627  1
  Lu  Lu6  1  0.004152  0.000000  0.004152  1
  Pt  Pt7  1  0.166488  0.237800  0.928687  1
  Pt  Pt8  1  0.690888  0.762200  0.928687  1
  Se  Se9  1  0.261272  0.500000  0.761272  1
  Se  Se10  1  0.661253  0.000000  0.661253  1
