# generated using pymatgen
data_La3Dy5Cd2OsPt
_symmetry_space_group_name_H-M   'P 1'
_cell_length_a   9.85719099
_cell_length_b   9.85719114
_cell_length_c   9.91229200
_cell_angle_alpha   59.81492090
_cell_angle_beta   59.81492039
_cell_angle_gamma   59.75329518
_symmetry_Int_Tables_number   1
_chemical_formula_structural   La3Dy5Cd2OsPt
_chemical_formula_sum   'La6 Dy10 Cd4 Os2 Pt2'
_cell_volume   677.84921089
_cell_formula_units_Z   2
loop_
 _symmetry_equiv_pos_site_id
 _symmetry_equiv_pos_as_xyz
  1  'x, y, z'
loop_
 _atom_site_type_symbol
 _atom_site_label
 _atom_site_symmetry_multiplicity
 _atom_site_fract_x
 _atom_site_fract_y
 _atom_site_fract_z
 _atom_site_occupancy
  La  La0  1  0.191917  0.802358  0.811480  1
  La  La1  1  0.802358  0.191917  0.194245  1
  La  La2  1  0.802358  0.191917  0.811480  1
  La  La3  1  0.191917  0.802358  0.194245  1
  La  La4  1  0.808834  0.808834  0.191166  1
  La  La5  1  0.193846  0.193846  0.806154  1
  Dy  Dy6  1  0.596721  0.596721  0.601661  1
  Dy  Dy7  1  0.596721  0.596721  0.204899  1
  Dy  Dy8  1  0.593313  0.212871  0.596908  1
  Dy  Dy9  1  0.212871  0.593313  0.596908  1
  Dy  Dy10  1  0.067269  0.435854  0.438134  1
  Dy  Dy11  1  0.435854  0.067269  0.058743  1
  Dy  Dy12  1  0.435854  0.067269  0.438134  1
  Dy  Dy13  1  0.067269  0.435854  0.058743  1
  Dy  Dy14  1  0.435837  0.435837  0.064163  1
  Dy  Dy15  1  0.060385  0.060385  0.439615  1
  Cd  Cd16  1  0.828260  0.828260  0.828734  1
  Cd  Cd17  1  0.828260  0.828260  0.514745  1
  Cd  Cd18  1  0.828928  0.513159  0.828957  1
  Cd  Cd19  1  0.513159  0.828928  0.828957  1
  Os  Os20  1  0.393344  0.393344  0.387114  1
  Os  Os21  1  0.393344  0.393344  0.826198  1
  Pt  Pt22  1  0.394318  0.827065  0.389308  1
  Pt  Pt23  1  0.827065  0.394318  0.389308  1
