# generated using pymatgen
data_Cs3Cu2F11
_symmetry_space_group_name_H-M   'P 1'
_cell_length_a   6.18783558
_cell_length_b   6.18783524
_cell_length_c   9.55972939
_cell_angle_alpha   108.88324419
_cell_angle_beta   108.88324454
_cell_angle_gamma   89.99999197
_symmetry_Int_Tables_number   1
_chemical_formula_structural   Cs3Cu2F11
_chemical_formula_sum   'Cs3 Cu2 F11'
_cell_volume   325.44508686
_cell_formula_units_Z   1
loop_
 _symmetry_equiv_pos_site_id
 _symmetry_equiv_pos_as_xyz
  1  'x, y, z'
loop_
 _atom_site_type_symbol
 _atom_site_label
 _atom_site_symmetry_multiplicity
 _atom_site_fract_x
 _atom_site_fract_y
 _atom_site_fract_z
 _atom_site_occupancy
  Cs  Cs0  1  0.750000  0.250000  0.500000  1
  Cs  Cs1  1  0.250000  0.750000  0.500000  1
  Cs  Cs2  1  0.000000  0.000000  0.000000  1
  Cu  Cu3  1  0.613479  0.613479  0.226955  1
  Cu  Cu4  1  0.386522  0.386522  0.773046  1
  F  F5  1  0.500000  0.500000  0.000000  1
  F  F6  1  0.406743  0.406743  0.227393  1
  F  F7  1  0.820651  0.406743  0.227393  1
  F  F8  1  0.406743  0.820651  0.227393  1
  F  F9  1  0.820651  0.820651  0.227393  1
  F  F10  1  0.271151  0.271151  0.542301  1
  F  F11  1  0.728850  0.728850  0.457698  1
  F  F12  1  0.179349  0.179349  0.772608  1
  F  F13  1  0.593258  0.179349  0.772608  1
  F  F14  1  0.179349  0.593258  0.772608  1
  F  F15  1  0.593258  0.593258  0.772608  1
