# generated using pymatgen
data_La3Pr(Al3Rh)6
_symmetry_space_group_name_H-M   'P 1'
_cell_length_a   7.66050616
_cell_length_b   7.66538481
_cell_length_c   9.65556800
_cell_angle_alpha   90.00000000
_cell_angle_beta   90.00000000
_cell_angle_gamma   119.14020397
_symmetry_Int_Tables_number   1
_chemical_formula_structural   La3Pr(Al3Rh)6
_chemical_formula_sum   'La3 Pr1 Al18 Rh6'
_cell_volume   495.21949451
_cell_formula_units_Z   1
loop_
 _symmetry_equiv_pos_site_id
 _symmetry_equiv_pos_as_xyz
  1  'x, y, z'
loop_
 _atom_site_type_symbol
 _atom_site_label
 _atom_site_symmetry_multiplicity
 _atom_site_fract_x
 _atom_site_fract_y
 _atom_site_fract_z
 _atom_site_occupancy
  La  La0  1  0.994422  0.671253  0.750000  1
  La  La1  1  0.004708  0.328485  0.250000  1
  La  La2  1  0.672374  0.994942  0.750000  1
  Pr  Pr3  1  0.327962  0.004948  0.250000  1
  Al  Al4  1  0.134251  0.133627  0.750000  1
  Al  Al5  1  0.868421  0.867736  0.250000  1
  Al  Al6  1  0.004697  0.336251  0.573545  1
  Al  Al7  1  0.996841  0.664867  0.425585  1
  Al  Al8  1  0.996841  0.664867  0.074415  1
  Al  Al9  1  0.336005  0.003787  0.927678  1
  Al  Al10  1  0.004697  0.336251  0.926455  1
  Al  Al11  1  0.662771  0.995928  0.074429  1
  Al  Al12  1  0.662771  0.995928  0.425571  1
  Al  Al13  1  0.336005  0.003787  0.572322  1
  Al  Al14  1  0.334369  0.333641  0.043034  1
  Al  Al15  1  0.665432  0.665452  0.959846  1
  Al  Al16  1  0.665432  0.665452  0.540154  1
  Al  Al17  1  0.334369  0.333641  0.456966  1
  Al  Al18  1  0.340595  0.546386  0.750000  1
  Al  Al19  1  0.658027  0.452073  0.250000  1
  Al  Al20  1  0.545944  0.339857  0.750000  1
  Al  Al21  1  0.453337  0.661226  0.250000  1
  Rh  Rh22  1  0.670516  0.329016  0.499817  1
  Rh  Rh23  1  0.329202  0.670749  0.499726  1
  Rh  Rh24  1  0.329202  0.670749  0.000274  1
  Rh  Rh25  1  0.670516  0.329016  0.000183  1
  Rh  Rh26  1  0.000145  0.000042  0.499954  1
  Rh  Rh27  1  0.000145  0.000042  0.000046  1
