# generated using pymatgen
data_Y3HoAl4IrPd3
_symmetry_space_group_name_H-M   'P 1'
_cell_length_a   4.43433200
_cell_length_b   6.86542655
_cell_length_c   7.80779541
_cell_angle_alpha   90.03076976
_cell_angle_beta   90.00000000
_cell_angle_gamma   90.00000000
_symmetry_Int_Tables_number   1
_chemical_formula_structural   Y3HoAl4IrPd3
_chemical_formula_sum   'Y3 Ho1 Al4 Ir1 Pd3'
_cell_volume   237.69721495
_cell_formula_units_Z   1
loop_
 _symmetry_equiv_pos_site_id
 _symmetry_equiv_pos_as_xyz
  1  'x, y, z'
loop_
 _atom_site_type_symbol
 _atom_site_label
 _atom_site_symmetry_multiplicity
 _atom_site_fract_x
 _atom_site_fract_y
 _atom_site_fract_z
 _atom_site_occupancy
  Y  Y0  1  0.250000  0.035357  0.678834  1
  Y  Y1  1  0.250000  0.531604  0.819125  1
  Y  Y2  1  0.750000  0.977189  0.319699  1
  Ho  Ho3  1  0.750000  0.463755  0.183864  1
  Al  Al4  1  0.250000  0.147287  0.064924  1
  Al  Al5  1  0.250000  0.639464  0.436734  1
  Al  Al6  1  0.750000  0.854649  0.939172  1
  Al  Al7  1  0.750000  0.353418  0.559630  1
  Ir  Ir8  1  0.250000  0.269814  0.380404  1
  Pd  Pd9  1  0.250000  0.772118  0.117458  1
  Pd  Pd10  1  0.750000  0.727731  0.618560  1
  Pd  Pd11  1  0.750000  0.227614  0.881595  1
