# generated using pymatgen
data_Cr19Fe2(WC3)2
_symmetry_space_group_name_H-M   'P 1'
_cell_length_a   7.50264889
_cell_length_b   7.50269392
_cell_length_c   7.52740440
_cell_angle_alpha   60.10837219
_cell_angle_beta   60.10808449
_cell_angle_gamma   59.99965024
_symmetry_Int_Tables_number   1
_chemical_formula_structural   Cr19Fe2(WC3)2
_chemical_formula_sum   'Cr19 Fe2 W2 C6'
_cell_volume   300.10239873
_cell_formula_units_Z   1
loop_
 _symmetry_equiv_pos_site_id
 _symmetry_equiv_pos_as_xyz
  1  'x, y, z'
loop_
 _atom_site_type_symbol
 _atom_site_label
 _atom_site_symmetry_multiplicity
 _atom_site_fract_x
 _atom_site_fract_y
 _atom_site_fract_z
 _atom_site_occupancy
  Cr  Cr0  1  0.615209  0.615202  0.154394  1
  Cr  Cr1  1  0.383236  0.383240  0.385149  1
  Cr  Cr2  1  0.666450  0.999188  0.335175  1
  Cr  Cr3  1  0.999182  0.999182  0.335174  1
  Cr  Cr4  1  0.332023  0.000428  0.667120  1
  Cr  Cr5  1  0.333528  0.001175  0.000232  1
  Cr  Cr6  1  0.001179  0.333518  0.000237  1
  Cr  Cr7  1  0.665068  0.001184  0.000237  1
  Cr  Cr8  1  0.000434  0.332008  0.667124  1
  Cr  Cr9  1  0.333520  0.665070  0.000232  1
  Cr  Cr10  1  0.615527  0.155111  0.613837  1
  Cr  Cr11  1  0.001179  0.665072  0.000239  1
  Cr  Cr12  1  0.615530  0.615528  0.613835  1
  Cr  Cr13  1  0.155108  0.615524  0.613840  1
  Cr  Cr14  1  0.000433  0.000431  0.667131  1
  Cr  Cr15  1  0.383242  0.848363  0.385150  1
  Cr  Cr16  1  0.848360  0.383246  0.385151  1
  Cr  Cr17  1  0.665067  0.333511  0.000237  1
  Cr  Cr18  1  0.999184  0.666461  0.335173  1
  Fe  Fe19  1  0.999554  0.999550  0.001359  1
  Fe  Fe20  1  0.383564  0.383571  0.849292  1
  W  W21  1  0.251934  0.251940  0.244176  1
  W  W22  1  0.750421  0.750426  0.748723  1
  C  C23  1  0.276522  0.724480  0.274511  1
  C  C24  1  0.277416  0.277407  0.724416  1
  C  C25  1  0.277419  0.720750  0.724418  1
  C  C26  1  0.724481  0.276516  0.274513  1
  C  C27  1  0.724489  0.724493  0.274510  1
  C  C28  1  0.720742  0.277423  0.724414  1
