# generated using pymatgen
data_Tb8Ga(Pd11Au)2
_symmetry_space_group_name_H-M   'P 1'
_cell_length_a   8.43692100
_cell_length_b   8.38791000
_cell_length_c   8.38684200
_cell_angle_alpha   89.99715139
_cell_angle_beta   90.00000000
_cell_angle_gamma   90.00000000
_symmetry_Int_Tables_number   1
_chemical_formula_structural   Tb8Ga(Pd11Au)2
_chemical_formula_sum   'Tb8 Ga1 Pd22 Au2'
_cell_volume   593.52115834
_cell_formula_units_Z   1
loop_
 _symmetry_equiv_pos_site_id
 _symmetry_equiv_pos_as_xyz
  1  'x, y, z'
loop_
 _atom_site_type_symbol
 _atom_site_label
 _atom_site_symmetry_multiplicity
 _atom_site_fract_x
 _atom_site_fract_y
 _atom_site_fract_z
 _atom_site_occupancy
  Tb  Tb0  1  0.252977  0.248217  0.743203  1
  Tb  Tb1  1  0.252877  0.747741  0.253157  1
  Tb  Tb2  1  0.750781  0.252026  0.256920  1
  Tb  Tb3  1  0.743353  0.751378  0.747104  1
  Tb  Tb4  1  0.747123  0.747741  0.253157  1
  Tb  Tb5  1  0.747023  0.248217  0.743203  1
  Tb  Tb6  1  0.256647  0.751378  0.747104  1
  Tb  Tb7  1  0.249219  0.252026  0.256920  1
  Ga  Ga8  1  0.000000  0.000168  0.999824  1
  Pd  Pd9  1  0.500000  0.499816  0.745904  1
  Pd  Pd10  1  0.500000  0.253009  0.499804  1
  Pd  Pd11  1  0.254196  0.500172  0.500178  1
  Pd  Pd12  1  0.500000  0.499831  0.254205  1
  Pd  Pd13  1  0.500000  0.746853  0.499789  1
  Pd  Pd14  1  0.745804  0.500172  0.500178  1
  Pd  Pd15  1  0.000000  0.999605  0.709118  1
  Pd  Pd16  1  0.000000  0.290104  0.000060  1
  Pd  Pd17  1  0.289590  0.999945  0.000366  1
  Pd  Pd18  1  0.000000  0.999636  0.291129  1
  Pd  Pd19  1  0.000000  0.709679  0.999989  1
  Pd  Pd20  1  0.710410  0.999945  0.000366  1
  Pd  Pd21  1  0.259747  0.999800  0.499799  1
  Pd  Pd22  1  0.000000  0.258868  0.500139  1
  Pd  Pd23  1  0.500000  0.000238  0.739493  1
  Pd  Pd24  1  0.259374  0.499972  0.999863  1
  Pd  Pd25  1  0.000000  0.500163  0.259845  1
  Pd  Pd26  1  0.500000  0.740312  0.000151  1
  Pd  Pd27  1  0.000000  0.741117  0.500089  1
  Pd  Pd28  1  0.500000  0.000215  0.260526  1
  Pd  Pd29  1  0.740253  0.999800  0.499799  1
  Pd  Pd30  1  0.740626  0.499972  0.999863  1
  Au  Au31  1  0.000000  0.500379  0.738293  1
  Au  Au32  1  0.500000  0.261504  0.000457  1
