# generated using pymatgen
data_Y3ErTm2(Si3Ru)8
_symmetry_space_group_name_H-M   'P 1'
_cell_length_a   10.11060028
_cell_length_b   10.11060025
_cell_length_c   8.13488419
_cell_angle_alpha   89.99463483
_cell_angle_beta   90.00536378
_cell_angle_gamma   132.61868726
_symmetry_Int_Tables_number   1
_chemical_formula_structural   Y3ErTm2(Si3Ru)8
_chemical_formula_sum   'Y3 Er1 Tm2 Si24 Ru8'
_cell_volume   611.94171352
_cell_formula_units_Z   1
loop_
 _symmetry_equiv_pos_site_id
 _symmetry_equiv_pos_as_xyz
  1  'x, y, z'
loop_
 _atom_site_type_symbol
 _atom_site_label
 _atom_site_symmetry_multiplicity
 _atom_site_fract_x
 _atom_site_fract_y
 _atom_site_fract_z
 _atom_site_occupancy
  Y  Y0  1  0.497658  0.997658  0.250000  1
  Y  Y1  1  0.002425  0.502425  0.750000  1
  Y  Y2  1  0.502583  0.002583  0.750000  1
  Er  Er3  1  0.997476  0.497476  0.250000  1
  Tm  Tm4  1  0.500008  0.499965  0.499975  1
  Tm  Tm5  1  0.999965  0.000008  0.000025  1
  Si  Si6  1  0.387932  0.155256  0.004344  1
  Si  Si7  1  0.655256  0.887932  0.495656  1
  Si  Si8  1  0.112223  0.345399  0.504188  1
  Si  Si9  1  0.845399  0.612223  0.995812  1
  Si  Si10  1  0.612098  0.844793  0.995506  1
  Si  Si11  1  0.344793  0.112098  0.504494  1
  Si  Si12  1  0.887799  0.654526  0.494860  1
  Si  Si13  1  0.154526  0.387799  0.005140  1
  Si  Si14  1  0.613632  0.379632  0.228664  1
  Si  Si15  1  0.879632  0.113632  0.271336  1
  Si  Si16  1  0.887393  0.121382  0.728702  1
  Si  Si17  1  0.621382  0.387393  0.771298  1
  Si  Si18  1  0.386935  0.620811  0.771126  1
  Si  Si19  1  0.120811  0.886935  0.728874  1
  Si  Si20  1  0.706226  0.295482  0.000546  1
  Si  Si21  1  0.795482  0.206226  0.499454  1
  Si  Si22  1  0.293749  0.704565  0.000411  1
  Si  Si23  1  0.204565  0.793749  0.499589  1
  Si  Si24  1  0.167924  0.167989  0.333138  1
  Si  Si25  1  0.667989  0.667924  0.166862  1
  Si  Si26  1  0.332018  0.332057  0.833154  1
  Si  Si27  1  0.832057  0.832018  0.666846  1
  Si  Si28  1  0.378007  0.612042  0.228588  1
  Si  Si29  1  0.112042  0.878007  0.271412  1
  Ru  Ru30  1  0.626089  0.625888  0.872560  1
  Ru  Ru31  1  0.125888  0.126089  0.627440  1
  Ru  Ru32  1  0.873969  0.874074  0.372589  1
  Ru  Ru33  1  0.374074  0.373969  0.127411  1
  Ru  Ru34  1  0.331577  0.668970  0.499345  1
  Ru  Ru35  1  0.168970  0.831577  0.000655  1
  Ru  Ru36  1  0.668432  0.331015  0.499548  1
  Ru  Ru37  1  0.831015  0.168432  0.000452  1
