# generated using pymatgen
data_Tm6CrB14Ru
_symmetry_space_group_name_H-M   'P 1'
_cell_length_a   7.95929714
_cell_length_b   7.95929701
_cell_length_c   9.24466600
_cell_angle_alpha   90.00000000
_cell_angle_beta   90.00000000
_cell_angle_gamma   155.00072893
_symmetry_Int_Tables_number   1
_chemical_formula_structural   Tm6CrB14Ru
_chemical_formula_sum   'Tm6 Cr1 B14 Ru1'
_cell_volume   247.50106115
_cell_formula_units_Z   1
loop_
 _symmetry_equiv_pos_site_id
 _symmetry_equiv_pos_as_xyz
  1  'x, y, z'
loop_
 _atom_site_type_symbol
 _atom_site_label
 _atom_site_symmetry_multiplicity
 _atom_site_fract_x
 _atom_site_fract_y
 _atom_site_fract_z
 _atom_site_occupancy
  Tm  Tm0  1  0.105700  0.894300  0.061403  1
  Tm  Tm1  1  0.894274  0.105726  0.941647  1
  Tm  Tm2  1  0.757709  0.242291  0.250000  1
  Tm  Tm3  1  0.244115  0.755885  0.750000  1
  Tm  Tm4  1  0.105700  0.894300  0.438597  1
  Tm  Tm5  1  0.894274  0.105726  0.558353  1
  Cr  Cr6  1  0.947500  0.052500  0.250000  1
  B  B7  1  0.727250  0.272750  0.534457  1
  B  B8  1  0.271879  0.728121  0.466150  1
  B  B9  1  0.271879  0.728121  0.033850  1
  B  B10  1  0.727250  0.272750  0.965543  1
  B  B11  1  0.519885  0.480115  0.905337  1
  B  B12  1  0.479595  0.520405  0.095509  1
  B  B13  1  0.479595  0.520405  0.404491  1
  B  B14  1  0.519885  0.480115  0.594663  1
  B  B15  1  0.455122  0.544878  0.750000  1
  B  B16  1  0.544078  0.455922  0.250000  1
  B  B17  1  0.631743  0.368257  0.649916  1
  B  B18  1  0.368593  0.631407  0.348476  1
  B  B19  1  0.368593  0.631407  0.151524  1
  B  B20  1  0.631743  0.368257  0.850084  1
  Ru  Ru21  1  0.053642  0.946358  0.750000  1
