# generated using pymatgen
data_TmTaNb5Sn6
_symmetry_space_group_name_H-M   'P 1'
_cell_length_a   5.80698141
_cell_length_b   5.80698210
_cell_length_c   9.57605000
_cell_angle_alpha   90.00000000
_cell_angle_beta   90.00000000
_cell_angle_gamma   119.95718183
_symmetry_Int_Tables_number   1
_chemical_formula_structural   TmTaNb5Sn6
_chemical_formula_sum   'Tm1 Ta1 Nb5 Sn6'
_cell_volume   279.77260104
_cell_formula_units_Z   1
loop_
 _symmetry_equiv_pos_site_id
 _symmetry_equiv_pos_as_xyz
  1  'x, y, z'
loop_
 _atom_site_type_symbol
 _atom_site_label
 _atom_site_symmetry_multiplicity
 _atom_site_fract_x
 _atom_site_fract_y
 _atom_site_fract_z
 _atom_site_occupancy
  Tm  Tm0  1  0.000000  0.000000  0.000009  1
  Ta  Ta1  1  0.500000  0.500000  0.751407  1
  Nb  Nb2  1  0.000000  0.500000  0.750853  1
  Nb  Nb3  1  0.500000  0.000000  0.249068  1
  Nb  Nb4  1  0.500000  0.500000  0.249235  1
  Nb  Nb5  1  0.000000  0.500000  0.249068  1
  Nb  Nb6  1  0.500000  0.000000  0.750853  1
  Sn  Sn7  1  0.666462  0.333538  0.499828  1
  Sn  Sn8  1  0.000000  0.000000  0.330273  1
  Sn  Sn9  1  0.000000  0.000000  0.669327  1
  Sn  Sn10  1  0.333381  0.666619  0.000124  1
  Sn  Sn11  1  0.666619  0.333381  0.000124  1
  Sn  Sn12  1  0.333538  0.666462  0.499828  1
