# generated using pymatgen
data_YTmZr2(Al3Rh)6
_symmetry_space_group_name_H-M   'P 1'
_cell_length_a   7.51676623
_cell_length_b   7.49921193
_cell_length_c   9.35712100
_cell_angle_alpha   90.00000000
_cell_angle_beta   90.00000000
_cell_angle_gamma   119.67306564
_symmetry_Int_Tables_number   1
_chemical_formula_structural   YTmZr2(Al3Rh)6
_chemical_formula_sum   'Y1 Tm1 Zr2 Al18 Rh6'
_cell_volume   458.29053191
_cell_formula_units_Z   1
loop_
 _symmetry_equiv_pos_site_id
 _symmetry_equiv_pos_as_xyz
  1  'x, y, z'
loop_
 _atom_site_type_symbol
 _atom_site_label
 _atom_site_symmetry_multiplicity
 _atom_site_fract_x
 _atom_site_fract_y
 _atom_site_fract_z
 _atom_site_occupancy
  Y  Y0  1  0.670442  0.993727  0.250000  1
  Tm  Tm1  1  0.329210  0.006176  0.750000  1
  Zr  Zr2  1  0.994940  0.671265  0.250000  1
  Zr  Zr3  1  0.005321  0.328894  0.750000  1
  Al  Al4  1  0.125252  0.123415  0.250000  1
  Al  Al5  1  0.875740  0.876913  0.750000  1
  Al  Al6  1  0.999499  0.337479  0.074438  1
  Al  Al7  1  0.001159  0.663112  0.924525  1
  Al  Al8  1  0.001159  0.663112  0.575475  1
  Al  Al9  1  0.331865  0.998071  0.422283  1
  Al  Al10  1  0.999499  0.337479  0.425562  1
  Al  Al11  1  0.667490  0.002003  0.579241  1
  Al  Al12  1  0.667490  0.002003  0.920759  1
  Al  Al13  1  0.331865  0.998071  0.077717  1
  Al  Al14  1  0.330992  0.333141  0.555983  1
  Al  Al15  1  0.669065  0.666302  0.445034  1
  Al  Al16  1  0.669065  0.666302  0.054966  1
  Al  Al17  1  0.330992  0.333141  0.944017  1
  Al  Al18  1  0.333566  0.548373  0.250000  1
  Al  Al19  1  0.665551  0.450623  0.750000  1
  Al  Al20  1  0.555836  0.344037  0.250000  1
  Al  Al21  1  0.443791  0.656391  0.750000  1
  Rh  Rh22  1  0.672168  0.327407  0.999061  1
  Rh  Rh23  1  0.327536  0.672541  0.000469  1
  Rh  Rh24  1  0.327536  0.672541  0.499531  1
  Rh  Rh25  1  0.672168  0.327407  0.500939  1
  Rh  Rh26  1  0.000401  0.000037  0.999716  1
  Rh  Rh27  1  0.000401  0.000037  0.500284  1
