# generated using pymatgen
data_Yb4AlGa(SbO6)2
_symmetry_space_group_name_H-M   'P 1'
_cell_length_a   5.37413463
_cell_length_b   5.49503784
_cell_length_c   7.65927960
_cell_angle_alpha   90.09231390
_cell_angle_beta   90.21876882
_cell_angle_gamma   90.01814968
_symmetry_Int_Tables_number   1
_chemical_formula_structural   Yb4AlGa(SbO6)2
_chemical_formula_sum   'Yb4 Al1 Ga1 Sb2 O12'
_cell_volume   226.18479223
_cell_formula_units_Z   1
loop_
 _symmetry_equiv_pos_site_id
 _symmetry_equiv_pos_as_xyz
  1  'x, y, z'
loop_
 _atom_site_type_symbol
 _atom_site_label
 _atom_site_symmetry_multiplicity
 _atom_site_fract_x
 _atom_site_fract_y
 _atom_site_fract_z
 _atom_site_occupancy
  Yb  Yb0  1  0.514014  0.551074  0.246736  1
  Yb  Yb1  1  0.987997  0.050378  0.248451  1
  Yb  Yb2  1  0.485986  0.448926  0.753264  1
  Yb  Yb3  1  0.012003  0.949622  0.751549  1
  Al  Al4  1  0.500000  0.000000  0.000000  1
  Ga  Ga5  1  0.000000  0.500000  0.500000  1
  Sb  Sb6  1  0.000000  0.500000  0.000000  1
  Sb  Sb7  1  0.500000  0.000000  0.500000  1
  O  O8  1  0.411684  0.973930  0.244934  1
  O  O9  1  0.093703  0.471918  0.250112  1
  O  O10  1  0.588316  0.026070  0.755066  1
  O  O11  1  0.906297  0.528082  0.749888  1
  O  O12  1  0.789665  0.795760  0.046340  1
  O  O13  1  0.699717  0.297556  0.450863  1
  O  O14  1  0.199834  0.202002  0.548931  1
  O  O15  1  0.297796  0.712072  0.954006  1
  O  O16  1  0.210335  0.204240  0.953660  1
  O  O17  1  0.300283  0.702444  0.549137  1
  O  O18  1  0.800166  0.797998  0.451069  1
  O  O19  1  0.702204  0.287928  0.045994  1
