# generated using pymatgen
data_Ac8Ho12Si15Ru
_symmetry_space_group_name_H-M   'P 1'
_cell_length_a   7.68973500
_cell_length_b   8.00637913
_cell_length_c   15.26339200
_cell_angle_alpha   90.00000000
_cell_angle_beta   90.00000000
_cell_angle_gamma   90.42679650
_symmetry_Int_Tables_number   1
_chemical_formula_structural   Ac8Ho12Si15Ru
_chemical_formula_sum   'Ac8 Ho12 Si15 Ru1'
_cell_volume   939.69417340
_cell_formula_units_Z   1
loop_
 _symmetry_equiv_pos_site_id
 _symmetry_equiv_pos_as_xyz
  1  'x, y, z'
loop_
 _atom_site_type_symbol
 _atom_site_label
 _atom_site_symmetry_multiplicity
 _atom_site_fract_x
 _atom_site_fract_y
 _atom_site_fract_z
 _atom_site_occupancy
  Ac  Ac0  1  0.019451  0.172807  0.400604  1
  Ac  Ac1  1  0.518134  0.329407  0.402180  1
  Ac  Ac2  1  0.474256  0.676723  0.899836  1
  Ac  Ac3  1  0.474256  0.676723  0.600164  1
  Ac  Ac4  1  0.987405  0.827138  0.601818  1
  Ac  Ac5  1  0.987405  0.827138  0.898182  1
  Ac  Ac6  1  0.518134  0.329407  0.097820  1
  Ac  Ac7  1  0.019451  0.172807  0.099396  1
  Ho  Ho8  1  0.321279  0.171787  0.625831  1
  Ho  Ho9  1  0.679787  0.822019  0.376784  1
  Ho  Ho10  1  0.634125  0.992329  0.750000  1
  Ho  Ho11  1  0.178214  0.676813  0.375581  1
  Ho  Ho12  1  0.822889  0.320815  0.877643  1
  Ho  Ho13  1  0.822889  0.320815  0.622357  1
  Ho  Ho14  1  0.847371  0.499181  0.250000  1
  Ho  Ho15  1  0.348609  0.004273  0.250000  1
  Ho  Ho16  1  0.321279  0.171787  0.874169  1
  Ho  Ho17  1  0.178214  0.676813  0.124419  1
  Ho  Ho18  1  0.679787  0.822019  0.123216  1
  Ho  Ho19  1  0.156545  0.504886  0.750000  1
  Si  Si20  1  0.472955  0.631154  0.250000  1
  Si  Si21  1  0.027391  0.127184  0.750000  1
  Si  Si22  1  0.534766  0.373484  0.750000  1
  Si  Si23  1  0.143742  0.465199  0.538271  1
  Si  Si24  1  0.972853  0.872914  0.250000  1
  Si  Si25  1  0.720341  0.114453  0.250000  1
  Si  Si26  1  0.860376  0.532358  0.040472  1
  Si  Si27  1  0.359913  0.966259  0.040407  1
  Si  Si28  1  0.143742  0.465199  0.961729  1
  Si  Si29  1  0.644412  0.036451  0.537945  1
  Si  Si30  1  0.359913  0.966259  0.459593  1
  Si  Si31  1  0.860376  0.532358  0.459528  1
  Si  Si32  1  0.775773  0.602389  0.750000  1
  Si  Si33  1  0.222365  0.386420  0.250000  1
  Si  Si34  1  0.644412  0.036451  0.962055  1
  Ru  Ru35  1  0.267191  0.895778  0.750000  1
