# generated using pymatgen
data_Ti12Al3Si5(RhC)4
_symmetry_space_group_name_H-M   'P 1'
_cell_length_a   8.10610935
_cell_length_b   8.09871210
_cell_length_c   8.10610600
_cell_angle_alpha   59.96980270
_cell_angle_beta   60.00002183
_cell_angle_gamma   59.94935176
_symmetry_Int_Tables_number   1
_chemical_formula_structural   Ti12Al3Si5(RhC)4
_chemical_formula_sum   'Ti12 Al3 Si5 Rh4 C4'
_cell_volume   376.06258178
_cell_formula_units_Z   1
loop_
 _symmetry_equiv_pos_site_id
 _symmetry_equiv_pos_as_xyz
  1  'x, y, z'
loop_
 _atom_site_type_symbol
 _atom_site_label
 _atom_site_symmetry_multiplicity
 _atom_site_fract_x
 _atom_site_fract_y
 _atom_site_fract_z
 _atom_site_occupancy
  Ti  Ti0  1  0.938962  0.938312  0.561363  1
  Ti  Ti1  1  0.689371  0.311667  0.312003  1
  Ti  Ti2  1  0.311824  0.684039  0.691752  1
  Ti  Ti3  1  0.692825  0.682952  0.312112  1
  Ti  Ti4  1  0.689371  0.311667  0.686959  1
  Ti  Ti5  1  0.311824  0.684039  0.312386  1
  Ti  Ti6  1  0.555566  0.939373  0.565728  1
  Ti  Ti7  1  0.555566  0.939373  0.939333  1
  Ti  Ti8  1  0.939301  0.557054  0.564908  1
  Ti  Ti9  1  0.939301  0.557054  0.938737  1
  Ti  Ti10  1  0.311898  0.312464  0.687819  1
  Ti  Ti11  1  0.560227  0.562614  0.938579  1
  Al  Al12  1  0.915660  0.915116  0.917006  1
  Al  Al13  1  0.915660  0.915116  0.252219  1
  Al  Al14  1  0.333643  0.997866  0.334245  1
  Si  Si15  1  0.910802  0.260095  0.914552  1
  Si  Si16  1  0.338618  0.334692  0.986866  1
  Si  Si17  1  0.990900  0.333471  0.337814  1
  Si  Si18  1  0.338618  0.334692  0.339823  1
  Si  Si19  1  0.256698  0.911649  0.915827  1
  Rh  Rh20  1  0.132588  0.613654  0.126879  1
  Rh  Rh21  1  0.125060  0.131654  0.625154  1
  Rh  Rh22  1  0.619723  0.136522  0.121878  1
  Rh  Rh23  1  0.125060  0.131654  0.118132  1
  C  C24  1  0.625750  0.124662  0.624794  1
  C  C25  1  0.625251  0.626129  0.124495  1
  C  C26  1  0.124680  0.626293  0.624513  1
  C  C27  1  0.625251  0.626129  0.624125  1
