# generated using pymatgen
data_Th4GaFeSi6
_symmetry_space_group_name_H-M   'P 1'
_cell_length_a   8.19076900
_cell_length_b   8.19076922
_cell_length_c   4.18738300
_cell_angle_alpha   90.00000000
_cell_angle_beta   90.00000000
_cell_angle_gamma   120.00000314
_symmetry_Int_Tables_number   1
_chemical_formula_structural   Th4GaFeSi6
_chemical_formula_sum   'Th4 Ga1 Fe1 Si6'
_cell_volume   243.28911088
_cell_formula_units_Z   1
loop_
 _symmetry_equiv_pos_site_id
 _symmetry_equiv_pos_as_xyz
  1  'x, y, z'
loop_
 _atom_site_type_symbol
 _atom_site_label
 _atom_site_symmetry_multiplicity
 _atom_site_fract_x
 _atom_site_fract_y
 _atom_site_fract_z
 _atom_site_occupancy
  Th  Th0  1  0.000000  0.000000  0.500000  1
  Th  Th1  1  0.984636  0.492317  0.500000  1
  Th  Th2  1  0.507683  0.492317  0.500000  1
  Th  Th3  1  0.507683  0.015364  0.500000  1
  Ga  Ga4  1  0.333333  0.666667  0.000000  1
  Fe  Fe5  1  0.666667  0.333333  0.000000  1
  Si  Si6  1  0.345533  0.172766  0.000000  1
  Si  Si7  1  0.827234  0.172766  0.000000  1
  Si  Si8  1  0.827234  0.654467  0.000000  1
  Si  Si9  1  0.163242  0.326484  0.000000  1
  Si  Si10  1  0.163242  0.836758  0.000000  1
  Si  Si11  1  0.673516  0.836758  0.000000  1
