# generated using pymatgen
data_DyY7(ZnCo)2
_symmetry_space_group_name_H-M   'P 1'
_cell_length_a   9.41243628
_cell_length_b   9.41236383
_cell_length_c   9.41891901
_cell_angle_alpha   59.97626757
_cell_angle_beta   59.97702155
_cell_angle_gamma   59.95252601
_symmetry_Int_Tables_number   1
_chemical_formula_structural   DyY7(ZnCo)2
_chemical_formula_sum   'Dy2 Y14 Zn4 Co4'
_cell_volume   589.62714069
_cell_formula_units_Z   2
loop_
 _symmetry_equiv_pos_site_id
 _symmetry_equiv_pos_as_xyz
  1  'x, y, z'
loop_
 _atom_site_type_symbol
 _atom_site_label
 _atom_site_symmetry_multiplicity
 _atom_site_fract_x
 _atom_site_fract_y
 _atom_site_fract_z
 _atom_site_occupancy
  Dy  Dy0  1  0.599787  0.599702  0.599746  1
  Dy  Dy1  1  0.599669  0.599572  0.200907  1
  Y  Y2  1  0.600150  0.199388  0.600157  1
  Y  Y3  1  0.199228  0.600127  0.600257  1
  Y  Y4  1  0.059423  0.440555  0.440502  1
  Y  Y5  1  0.440557  0.059368  0.059534  1
  Y  Y6  1  0.440529  0.059465  0.440525  1
  Y  Y7  1  0.059329  0.440579  0.059580  1
  Y  Y8  1  0.440626  0.440673  0.059421  1
  Y  Y9  1  0.059537  0.059614  0.440432  1
  Y  Y10  1  0.188154  0.812121  0.812127  1
  Y  Y11  1  0.812231  0.188011  0.187527  1
  Y  Y12  1  0.812173  0.188041  0.812226  1
  Y  Y13  1  0.188131  0.812173  0.187571  1
  Y  Y14  1  0.811896  0.811949  0.188068  1
  Y  Y15  1  0.187619  0.187536  0.812451  1
  Zn  Zn16  1  0.826690  0.826737  0.826816  1
  Zn  Zn17  1  0.826695  0.826742  0.519751  1
  Zn  Zn18  1  0.826650  0.519780  0.826789  1
  Zn  Zn19  1  0.519834  0.826668  0.826753  1
  Co  Co20  1  0.392438  0.392466  0.391172  1
  Co  Co21  1  0.392427  0.392437  0.823971  1
  Co  Co22  1  0.393114  0.823144  0.391857  1
  Co  Co23  1  0.823108  0.393152  0.391860  1
