# generated using pymatgen
data_Dy5Ge6P6Ir19
_symmetry_space_group_name_H-M   'P 1'
_cell_length_a   12.95458000
_cell_length_b   12.95458054
_cell_length_c   3.98081800
_cell_angle_alpha   90.00000000
_cell_angle_beta   90.00000000
_cell_angle_gamma   119.99999862
_symmetry_Int_Tables_number   1
_chemical_formula_structural   Dy5Ge6P6Ir19
_chemical_formula_sum   'Dy5 Ge6 P6 Ir19'
_cell_volume   578.56166316
_cell_formula_units_Z   1
loop_
 _symmetry_equiv_pos_site_id
 _symmetry_equiv_pos_as_xyz
  1  'x, y, z'
loop_
 _atom_site_type_symbol
 _atom_site_label
 _atom_site_symmetry_multiplicity
 _atom_site_fract_x
 _atom_site_fract_y
 _atom_site_fract_z
 _atom_site_occupancy
  Dy  Dy0  1  0.333333  0.666667  0.500000  1
  Dy  Dy1  1  0.666667  0.333333  0.500000  1
  Dy  Dy2  1  0.001487  0.819100  0.000000  1
  Dy  Dy3  1  0.180900  0.182387  0.000000  1
  Dy  Dy4  1  0.817613  0.998513  0.000000  1
  Ge  Ge5  1  0.998743  0.639334  0.500000  1
  Ge  Ge6  1  0.360666  0.359408  0.500000  1
  Ge  Ge7  1  0.640592  0.001257  0.500000  1
  Ge  Ge8  1  0.518372  0.678527  0.000000  1
  Ge  Ge9  1  0.321473  0.839844  0.000000  1
  Ge  Ge10  1  0.160156  0.481628  0.000000  1
  P  P11  1  0.483838  0.177928  0.000000  1
  P  P12  1  0.694089  0.516162  0.000000  1
  P  P13  1  0.822072  0.305911  0.000000  1
  P  P14  1  0.995185  0.175611  0.500000  1
  P  P15  1  0.824389  0.819574  0.500000  1
  P  P16  1  0.180426  0.004815  0.500000  1
  Ir  Ir17  1  0.520863  0.870892  0.000000  1
  Ir  Ir18  1  0.129108  0.649972  0.000000  1
  Ir  Ir19  1  0.350028  0.479137  0.000000  1
  Ir  Ir20  1  0.499812  0.368054  0.000000  1
  Ir  Ir21  1  0.868243  0.500188  0.000000  1
  Ir  Ir22  1  0.631946  0.131757  0.000000  1
  Ir  Ir23  1  0.006885  0.453422  0.500000  1
  Ir  Ir24  1  0.546578  0.553463  0.500000  1
  Ir  Ir25  1  0.446537  0.993115  0.500000  1
  Ir  Ir26  1  0.989822  0.271051  0.000000  1
  Ir  Ir27  1  0.728949  0.718771  0.000000  1
  Ir  Ir28  1  0.281229  0.010178  0.000000  1
  Ir  Ir29  1  0.638442  0.808555  0.500000  1
  Ir  Ir30  1  0.191445  0.829887  0.500000  1
  Ir  Ir31  1  0.170113  0.361558  0.500000  1
  Ir  Ir32  1  0.385886  0.179710  0.500000  1
  Ir  Ir33  1  0.793825  0.614114  0.500000  1
  Ir  Ir34  1  0.820290  0.206175  0.500000  1
  Ir  Ir35  1  0.000000  0.000000  0.500000  1
