# generated using pymatgen
data_Yb2NbOsO8
_symmetry_space_group_name_H-M   'P 1'
_cell_length_a   6.64843637
_cell_length_b   6.64843658
_cell_length_c   5.06202834
_cell_angle_alpha   69.75364275
_cell_angle_beta   69.75362635
_cell_angle_gamma   115.83979096
_symmetry_Int_Tables_number   1
_chemical_formula_structural   Yb2NbOsO8
_chemical_formula_sum   'Yb2 Nb1 Os1 O8'
_cell_volume   152.76182359
_cell_formula_units_Z   1
loop_
 _symmetry_equiv_pos_site_id
 _symmetry_equiv_pos_as_xyz
  1  'x, y, z'
loop_
 _atom_site_type_symbol
 _atom_site_label
 _atom_site_symmetry_multiplicity
 _atom_site_fract_x
 _atom_site_fract_y
 _atom_site_fract_z
 _atom_site_occupancy
  Yb  Yb0  1  0.366639  0.633361  0.250000  1
  Yb  Yb1  1  0.628628  0.371372  0.750000  1
  Nb  Nb2  1  0.111709  0.888291  0.750000  1
  Os  Os3  1  0.905396  0.094604  0.250000  1
  O  O4  1  0.651815  0.055541  0.168944  1
  O  O5  1  0.944459  0.348185  0.331056  1
  O  O6  1  0.368316  0.951259  0.845598  1
  O  O7  1  0.048741  0.631684  0.654402  1
  O  O8  1  0.795376  0.738723  0.194645  1
  O  O9  1  0.261277  0.204624  0.305355  1
  O  O10  1  0.202253  0.284610  0.812461  1
  O  O11  1  0.715390  0.797747  0.687539  1
