# generated using pymatgen
data_Ti5Ge(PtRh4)2
_symmetry_space_group_name_H-M   'P 1'
_cell_length_a   4.04768200
_cell_length_b   5.44914589
_cell_length_c   10.71092465
_cell_angle_alpha   90.96921431
_cell_angle_beta   90.00000000
_cell_angle_gamma   90.00000000
_symmetry_Int_Tables_number   1
_chemical_formula_structural   Ti5Ge(PtRh4)2
_chemical_formula_sum   'Ti5 Ge1 Pt2 Rh8'
_cell_volume   236.21074257
_cell_formula_units_Z   1
loop_
 _symmetry_equiv_pos_site_id
 _symmetry_equiv_pos_as_xyz
  1  'x, y, z'
loop_
 _atom_site_type_symbol
 _atom_site_label
 _atom_site_symmetry_multiplicity
 _atom_site_fract_x
 _atom_site_fract_y
 _atom_site_fract_z
 _atom_site_occupancy
  Ti  Ti0  1  0.000000  0.000000  0.000000  1
  Ti  Ti1  1  0.500000  0.337696  0.142709  1
  Ti  Ti2  1  0.500000  0.662304  0.857291  1
  Ti  Ti3  1  0.500000  0.820132  0.360247  1
  Ti  Ti4  1  0.500000  0.179868  0.639753  1
  Ge  Ge5  1  0.000000  0.500000  0.500000  1
  Pt  Pt6  1  0.000000  0.074901  0.243356  1
  Pt  Pt7  1  0.000000  0.925099  0.756644  1
  Rh  Rh8  1  0.000000  0.000000  0.500000  1
  Rh  Rh9  1  0.000000  0.500000  0.000000  1
  Rh  Rh10  1  0.000000  0.573570  0.259150  1
  Rh  Rh11  1  0.000000  0.426430  0.740850  1
  Rh  Rh12  1  0.500000  0.306271  0.391000  1
  Rh  Rh13  1  0.500000  0.693729  0.609000  1
  Rh  Rh14  1  0.500000  0.810496  0.107410  1
  Rh  Rh15  1  0.500000  0.189504  0.892590  1
