# generated using pymatgen
data_Li4TiAsPd10
_symmetry_space_group_name_H-M   'P 1'
_cell_length_a   4.14011000
_cell_length_b   5.32316689
_cell_length_c   10.40608300
_cell_angle_alpha   89.42303564
_cell_angle_beta   90.00000000
_cell_angle_gamma   90.00000000
_symmetry_Int_Tables_number   1
_chemical_formula_structural   Li4TiAsPd10
_chemical_formula_sum   'Li4 Ti1 As1 Pd10'
_cell_volume   229.32279600
_cell_formula_units_Z   1
loop_
 _symmetry_equiv_pos_site_id
 _symmetry_equiv_pos_as_xyz
  1  'x, y, z'
loop_
 _atom_site_type_symbol
 _atom_site_label
 _atom_site_symmetry_multiplicity
 _atom_site_fract_x
 _atom_site_fract_y
 _atom_site_fract_z
 _atom_site_occupancy
  Li  Li0  1  0.500000  0.159270  0.364168  1
  Li  Li1  1  0.500000  0.840730  0.635832  1
  Li  Li2  1  0.500000  0.656809  0.136536  1
  Li  Li3  1  0.500000  0.343191  0.863464  1
  Ti  Ti4  1  0.000000  0.500000  0.500000  1
  As  As5  1  0.000000  0.000000  0.000000  1
  Pd  Pd6  1  0.500000  0.176174  0.110801  1
  Pd  Pd7  1  0.500000  0.823826  0.889199  1
  Pd  Pd8  1  0.500000  0.679579  0.387558  1
  Pd  Pd9  1  0.500000  0.320421  0.612442  1
  Pd  Pd10  1  0.000000  0.000000  0.500000  1
  Pd  Pd11  1  0.000000  0.500000  0.000000  1
  Pd  Pd12  1  0.000000  0.888861  0.234576  1
  Pd  Pd13  1  0.000000  0.111139  0.765424  1
  Pd  Pd14  1  0.000000  0.387271  0.266733  1
  Pd  Pd15  1  0.000000  0.612729  0.733267  1
