# generated using pymatgen
data_Li2Pt(BrO3)6
_symmetry_space_group_name_H-M   'P 1'
_cell_length_a   5.53111100
_cell_length_b   9.27224120
_cell_length_c   9.27223200
_cell_angle_alpha   59.99993292
_cell_angle_beta   90.00006215
_cell_angle_gamma   89.99984570
_symmetry_Int_Tables_number   1
_chemical_formula_structural   Li2Pt(BrO3)6
_chemical_formula_sum   'Li2 Pt1 Br6 O18'
_cell_volume   411.82406604
_cell_formula_units_Z   1
loop_
 _symmetry_equiv_pos_site_id
 _symmetry_equiv_pos_as_xyz
  1  'x, y, z'
loop_
 _atom_site_type_symbol
 _atom_site_label
 _atom_site_symmetry_multiplicity
 _atom_site_fract_x
 _atom_site_fract_y
 _atom_site_fract_z
 _atom_site_occupancy
  Li  Li0  1  0.741991  0.333333  0.333334  1
  Li  Li1  1  0.204036  0.666669  0.666666  1
  Pt  Pt2  1  0.665988  0.000000  0.000000  1
  Br  Br3  1  0.810979  0.974643  0.670965  1
  Br  Br4  1  0.810980  0.354393  0.974642  1
  Br  Br5  1  0.810979  0.670965  0.354392  1
  Br  Br6  1  0.333910  0.020227  0.312404  1
  Br  Br7  1  0.333911  0.667369  0.020227  1
  Br  Br8  1  0.333910  0.312404  0.667368  1
  O  O9  1  0.485698  0.247487  0.556629  1
  O  O10  1  0.485698  0.195882  0.247487  1
  O  O11  1  0.485698  0.556631  0.195884  1
  O  O12  1  0.980341  0.749613  0.445966  1
  O  O13  1  0.980343  0.804421  0.749614  1
  O  O14  1  0.980346  0.445966  0.804421  1
  O  O15  1  0.889647  0.061150  0.803647  1
  O  O16  1  0.889646  0.135205  0.061150  1
  O  O17  1  0.889649  0.803646  0.135205  1
  O  O18  1  0.462818  0.913798  0.208925  1
  O  O19  1  0.462820  0.877277  0.913798  1
  O  O20  1  0.462815  0.208924  0.877277  1
  O  O21  1  0.944735  0.118302  0.496858  1
  O  O22  1  0.944734  0.384841  0.118302  1
  O  O23  1  0.944736  0.496856  0.384841  1
  O  O24  1  0.424063  0.886211  0.505148  1
  O  O25  1  0.424064  0.608642  0.886211  1
  O  O26  1  0.424065  0.505147  0.608642  1
