# generated using pymatgen
data_PrCdHg2(Ru2O7)2
_symmetry_space_group_name_H-M   'P 1'
_cell_length_a   7.34930593
_cell_length_b   7.34930654
_cell_length_c   7.39843410
_cell_angle_alpha   59.30768398
_cell_angle_beta   59.30768220
_cell_angle_gamma   59.25543801
_symmetry_Int_Tables_number   1
_chemical_formula_structural   PrCdHg2(Ru2O7)2
_chemical_formula_sum   'Pr1 Cd1 Hg2 Ru4 O14'
_cell_volume   277.99758648
_cell_formula_units_Z   1
loop_
 _symmetry_equiv_pos_site_id
 _symmetry_equiv_pos_as_xyz
  1  'x, y, z'
loop_
 _atom_site_type_symbol
 _atom_site_label
 _atom_site_symmetry_multiplicity
 _atom_site_fract_x
 _atom_site_fract_y
 _atom_site_fract_z
 _atom_site_occupancy
  Pr  Pr0  1  0.125000  0.125000  0.125000  1
  Cd  Cd1  1  0.125000  0.125000  0.625000  1
  Hg  Hg2  1  0.125000  0.625000  0.125000  1
  Hg  Hg3  1  0.625000  0.125000  0.125000  1
  Ru  Ru4  1  0.625000  0.125000  0.625000  1
  Ru  Ru5  1  0.625000  0.625000  0.125000  1
  Ru  Ru6  1  0.125000  0.625000  0.625000  1
  Ru  Ru7  1  0.625000  0.625000  0.625000  1
  O  O8  1  0.687785  0.687785  0.311310  1
  O  O9  1  0.941411  0.559777  0.561743  1
  O  O10  1  0.549103  0.947939  0.947340  1
  O  O11  1  0.955553  0.955553  0.544406  1
  O  O12  1  0.947939  0.549103  0.947340  1
  O  O13  1  0.559777  0.941411  0.561743  1
  O  O14  1  0.302061  0.700897  0.302660  1
  O  O15  1  0.308589  0.690223  0.688257  1
  O  O16  1  0.700897  0.302061  0.302660  1
  O  O17  1  0.690223  0.308589  0.688257  1
  O  O18  1  0.562215  0.562215  0.938690  1
  O  O19  1  0.294447  0.294447  0.705594  1
  O  O20  1  0.258180  0.258180  0.255478  1
  O  O21  1  0.991820  0.991820  0.994522  1
