# generated using pymatgen
data_Ba6SnAsI4
_symmetry_space_group_name_H-M   'P 1'
_cell_length_a   16.67227866
_cell_length_b   15.91135343
_cell_length_c   8.70925828
_cell_angle_alpha   79.38424848
_cell_angle_beta   69.72259873
_cell_angle_gamma   30.89316105
_symmetry_Int_Tables_number   1
_chemical_formula_structural   Ba6SnAsI4
_chemical_formula_sum   'Ba12 Sn2 As2 I8'
_cell_volume   1081.56342122
_cell_formula_units_Z   2
loop_
 _symmetry_equiv_pos_site_id
 _symmetry_equiv_pos_as_xyz
  1  'x, y, z'
loop_
 _atom_site_type_symbol
 _atom_site_label
 _atom_site_symmetry_multiplicity
 _atom_site_fract_x
 _atom_site_fract_y
 _atom_site_fract_z
 _atom_site_occupancy
  Ba  Ba0  1  0.379905  0.937065  0.596201  1
  Ba  Ba1  1  0.596201  0.086831  0.379905  1
  Ba  Ba2  1  0.310059  0.864578  0.154777  1
  Ba  Ba3  1  0.937065  0.379905  0.086831  1
  Ba  Ba4  1  0.472494  0.027506  0.027506  1
  Ba  Ba5  1  0.864578  0.310059  0.670584  1
  Ba  Ba6  1  0.086831  0.596201  0.937065  1
  Ba  Ba7  1  0.670584  0.154777  0.864578  1
  Ba  Ba8  1  0.787121  0.212879  0.212879  1
  Ba  Ba9  1  0.212879  0.787121  0.787121  1
  Ba  Ba10  1  0.154777  0.670584  0.310059  1
  Ba  Ba11  1  0.027506  0.472494  0.472494  1
  Sn  Sn12  1  0.164574  0.164574  0.335426  1
  Sn  Sn13  1  0.335426  0.335426  0.164574  1
  As  As14  1  0.082132  0.082132  0.917868  1
  As  As15  1  0.917868  0.917868  0.082132  1
  I  I16  1  0.669754  0.669754  0.830246  1
  I  I17  1  0.747267  0.747267  0.252733  1
  I  I18  1  0.252733  0.252733  0.747267  1
  I  I19  1  0.577930  0.577930  0.422070  1
  I  I20  1  0.997243  0.997243  0.502757  1
  I  I21  1  0.830246  0.830246  0.669754  1
  I  I22  1  0.422070  0.422070  0.577930  1
  I  I23  1  0.502757  0.502757  0.997243  1
