# generated using pymatgen
data_AlZnSiMo9
_symmetry_space_group_name_H-M   'P 1'
_cell_length_a   4.96104400
_cell_length_b   4.95702800
_cell_length_c   14.79116800
_cell_angle_alpha   90.00000000
_cell_angle_beta   90.00000000
_cell_angle_gamma   90.00000000
_symmetry_Int_Tables_number   1
_chemical_formula_structural   AlZnSiMo9
_chemical_formula_sum   'Al2 Zn2 Si2 Mo18'
_cell_volume   363.74490661
_cell_formula_units_Z   2
loop_
 _symmetry_equiv_pos_site_id
 _symmetry_equiv_pos_as_xyz
  1  'x, y, z'
loop_
 _atom_site_type_symbol
 _atom_site_label
 _atom_site_symmetry_multiplicity
 _atom_site_fract_x
 _atom_site_fract_y
 _atom_site_fract_z
 _atom_site_occupancy
  Al  Al0  1  0.500000  0.500000  0.833929  1
  Al  Al1  1  0.500000  0.500000  0.499257  1
  Zn  Zn2  1  0.000000  0.000000  0.667100  1
  Zn  Zn3  1  0.000000  0.000000  0.332965  1
  Si  Si4  1  0.500000  0.500000  0.166571  1
  Si  Si5  1  0.000000  0.000000  0.000239  1
  Mo  Mo6  1  0.500000  0.000000  0.750823  1
  Mo  Mo7  1  0.500000  0.000000  0.416016  1
  Mo  Mo8  1  0.500000  0.000000  0.083479  1
  Mo  Mo9  1  0.250571  0.500000  0.001822  1
  Mo  Mo10  1  0.251319  0.500000  0.667307  1
  Mo  Mo11  1  0.251287  0.500000  0.330484  1
  Mo  Mo12  1  0.000000  0.750291  0.836123  1
  Mo  Mo13  1  0.000000  0.750003  0.499322  1
  Mo  Mo14  1  0.000000  0.749983  0.164997  1
  Mo  Mo15  1  0.500000  0.000000  0.917706  1
  Mo  Mo16  1  0.500000  0.000000  0.583109  1
  Mo  Mo17  1  0.500000  0.000000  0.248691  1
  Mo  Mo18  1  0.749429  0.500000  0.001822  1
  Mo  Mo19  1  0.748681  0.500000  0.667307  1
  Mo  Mo20  1  0.748713  0.500000  0.330484  1
  Mo  Mo21  1  0.000000  0.249709  0.836123  1
  Mo  Mo22  1  0.000000  0.249997  0.499322  1
  Mo  Mo23  1  0.000000  0.250017  0.164997  1
