# generated using pymatgen
data_Cs6DyBiBr12
_symmetry_space_group_name_H-M   'P 1'
_cell_length_a   10.05651497
_cell_length_b   10.04411697
_cell_length_c   8.36315300
_cell_angle_alpha   90.00000000
_cell_angle_beta   90.00000000
_cell_angle_gamma   90.05037306
_symmetry_Int_Tables_number   1
_chemical_formula_structural   Cs6DyBiBr12
_chemical_formula_sum   'Cs6 Dy1 Bi1 Br12'
_cell_volume   844.75182840
_cell_formula_units_Z   1
loop_
 _symmetry_equiv_pos_site_id
 _symmetry_equiv_pos_as_xyz
  1  'x, y, z'
loop_
 _atom_site_type_symbol
 _atom_site_label
 _atom_site_symmetry_multiplicity
 _atom_site_fract_x
 _atom_site_fract_y
 _atom_site_fract_z
 _atom_site_occupancy
  Cs  Cs0  1  0.000000  0.000000  0.500000  1
  Cs  Cs1  1  0.000000  0.000000  0.000000  1
  Cs  Cs2  1  0.234209  0.584180  0.500000  1
  Cs  Cs3  1  0.765791  0.415820  0.500000  1
  Cs  Cs4  1  0.416191  0.236249  0.000000  1
  Cs  Cs5  1  0.583809  0.763751  0.000000  1
  Dy  Dy6  1  0.000000  0.500000  0.000000  1
  Bi  Bi7  1  0.500000  0.000000  0.500000  1
  Br  Br8  1  0.695993  0.059523  0.745016  1
  Br  Br9  1  0.304007  0.940477  0.745016  1
  Br  Br10  1  0.943355  0.691084  0.238780  1
  Br  Br11  1  0.056645  0.308916  0.238780  1
  Br  Br12  1  0.304007  0.940477  0.254984  1
  Br  Br13  1  0.695993  0.059523  0.254984  1
  Br  Br14  1  0.056645  0.308916  0.761220  1
  Br  Br15  1  0.943355  0.691084  0.761220  1
  Br  Br16  1  0.571290  0.722016  0.500000  1
  Br  Br17  1  0.428710  0.277984  0.500000  1
  Br  Br18  1  0.270540  0.570263  0.000000  1
  Br  Br19  1  0.729460  0.429737  0.000000  1
