# generated using pymatgen
data_Ba10Al4Si13Ge
_symmetry_space_group_name_H-M   'P 1'
_cell_length_a   6.72975410
_cell_length_b   6.72975358
_cell_length_c   18.35997636
_cell_angle_alpha   81.55572900
_cell_angle_beta   81.55572915
_cell_angle_gamma   100.84695189
_symmetry_Int_Tables_number   1
_chemical_formula_structural   Ba10Al4Si13Ge
_chemical_formula_sum   'Ba10 Al4 Si13 Ge1'
_cell_volume   794.67046540
_cell_formula_units_Z   1
loop_
 _symmetry_equiv_pos_site_id
 _symmetry_equiv_pos_as_xyz
  1  'x, y, z'
loop_
 _atom_site_type_symbol
 _atom_site_label
 _atom_site_symmetry_multiplicity
 _atom_site_fract_x
 _atom_site_fract_y
 _atom_site_fract_z
 _atom_site_occupancy
  Ba  Ba0  1  0.749806  0.249591  0.000334  1
  Ba  Ba1  1  0.120563  0.571822  0.788187  1
  Ba  Ba2  1  0.291074  0.709006  0.499967  1
  Ba  Ba3  1  0.762425  0.762425  0.643371  1
  Ba  Ba4  1  0.238362  0.238362  0.355876  1
  Ba  Ba5  1  0.571822  0.120563  0.788187  1
  Ba  Ba6  1  0.249591  0.749806  0.000334  1
  Ba  Ba7  1  0.709006  0.291074  0.499967  1
  Ba  Ba8  1  0.427720  0.879626  0.211845  1
  Ba  Ba9  1  0.879626  0.427720  0.211845  1
  Al  Al10  1  0.223000  0.223000  0.070427  1
  Al  Al11  1  0.925900  0.925900  0.263368  1
  Al  Al12  1  0.073576  0.073576  0.736775  1
  Al  Al13  1  0.777922  0.777922  0.931004  1
  Si  Si14  1  0.351312  0.351312  0.641979  1
  Si  Si15  1  0.292463  0.292463  0.931251  1
  Si  Si16  1  0.932863  0.932863  0.129508  1
  Si  Si17  1  0.648669  0.648669  0.358090  1
  Si  Si18  1  0.424244  0.424244  0.148881  1
  Si  Si19  1  0.066264  0.066264  0.870959  1
  Si  Si20  1  0.818656  0.818656  0.449147  1
  Si  Si21  1  0.329948  0.975097  0.641329  1
  Si  Si22  1  0.670164  0.024959  0.358738  1
  Si  Si23  1  0.181419  0.181419  0.550895  1
  Si  Si24  1  0.975097  0.329948  0.641329  1
  Si  Si25  1  0.024959  0.670164  0.358738  1
  Si  Si26  1  0.702564  0.702564  0.070035  1
  Ge  Ge27  1  0.580985  0.580985  0.847635  1
