# generated using pymatgen
data_Be6Co2TcMo3
_symmetry_space_group_name_H-M   'P 1'
_cell_length_a   4.53718800
_cell_length_b   4.53718794
_cell_length_c   7.15565800
_cell_angle_alpha   90.00000000
_cell_angle_beta   90.00000000
_cell_angle_gamma   120.00000044
_symmetry_Int_Tables_number   1
_chemical_formula_structural   Be6Co2TcMo3
_chemical_formula_sum   'Be6 Co2 Tc1 Mo3'
_cell_volume   127.57152558
_cell_formula_units_Z   1
loop_
 _symmetry_equiv_pos_site_id
 _symmetry_equiv_pos_as_xyz
  1  'x, y, z'
loop_
 _atom_site_type_symbol
 _atom_site_label
 _atom_site_symmetry_multiplicity
 _atom_site_fract_x
 _atom_site_fract_y
 _atom_site_fract_z
 _atom_site_occupancy
  Be  Be0  1  0.831857  0.168143  0.251520  1
  Be  Be1  1  0.831857  0.663714  0.251520  1
  Be  Be2  1  0.336286  0.168143  0.251520  1
  Be  Be3  1  0.168779  0.831221  0.749207  1
  Be  Be4  1  0.168779  0.337560  0.749207  1
  Be  Be5  1  0.662440  0.831221  0.749207  1
  Co  Co6  1  0.000000  0.000000  0.500652  1
  Co  Co7  1  0.000000  0.000000  0.000916  1
  Tc  Tc8  1  0.333333  0.666667  0.427044  1
  Mo  Mo9  1  0.666667  0.333333  0.564695  1
  Mo  Mo10  1  0.666667  0.333333  0.930879  1
  Mo  Mo11  1  0.333333  0.666667  0.073631  1
