# generated using pymatgen
data_Zr16Cd3Co4CuN4
_symmetry_space_group_name_H-M   'P 1'
_cell_length_a   8.81171382
_cell_length_b   8.81171366
_cell_length_c   8.81171471
_cell_angle_alpha   60.41724538
_cell_angle_beta   60.41724931
_cell_angle_gamma   60.41724781
_symmetry_Int_Tables_number   1
_chemical_formula_structural   Zr16Cd3Co4CuN4
_chemical_formula_sum   'Zr16 Cd3 Co4 Cu1 N4'
_cell_volume   488.36493807
_cell_formula_units_Z   1
loop_
 _symmetry_equiv_pos_site_id
 _symmetry_equiv_pos_as_xyz
  1  'x, y, z'
loop_
 _atom_site_type_symbol
 _atom_site_label
 _atom_site_symmetry_multiplicity
 _atom_site_fract_x
 _atom_site_fract_y
 _atom_site_fract_z
 _atom_site_occupancy
  Zr  Zr0  1  0.052724  0.647742  0.647742  1
  Zr  Zr1  1  0.647742  0.052724  0.647742  1
  Zr  Zr2  1  0.647742  0.647742  0.052724  1
  Zr  Zr3  1  0.651766  0.651766  0.651766  1
  Zr  Zr4  1  0.818357  0.818357  0.180976  1
  Zr  Zr5  1  0.181916  0.181916  0.818258  1
  Zr  Zr6  1  0.818357  0.180976  0.818357  1
  Zr  Zr7  1  0.181916  0.818258  0.181916  1
  Zr  Zr8  1  0.180976  0.818357  0.818357  1
  Zr  Zr9  1  0.818258  0.181916  0.181916  1
  Zr  Zr10  1  0.432007  0.432007  0.073587  1
  Zr  Zr11  1  0.069479  0.069479  0.431097  1
  Zr  Zr12  1  0.432007  0.073587  0.432007  1
  Zr  Zr13  1  0.069479  0.431097  0.069479  1
  Zr  Zr14  1  0.073587  0.432007  0.432007  1
  Zr  Zr15  1  0.431097  0.069479  0.069479  1
  Cd  Cd16  1  0.742588  0.417065  0.417065  1
  Cd  Cd17  1  0.417065  0.742588  0.417065  1
  Cd  Cd18  1  0.417065  0.417065  0.742588  1
  Co  Co19  1  0.434030  0.856216  0.856216  1
  Co  Co20  1  0.856216  0.434030  0.856216  1
  Co  Co21  1  0.856216  0.856216  0.434030  1
  Co  Co22  1  0.853962  0.853962  0.853962  1
  Cu  Cu23  1  0.414131  0.414131  0.414131  1
  N  N24  1  0.623018  0.126067  0.126067  1
  N  N25  1  0.126067  0.623018  0.126067  1
  N  N26  1  0.126067  0.126067  0.623018  1
  N  N27  1  0.126168  0.126168  0.126168  1
