# generated using pymatgen
data_Tb2Y6Tc3B24Os
_symmetry_space_group_name_H-M   'P 1'
_cell_length_a   3.68464200
_cell_length_b   9.17699314
_cell_length_c   11.56654405
_cell_angle_alpha   89.95786842
_cell_angle_beta   90.00000000
_cell_angle_gamma   90.00000000
_symmetry_Int_Tables_number   1
_chemical_formula_structural   Tb2Y6Tc3B24Os
_chemical_formula_sum   'Tb2 Y6 Tc3 B24 Os1'
_cell_volume   391.11025525
_cell_formula_units_Z   1
loop_
 _symmetry_equiv_pos_site_id
 _symmetry_equiv_pos_as_xyz
  1  'x, y, z'
loop_
 _atom_site_type_symbol
 _atom_site_label
 _atom_site_symmetry_multiplicity
 _atom_site_fract_x
 _atom_site_fract_y
 _atom_site_fract_z
 _atom_site_occupancy
  Tb  Tb0  1  0.000000  0.323902  0.413825  1
  Tb  Tb1  1  0.000000  0.675376  0.584438  1
  Y  Y2  1  0.000000  0.823089  0.087161  1
  Y  Y3  1  0.000000  0.177837  0.914553  1
  Y  Y4  1  0.000000  0.942415  0.370092  1
  Y  Y5  1  0.000000  0.058170  0.629991  1
  Y  Y6  1  0.000000  0.442939  0.130057  1
  Y  Y7  1  0.000000  0.557025  0.869658  1
  Tc  Tc8  1  0.000000  0.638390  0.320574  1
  Tc  Tc9  1  0.000000  0.361627  0.679961  1
  Tc  Tc10  1  0.000000  0.137810  0.178160  1
  B  B11  1  0.500000  0.553272  0.432569  1
  B  B12  1  0.500000  0.446724  0.567102  1
  B  B13  1  0.500000  0.053093  0.067069  1
  B  B14  1  0.500000  0.946237  0.932713  1
  B  B15  1  0.500000  0.748076  0.418398  1
  B  B16  1  0.500000  0.251488  0.581568  1
  B  B17  1  0.500000  0.248650  0.081484  1
  B  B18  1  0.500000  0.751778  0.918190  1
  B  B19  1  0.500000  0.791298  0.265629  1
  B  B20  1  0.500000  0.208771  0.734932  1
  B  B21  1  0.500000  0.291255  0.234545  1
  B  B22  1  0.500000  0.709525  0.765475  1
  B  B23  1  0.500000  0.631214  0.185911  1
  B  B24  1  0.500000  0.368748  0.814655  1
  B  B25  1  0.500000  0.130737  0.313785  1
  B  B26  1  0.500000  0.868860  0.686134  1
  B  B27  1  0.500000  0.982138  0.211692  1
  B  B28  1  0.500000  0.016655  0.788332  1
  B  B29  1  0.500000  0.482603  0.288083  1
  B  B30  1  0.500000  0.517266  0.711729  1
  B  B31  1  0.500000  0.602525  0.028313  1
  B  B32  1  0.500000  0.398493  0.971494  1
  B  B33  1  0.500000  0.102096  0.471676  1
  B  B34  1  0.500000  0.897998  0.528794  1
  Os  Os35  1  0.000000  0.861920  0.821259  1
