# generated using pymatgen
data_Lu10Hg3Bi2Au
_symmetry_space_group_name_H-M   'P 1'
_cell_length_a   8.61032149
_cell_length_b   8.61032199
_cell_length_c   8.63352411
_cell_angle_alpha   123.98624746
_cell_angle_beta   123.98624967
_cell_angle_gamma   83.05015564
_symmetry_Int_Tables_number   1
_chemical_formula_structural   Lu10Hg3Bi2Au
_chemical_formula_sum   'Lu10 Hg3 Bi2 Au1'
_cell_volume   422.65384210
_cell_formula_units_Z   1
loop_
 _symmetry_equiv_pos_site_id
 _symmetry_equiv_pos_as_xyz
  1  'x, y, z'
loop_
 _atom_site_type_symbol
 _atom_site_label
 _atom_site_symmetry_multiplicity
 _atom_site_fract_x
 _atom_site_fract_y
 _atom_site_fract_z
 _atom_site_occupancy
  Lu  Lu0  1  0.997914  0.995529  0.993442  1
  Lu  Lu1  1  0.504471  0.502086  0.006558  1
  Lu  Lu2  1  0.001940  0.508472  0.799971  1
  Lu  Lu3  1  0.701969  0.208501  0.200029  1
  Lu  Lu4  1  0.514973  0.698336  0.500000  1
  Lu  Lu5  1  0.201725  0.006947  0.500000  1
  Lu  Lu6  1  0.991528  0.498060  0.200029  1
  Lu  Lu7  1  0.291499  0.798031  0.799971  1
  Lu  Lu8  1  0.493053  0.298275  0.500000  1
  Lu  Lu9  1  0.801664  0.985027  0.500000  1
  Hg  Hg10  1  0.640169  0.140752  0.780920  1
  Hg  Hg11  1  0.359248  0.859831  0.219080  1
  Hg  Hg12  1  0.140264  0.359736  0.500000  1
  Bi  Bi13  1  0.748436  0.751564  0.000000  1
  Bi  Bi14  1  0.248436  0.251564  0.000000  1
  Au  Au15  1  0.862712  0.637288  0.500000  1
