# generated using pymatgen
data_TmLu3FeSi4Rh
_symmetry_space_group_name_H-M   'P 1'
_cell_length_a   5.54139853
_cell_length_b   5.54139847
_cell_length_c   9.82270745
_cell_angle_alpha   63.67959890
_cell_angle_beta   63.67960116
_cell_angle_gamma   43.85164809
_symmetry_Int_Tables_number   1
_chemical_formula_structural   TmLu3FeSi4Rh
_chemical_formula_sum   'Tm1 Lu3 Fe1 Si4 Rh1'
_cell_volume   183.55084886
_cell_formula_units_Z   1
loop_
 _symmetry_equiv_pos_site_id
 _symmetry_equiv_pos_as_xyz
  1  'x, y, z'
loop_
 _atom_site_type_symbol
 _atom_site_label
 _atom_site_symmetry_multiplicity
 _atom_site_fract_x
 _atom_site_fract_y
 _atom_site_fract_z
 _atom_site_occupancy
  Tm  Tm0  1  0.185849  0.185849  0.891503  1
  Lu  Lu1  1  0.002481  0.002481  0.324431  1
  Lu  Lu2  1  0.000659  0.000659  0.672016  1
  Lu  Lu3  1  0.812986  0.812986  0.108680  1
  Fe  Fe4  1  0.271584  0.271584  0.374734  1
  Si  Si5  1  0.648634  0.648634  0.430885  1
  Si  Si6  1  0.363434  0.363434  0.556985  1
  Si  Si7  1  0.501953  0.501953  0.128205  1
  Si  Si8  1  0.484206  0.484206  0.881986  1
  Rh  Rh9  1  0.728214  0.728214  0.630575  1
