# generated using pymatgen
data_TbTm3(CBr)2
_symmetry_space_group_name_H-M   'P 1'
_cell_length_a   3.65140900
_cell_length_b   3.65140879
_cell_length_c   13.96101000
_cell_angle_alpha   90.00000000
_cell_angle_beta   90.00000000
_cell_angle_gamma   119.99999284
_symmetry_Int_Tables_number   1
_chemical_formula_structural   TbTm3(CBr)2
_chemical_formula_sum   'Tb1 Tm3 C2 Br2'
_cell_volume   161.20126279
_cell_formula_units_Z   1
loop_
 _symmetry_equiv_pos_site_id
 _symmetry_equiv_pos_as_xyz
  1  'x, y, z'
loop_
 _atom_site_type_symbol
 _atom_site_label
 _atom_site_symmetry_multiplicity
 _atom_site_fract_x
 _atom_site_fract_y
 _atom_site_fract_z
 _atom_site_occupancy
  Tb  Tb0  1  0.333333  0.666667  0.909552  1
  Tm  Tm1  1  0.333333  0.666667  0.587730  1
  Tm  Tm2  1  0.666667  0.333333  0.411164  1
  Tm  Tm3  1  0.666667  0.333333  0.090449  1
  C  C4  1  0.000000  0.000000  0.005115  1
  C  C5  1  0.000000  0.000000  0.499316  1
  Br  Br6  1  0.333333  0.666667  0.251673  1
  Br  Br7  1  0.666667  0.333333  0.745001  1
