# generated using pymatgen
data_Dy9Y3ZnGaCo4
_symmetry_space_group_name_H-M   'P 1'
_cell_length_a   8.27713539
_cell_length_b   8.27713427
_cell_length_c   8.26861635
_cell_angle_alpha   106.99332759
_cell_angle_beta   109.47096989
_cell_angle_gamma   112.02764655
_symmetry_Int_Tables_number   1
_chemical_formula_structural   Dy9Y3ZnGaCo4
_chemical_formula_sum   'Dy9 Y3 Zn1 Ga1 Co4'
_cell_volume   435.03229346
_cell_formula_units_Z   1
loop_
 _symmetry_equiv_pos_site_id
 _symmetry_equiv_pos_as_xyz
  1  'x, y, z'
loop_
 _atom_site_type_symbol
 _atom_site_label
 _atom_site_symmetry_multiplicity
 _atom_site_fract_x
 _atom_site_fract_y
 _atom_site_fract_z
 _atom_site_occupancy
  Dy  Dy0  1  0.695787  0.262925  0.958711  1
  Dy  Dy1  1  0.187991  0.514691  0.327007  1
  Dy  Dy2  1  0.188132  0.861339  0.673432  1
  Dy  Dy3  1  0.812093  0.485300  0.673432  1
  Dy  Dy4  1  0.812317  0.139016  0.327007  1
  Dy  Dy5  1  0.399206  0.219538  0.178860  1
  Dy  Dy6  1  0.039960  0.220078  0.820945  1
  Dy  Dy7  1  0.959323  0.779654  0.178860  1
  Dy  Dy8  1  0.600868  0.780984  0.820945  1
  Y  Y9  1  0.305525  0.261838  0.567361  1
  Y  Y10  1  0.695089  0.738143  0.433232  1
  Y  Y11  1  0.305595  0.737892  0.043487  1
  Zn  Zn12  1  0.500493  0.499760  0.000252  1
  Ga  Ga13  1  0.500262  0.000027  0.500288  1
  Co  Co14  1  0.161098  0.499921  0.661019  1
  Co  Co15  1  0.836603  0.498953  0.335556  1
  Co  Co16  1  0.999839  0.114470  0.114308  1
  Co  Co17  1  0.999821  0.885472  0.885294  1
