# generated using pymatgen
data_Lu12Th8Si15Sb
_symmetry_space_group_name_H-M   'P 1'
_cell_length_a   7.50462387
_cell_length_b   7.70199233
_cell_length_c   14.58040900
_cell_angle_alpha   89.94524088
_cell_angle_beta   89.26120485
_cell_angle_gamma   90.03854673
_symmetry_Int_Tables_number   1
_chemical_formula_structural   Lu12Th8Si15Sb
_chemical_formula_sum   'Lu12 Th8 Si15 Sb1'
_cell_volume   842.68509678
_cell_formula_units_Z   1
loop_
 _symmetry_equiv_pos_site_id
 _symmetry_equiv_pos_as_xyz
  1  'x, y, z'
loop_
 _atom_site_type_symbol
 _atom_site_label
 _atom_site_symmetry_multiplicity
 _atom_site_fract_x
 _atom_site_fract_y
 _atom_site_fract_z
 _atom_site_occupancy
  Lu  Lu0  1  0.180017  0.505843  0.755049  1
  Lu  Lu1  1  0.819723  0.494766  0.249128  1
  Lu  Lu2  1  0.319513  0.005563  0.248656  1
  Lu  Lu3  1  0.682916  0.994018  0.753132  1
  Lu  Lu4  1  0.361918  0.156113  0.626380  1
  Lu  Lu5  1  0.643648  0.830128  0.376248  1
  Lu  Lu6  1  0.141045  0.676451  0.371516  1
  Lu  Lu7  1  0.650157  0.827597  0.122563  1
  Lu  Lu8  1  0.842595  0.330735  0.624969  1
  Lu  Lu9  1  0.348726  0.171926  0.877240  1
  Lu  Lu10  1  0.848637  0.329114  0.877124  1
  Lu  Lu11  1  0.151188  0.671159  0.123123  1
  Th  Th12  1  0.998001  0.180022  0.095815  1
  Th  Th13  1  0.002596  0.821339  0.904628  1
  Th  Th14  1  0.502379  0.679667  0.904522  1
  Th  Th15  1  0.006707  0.827493  0.598518  1
  Th  Th16  1  0.497881  0.320389  0.096527  1
  Th  Th17  1  0.989751  0.175170  0.399891  1
  Th  Th18  1  0.499804  0.315404  0.398851  1
  Th  Th19  1  0.518432  0.687075  0.600094  1
  Si  Si20  1  0.054788  0.117584  0.749811  1
  Si  Si21  1  0.943506  0.886523  0.247895  1
  Si  Si22  1  0.445110  0.613890  0.249675  1
  Si  Si23  1  0.551682  0.386449  0.750736  1
  Si  Si24  1  0.304527  0.869678  0.752301  1
  Si  Si25  1  0.697310  0.125579  0.247326  1
  Si  Si26  1  0.196722  0.372406  0.248977  1
  Si  Si27  1  0.806724  0.629670  0.751758  1
  Si  Si28  1  0.801243  0.538848  0.456988  1
  Si  Si29  1  0.304629  0.961911  0.457715  1
  Si  Si30  1  0.815040  0.536999  0.041555  1
  Si  Si31  1  0.696159  0.039218  0.541068  1
  Si  Si32  1  0.184640  0.462868  0.959181  1
  Si  Si33  1  0.684475  0.037587  0.959055  1
  Si  Si34  1  0.314810  0.963020  0.041646  1
  Sb  Sb35  1  0.192999  0.457801  0.540345  1
