# generated using pymatgen
data_Er4Tm7(Lu3Bi4)3
_symmetry_space_group_name_H-M   'P 1'
_cell_length_a   8.16573017
_cell_length_b   9.42552907
_cell_length_c   11.85551725
_cell_angle_alpha   89.98950636
_cell_angle_beta   89.97865988
_cell_angle_gamma   90.00876113
_symmetry_Int_Tables_number   1
_chemical_formula_structural   Er4Tm7(Lu3Bi4)3
_chemical_formula_sum   'Er4 Tm7 Lu9 Bi12'
_cell_volume   912.47552889
_cell_formula_units_Z   1
loop_
 _symmetry_equiv_pos_site_id
 _symmetry_equiv_pos_as_xyz
  1  'x, y, z'
loop_
 _atom_site_type_symbol
 _atom_site_label
 _atom_site_symmetry_multiplicity
 _atom_site_fract_x
 _atom_site_fract_y
 _atom_site_fract_z
 _atom_site_occupancy
  Er  Er0  1  0.313028  0.250021  0.217276  1
  Er  Er1  1  0.813073  0.249999  0.282727  1
  Er  Er2  1  0.686941  0.750022  0.782721  1
  Er  Er3  1  0.186994  0.749980  0.717308  1
  Tm  Tm4  1  0.352506  0.750015  0.217677  1
  Tm  Tm5  1  0.852556  0.750022  0.282293  1
  Tm  Tm6  1  0.647544  0.250053  0.782288  1
  Tm  Tm7  1  0.147441  0.250029  0.717663  1
  Tm  Tm8  1  0.691996  0.566705  0.059088  1
  Tm  Tm9  1  0.191953  0.933243  0.440919  1
  Tm  Tm10  1  0.308049  0.066682  0.940937  1
  Lu  Lu11  1  0.808001  0.433104  0.559069  1
  Lu  Lu12  1  0.308042  0.433172  0.940913  1
  Lu  Lu13  1  0.808024  0.066935  0.559082  1
  Lu  Lu14  1  0.691942  0.933146  0.059076  1
  Lu  Lu15  1  0.191974  0.566872  0.440911  1
  Lu  Lu16  1  0.477844  0.250029  0.489239  1
  Lu  Lu17  1  0.977702  0.250021  0.010787  1
  Lu  Lu18  1  0.522267  0.749954  0.510793  1
  Lu  Lu19  1  0.022242  0.750050  0.989204  1
  Bi  Bi20  1  0.402625  0.749834  0.957728  1
  Bi  Bi21  1  0.902579  0.749895  0.542303  1
  Bi  Bi22  1  0.597393  0.249831  0.042256  1
  Bi  Bi23  1  0.097299  0.250255  0.457761  1
  Bi  Bi24  1  0.565408  0.995502  0.325431  1
  Bi  Bi25  1  0.065359  0.504518  0.174584  1
  Bi  Bi26  1  0.434655  0.495516  0.674564  1
  Bi  Bi27  1  0.934612  0.004528  0.825416  1
  Bi  Bi28  1  0.434616  0.004486  0.674567  1
  Bi  Bi29  1  0.934602  0.495541  0.825407  1
  Bi  Bi30  1  0.565350  0.504516  0.325452  1
  Bi  Bi31  1  0.065383  0.995521  0.174558  1
