# generated using pymatgen
data_Ho6TcPd
_symmetry_space_group_name_H-M   'P 1'
_cell_length_a   6.35158806
_cell_length_b   7.34220609
_cell_length_c   9.18435900
_cell_angle_alpha   90.00000000
_cell_angle_beta   90.00000000
_cell_angle_gamma   90.20622206
_symmetry_Int_Tables_number   1
_chemical_formula_structural   Ho6TcPd
_chemical_formula_sum   'Ho12 Tc2 Pd2'
_cell_volume   428.30676322
_cell_formula_units_Z   2
loop_
 _symmetry_equiv_pos_site_id
 _symmetry_equiv_pos_as_xyz
  1  'x, y, z'
loop_
 _atom_site_type_symbol
 _atom_site_label
 _atom_site_symmetry_multiplicity
 _atom_site_fract_x
 _atom_site_fract_y
 _atom_site_fract_z
 _atom_site_occupancy
  Ho  Ho0  1  0.628753  0.038703  0.250000  1
  Ho  Ho1  1  0.371247  0.961297  0.750000  1
  Ho  Ho2  1  0.124094  0.469246  0.750000  1
  Ho  Ho3  1  0.875906  0.530754  0.250000  1
  Ho  Ho4  1  0.176861  0.185700  0.064278  1
  Ho  Ho5  1  0.823139  0.814300  0.935722  1
  Ho  Ho6  1  0.661592  0.326322  0.940420  1
  Ho  Ho7  1  0.823139  0.814300  0.564278  1
  Ho  Ho8  1  0.338408  0.673678  0.059580  1
  Ho  Ho9  1  0.176861  0.185700  0.435722  1
  Ho  Ho10  1  0.338408  0.673678  0.440420  1
  Ho  Ho11  1  0.661592  0.326322  0.559580  1
  Tc  Tc12  1  0.465420  0.382691  0.250000  1
  Tc  Tc13  1  0.534580  0.617309  0.750000  1
  Pd  Pd14  1  0.949058  0.113189  0.750000  1
  Pd  Pd15  1  0.050942  0.886811  0.250000  1
