# generated using pymatgen
data_Ac11PrPd12
_symmetry_space_group_name_H-M   'P 1'
_cell_length_a   6.10749516
_cell_length_b   4.74053100
_cell_length_c   23.62194876
_cell_angle_alpha   89.99869390
_cell_angle_beta   96.87709147
_cell_angle_gamma   90.00055017
_symmetry_Int_Tables_number   1
_chemical_formula_structural   Ac11PrPd12
_chemical_formula_sum   'Ac11 Pr1 Pd12'
_cell_volume   679.00024530
_cell_formula_units_Z   1
loop_
 _symmetry_equiv_pos_site_id
 _symmetry_equiv_pos_as_xyz
  1  'x, y, z'
loop_
 _atom_site_type_symbol
 _atom_site_label
 _atom_site_symmetry_multiplicity
 _atom_site_fract_x
 _atom_site_fract_y
 _atom_site_fract_z
 _atom_site_occupancy
  Ac  Ac0  1  0.170599  0.749989  0.104451  1
  Ac  Ac1  1  0.509191  0.249920  0.226093  1
  Ac  Ac2  1  0.028128  0.749970  0.271997  1
  Ac  Ac3  1  0.805864  0.249998  0.394433  1
  Ac  Ac4  1  0.328548  0.750016  0.438740  1
  Ac  Ac5  1  0.671143  0.250024  0.561325  1
  Ac  Ac6  1  0.193741  0.750023  0.605450  1
  Ac  Ac7  1  0.971249  0.250015  0.727389  1
  Ac  Ac8  1  0.490971  0.750013  0.772810  1
  Ac  Ac9  1  0.830340  0.250018  0.895514  1
  Ac  Ac10  1  0.330462  0.750020  0.940990  1
  Pr  Pr11  1  0.674742  0.250011  0.061447  1
  Pd  Pd12  1  0.162896  0.250019  0.015069  1
  Pd  Pd13  1  0.684322  0.749945  0.149790  1
  Pd  Pd14  1  0.990353  0.249955  0.179991  1
  Pd  Pd15  1  0.557260  0.749956  0.318932  1
  Pd  Pd16  1  0.276836  0.249992  0.347494  1
  Pd  Pd17  1  0.847190  0.750018  0.486256  1
  Pd  Pd18  1  0.152649  0.250022  0.514273  1
  Pd  Pd19  1  0.723076  0.750026  0.652239  1
  Pd  Pd20  1  0.442392  0.250016  0.680701  1
  Pd  Pd21  1  0.004011  0.750015  0.819031  1
  Pd  Pd22  1  0.317326  0.250018  0.847520  1
  Pd  Pd23  1  0.836713  0.750013  0.988067  1
