# generated using pymatgen
data_Ta10Ga4SiAs
_symmetry_space_group_name_H-M   'P 1'
_cell_length_a   6.69440781
_cell_length_b   7.63540416
_cell_length_c   6.69678039
_cell_angle_alpha   115.96889285
_cell_angle_beta   90.08517161
_cell_angle_gamma   115.95898107
_symmetry_Int_Tables_number   1
_chemical_formula_structural   Ta10Ga4SiAs
_chemical_formula_sum   'Ta10 Ga4 Si1 As1'
_cell_volume   268.67615345
_cell_formula_units_Z   1
loop_
 _symmetry_equiv_pos_site_id
 _symmetry_equiv_pos_as_xyz
  1  'x, y, z'
loop_
 _atom_site_type_symbol
 _atom_site_label
 _atom_site_symmetry_multiplicity
 _atom_site_fract_x
 _atom_site_fract_y
 _atom_site_fract_z
 _atom_site_occupancy
  Ta  Ta0  1  0.993907  0.000000  0.000753  1
  Ta  Ta1  1  0.502958  0.000000  0.498160  1
  Ta  Ta2  1  0.510099  0.694592  0.689536  1
  Ta  Ta3  1  0.188105  0.692680  0.009937  1
  Ta  Ta4  1  0.683585  0.698352  0.183332  1
  Ta  Ta5  1  0.007282  0.691628  0.507013  1
  Ta  Ta6  1  0.495427  0.307320  0.317259  1
  Ta  Ta7  1  0.815507  0.305408  0.994944  1
  Ta  Ta8  1  0.315654  0.308372  0.815386  1
  Ta  Ta9  1  0.985234  0.301648  0.484980  1
  Ga  Ga10  1  0.751535  0.500073  0.752636  1
  Ga  Ga11  1  0.251462  0.499927  0.252563  1
  Ga  Ga12  1  0.138820  0.000000  0.361798  1
  Ga  Ga13  1  0.363989  0.000000  0.866447  1
  Si  Si14  1  0.628732  0.000000  0.131737  1
  As  As15  1  0.867707  0.000000  0.633519  1
