# generated using pymatgen
data_Sm5Er2Tm(Si3Rh)4
_symmetry_space_group_name_H-M   'P 1'
_cell_length_a   8.19817002
_cell_length_b   8.19817091
_cell_length_c   8.04381900
_cell_angle_alpha   90.00000000
_cell_angle_beta   90.00000000
_cell_angle_gamma   119.99165187
_symmetry_Int_Tables_number   1
_chemical_formula_structural   Sm5Er2Tm(Si3Rh)4
_chemical_formula_sum   'Sm5 Er2 Tm1 Si12 Rh4'
_cell_volume   468.23442200
_cell_formula_units_Z   1
loop_
 _symmetry_equiv_pos_site_id
 _symmetry_equiv_pos_as_xyz
  1  'x, y, z'
loop_
 _atom_site_type_symbol
 _atom_site_label
 _atom_site_symmetry_multiplicity
 _atom_site_fract_x
 _atom_site_fract_y
 _atom_site_fract_z
 _atom_site_occupancy
  Sm  Sm0  1  0.999987  0.000013  0.250000  1
  Sm  Sm1  1  0.000005  0.999995  0.750000  1
  Sm  Sm2  1  0.495457  0.504543  0.250000  1
  Sm  Sm3  1  0.495459  0.990903  0.250000  1
  Sm  Sm4  1  0.009097  0.504541  0.250000  1
  Er  Er5  1  0.986019  0.493038  0.750000  1
  Er  Er6  1  0.506962  0.013981  0.750000  1
  Tm  Tm7  1  0.506996  0.493004  0.750000  1
  Si  Si8  1  0.833515  0.166485  0.504561  1
  Si  Si9  1  0.833445  0.666993  0.504619  1
  Si  Si10  1  0.333007  0.166555  0.504619  1
  Si  Si11  1  0.833515  0.166485  0.995439  1
  Si  Si12  1  0.833445  0.666993  0.995381  1
  Si  Si13  1  0.333007  0.166555  0.995381  1
  Si  Si14  1  0.167937  0.832063  0.997037  1
  Si  Si15  1  0.664098  0.832012  0.997016  1
  Si  Si16  1  0.167988  0.335902  0.997016  1
  Si  Si17  1  0.167937  0.832063  0.502963  1
  Si  Si18  1  0.664098  0.832012  0.502984  1
  Si  Si19  1  0.167988  0.335902  0.502984  1
  Rh  Rh20  1  0.666623  0.333377  0.492231  1
  Rh  Rh21  1  0.666623  0.333377  0.007769  1
  Rh  Rh22  1  0.333396  0.666604  0.959381  1
  Rh  Rh23  1  0.333396  0.666604  0.540619  1
