# generated using pymatgen
data_TbRuI18
_symmetry_space_group_name_H-M   'P 1'
_cell_length_a   10.34809594
_cell_length_b   10.34809384
_cell_length_c   10.34809461
_cell_angle_alpha   94.65762013
_cell_angle_beta   94.65761317
_cell_angle_gamma   94.65762004
_symmetry_Int_Tables_number   1
_chemical_formula_structural   TbRuI18
_chemical_formula_sum   'Tb1 Ru1 I18'
_cell_volume   1096.49187817
_cell_formula_units_Z   1
loop_
 _symmetry_equiv_pos_site_id
 _symmetry_equiv_pos_as_xyz
  1  'x, y, z'
loop_
 _atom_site_type_symbol
 _atom_site_label
 _atom_site_symmetry_multiplicity
 _atom_site_fract_x
 _atom_site_fract_y
 _atom_site_fract_z
 _atom_site_occupancy
  Tb  Tb0  1  0.500000  0.500000  0.500000  1
  Ru  Ru1  1  0.000000  0.000000  0.000000  1
  I  I2  1  0.262761  0.011570  0.023519  1
  I  I3  1  0.023519  0.262761  0.011570  1
  I  I4  1  0.011570  0.023519  0.262761  1
  I  I5  1  0.737239  0.988430  0.976481  1
  I  I6  1  0.976481  0.737239  0.988430  1
  I  I7  1  0.988430  0.976481  0.737239  1
  I  I8  1  0.641091  0.218218  0.105481  1
  I  I9  1  0.105481  0.641091  0.218218  1
  I  I10  1  0.218218  0.105481  0.641091  1
  I  I11  1  0.358909  0.781782  0.894519  1
  I  I12  1  0.894519  0.358909  0.781782  1
  I  I13  1  0.781782  0.894519  0.358909  1
  I  I14  1  0.459878  0.208293  0.530149  1
  I  I15  1  0.530149  0.459878  0.208293  1
  I  I16  1  0.208293  0.530149  0.459878  1
  I  I17  1  0.540122  0.791707  0.469851  1
  I  I18  1  0.469851  0.540122  0.791707  1
  I  I19  1  0.791707  0.469851  0.540122  1
