# generated using pymatgen
data_Dy5Co16Mo3As7P5
_symmetry_space_group_name_H-M   'P 1'
_cell_length_a   12.36455062
_cell_length_b   12.37220167
_cell_length_c   3.79249600
_cell_angle_alpha   90.00000000
_cell_angle_beta   90.00000000
_cell_angle_gamma   120.01572370
_symmetry_Int_Tables_number   1
_chemical_formula_structural   Dy5Co16Mo3As7P5
_chemical_formula_sum   'Dy5 Co16 Mo3 As7 P5'
_cell_volume   502.35676862
_cell_formula_units_Z   1
loop_
 _symmetry_equiv_pos_site_id
 _symmetry_equiv_pos_as_xyz
  1  'x, y, z'
loop_
 _atom_site_type_symbol
 _atom_site_label
 _atom_site_symmetry_multiplicity
 _atom_site_fract_x
 _atom_site_fract_y
 _atom_site_fract_z
 _atom_site_occupancy
  Dy  Dy0  1  0.666647  0.333763  0.000000  1
  Dy  Dy1  1  0.334482  0.661660  0.000000  1
  Dy  Dy2  1  0.180042  0.180115  0.500000  1
  Dy  Dy3  1  0.821211  0.000638  0.500000  1
  Dy  Dy4  1  0.998460  0.819935  0.500000  1
  Co  Co5  1  0.830791  0.198473  0.000000  1
  Co  Co6  1  0.800797  0.631863  0.000000  1
  Co  Co7  1  0.367650  0.171012  0.000000  1
  Co  Co8  1  0.196389  0.826867  0.000000  1
  Co  Co9  1  0.625734  0.798253  0.000000  1
  Co  Co10  1  0.174103  0.375820  0.000000  1
  Co  Co11  1  0.646173  0.124145  0.500000  1
  Co  Co12  1  0.876147  0.521802  0.500000  1
  Co  Co13  1  0.477220  0.354903  0.500000  1
  Co  Co14  1  0.128118  0.638111  0.500000  1
  Co  Co15  1  0.520283  0.867607  0.500000  1
  Co  Co16  1  0.354733  0.488700  0.500000  1
  Co  Co17  1  0.719580  0.724978  0.500000  1
  Co  Co18  1  0.273616  0.998558  0.500000  1
  Co  Co19  1  0.005915  0.280480  0.500000  1
  Co  Co20  1  0.999343  0.000379  0.000000  1
  Mo  Mo21  1  0.553135  0.559865  0.000000  1
  Mo  Mo22  1  0.443349  0.998328  0.000000  1
  Mo  Mo23  1  0.005666  0.446006  0.000000  1
  As  As24  1  0.357296  0.359097  0.000000  1
  As  As25  1  0.641926  0.998643  0.000000  1
  As  As26  1  0.000041  0.641892  0.000000  1
  As  As27  1  0.836105  0.315493  0.500000  1
  As  As28  1  0.684011  0.520374  0.500000  1
  As  As29  1  0.479321  0.164825  0.500000  1
  As  As30  1  0.314428  0.831770  0.500000  1
  P  P31  1  0.522187  0.686687  0.500000  1
  P  P32  1  0.165635  0.477515  0.500000  1
  P  P33  1  0.821505  0.823576  0.000000  1
  P  P34  1  0.175718  0.999001  0.000000  1
  P  P35  1  0.002242  0.178866  0.000000  1
