# generated using pymatgen
data_La6Pr2SiPd24
_symmetry_space_group_name_H-M   'P 1'
_cell_length_a   8.53159667
_cell_length_b   8.53159667
_cell_length_c   8.53159667
_cell_angle_alpha   90.03220405
_cell_angle_beta   89.96779595
_cell_angle_gamma   89.96779595
_symmetry_Int_Tables_number   1
_chemical_formula_structural   La6Pr2SiPd24
_chemical_formula_sum   'La6 Pr2 Si1 Pd24'
_cell_volume   620.99877417
_cell_formula_units_Z   1
loop_
 _symmetry_equiv_pos_site_id
 _symmetry_equiv_pos_as_xyz
  1  'x, y, z'
loop_
 _atom_site_type_symbol
 _atom_site_label
 _atom_site_symmetry_multiplicity
 _atom_site_fract_x
 _atom_site_fract_y
 _atom_site_fract_z
 _atom_site_occupancy
  La  La0  1  0.253862  0.253780  0.253780  1
  La  La1  1  0.746138  0.746220  0.746220  1
  La  La2  1  0.746220  0.746138  0.253780  1
  La  La3  1  0.746220  0.253780  0.746138  1
  La  La4  1  0.253780  0.253862  0.746220  1
  La  La5  1  0.253780  0.746220  0.253862  1
  Pr  Pr6  1  0.253316  0.746684  0.746684  1
  Pr  Pr7  1  0.746684  0.253316  0.253316  1
  Si  Si8  1  0.000000  0.000000  0.000000  1
  Pd  Pd9  1  0.256981  0.499964  0.000070  1
  Pd  Pd10  1  0.743019  0.500036  0.999930  1
  Pd  Pd11  1  0.000070  0.256981  0.500036  1
  Pd  Pd12  1  0.499964  0.256981  0.999930  1
  Pd  Pd13  1  0.999930  0.743019  0.499964  1
  Pd  Pd14  1  0.500036  0.743019  0.000070  1
  Pd  Pd15  1  0.499964  0.999930  0.256981  1
  Pd  Pd16  1  0.256981  0.000070  0.499964  1
  Pd  Pd17  1  0.500036  0.000070  0.743019  1
  Pd  Pd18  1  0.743019  0.999930  0.500036  1
  Pd  Pd19  1  0.000070  0.500036  0.256981  1
  Pd  Pd20  1  0.999930  0.499964  0.743019  1
  Pd  Pd21  1  0.252162  0.499920  0.499920  1
  Pd  Pd22  1  0.747838  0.500080  0.500080  1
  Pd  Pd23  1  0.499920  0.252162  0.500080  1
  Pd  Pd24  1  0.500080  0.747838  0.499920  1
  Pd  Pd25  1  0.499920  0.500080  0.252162  1
  Pd  Pd26  1  0.500080  0.499920  0.747838  1
  Pd  Pd27  1  0.280696  0.999870  0.999870  1
  Pd  Pd28  1  0.719304  0.000130  0.000130  1
  Pd  Pd29  1  0.999870  0.280696  0.000130  1
  Pd  Pd30  1  0.000130  0.719304  0.999870  1
  Pd  Pd31  1  0.999870  0.000130  0.280696  1
  Pd  Pd32  1  0.000130  0.999870  0.719304  1
