# generated using pymatgen
data_AgS8I3
_symmetry_space_group_name_H-M   'P 1'
_cell_length_a   8.55100392
_cell_length_b   10.71373906
_cell_length_c   12.33798235
_cell_angle_alpha   107.36379937
_cell_angle_beta   93.86645449
_cell_angle_gamma   107.46906477
_symmetry_Int_Tables_number   1
_chemical_formula_structural   AgS8I3
_chemical_formula_sum   'Ag2 S16 I6'
_cell_volume   1013.63593149
_cell_formula_units_Z   2
loop_
 _symmetry_equiv_pos_site_id
 _symmetry_equiv_pos_as_xyz
  1  'x, y, z'
loop_
 _atom_site_type_symbol
 _atom_site_label
 _atom_site_symmetry_multiplicity
 _atom_site_fract_x
 _atom_site_fract_y
 _atom_site_fract_z
 _atom_site_occupancy
  Ag  Ag0  1  0.897280  0.973617  0.856574  1
  Ag  Ag1  1  0.102720  0.026383  0.143426  1
  S  S2  1  0.837610  0.523998  0.822034  1
  S  S3  1  0.162390  0.476002  0.177966  1
  S  S4  1  0.761046  0.440887  0.645811  1
  S  S5  1  0.238954  0.559113  0.354189  1
  S  S6  1  0.776962  0.244274  0.588513  1
  S  S7  1  0.223038  0.755726  0.411487  1
  S  S8  1  0.996747  0.253750  0.526563  1
  S  S9  1  0.003253  0.746250  0.473437  1
  S  S10  1  0.916533  0.349284  0.143023  1
  S  S11  1  0.083467  0.650716  0.856977  1
  S  S12  1  0.765740  0.458238  0.112892  1
  S  S13  1  0.234260  0.541762  0.887108  1
  S  S14  1  0.679890  0.536249  0.261873  1
  S  S15  1  0.320110  0.463751  0.738127  1
  S  S16  1  0.827984  0.739956  0.346641  1
  S  S17  1  0.172016  0.260044  0.653359  1
  I  I18  1  0.434666  0.996379  0.804558  1
  I  I19  1  0.565334  0.003621  0.195442  1
  I  I20  1  0.776950  0.873468  0.045665  1
  I  I21  1  0.223050  0.126532  0.954335  1
  I  I22  1  0.655532  0.882420  0.668805  1
  I  I23  1  0.344468  0.117580  0.331195  1
