# generated using pymatgen
data_Ce2BeNi16H3
_symmetry_space_group_name_H-M   'P 1'
_cell_length_a   6.29666702
_cell_length_b   6.27851125
_cell_length_c   6.27851044
_cell_angle_alpha   83.28518767
_cell_angle_beta   84.06021447
_cell_angle_gamma   84.06019825
_symmetry_Int_Tables_number   1
_chemical_formula_structural   Ce2BeNi16H3
_chemical_formula_sum   'Ce2 Be1 Ni16 H3'
_cell_volume   244.13517494
_cell_formula_units_Z   1
loop_
 _symmetry_equiv_pos_site_id
 _symmetry_equiv_pos_as_xyz
  1  'x, y, z'
loop_
 _atom_site_type_symbol
 _atom_site_label
 _atom_site_symmetry_multiplicity
 _atom_site_fract_x
 _atom_site_fract_y
 _atom_site_fract_z
 _atom_site_occupancy
  Ce  Ce0  1  0.664343  0.660396  0.660396  1
  Ce  Ce1  1  0.335657  0.339604  0.339604  1
  Be  Be2  1  0.500000  0.000000  0.000000  1
  Ni  Ni3  1  0.000000  0.000000  0.500000  1
  Ni  Ni4  1  0.000000  0.500000  0.000000  1
  Ni  Ni5  1  0.706504  0.284117  0.998025  1
  Ni  Ni6  1  0.000000  0.711884  0.288116  1
  Ni  Ni7  1  0.293496  0.001975  0.715883  1
  Ni  Ni8  1  0.000000  0.288116  0.711884  1
  Ni  Ni9  1  0.706504  0.998025  0.284117  1
  Ni  Ni10  1  0.293496  0.715883  0.001975  1
  Ni  Ni11  1  0.347677  0.342444  0.855979  1
  Ni  Ni12  1  0.846866  0.345996  0.345996  1
  Ni  Ni13  1  0.347677  0.855979  0.342444  1
  Ni  Ni14  1  0.652323  0.657556  0.144021  1
  Ni  Ni15  1  0.153134  0.654004  0.654004  1
  Ni  Ni16  1  0.652323  0.144021  0.657556  1
  Ni  Ni17  1  0.897804  0.900366  0.900366  1
  Ni  Ni18  1  0.102196  0.099634  0.099634  1
  H  H19  1  0.500000  0.500000  0.000000  1
  H  H20  1  0.000000  0.500000  0.500000  1
  H  H21  1  0.500000  0.000000  0.500000  1
