# generated using pymatgen
data_Ho3In3HgRuRh
_symmetry_space_group_name_H-M   'P 1'
_cell_length_a   7.85829500
_cell_length_b   7.85829466
_cell_length_c   3.78556000
_cell_angle_alpha   90.00000000
_cell_angle_beta   90.00000000
_cell_angle_gamma   119.99999721
_symmetry_Int_Tables_number   1
_chemical_formula_structural   Ho3In3HgRuRh
_chemical_formula_sum   'Ho3 In3 Hg1 Ru1 Rh1'
_cell_volume   202.44982964
_cell_formula_units_Z   1
loop_
 _symmetry_equiv_pos_site_id
 _symmetry_equiv_pos_as_xyz
  1  'x, y, z'
loop_
 _atom_site_type_symbol
 _atom_site_label
 _atom_site_symmetry_multiplicity
 _atom_site_fract_x
 _atom_site_fract_y
 _atom_site_fract_z
 _atom_site_occupancy
  Ho  Ho0  1  0.965210  0.383645  0.500000  1
  Ho  Ho1  1  0.616355  0.581565  0.500000  1
  Ho  Ho2  1  0.418435  0.034790  0.500000  1
  In  In3  1  0.259270  0.255190  0.000000  1
  In  In4  1  0.995921  0.740730  0.000000  1
  In  In5  1  0.744810  0.004079  0.000000  1
  Hg  Hg6  1  0.333333  0.666667  0.000000  1
  Ru  Ru7  1  0.666667  0.333333  0.000000  1
  Rh  Rh8  1  0.000000  0.000000  0.500000  1
