# generated using pymatgen
data_Ho5In4GaRu
_symmetry_space_group_name_H-M   'P 1'
_cell_length_a   8.23760108
_cell_length_b   18.29464846
_cell_length_c   3.56992700
_cell_angle_alpha   90.00000000
_cell_angle_beta   90.00000000
_cell_angle_gamma   91.15789738
_symmetry_Int_Tables_number   1
_chemical_formula_structural   Ho5In4GaRu
_chemical_formula_sum   'Ho10 In8 Ga2 Ru2'
_cell_volume   537.89247689
_cell_formula_units_Z   2
loop_
 _symmetry_equiv_pos_site_id
 _symmetry_equiv_pos_as_xyz
  1  'x, y, z'
loop_
 _atom_site_type_symbol
 _atom_site_label
 _atom_site_symmetry_multiplicity
 _atom_site_fract_x
 _atom_site_fract_y
 _atom_site_fract_z
 _atom_site_occupancy
  Ho  Ho0  1  0.500000  0.500000  0.000000  1
  Ho  Ho1  1  0.000000  0.000000  0.000000  1
  Ho  Ho2  1  0.765792  0.281153  0.000000  1
  Ho  Ho3  1  0.234208  0.718847  0.000000  1
  Ho  Ho4  1  0.776817  0.775355  0.000000  1
  Ho  Ho5  1  0.223183  0.224645  0.000000  1
  Ho  Ho6  1  0.626626  0.080936  0.000000  1
  Ho  Ho7  1  0.373374  0.919064  0.000000  1
  Ho  Ho8  1  0.879945  0.585494  0.000000  1
  Ho  Ho9  1  0.120055  0.414506  0.000000  1
  In  In10  1  0.704774  0.931143  0.500000  1
  In  In11  1  0.295226  0.068857  0.500000  1
  In  In12  1  0.797590  0.431614  0.500000  1
  In  In13  1  0.202410  0.568386  0.500000  1
  In  In14  1  0.573510  0.648637  0.500000  1
  In  In15  1  0.426490  0.351363  0.500000  1
  In  In16  1  0.934137  0.148493  0.500000  1
  In  In17  1  0.065863  0.851507  0.500000  1
  Ga  Ga18  1  0.522566  0.197837  0.500000  1
  Ga  Ga19  1  0.477434  0.802163  0.500000  1
  Ru  Ru20  1  0.975311  0.695718  0.500000  1
  Ru  Ru21  1  0.024689  0.304282  0.500000  1
