# generated using pymatgen
data_LuU(PaH6)2
_symmetry_space_group_name_H-M   'P 1'
_cell_length_a   6.52563800
_cell_length_b   6.50865500
_cell_length_c   6.50865500
_cell_angle_alpha   90.00000000
_cell_angle_beta   90.00000000
_cell_angle_gamma   90.00000000
_symmetry_Int_Tables_number   1
_chemical_formula_structural   LuU(PaH6)2
_chemical_formula_sum   'Lu2 U2 Pa4 H24'
_cell_volume   276.44292649
_cell_formula_units_Z   2
loop_
 _symmetry_equiv_pos_site_id
 _symmetry_equiv_pos_as_xyz
  1  'x, y, z'
loop_
 _atom_site_type_symbol
 _atom_site_label
 _atom_site_symmetry_multiplicity
 _atom_site_fract_x
 _atom_site_fract_y
 _atom_site_fract_z
 _atom_site_occupancy
  Lu  Lu0  1  0.000000  0.000000  0.000000  1
  Lu  Lu1  1  0.500000  0.500000  0.500000  1
  U  U2  1  0.250000  0.000000  0.500000  1
  U  U3  1  0.750000  0.000000  0.500000  1
  Pa  Pa4  1  0.000000  0.500000  0.250432  1
  Pa  Pa5  1  0.000000  0.500000  0.749568  1
  Pa  Pa6  1  0.500000  0.750432  0.000000  1
  Pa  Pa7  1  0.500000  0.249568  0.000000  1
  H  H8  1  0.000000  0.154065  0.303222  1
  H  H9  1  0.500000  0.196778  0.654065  1
  H  H10  1  0.500000  0.803222  0.345935  1
  H  H11  1  0.802630  0.654140  0.500000  1
  H  H12  1  0.197370  0.654140  0.500000  1
  H  H13  1  0.345888  0.500000  0.802712  1
  H  H14  1  0.654112  0.500000  0.802712  1
  H  H15  1  0.302630  0.000000  0.154140  1
  H  H16  1  0.154112  0.302712  0.000000  1
  H  H17  1  0.845888  0.697288  0.000000  1
  H  H18  1  0.302630  0.000000  0.845860  1
  H  H19  1  0.845888  0.302712  0.000000  1
  H  H20  1  0.697370  0.000000  0.154140  1
  H  H21  1  0.697370  0.000000  0.845860  1
  H  H22  1  0.154112  0.697288  0.000000  1
  H  H23  1  0.000000  0.845935  0.696778  1
  H  H24  1  0.000000  0.154065  0.696778  1
  H  H25  1  0.000000  0.845935  0.303222  1
  H  H26  1  0.654112  0.500000  0.197288  1
  H  H27  1  0.345888  0.500000  0.197288  1
  H  H28  1  0.802630  0.345860  0.500000  1
  H  H29  1  0.197370  0.345860  0.500000  1
  H  H30  1  0.500000  0.803222  0.654065  1
  H  H31  1  0.500000  0.196778  0.345935  1
