# generated using pymatgen
data_TmLu2Pa(Ni2Sn)2
_symmetry_space_group_name_H-M   'P 1'
_cell_length_a   7.42414348
_cell_length_b   7.42414348
_cell_length_c   3.51368700
_cell_angle_alpha   90.00000000
_cell_angle_beta   90.00000000
_cell_angle_gamma   92.04412096
_symmetry_Int_Tables_number   1
_chemical_formula_structural   TmLu2Pa(Ni2Sn)2
_chemical_formula_sum   'Tm1 Lu2 Pa1 Ni4 Sn2'
_cell_volume   193.54383242
_cell_formula_units_Z   1
loop_
 _symmetry_equiv_pos_site_id
 _symmetry_equiv_pos_as_xyz
  1  'x, y, z'
loop_
 _atom_site_type_symbol
 _atom_site_label
 _atom_site_symmetry_multiplicity
 _atom_site_fract_x
 _atom_site_fract_y
 _atom_site_fract_z
 _atom_site_occupancy
  Tm  Tm0  1  0.326345  0.826345  0.500000  1
  Lu  Lu1  1  0.169190  0.328346  0.500000  1
  Lu  Lu2  1  0.828346  0.669190  0.500000  1
  Pa  Pa3  1  0.671811  0.171811  0.500000  1
  Ni  Ni4  1  0.865616  0.365616  0.000000  1
  Ni  Ni5  1  0.115324  0.615324  0.000000  1
  Ni  Ni6  1  0.393196  0.132083  0.000000  1
  Ni  Ni7  1  0.632083  0.893196  0.000000  1
  Sn  Sn8  1  0.490503  0.507586  0.000000  1
  Sn  Sn9  1  0.007586  0.990503  0.000000  1
