# generated using pymatgen
data_Tb20Zn3Si12Au
_symmetry_space_group_name_H-M   'P 1'
_cell_length_a   7.31903100
_cell_length_b   7.94296607
_cell_length_c   14.72356500
_cell_angle_alpha   90.00000000
_cell_angle_beta   90.00000000
_cell_angle_gamma   89.93523809
_symmetry_Int_Tables_number   1
_chemical_formula_structural   Tb20Zn3Si12Au
_chemical_formula_sum   'Tb20 Zn3 Si12 Au1'
_cell_volume   855.95117956
_cell_formula_units_Z   1
loop_
 _symmetry_equiv_pos_site_id
 _symmetry_equiv_pos_as_xyz
  1  'x, y, z'
loop_
 _atom_site_type_symbol
 _atom_site_label
 _atom_site_symmetry_multiplicity
 _atom_site_fract_x
 _atom_site_fract_y
 _atom_site_fract_z
 _atom_site_occupancy
  Tb  Tb0  1  0.683660  0.174413  0.622937  1
  Tb  Tb1  1  0.183502  0.325018  0.877210  1
  Tb  Tb2  1  0.317106  0.826433  0.122732  1
  Tb  Tb3  1  0.814664  0.673282  0.377719  1
  Tb  Tb4  1  0.317106  0.826433  0.377268  1
  Tb  Tb5  1  0.814664  0.673282  0.122281  1
  Tb  Tb6  1  0.683660  0.174413  0.877063  1
  Tb  Tb7  1  0.183502  0.325018  0.622790  1
  Tb  Tb8  1  0.520733  0.687254  0.587413  1
  Tb  Tb9  1  0.020978  0.810402  0.912274  1
  Tb  Tb10  1  0.479080  0.311871  0.088062  1
  Tb  Tb11  1  0.980380  0.189014  0.411788  1
  Tb  Tb12  1  0.479080  0.311871  0.411938  1
  Tb  Tb13  1  0.980380  0.189014  0.088212  1
  Tb  Tb14  1  0.520733  0.687254  0.912587  1
  Tb  Tb15  1  0.020978  0.810402  0.587726  1
  Tb  Tb16  1  0.844064  0.527448  0.750000  1
  Tb  Tb17  1  0.344247  0.970984  0.750000  1
  Tb  Tb18  1  0.153056  0.476250  0.250000  1
  Tb  Tb19  1  0.656349  0.026845  0.250000  1
  Zn  Zn20  1  0.475931  0.402872  0.750000  1
  Zn  Zn21  1  0.975858  0.095860  0.750000  1
  Zn  Zn22  1  0.522191  0.597108  0.250000  1
  Si  Si23  1  0.653815  0.971647  0.460105  1
  Si  Si24  1  0.154352  0.527606  0.040299  1
  Si  Si25  1  0.346169  0.027462  0.959288  1
  Si  Si26  1  0.847386  0.470881  0.540483  1
  Si  Si27  1  0.346169  0.027462  0.540712  1
  Si  Si28  1  0.847386  0.470881  0.959517  1
  Si  Si29  1  0.653815  0.971647  0.039895  1
  Si  Si30  1  0.154352  0.527606  0.459701  1
  Si  Si31  1  0.731378  0.874801  0.750000  1
  Si  Si32  1  0.231034  0.624110  0.750000  1
  Si  Si33  1  0.273917  0.133310  0.250000  1
  Si  Si34  1  0.766994  0.375745  0.250000  1
  Au  Au35  1  0.021329  0.904094  0.250000  1
