# generated using pymatgen
data_LiTb2Tm4Co17P12
_symmetry_space_group_name_H-M   'P 1'
_cell_length_a   3.69848000
_cell_length_b   10.52863400
_cell_length_c   12.15782400
_cell_angle_alpha   90.00000000
_cell_angle_beta   90.00000000
_cell_angle_gamma   90.00000000
_symmetry_Int_Tables_number   1
_chemical_formula_structural   LiTb2Tm4Co17P12
_chemical_formula_sum   'Li1 Tb2 Tm4 Co17 P12'
_cell_volume   473.42496477
_cell_formula_units_Z   1
loop_
 _symmetry_equiv_pos_site_id
 _symmetry_equiv_pos_as_xyz
  1  'x, y, z'
loop_
 _atom_site_type_symbol
 _atom_site_label
 _atom_site_symmetry_multiplicity
 _atom_site_fract_x
 _atom_site_fract_y
 _atom_site_fract_z
 _atom_site_occupancy
  Li  Li0  1  0.500000  0.500000  0.151505  1
  Tb  Tb1  1  0.000000  0.500000  0.523215  1
  Tb  Tb2  1  0.500000  0.000000  0.477521  1
  Tm  Tm3  1  0.500000  0.819850  0.206177  1
  Tm  Tm4  1  0.500000  0.180150  0.206177  1
  Tm  Tm5  1  0.000000  0.681867  0.794758  1
  Tm  Tm6  1  0.000000  0.318133  0.794758  1
  Co  Co7  1  0.000000  0.000000  0.840247  1
  Co  Co8  1  0.500000  0.500000  0.705784  1
  Co  Co9  1  0.000000  0.000000  0.295312  1
  Co  Co10  1  0.000000  0.500000  0.986353  1
  Co  Co11  1  0.500000  0.000000  0.011983  1
  Co  Co12  1  0.500000  0.330625  0.995034  1
  Co  Co13  1  0.500000  0.669375  0.995034  1
  Co  Co14  1  0.000000  0.165029  0.003216  1
  Co  Co15  1  0.000000  0.834971  0.003216  1
  Co  Co16  1  0.500000  0.296013  0.431590  1
  Co  Co17  1  0.500000  0.703987  0.431590  1
  Co  Co18  1  0.000000  0.202673  0.570884  1
  Co  Co19  1  0.000000  0.797327  0.570884  1
  Co  Co20  1  0.500000  0.879210  0.709831  1
  Co  Co21  1  0.500000  0.120790  0.709831  1
  Co  Co22  1  0.000000  0.622773  0.292089  1
  Co  Co23  1  0.000000  0.377227  0.292089  1
  P  P24  1  0.500000  0.500000  0.884599  1
  P  P25  1  0.000000  0.000000  0.116667  1
  P  P26  1  0.500000  0.500000  0.344886  1
  P  P27  1  0.000000  0.000000  0.655974  1
  P  P28  1  0.500000  0.309903  0.618001  1
  P  P29  1  0.500000  0.690097  0.618001  1
  P  P30  1  0.000000  0.189899  0.384044  1
  P  P31  1  0.000000  0.810101  0.384044  1
  P  P32  1  0.500000  0.846961  0.891268  1
  P  P33  1  0.500000  0.153039  0.891268  1
  P  P34  1  0.000000  0.658185  0.106084  1
  P  P35  1  0.000000  0.341815  0.106084  1
