# generated using pymatgen
data_Ho3Fe2Sb3O14
_symmetry_space_group_name_H-M   'P 1'
_cell_length_a   7.19045850
_cell_length_b   7.18897753
_cell_length_c   7.16571127
_cell_angle_alpha   117.63023410
_cell_angle_beta   62.38220212
_cell_angle_gamma   117.51115947
_symmetry_Int_Tables_number   1
_chemical_formula_structural   Ho3Fe2Sb3O14
_chemical_formula_sum   'Ho3 Fe2 Sb3 O14'
_cell_volume   276.01611511
_cell_formula_units_Z   1
loop_
 _symmetry_equiv_pos_site_id
 _symmetry_equiv_pos_as_xyz
  1  'x, y, z'
loop_
 _atom_site_type_symbol
 _atom_site_label
 _atom_site_symmetry_multiplicity
 _atom_site_fract_x
 _atom_site_fract_y
 _atom_site_fract_z
 _atom_site_occupancy
  Ho  Ho0  1  0.999983  0.499998  0.000014  1
  Ho  Ho1  1  0.500013  0.000002  0.999992  1
  Ho  Ho2  1  0.499992  0.499996  0.499999  1
  Fe  Fe3  1  0.499962  0.500032  0.999963  1
  Fe  Fe4  1  0.000061  0.000051  0.500009  1
  Sb  Sb5  1  0.500001  0.999996  0.499996  1
  Sb  Sb6  1  0.000001  0.499993  0.500008  1
  Sb  Sb7  1  0.999998  0.999996  0.000002  1
  O  O8  1  0.618755  0.381164  0.115864  1
  O  O9  1  0.381237  0.618832  0.884134  1
  O  O10  1  0.080639  0.323176  0.175996  1
  O  O11  1  0.676872  0.919744  0.176050  1
  O  O12  1  0.675790  0.324209  0.584526  1
  O  O13  1  0.919361  0.676813  0.824006  1
  O  O14  1  0.323127  0.080242  0.823951  1
  O  O15  1  0.324205  0.675779  0.415478  1
  O  O16  1  0.644316  0.901899  0.597209  1
  O  O17  1  0.098064  0.355801  0.597339  1
  O  O18  1  0.097110  0.902723  0.145329  1
  O  O19  1  0.355692  0.098089  0.402794  1
  O  O20  1  0.901932  0.644201  0.402663  1
  O  O21  1  0.902889  0.097267  0.854677  1
