# generated using pymatgen
data_K5Rb3Nb4V4(PO5)8
_symmetry_space_group_name_H-M   'P 1'
_cell_length_a   6.55366600
_cell_length_b   10.94595500
_cell_length_c   13.15462500
_cell_angle_alpha   90.00000000
_cell_angle_beta   90.00000000
_cell_angle_gamma   90.00000000
_symmetry_Int_Tables_number   1
_chemical_formula_structural   K5Rb3Nb4V4(PO5)8
_chemical_formula_sum   'K5 Rb3 Nb4 V4 P8 O40'
_cell_volume   943.66193016
_cell_formula_units_Z   1
loop_
 _symmetry_equiv_pos_site_id
 _symmetry_equiv_pos_as_xyz
  1  'x, y, z'
loop_
 _atom_site_type_symbol
 _atom_site_label
 _atom_site_symmetry_multiplicity
 _atom_site_fract_x
 _atom_site_fract_y
 _atom_site_fract_z
 _atom_site_occupancy
  K  K0  1  0.778295  0.302364  0.374092  1
  K  K1  1  0.802919  0.065940  0.604974  1
  K  K2  1  0.195478  0.563257  0.394743  1
  K  K3  1  0.302489  0.564293  0.894640  1
  K  K4  1  0.697143  0.065113  0.105543  1
  Rb  Rb5  1  0.716243  0.311382  0.880944  1
  Rb  Rb6  1  0.283939  0.810236  0.119791  1
  Rb  Rb7  1  0.215592  0.810594  0.619268  1
  Nb  Nb8  1  0.004264  0.003179  0.869931  1
  Nb  Nb9  1  0.995837  0.502657  0.131277  1
  Nb  Nb10  1  0.504746  0.502584  0.629214  1
  Nb  Nb11  1  0.495710  0.003560  0.369786  1
  V  V12  1  0.245643  0.250669  0.745243  1
  V  V13  1  0.754898  0.750990  0.254839  1
  V  V14  1  0.745148  0.750422  0.754686  1
  V  V15  1  0.253417  0.251397  0.246195  1
  P  P16  1  0.001538  0.504785  0.682470  1
  P  P17  1  0.998599  0.005737  0.317512  1
  P  P18  1  0.501460  0.005316  0.817467  1
  P  P19  1  0.499746  0.504517  0.183810  1
  P  P20  1  0.165607  0.253699  0.999471  1
  P  P21  1  0.834850  0.753266  0.001226  1
  P  P22  1  0.665252  0.753608  0.501062  1
  P  P23  1  0.335218  0.254659  0.497859  1
  O  O24  1  0.456046  0.379193  0.721786  1
  O  O25  1  0.545772  0.880858  0.276685  1
  O  O26  1  0.954688  0.880122  0.777078  1
  O  O27  1  0.040893  0.380513  0.225990  1
  O  O28  1  0.034343  0.372564  0.012746  1
  O  O29  1  0.964834  0.872626  0.988320  1
  O  O30  1  0.535408  0.873162  0.488268  1
  O  O31  1  0.467951  0.373328  0.508533  1
  O  O32  1  0.304959  0.232592  0.092475  1
  O  O33  1  0.695175  0.731489  0.908371  1
  O  O34  1  0.805236  0.732141  0.408354  1
  O  O35  1  0.198572  0.232418  0.591622  1
  O  O36  1  0.039445  0.391927  0.749730  1
  O  O37  1  0.961172  0.892603  0.250672  1
  O  O38  1  0.539046  0.892383  0.750324  1
  O  O39  1  0.464054  0.391487  0.251343  1
  O  O40  1  0.532118  0.625757  0.726259  1
  O  O41  1  0.468275  0.127368  0.273284  1
  O  O42  1  0.031165  0.126684  0.773241  1
  O  O43  1  0.969316  0.627464  0.226597  1
  O  O44  1  0.967661  0.616769  0.751813  1
  O  O45  1  0.031889  0.117652  0.247971  1
  O  O46  1  0.467131  0.117264  0.748163  1
  O  O47  1  0.533239  0.617099  0.252403  1
  O  O48  1  0.812609  0.480817  0.612142  1
  O  O49  1  0.187778  0.982021  0.387885  1
  O  O50  1  0.312488  0.981451  0.887958  1
  O  O51  1  0.687876  0.481175  0.112652  1
  O  O52  1  0.294697  0.271167  0.902077  1
  O  O53  1  0.705167  0.770269  0.098505  1
  O  O54  1  0.794613  0.770126  0.598474  1
  O  O55  1  0.199879  0.270676  0.402117  1
  O  O56  1  0.186570  0.530874  0.610458  1
  O  O57  1  0.813826  0.032905  0.389398  1
  O  O58  1  0.686459  0.032053  0.889317  1
  O  O59  1  0.313499  0.529660  0.112323  1
  O  O60  1  0.014043  0.144197  0.987299  1
  O  O61  1  0.987060  0.644045  0.013419  1
  O  O62  1  0.512708  0.644633  0.512818  1
  O  O63  1  0.488307  0.145851  0.485086  1
