# generated using pymatgen
data_Tb2Er3In4IrPd
_symmetry_space_group_name_H-M   'P 1'
_cell_length_a   3.62064800
_cell_length_b   8.12039301
_cell_length_c   18.22123876
_cell_angle_alpha   89.93007394
_cell_angle_beta   90.00000000
_cell_angle_gamma   90.00000000
_symmetry_Int_Tables_number   1
_chemical_formula_structural   Tb2Er3In4IrPd
_chemical_formula_sum   'Tb4 Er6 In8 Ir2 Pd2'
_cell_volume   535.72378515
_cell_formula_units_Z   2
loop_
 _symmetry_equiv_pos_site_id
 _symmetry_equiv_pos_as_xyz
  1  'x, y, z'
loop_
 _atom_site_type_symbol
 _atom_site_label
 _atom_site_symmetry_multiplicity
 _atom_site_fract_x
 _atom_site_fract_y
 _atom_site_fract_z
 _atom_site_occupancy
  Tb  Tb0  1  0.000000  0.500000  0.500000  1
  Tb  Tb1  1  0.000000  0.000000  0.000000  1
  Tb  Tb2  1  0.000000  0.728374  0.277853  1
  Tb  Tb3  1  0.000000  0.271626  0.722147  1
  Er  Er4  1  0.000000  0.746972  0.779899  1
  Er  Er5  1  0.000000  0.253028  0.220101  1
  Er  Er6  1  0.000000  0.613118  0.087397  1
  Er  Er7  1  0.000000  0.386882  0.912603  1
  Er  Er8  1  0.000000  0.884816  0.584806  1
  Er  Er9  1  0.000000  0.115184  0.415194  1
  In  In10  1  0.500000  0.707984  0.932002  1
  In  In11  1  0.500000  0.292016  0.067998  1
  In  In12  1  0.500000  0.793115  0.432403  1
  In  In13  1  0.500000  0.206885  0.567597  1
  In  In14  1  0.500000  0.580180  0.648669  1
  In  In15  1  0.500000  0.419820  0.351331  1
  In  In16  1  0.500000  0.922664  0.149951  1
  In  In17  1  0.500000  0.077336  0.850049  1
  Ir  Ir18  1  0.500000  0.517329  0.195144  1
  Ir  Ir19  1  0.500000  0.482671  0.804856  1
  Pd  Pd20  1  0.500000  0.978658  0.695958  1
  Pd  Pd21  1  0.500000  0.021342  0.304042  1
