# generated using pymatgen
data_Ta12MnAl8Cu3C4
_symmetry_space_group_name_H-M   'P 1'
_cell_length_a   8.29877352
_cell_length_b   8.29877405
_cell_length_c   8.29877355
_cell_angle_alpha   59.53007606
_cell_angle_beta   59.53007319
_cell_angle_gamma   59.53007214
_symmetry_Int_Tables_number   1
_chemical_formula_structural   Ta12MnAl8Cu3C4
_chemical_formula_sum   'Ta12 Mn1 Al8 Cu3 C4'
_cell_volume   399.81692434
_cell_formula_units_Z   1
loop_
 _symmetry_equiv_pos_site_id
 _symmetry_equiv_pos_as_xyz
  1  'x, y, z'
loop_
 _atom_site_type_symbol
 _atom_site_label
 _atom_site_symmetry_multiplicity
 _atom_site_fract_x
 _atom_site_fract_y
 _atom_site_fract_z
 _atom_site_occupancy
  Ta  Ta0  1  0.567462  0.933833  0.567462  1
  Ta  Ta1  1  0.316167  0.682538  0.682538  1
  Ta  Ta2  1  0.695103  0.311887  0.311887  1
  Ta  Ta3  1  0.311887  0.695103  0.311887  1
  Ta  Ta4  1  0.682538  0.682538  0.316167  1
  Ta  Ta5  1  0.311887  0.311887  0.695103  1
  Ta  Ta6  1  0.567462  0.567462  0.933833  1
  Ta  Ta7  1  0.933833  0.567462  0.567462  1
  Ta  Ta8  1  0.554897  0.938113  0.938113  1
  Ta  Ta9  1  0.938113  0.938113  0.554897  1
  Ta  Ta10  1  0.682538  0.316167  0.682538  1
  Ta  Ta11  1  0.938113  0.554897  0.938113  1
  Mn  Mn12  1  0.125000  0.125000  0.125000  1
  Al  Al13  1  0.914651  0.914651  0.914651  1
  Al  Al14  1  0.003105  0.331492  0.331492  1
  Al  Al15  1  0.331492  0.003105  0.331492  1
  Al  Al16  1  0.331492  0.331492  0.003105  1
  Al  Al17  1  0.918508  0.246895  0.918508  1
  Al  Al18  1  0.918508  0.918508  0.246895  1
  Al  Al19  1  0.246895  0.918508  0.918508  1
  Al  Al20  1  0.335349  0.335349  0.335349  1
  Cu  Cu21  1  0.625000  0.125000  0.125000  1
  Cu  Cu22  1  0.125000  0.625000  0.125000  1
  Cu  Cu23  1  0.125000  0.125000  0.625000  1
  C  C24  1  0.625000  0.625000  0.625000  1
  C  C25  1  0.125000  0.625000  0.625000  1
  C  C26  1  0.625000  0.125000  0.625000  1
  C  C27  1  0.625000  0.625000  0.125000  1
