# generated using pymatgen
data_CaDy3(Ga2Ag)4
_symmetry_space_group_name_H-M   'P 1'
_cell_length_a   4.37452900
_cell_length_b   6.99386058
_cell_length_c   10.30445905
_cell_angle_alpha   90.37302043
_cell_angle_beta   90.00000000
_cell_angle_gamma   90.00000000
_symmetry_Int_Tables_number   1
_chemical_formula_structural   CaDy3(Ga2Ag)4
_chemical_formula_sum   'Ca1 Dy3 Ga8 Ag4'
_cell_volume   315.25665570
_cell_formula_units_Z   1
loop_
 _symmetry_equiv_pos_site_id
 _symmetry_equiv_pos_as_xyz
  1  'x, y, z'
loop_
 _atom_site_type_symbol
 _atom_site_label
 _atom_site_symmetry_multiplicity
 _atom_site_fract_x
 _atom_site_fract_y
 _atom_site_fract_z
 _atom_site_occupancy
  Ca  Ca0  1  0.250000  0.276183  0.672142  1
  Dy  Dy1  1  0.250000  0.780118  0.827220  1
  Dy  Dy2  1  0.750000  0.222384  0.172070  1
  Dy  Dy3  1  0.750000  0.720883  0.328553  1
  Ga  Ga4  1  0.250000  0.705066  0.535948  1
  Ga  Ga5  1  0.750000  0.297123  0.462937  1
  Ga  Ga6  1  0.750000  0.793489  0.037601  1
  Ga  Ga7  1  0.250000  0.202221  0.964624  1
  Ga  Ga8  1  0.250000  0.926435  0.154466  1
  Ga  Ga9  1  0.750000  0.071411  0.849793  1
  Ga  Ga10  1  0.750000  0.573694  0.650828  1
  Ga  Ga11  1  0.250000  0.428040  0.344823  1
  Ag  Ag12  1  0.250000  0.543332  0.097418  1
  Ag  Ag13  1  0.750000  0.457170  0.901735  1
  Ag  Ag14  1  0.750000  0.958222  0.597979  1
  Ag  Ag15  1  0.250000  0.044229  0.401865  1
