# generated using pymatgen
data_HoEr15Cd2(HgIr2)2
_symmetry_space_group_name_H-M   'P 1'
_cell_length_a   9.54280081
_cell_length_b   9.54280127
_cell_length_c   9.55318800
_cell_angle_alpha   59.96398828
_cell_angle_beta   59.96398668
_cell_angle_gamma   59.93562915
_symmetry_Int_Tables_number   1
_chemical_formula_structural   HoEr15Cd2(HgIr2)2
_chemical_formula_sum   'Ho1 Er15 Cd2 Hg2 Ir4'
_cell_volume   614.52132594
_cell_formula_units_Z   1
loop_
 _symmetry_equiv_pos_site_id
 _symmetry_equiv_pos_as_xyz
  1  'x, y, z'
loop_
 _atom_site_type_symbol
 _atom_site_label
 _atom_site_symmetry_multiplicity
 _atom_site_fract_x
 _atom_site_fract_y
 _atom_site_fract_z
 _atom_site_occupancy
  Ho  Ho0  1  0.187859  0.187859  0.812141  1
  Er  Er1  1  0.600022  0.600022  0.598315  1
  Er  Er2  1  0.600022  0.600022  0.201642  1
  Er  Er3  1  0.601750  0.198575  0.599838  1
  Er  Er4  1  0.198575  0.601750  0.599838  1
  Er  Er5  1  0.059466  0.438837  0.441142  1
  Er  Er6  1  0.438837  0.059466  0.060555  1
  Er  Er7  1  0.438837  0.059466  0.441142  1
  Er  Er8  1  0.059466  0.438837  0.060555  1
  Er  Er9  1  0.439341  0.439341  0.060659  1
  Er  Er10  1  0.059205  0.059205  0.440795  1
  Er  Er11  1  0.187511  0.811212  0.812562  1
  Er  Er12  1  0.811212  0.187511  0.188716  1
  Er  Er13  1  0.811212  0.187511  0.812562  1
  Er  Er14  1  0.187511  0.811212  0.188716  1
  Er  Er15  1  0.811823  0.811823  0.188177  1
  Cd  Cd16  1  0.830157  0.507197  0.831323  1
  Cd  Cd17  1  0.507197  0.830157  0.831323  1
  Hg  Hg18  1  0.833935  0.833935  0.835953  1
  Hg  Hg19  1  0.833935  0.833935  0.496176  1
  Ir  Ir20  1  0.392441  0.392441  0.391105  1
  Ir  Ir21  1  0.392441  0.392441  0.824014  1
  Ir  Ir22  1  0.392389  0.824860  0.391376  1
  Ir  Ir23  1  0.824860  0.392389  0.391376  1
