# generated using pymatgen
data_LiHo16Hg3Ir4
_symmetry_space_group_name_H-M   'P 1'
_cell_length_a   9.59204822
_cell_length_b   9.59204892
_cell_length_c   9.59204972
_cell_angle_alpha   59.71880057
_cell_angle_beta   59.71880156
_cell_angle_gamma   59.71880112
_symmetry_Int_Tables_number   1
_chemical_formula_structural   LiHo16Hg3Ir4
_chemical_formula_sum   'Li1 Ho16 Hg3 Ir4'
_cell_volume   620.06407972
_cell_formula_units_Z   1
loop_
 _symmetry_equiv_pos_site_id
 _symmetry_equiv_pos_as_xyz
  1  'x, y, z'
loop_
 _atom_site_type_symbol
 _atom_site_label
 _atom_site_symmetry_multiplicity
 _atom_site_fract_x
 _atom_site_fract_y
 _atom_site_fract_z
 _atom_site_occupancy
  Li  Li0  1  0.816689  0.816689  0.816689  1
  Ho  Ho1  1  0.602644  0.602644  0.602644  1
  Ho  Ho2  1  0.599018  0.599018  0.204523  1
  Ho  Ho3  1  0.599018  0.204523  0.599018  1
  Ho  Ho4  1  0.204523  0.599018  0.599018  1
  Ho  Ho5  1  0.059932  0.440988  0.440988  1
  Ho  Ho6  1  0.435342  0.061841  0.061841  1
  Ho  Ho7  1  0.440988  0.059932  0.440988  1
  Ho  Ho8  1  0.061841  0.435342  0.061841  1
  Ho  Ho9  1  0.440988  0.440988  0.059932  1
  Ho  Ho10  1  0.061841  0.061841  0.435342  1
  Ho  Ho11  1  0.190980  0.810731  0.810731  1
  Ho  Ho12  1  0.812378  0.186559  0.186559  1
  Ho  Ho13  1  0.810731  0.190980  0.810731  1
  Ho  Ho14  1  0.186559  0.812378  0.186559  1
  Ho  Ho15  1  0.810731  0.810731  0.190980  1
  Ho  Ho16  1  0.186559  0.186559  0.812378  1
  Hg  Hg17  1  0.838147  0.838147  0.494576  1
  Hg  Hg18  1  0.838147  0.494576  0.838147  1
  Hg  Hg19  1  0.494576  0.838147  0.838147  1
  Ir  Ir20  1  0.392434  0.392434  0.392434  1
  Ir  Ir21  1  0.395217  0.395217  0.825500  1
  Ir  Ir22  1  0.395217  0.825500  0.395217  1
  Ir  Ir23  1  0.825500  0.395217  0.395217  1
