# generated using pymatgen
data_TaSn3(AsO4)6
_symmetry_space_group_name_H-M   'P 1'
_cell_length_a   9.49724346
_cell_length_b   9.49724368
_cell_length_c   9.49724300
_cell_angle_alpha   55.20672817
_cell_angle_beta   55.20673460
_cell_angle_gamma   55.20672756
_symmetry_Int_Tables_number   1
_chemical_formula_structural   TaSn3(AsO4)6
_chemical_formula_sum   'Ta1 Sn3 As6 O24'
_cell_volume   538.23201340
_cell_formula_units_Z   1
loop_
 _symmetry_equiv_pos_site_id
 _symmetry_equiv_pos_as_xyz
  1  'x, y, z'
loop_
 _atom_site_type_symbol
 _atom_site_label
 _atom_site_symmetry_multiplicity
 _atom_site_fract_x
 _atom_site_fract_y
 _atom_site_fract_z
 _atom_site_occupancy
  Ta  Ta0  1  0.857541  0.857541  0.857541  1
  Sn  Sn1  1  0.142457  0.142457  0.142457  1
  Sn  Sn2  1  0.352924  0.352924  0.352924  1
  Sn  Sn3  1  0.650796  0.650796  0.650796  1
  As  As4  1  0.750273  0.034615  0.461505  1
  As  As5  1  0.034615  0.461505  0.750273  1
  As  As6  1  0.461505  0.750273  0.034615  1
  As  As7  1  0.530589  0.254004  0.970496  1
  As  As8  1  0.970496  0.530589  0.254004  1
  As  As9  1  0.254004  0.970496  0.530589  1
  O  O10  1  0.202547  0.180489  0.520583  1
  O  O11  1  0.520583  0.202547  0.180489  1
  O  O12  1  0.887140  0.132898  0.246800  1
  O  O13  1  0.180489  0.520583  0.202547  1
  O  O14  1  0.524457  0.178679  0.501537  1
  O  O15  1  0.804900  0.997996  0.627639  1
  O  O16  1  0.132898  0.246800  0.887140  1
  O  O17  1  0.178679  0.501537  0.524457  1
  O  O18  1  0.501537  0.524457  0.178679  1
  O  O19  1  0.364579  0.223466  0.980238  1
  O  O20  1  0.736689  0.095185  0.887345  1
  O  O21  1  0.980238  0.364579  0.223466  1
  O  O22  1  0.997996  0.627639  0.804900  1
  O  O23  1  0.246800  0.887140  0.132898  1
  O  O24  1  0.627639  0.804900  0.997996  1
  O  O25  1  0.509783  0.474152  0.819934  1
  O  O26  1  0.819934  0.509783  0.474152  1
  O  O27  1  0.887345  0.736689  0.095185  1
  O  O28  1  0.223466  0.980238  0.364579  1
  O  O29  1  0.474152  0.819934  0.509783  1
  O  O30  1  0.824583  0.475213  0.797961  1
  O  O31  1  0.095185  0.887345  0.736689  1
  O  O32  1  0.475213  0.797961  0.824583  1
  O  O33  1  0.797961  0.824583  0.475213  1
