# generated using pymatgen
data_Dy2Si4Ge(AsRh6)2
_symmetry_space_group_name_H-M   'P 1'
_cell_length_a   9.82409989
_cell_length_b   9.85225320
_cell_length_c   3.88192317
_cell_angle_alpha   90.07423384
_cell_angle_beta   89.93952115
_cell_angle_gamma   119.64590901
_symmetry_Int_Tables_number   1
_chemical_formula_structural   Dy2Si4Ge(AsRh6)2
_chemical_formula_sum   'Dy2 Si4 Ge1 As2 Rh12'
_cell_volume   326.54575510
_cell_formula_units_Z   1
loop_
 _symmetry_equiv_pos_site_id
 _symmetry_equiv_pos_as_xyz
  1  'x, y, z'
loop_
 _atom_site_type_symbol
 _atom_site_label
 _atom_site_symmetry_multiplicity
 _atom_site_fract_x
 _atom_site_fract_y
 _atom_site_fract_z
 _atom_site_occupancy
  Dy  Dy0  1  0.327681  0.659776  0.750142  1
  Dy  Dy1  1  0.668862  0.334732  0.251816  1
  Si  Si2  1  0.887607  0.596964  0.751641  1
  Si  Si3  1  0.401079  0.290239  0.751207  1
  Si  Si4  1  0.714365  0.115911  0.750770  1
  Si  Si5  1  0.108796  0.399233  0.250636  1
  Ge  Ge6  1  0.001034  0.001418  0.579785  1
  As  As7  1  0.593634  0.709602  0.250091  1
  As  As8  1  0.289871  0.885152  0.250204  1
  Rh  Rh9  1  0.621030  0.549553  0.752664  1
  Rh  Rh10  1  0.452422  0.074938  0.752403  1
  Rh  Rh11  1  0.934544  0.379191  0.752607  1
  Rh  Rh12  1  0.380146  0.440885  0.249418  1
  Rh  Rh13  1  0.560193  0.946401  0.250129  1
  Rh  Rh14  1  0.057991  0.612935  0.249655  1
  Rh  Rh15  1  0.119293  0.847043  0.750992  1
  Rh  Rh16  1  0.149441  0.274069  0.749136  1
  Rh  Rh17  1  0.728234  0.879994  0.750312  1
  Rh  Rh18  1  0.882340  0.143201  0.251859  1
  Rh  Rh19  1  0.857028  0.736414  0.254814  1
  Rh  Rh20  1  0.264407  0.122350  0.253998  1
