# generated using pymatgen
data_La19Tb(SnBi)8
_symmetry_space_group_name_H-M   'P 1'
_cell_length_a   8.58485146
_cell_length_b   8.66524547
_cell_length_c   16.45475100
_cell_angle_alpha   90.00000000
_cell_angle_beta   90.00000000
_cell_angle_gamma   89.91336883
_symmetry_Int_Tables_number   1
_chemical_formula_structural   La19Tb(SnBi)8
_chemical_formula_sum   'La19 Tb1 Sn8 Bi8'
_cell_volume   1224.06498083
_cell_formula_units_Z   1
loop_
 _symmetry_equiv_pos_site_id
 _symmetry_equiv_pos_as_xyz
  1  'x, y, z'
loop_
 _atom_site_type_symbol
 _atom_site_label
 _atom_site_symmetry_multiplicity
 _atom_site_fract_x
 _atom_site_fract_y
 _atom_site_fract_z
 _atom_site_occupancy
  La  La0  1  0.392424  0.836517  0.881397  1
  La  La1  1  0.892763  0.664284  0.620200  1
  La  La2  1  0.608601  0.163067  0.380124  1
  La  La3  1  0.108602  0.336228  0.120575  1
  La  La4  1  0.608601  0.163067  0.119876  1
  La  La5  1  0.108602  0.336228  0.379425  1
  La  La6  1  0.392424  0.836517  0.618603  1
  La  La7  1  0.892763  0.664284  0.879800  1
  La  La8  1  0.549733  0.325653  0.890116  1
  La  La9  1  0.049231  0.175679  0.608485  1
  La  La10  1  0.449386  0.673373  0.390147  1
  La  La11  1  0.949707  0.826250  0.109768  1
  La  La12  1  0.449386  0.673373  0.109853  1
  La  La13  1  0.949707  0.826250  0.390232  1
  La  La14  1  0.549733  0.325653  0.609884  1
  La  La15  1  0.049231  0.175679  0.891515  1
  La  La16  1  0.218751  0.495996  0.750000  1
  La  La17  1  0.718818  0.004566  0.750000  1
  La  La18  1  0.780762  0.504561  0.250000  1
  Tb  Tb19  1  0.279955  0.995105  0.250000  1
  Sn  Sn20  1  0.590854  0.623461  0.750000  1
  Sn  Sn21  1  0.093155  0.878170  0.750000  1
  Sn  Sn22  1  0.407658  0.372621  0.250000  1
  Sn  Sn23  1  0.912924  0.121295  0.250000  1
  Sn  Sn24  1  0.349601  0.135081  0.750000  1
  Sn  Sn25  1  0.851017  0.363679  0.750000  1
  Sn  Sn26  1  0.642912  0.864619  0.250000  1
  Sn  Sn27  1  0.149495  0.642436  0.250000  1
  Bi  Bi28  1  0.268181  0.016857  0.049666  1
  Bi  Bi29  1  0.767518  0.481117  0.454971  1
  Bi  Bi30  1  0.733100  0.981731  0.545384  1
  Bi  Bi31  1  0.232804  0.518448  0.955006  1
  Bi  Bi32  1  0.733100  0.981731  0.954616  1
  Bi  Bi33  1  0.232804  0.518448  0.544994  1
  Bi  Bi34  1  0.268181  0.016857  0.450334  1
  Bi  Bi35  1  0.767518  0.481117  0.045029  1
