# generated using pymatgen
data_Tb2V3P7Ir7Rh2
_symmetry_space_group_name_H-M   'P 1'
_cell_length_a   3.90666500
_cell_length_b   9.55546633
_cell_length_c   9.55414310
_cell_angle_alpha   120.00888162
_cell_angle_beta   90.00030368
_cell_angle_gamma   90.00001392
_symmetry_Int_Tables_number   1
_chemical_formula_structural   Tb2V3P7Ir7Rh2
_chemical_formula_sum   'Tb2 V3 P7 Ir7 Rh2'
_cell_volume   308.84569826
_cell_formula_units_Z   1
loop_
 _symmetry_equiv_pos_site_id
 _symmetry_equiv_pos_as_xyz
  1  'x, y, z'
loop_
 _atom_site_type_symbol
 _atom_site_label
 _atom_site_symmetry_multiplicity
 _atom_site_fract_x
 _atom_site_fract_y
 _atom_site_fract_z
 _atom_site_occupancy
  Tb  Tb0  1  0.261858  0.666744  0.333336  1
  Tb  Tb1  1  0.761774  0.333047  0.666394  1
  V  V2  1  0.761980  0.091639  0.873333  1
  V  V3  1  0.761984  0.127002  0.219267  1
  V  V4  1  0.761967  0.781486  0.907649  1
  P  P5  1  0.262258  0.000831  0.000790  1
  P  P6  1  0.761886  0.884389  0.596977  1
  P  P7  1  0.761856  0.403792  0.286656  1
  P  P8  1  0.761894  0.712773  0.115144  1
  P  P9  1  0.261801  0.117583  0.414038  1
  P  P10  1  0.261787  0.585560  0.703759  1
  P  P11  1  0.261793  0.295740  0.881582  1
  Ir  Ir12  1  0.261933  0.888296  0.159659  1
  Ir  Ir13  1  0.261918  0.840395  0.730214  1
  Ir  Ir14  1  0.261924  0.271913  0.112008  1
  Ir  Ir15  1  0.761893  0.612743  0.557091  1
  Ir  Ir16  1  0.261863  0.366842  0.438344  1
  Ir  Ir17  1  0.261885  0.562172  0.929355  1
  Ir  Ir18  1  0.261889  0.069635  0.632327  1
  Rh  Rh19  1  0.761927  0.442543  0.054254  1
  Rh  Rh20  1  0.761933  0.944876  0.387824  1
