# generated using pymatgen
data_K2CdSn5Au6
_symmetry_space_group_name_H-M   'P 1'
_cell_length_a   4.78012800
_cell_length_b   7.94241370
_cell_length_c   9.27038439
_cell_angle_alpha   89.75378948
_cell_angle_beta   90.00000000
_cell_angle_gamma   90.00000000
_symmetry_Int_Tables_number   1
_chemical_formula_structural   K2CdSn5Au6
_chemical_formula_sum   'K2 Cd1 Sn5 Au6'
_cell_volume   351.95388482
_cell_formula_units_Z   1
loop_
 _symmetry_equiv_pos_site_id
 _symmetry_equiv_pos_as_xyz
  1  'x, y, z'
loop_
 _atom_site_type_symbol
 _atom_site_label
 _atom_site_symmetry_multiplicity
 _atom_site_fract_x
 _atom_site_fract_y
 _atom_site_fract_z
 _atom_site_occupancy
  K  K0  1  0.000000  0.498545  0.260014  1
  K  K1  1  0.500000  0.000877  0.739647  1
  Cd  Cd2  1  0.500000  0.199550  0.113296  1
  Sn  Sn3  1  0.500000  0.806020  0.116770  1
  Sn  Sn4  1  0.000000  0.696038  0.880712  1
  Sn  Sn5  1  0.000000  0.298631  0.890447  1
  Sn  Sn6  1  0.000000  0.005064  0.378893  1
  Sn  Sn7  1  0.500000  0.501307  0.617371  1
  Au  Au8  1  0.500000  0.781753  0.415952  1
  Au  Au9  1  0.000000  0.993276  0.063445  1
  Au  Au10  1  0.500000  0.500905  0.934427  1
  Au  Au11  1  0.000000  0.720517  0.581834  1
  Au  Au12  1  0.000000  0.283813  0.588265  1
  Au  Au13  1  0.500000  0.213705  0.418926  1
