# generated using pymatgen
data_Ta4GaFe6Ge
_symmetry_space_group_name_H-M   'P 1'
_cell_length_a   4.87448600
_cell_length_b   4.87448589
_cell_length_c   7.96001800
_cell_angle_alpha   90.00000000
_cell_angle_beta   90.00000000
_cell_angle_gamma   120.00001433
_symmetry_Int_Tables_number   1
_chemical_formula_structural   Ta4GaFe6Ge
_chemical_formula_sum   'Ta4 Ga1 Fe6 Ge1'
_cell_volume   163.79561221
_cell_formula_units_Z   1
loop_
 _symmetry_equiv_pos_site_id
 _symmetry_equiv_pos_as_xyz
  1  'x, y, z'
loop_
 _atom_site_type_symbol
 _atom_site_label
 _atom_site_symmetry_multiplicity
 _atom_site_fract_x
 _atom_site_fract_y
 _atom_site_fract_z
 _atom_site_occupancy
  Ta  Ta0  1  0.333333  0.666667  0.434494  1
  Ta  Ta1  1  0.666667  0.333333  0.935752  1
  Ta  Ta2  1  0.666667  0.333333  0.565506  1
  Ta  Ta3  1  0.333333  0.666667  0.064248  1
  Ga  Ga4  1  0.000000  0.000000  0.500000  1
  Fe  Fe5  1  0.653740  0.826870  0.750243  1
  Fe  Fe6  1  0.346260  0.173130  0.249757  1
  Fe  Fe7  1  0.173130  0.346260  0.750243  1
  Fe  Fe8  1  0.826870  0.173130  0.249757  1
  Fe  Fe9  1  0.826870  0.653740  0.249757  1
  Fe  Fe10  1  0.173130  0.826870  0.750243  1
  Ge  Ge11  1  0.000000  0.000000  0.000000  1
