# generated using pymatgen
data_Tm4UP12Ru19
_symmetry_space_group_name_H-M   'P 1'
_cell_length_a   12.53526152
_cell_length_b   12.49420152
_cell_length_c   3.94838000
_cell_angle_alpha   90.00000000
_cell_angle_beta   90.00000000
_cell_angle_gamma   119.89170618
_symmetry_Int_Tables_number   1
_chemical_formula_structural   Tm4UP12Ru19
_chemical_formula_sum   'Tm4 U1 P12 Ru19'
_cell_volume   536.12291062
_cell_formula_units_Z   1
loop_
 _symmetry_equiv_pos_site_id
 _symmetry_equiv_pos_as_xyz
  1  'x, y, z'
loop_
 _atom_site_type_symbol
 _atom_site_label
 _atom_site_symmetry_multiplicity
 _atom_site_fract_x
 _atom_site_fract_y
 _atom_site_fract_z
 _atom_site_occupancy
  Tm  Tm0  1  0.812592  0.811494  0.500000  1
  Tm  Tm1  1  0.187408  0.998902  0.500000  1
  Tm  Tm2  1  0.668092  0.333274  0.000000  1
  Tm  Tm3  1  0.331908  0.665183  0.000000  1
  U  U4  1  0.000000  0.178564  0.500000  1
  P  P5  1  0.000000  0.818155  0.000000  1
  P  P6  1  0.187784  0.181770  0.000000  1
  P  P7  1  0.812216  0.993986  0.000000  1
  P  P8  1  0.692672  0.171873  0.500000  1
  P  P9  1  0.828102  0.522400  0.500000  1
  P  P10  1  0.479786  0.308259  0.500000  1
  P  P11  1  0.171898  0.694298  0.500000  1
  P  P12  1  0.520214  0.828473  0.500000  1
  P  P13  1  0.307328  0.479202  0.500000  1
  P  P14  1  0.000000  0.373931  0.000000  1
  P  P15  1  0.626956  0.627361  0.000000  1
  P  P16  1  0.373044  0.000405  0.000000  1
  Ru  Ru17  1  0.000000  0.555585  0.000000  1
  Ru  Ru18  1  0.442345  0.446448  0.000000  1
  Ru  Ru19  1  0.557655  0.004103  0.000000  1
  Ru  Ru20  1  0.000000  0.719226  0.500000  1
  Ru  Ru21  1  0.281564  0.282899  0.500000  1
  Ru  Ru22  1  0.718436  0.001335  0.500000  1
  Ru  Ru23  1  0.814605  0.183778  0.000000  1
  Ru  Ru24  1  0.815117  0.622993  0.000000  1
  Ru  Ru25  1  0.378739  0.193624  0.000000  1
  Ru  Ru26  1  0.184883  0.807876  0.000000  1
  Ru  Ru27  1  0.621261  0.814885  0.000000  1
  Ru  Ru28  1  0.185395  0.369173  0.000000  1
  Ru  Ru29  1  0.873017  0.364745  0.500000  1
  Ru  Ru30  1  0.633687  0.509253  0.500000  1
  Ru  Ru31  1  0.493341  0.128480  0.500000  1
  Ru  Ru32  1  0.366313  0.875565  0.500000  1
  Ru  Ru33  1  0.506659  0.635139  0.500000  1
  Ru  Ru34  1  0.126983  0.491728  0.500000  1
  Ru  Ru35  1  0.000000  0.005632  0.000000  1
