# generated using pymatgen
data_Tb2Y3(GeB4)2
_symmetry_space_group_name_H-M   'P 1'
_cell_length_a   7.27467626
_cell_length_b   7.27465528
_cell_length_c   8.18111602
_cell_angle_alpha   89.99253388
_cell_angle_beta   90.00026796
_cell_angle_gamma   90.03063792
_symmetry_Int_Tables_number   1
_chemical_formula_structural   Tb2Y3(GeB4)2
_chemical_formula_sum   'Tb4 Y6 Ge4 B16'
_cell_volume   432.95082834
_cell_formula_units_Z   2
loop_
 _symmetry_equiv_pos_site_id
 _symmetry_equiv_pos_as_xyz
  1  'x, y, z'
loop_
 _atom_site_type_symbol
 _atom_site_label
 _atom_site_symmetry_multiplicity
 _atom_site_fract_x
 _atom_site_fract_y
 _atom_site_fract_z
 _atom_site_occupancy
  Tb  Tb0  1  0.680421  0.180412  0.221006  1
  Tb  Tb1  1  0.319528  0.819542  0.778889  1
  Tb  Tb2  1  0.319592  0.819582  0.221079  1
  Tb  Tb3  1  0.819580  0.680407  0.221062  1
  Y  Y4  1  0.819578  0.680428  0.779170  1
  Y  Y5  1  0.680418  0.180431  0.779225  1
  Y  Y6  1  0.180427  0.319577  0.779235  1
  Y  Y7  1  0.180370  0.319616  0.220725  1
  Y  Y8  1  0.999965  0.000060  0.500067  1
  Y  Y9  1  0.499963  0.499940  0.500068  1
  Ge  Ge10  1  0.119856  0.619782  0.500052  1
  Ge  Ge11  1  0.880153  0.380082  0.500026  1
  Ge  Ge12  1  0.380027  0.120047  0.500046  1
  Ge  Ge13  1  0.619980  0.880091  0.500037  1
  B  B14  1  0.172096  0.039316  0.999927  1
  B  B15  1  0.827909  0.960720  0.999955  1
  B  B16  1  0.960566  0.172081  0.999950  1
  B  B17  1  0.327970  0.539396  0.999925  1
  B  B18  1  0.039393  0.828014  0.999930  1
  B  B19  1  0.672036  0.460569  0.999955  1
  B  B20  1  0.539277  0.672044  0.999945  1
  B  B21  1  0.460680  0.327859  0.999938  1
  B  B22  1  0.090428  0.590362  0.999988  1
  B  B23  1  0.909671  0.409602  0.000050  1
  B  B24  1  0.409751  0.090316  0.999985  1
  B  B25  1  0.590350  0.909718  0.000046  1
  B  B26  1  0.000015  0.000073  0.160988  1
  B  B27  1  0.999993  0.000047  0.838870  1
  B  B28  1  0.500017  0.499920  0.838872  1
  B  B29  1  0.499990  0.499963  0.160989  1
