# generated using pymatgen
data_Dy12Y7ThSn16
_symmetry_space_group_name_H-M   'P 1'
_cell_length_a   8.07121140
_cell_length_b   8.19058773
_cell_length_c   15.50669628
_cell_angle_alpha   90.09056762
_cell_angle_beta   89.78863211
_cell_angle_gamma   89.88687251
_symmetry_Int_Tables_number   1
_chemical_formula_structural   Dy12Y7ThSn16
_chemical_formula_sum   'Dy12 Y7 Th1 Sn16'
_cell_volume   1025.10586929
_cell_formula_units_Z   1
loop_
 _symmetry_equiv_pos_site_id
 _symmetry_equiv_pos_as_xyz
  1  'x, y, z'
loop_
 _atom_site_type_symbol
 _atom_site_label
 _atom_site_symmetry_multiplicity
 _atom_site_fract_x
 _atom_site_fract_y
 _atom_site_fract_z
 _atom_site_occupancy
  Dy  Dy0  1  0.367006  0.835796  0.877780  1
  Dy  Dy1  1  0.868170  0.664082  0.621461  1
  Dy  Dy2  1  0.631644  0.163067  0.377891  1
  Dy  Dy3  1  0.133039  0.337048  0.122618  1
  Dy  Dy4  1  0.633072  0.163092  0.122440  1
  Dy  Dy5  1  0.132132  0.337201  0.378078  1
  Dy  Dy6  1  0.368163  0.836645  0.621969  1
  Dy  Dy7  1  0.867139  0.662898  0.877960  1
  Dy  Dy8  1  0.522817  0.322123  0.901983  1
  Dy  Dy9  1  0.022885  0.178986  0.598879  1
  Dy  Dy10  1  0.478415  0.678522  0.401958  1
  Dy  Dy11  1  0.979245  0.821339  0.098451  1
  Y  Y12  1  0.479616  0.678404  0.098009  1
  Y  Y13  1  0.978609  0.821110  0.401948  1
  Y  Y14  1  0.521505  0.322683  0.597165  1
  Y  Y15  1  0.198163  0.500892  0.749344  1
  Y  Y16  1  0.697958  0.997401  0.748864  1
  Y  Y17  1  0.801625  0.498009  0.250568  1
  Y  Y18  1  0.301798  0.001924  0.250045  1
  Th  Th19  1  0.017940  0.180191  0.903183  1
  Sn  Sn20  1  0.293302  0.035059  0.042353  1
  Sn  Sn21  1  0.791105  0.463958  0.458097  1
  Sn  Sn22  1  0.709031  0.965876  0.541889  1
  Sn  Sn23  1  0.209441  0.535400  0.957955  1
  Sn  Sn24  1  0.704605  0.961090  0.958921  1
  Sn  Sn25  1  0.208415  0.536587  0.541674  1
  Sn  Sn26  1  0.291393  0.036162  0.458335  1
  Sn  Sn27  1  0.792829  0.462092  0.041168  1
  Sn  Sn28  1  0.564660  0.620147  0.749816  1
  Sn  Sn29  1  0.065037  0.879304  0.750984  1
  Sn  Sn30  1  0.435183  0.380667  0.249953  1
  Sn  Sn31  1  0.934991  0.119410  0.250260  1
  Sn  Sn32  1  0.331462  0.147373  0.749867  1
  Sn  Sn33  1  0.827017  0.355717  0.748198  1
  Sn  Sn34  1  0.670479  0.852673  0.249929  1
  Sn  Sn35  1  0.170109  0.647073  0.250002  1
