# generated using pymatgen
data_Sr6TiIrRuO12
_symmetry_space_group_name_H-M   'P 1'
_cell_length_a   8.79903021
_cell_length_b   8.79903195
_cell_length_c   6.95856167
_cell_angle_alpha   67.70387365
_cell_angle_beta   67.70386996
_cell_angle_gamma   36.87605756
_symmetry_Int_Tables_number   1
_chemical_formula_structural   Sr6TiIrRuO12
_chemical_formula_sum   'Sr6 Ti1 Ir1 Ru1 O12'
_cell_volume   296.31812136
_cell_formula_units_Z   1
loop_
 _symmetry_equiv_pos_site_id
 _symmetry_equiv_pos_as_xyz
  1  'x, y, z'
loop_
 _atom_site_type_symbol
 _atom_site_label
 _atom_site_symmetry_multiplicity
 _atom_site_fract_x
 _atom_site_fract_y
 _atom_site_fract_z
 _atom_site_occupancy
  Sr  Sr0  1  0.882261  0.882261  0.707431  1
  Sr  Sr1  1  0.214898  0.214898  0.709003  1
  Sr  Sr2  1  0.548729  0.548729  0.708477  1
  Sr  Sr3  1  0.451866  0.451866  0.290758  1
  Sr  Sr4  1  0.784838  0.784838  0.291477  1
  Sr  Sr5  1  0.117477  0.117477  0.292823  1
  Ti  Ti6  1  0.000796  0.000796  0.999947  1
  Ir  Ir7  1  0.666664  0.666664  0.999882  1
  Ru  Ru8  1  0.333337  0.333337  0.000072  1
  O  O9  1  0.946634  0.946634  0.317396  1
  O  O10  1  0.280930  0.280930  0.324174  1
  O  O11  1  0.610808  0.610808  0.326862  1
  O  O12  1  0.388777  0.388777  0.676703  1
  O  O13  1  0.720039  0.720039  0.672267  1
  O  O14  1  0.052484  0.052484  0.682661  1
  O  O15  1  0.499312  0.001835  0.999986  1
  O  O16  1  0.834774  0.329319  0.000074  1
  O  O17  1  0.166012  0.668212  0.999975  1
  O  O18  1  0.001835  0.499312  0.999986  1
  O  O19  1  0.329319  0.834774  0.000074  1
  O  O20  1  0.668212  0.166012  0.999975  1
