# generated using pymatgen
data_Na2Mn3O6
_symmetry_space_group_name_H-M   'P 1'
_cell_length_a   7.06335636
_cell_length_b   7.06281502
_cell_length_c   9.30748565
_cell_angle_alpha   67.53418614
_cell_angle_beta   67.53082285
_cell_angle_gamma   76.14750344
_symmetry_Int_Tables_number   1
_chemical_formula_structural   Na2Mn3O6
_chemical_formula_sum   'Na6 Mn9 O18'
_cell_volume   394.13402454
_cell_formula_units_Z   3
loop_
 _symmetry_equiv_pos_site_id
 _symmetry_equiv_pos_as_xyz
  1  'x, y, z'
loop_
 _atom_site_type_symbol
 _atom_site_label
 _atom_site_symmetry_multiplicity
 _atom_site_fract_x
 _atom_site_fract_y
 _atom_site_fract_z
 _atom_site_occupancy
  Na  Na0  1  0.840329  0.493478  0.666670  1
  Na  Na1  1  0.159671  0.506522  0.333330  1
  Na  Na2  1  0.506873  0.159578  0.333181  1
  Na  Na3  1  0.493127  0.840422  0.666819  1
  Na  Na4  1  0.826470  0.173722  0.999868  1
  Na  Na5  1  0.173530  0.826278  0.000132  1
  Mn  Mn6  1  0.500555  0.166312  0.833545  1
  Mn  Mn7  1  0.832872  0.167218  0.499835  1
  Mn  Mn8  1  0.166771  0.166512  0.166510  1
  Mn  Mn9  1  0.167128  0.832782  0.500165  1
  Mn  Mn10  1  0.499445  0.833688  0.166455  1
  Mn  Mn11  1  0.833229  0.833488  0.833490  1
  Mn  Mn12  1  0.500000  0.500000  0.500000  1
  Mn  Mn13  1  0.833975  0.499309  0.166386  1
  Mn  Mn14  1  0.166025  0.500691  0.833614  1
  O  O15  1  0.133357  0.799614  0.764466  1
  O  O16  1  0.466109  0.799862  0.430989  1
  O  O17  1  0.805426  0.805405  0.062025  1
  O  O18  1  0.472183  0.472293  0.728605  1
  O  O19  1  0.799870  0.466149  0.430910  1
  O  O20  1  0.799546  0.133466  0.764399  1
  O  O21  1  0.200130  0.533851  0.569090  1
  O  O22  1  0.527817  0.527707  0.271395  1
  O  O23  1  0.533891  0.200138  0.569011  1
  O  O24  1  0.132772  0.466358  0.097669  1
  O  O25  1  0.138725  0.138712  0.395109  1
  O  O26  1  0.466397  0.132647  0.097679  1
  O  O27  1  0.867228  0.533642  0.902331  1
  O  O28  1  0.866643  0.200386  0.235534  1
  O  O29  1  0.194574  0.194595  0.937975  1
  O  O30  1  0.861275  0.861288  0.604891  1
  O  O31  1  0.200454  0.866534  0.235601  1
  O  O32  1  0.533603  0.867353  0.902321  1
