# generated using pymatgen
data_Ho10Hg3Ru
_symmetry_space_group_name_H-M   'P 1'
_cell_length_a   9.55596800
_cell_length_b   9.55598833
_cell_length_c   9.67372700
_cell_angle_alpha   90.00000000
_cell_angle_beta   90.00000000
_cell_angle_gamma   120.00067332
_symmetry_Int_Tables_number   1
_chemical_formula_structural   Ho10Hg3Ru
_chemical_formula_sum   'Ho20 Hg6 Ru2'
_cell_volume   765.01827437
_cell_formula_units_Z   2
loop_
 _symmetry_equiv_pos_site_id
 _symmetry_equiv_pos_as_xyz
  1  'x, y, z'
loop_
 _atom_site_type_symbol
 _atom_site_label
 _atom_site_symmetry_multiplicity
 _atom_site_fract_x
 _atom_site_fract_y
 _atom_site_fract_z
 _atom_site_occupancy
  Ho  Ho0  1  0.000000  0.000000  0.500000  1
  Ho  Ho1  1  0.000000  0.000000  0.000000  1
  Ho  Ho2  1  0.209504  0.790499  0.439809  1
  Ho  Ho3  1  0.209490  0.418975  0.439794  1
  Ho  Ho4  1  0.581009  0.790499  0.439806  1
  Ho  Ho5  1  0.790496  0.209501  0.560191  1
  Ho  Ho6  1  0.790510  0.581025  0.560206  1
  Ho  Ho7  1  0.418991  0.209501  0.560194  1
  Ho  Ho8  1  0.790496  0.209501  0.939809  1
  Ho  Ho9  1  0.790510  0.581025  0.939794  1
  Ho  Ho10  1  0.418991  0.209501  0.939806  1
  Ho  Ho11  1  0.209504  0.790499  0.060191  1
  Ho  Ho12  1  0.209490  0.418975  0.060206  1
  Ho  Ho13  1  0.581009  0.790499  0.060194  1
  Ho  Ho14  1  0.541147  0.458843  0.250000  1
  Ho  Ho15  1  0.541145  0.082307  0.250000  1
  Ho  Ho16  1  0.917698  0.458865  0.250000  1
  Ho  Ho17  1  0.458853  0.541157  0.750000  1
  Ho  Ho18  1  0.458855  0.917693  0.750000  1
  Ho  Ho19  1  0.082302  0.541135  0.750000  1
  Hg  Hg20  1  0.881438  0.118589  0.250000  1
  Hg  Hg21  1  0.881414  0.762851  0.250000  1
  Hg  Hg22  1  0.237142  0.118597  0.250000  1
  Hg  Hg23  1  0.118562  0.881411  0.750000  1
  Hg  Hg24  1  0.118586  0.237149  0.750000  1
  Hg  Hg25  1  0.762858  0.881403  0.750000  1
  Ru  Ru26  1  0.333321  0.666671  0.250000  1
  Ru  Ru27  1  0.666679  0.333329  0.750000  1
