# generated using pymatgen
data_Lu2GaTc2Mo
_symmetry_space_group_name_H-M   'P 1'
_cell_length_a   5.41659060
_cell_length_b   5.53675160
_cell_length_c   8.59376200
_cell_angle_alpha   90.00000000
_cell_angle_beta   90.00000000
_cell_angle_gamma   120.73657684
_symmetry_Int_Tables_number   1
_chemical_formula_structural   Lu2GaTc2Mo
_chemical_formula_sum   'Lu4 Ga2 Tc4 Mo2'
_cell_volume   221.52537435
_cell_formula_units_Z   2
loop_
 _symmetry_equiv_pos_site_id
 _symmetry_equiv_pos_as_xyz
  1  'x, y, z'
loop_
 _atom_site_type_symbol
 _atom_site_label
 _atom_site_symmetry_multiplicity
 _atom_site_fract_x
 _atom_site_fract_y
 _atom_site_fract_z
 _atom_site_occupancy
  Lu  Lu0  1  0.338373  0.669187  0.442429  1
  Lu  Lu1  1  0.664517  0.332258  0.563627  1
  Lu  Lu2  1  0.664517  0.332258  0.936373  1
  Lu  Lu3  1  0.338373  0.669187  0.057571  1
  Ga  Ga4  1  0.820876  0.164894  0.250000  1
  Ga  Ga5  1  0.820876  0.655981  0.250000  1
  Tc  Tc6  1  0.323447  0.161723  0.250000  1
  Tc  Tc7  1  0.175157  0.829265  0.750000  1
  Tc  Tc8  1  0.175157  0.345893  0.750000  1
  Tc  Tc9  1  0.652407  0.826204  0.750000  1
  Mo  Mo10  1  0.013150  0.006575  0.507022  1
  Mo  Mo11  1  0.013150  0.006575  0.992978  1
