# generated using pymatgen
data_Y2Co3Si(As2Ru3)3
_symmetry_space_group_name_H-M   'P 1'
_cell_length_a   3.91058400
_cell_length_b   9.65731638
_cell_length_c   9.65731700
_cell_angle_alpha   119.99999186
_cell_angle_beta   90.00000000
_cell_angle_gamma   90.00000000
_symmetry_Int_Tables_number   1
_chemical_formula_structural   Y2Co3Si(As2Ru3)3
_chemical_formula_sum   'Y2 Co3 Si1 As6 Ru9'
_cell_volume   315.85316485
_cell_formula_units_Z   1
loop_
 _symmetry_equiv_pos_site_id
 _symmetry_equiv_pos_as_xyz
  1  'x, y, z'
loop_
 _atom_site_type_symbol
 _atom_site_label
 _atom_site_symmetry_multiplicity
 _atom_site_fract_x
 _atom_site_fract_y
 _atom_site_fract_z
 _atom_site_occupancy
  Y  Y0  1  0.000000  0.666667  0.333333  1
  Y  Y1  1  0.500000  0.333333  0.666667  1
  Co  Co2  1  0.000000  0.884849  0.154556  1
  Co  Co3  1  0.000000  0.269707  0.115151  1
  Co  Co4  1  0.000000  0.845444  0.730293  1
  Si  Si5  1  0.000000  0.000000  0.000000  1
  As  As6  1  0.500000  0.716757  0.115772  1
  As  As7  1  0.500000  0.399015  0.283243  1
  As  As8  1  0.500000  0.884228  0.600985  1
  As  As9  1  0.000000  0.591881  0.703482  1
  As  As10  1  0.000000  0.111601  0.408119  1
  As  As11  1  0.000000  0.296518  0.888399  1
  Ru  Ru12  1  0.000000  0.575233  0.941840  1
  Ru  Ru13  1  0.000000  0.366607  0.424767  1
  Ru  Ru14  1  0.000000  0.058160  0.633393  1
  Ru  Ru15  1  0.500000  0.801275  0.912625  1
  Ru  Ru16  1  0.500000  0.111351  0.198725  1
  Ru  Ru17  1  0.500000  0.087375  0.888649  1
  Ru  Ru18  1  0.500000  0.947185  0.383105  1
  Ru  Ru19  1  0.500000  0.435917  0.052815  1
  Ru  Ru20  1  0.500000  0.616895  0.564083  1
