# generated using pymatgen
data_Tb4Lu16SiBi11
_symmetry_space_group_name_H-M   'P 1'
_cell_length_a   8.10232640
_cell_length_b   9.33462000
_cell_length_c   11.84259836
_cell_angle_alpha   90.00000000
_cell_angle_beta   90.19137337
_cell_angle_gamma   90.00000000
_symmetry_Int_Tables_number   1
_chemical_formula_structural   Tb4Lu16SiBi11
_chemical_formula_sum   'Tb4 Lu16 Si1 Bi11'
_cell_volume   895.67603853
_cell_formula_units_Z   1
loop_
 _symmetry_equiv_pos_site_id
 _symmetry_equiv_pos_as_xyz
  1  'x, y, z'
loop_
 _atom_site_type_symbol
 _atom_site_label
 _atom_site_symmetry_multiplicity
 _atom_site_fract_x
 _atom_site_fract_y
 _atom_site_fract_z
 _atom_site_occupancy
  Tb  Tb0  1  0.314423  0.250000  0.218643  1
  Tb  Tb1  1  0.813232  0.250000  0.281814  1
  Tb  Tb2  1  0.671658  0.750000  0.790377  1
  Tb  Tb3  1  0.190512  0.750000  0.722808  1
  Lu  Lu4  1  0.354344  0.750000  0.205751  1
  Lu  Lu5  1  0.851443  0.750000  0.281850  1
  Lu  Lu6  1  0.649367  0.250000  0.781782  1
  Lu  Lu7  1  0.148613  0.250000  0.719328  1
  Lu  Lu8  1  0.681323  0.574541  0.055942  1
  Lu  Lu9  1  0.192367  0.932400  0.438575  1
  Lu  Lu10  1  0.310911  0.050612  0.940208  1
  Lu  Lu11  1  0.807599  0.433382  0.560564  1
  Lu  Lu12  1  0.310911  0.449388  0.940208  1
  Lu  Lu13  1  0.807599  0.066618  0.560564  1
  Lu  Lu14  1  0.681323  0.925459  0.055942  1
  Lu  Lu15  1  0.192367  0.567600  0.438575  1
  Lu  Lu16  1  0.477797  0.250000  0.489102  1
  Lu  Lu17  1  0.980451  0.250000  0.010018  1
  Lu  Lu18  1  0.523565  0.750000  0.511184  1
  Lu  Lu19  1  0.037744  0.750000  0.989069  1
  Si  Si20  1  0.407140  0.750000  0.965351  1
  Bi  Bi21  1  0.904852  0.750000  0.541867  1
  Bi  Bi22  1  0.596755  0.250000  0.039511  1
  Bi  Bi23  1  0.097196  0.250000  0.460527  1
  Bi  Bi24  1  0.564714  0.993006  0.326184  1
  Bi  Bi25  1  0.064075  0.505528  0.173687  1
  Bi  Bi26  1  0.435037  0.493490  0.673767  1
  Bi  Bi27  1  0.934428  0.004376  0.826582  1
  Bi  Bi28  1  0.435037  0.006510  0.673767  1
  Bi  Bi29  1  0.934428  0.495624  0.826582  1
  Bi  Bi30  1  0.564714  0.506994  0.326184  1
  Bi  Bi31  1  0.064075  0.994472  0.173687  1
