# generated using pymatgen
data_CsCa(TcO4)3
_symmetry_space_group_name_H-M   'P 1'
_cell_length_a   6.50322600
_cell_length_b   9.15716503
_cell_length_c   12.01635690
_cell_angle_alpha   77.91269653
_cell_angle_beta   90.00000000
_cell_angle_gamma   90.00000000
_symmetry_Int_Tables_number   1
_chemical_formula_structural   CsCa(TcO4)3
_chemical_formula_sum   'Cs2 Ca2 Tc6 O24'
_cell_volume   699.72262170
_cell_formula_units_Z   2
loop_
 _symmetry_equiv_pos_site_id
 _symmetry_equiv_pos_as_xyz
  1  'x, y, z'
loop_
 _atom_site_type_symbol
 _atom_site_label
 _atom_site_symmetry_multiplicity
 _atom_site_fract_x
 _atom_site_fract_y
 _atom_site_fract_z
 _atom_site_occupancy
  Cs  Cs0  1  0.250000  0.129882  0.699783  1
  Cs  Cs1  1  0.750000  0.870118  0.300217  1
  Ca  Ca2  1  0.250000  0.630667  0.835030  1
  Ca  Ca3  1  0.750000  0.369333  0.164970  1
  Tc  Tc4  1  0.750000  0.425159  0.811075  1
  Tc  Tc5  1  0.250000  0.574841  0.188925  1
  Tc  Tc6  1  0.250000  0.789107  0.514393  1
  Tc  Tc7  1  0.750000  0.210893  0.485607  1
  Tc  Tc8  1  0.250000  0.198069  0.041689  1
  Tc  Tc9  1  0.750000  0.801931  0.958311  1
  O  O10  1  0.750000  0.247192  0.784329  1
  O  O11  1  0.250000  0.752808  0.215671  1
  O  O12  1  0.250000  0.582271  0.042198  1
  O  O13  1  0.750000  0.417729  0.957802  1
  O  O14  1  0.970317  0.519789  0.752688  1
  O  O15  1  0.470317  0.480211  0.247312  1
  O  O16  1  0.029683  0.480211  0.247312  1
  O  O17  1  0.529683  0.519789  0.752688  1
  O  O18  1  0.750000  0.030694  0.567479  1
  O  O19  1  0.250000  0.969306  0.432521  1
  O  O20  1  0.250000  0.796992  0.661070  1
  O  O21  1  0.750000  0.203008  0.338930  1
  O  O22  1  0.966847  0.302741  0.518622  1
  O  O23  1  0.466847  0.697259  0.481378  1
  O  O24  1  0.033153  0.697259  0.481378  1
  O  O25  1  0.533153  0.302741  0.518622  1
  O  O26  1  0.250000  0.026936  0.004176  1
  O  O27  1  0.750000  0.973064  0.995824  1
  O  O28  1  0.250000  0.336203  0.916796  1
  O  O29  1  0.750000  0.663797  0.083204  1
  O  O30  1  0.029729  0.216229  0.121399  1
  O  O31  1  0.529729  0.783771  0.878601  1
  O  O32  1  0.970271  0.783771  0.878601  1
  O  O33  1  0.470271  0.216229  0.121399  1
