# generated using pymatgen
data_Dy2Er2InPbAu4
_symmetry_space_group_name_H-M   'P 1'
_cell_length_a   8.10166500
_cell_length_b   8.10458600
_cell_length_c   3.64625200
_cell_angle_alpha   90.00000000
_cell_angle_beta   90.00000000
_cell_angle_gamma   89.99963939
_symmetry_Int_Tables_number   1
_chemical_formula_structural   Dy2Er2InPbAu4
_chemical_formula_sum   'Dy2 Er2 In1 Pb1 Au4'
_cell_volume   239.41524260
_cell_formula_units_Z   1
loop_
 _symmetry_equiv_pos_site_id
 _symmetry_equiv_pos_as_xyz
  1  'x, y, z'
loop_
 _atom_site_type_symbol
 _atom_site_label
 _atom_site_symmetry_multiplicity
 _atom_site_fract_x
 _atom_site_fract_y
 _atom_site_fract_z
 _atom_site_occupancy
  Dy  Dy0  1  0.672205  0.164464  0.500000  1
  Dy  Dy1  1  0.164724  0.327943  0.500000  1
  Er  Er2  1  0.327844  0.835893  0.500000  1
  Er  Er3  1  0.836157  0.672319  0.500000  1
  In  In4  1  0.999966  0.999695  0.000000  1
  Pb  Pb5  1  0.500226  0.499796  0.000000  1
  Au  Au6  1  0.124013  0.633253  0.000000  1
  Au  Au7  1  0.630656  0.873273  0.000000  1
  Au  Au8  1  0.368831  0.121803  0.000000  1
  Au  Au9  1  0.875377  0.371561  0.000000  1
