# generated using pymatgen
data_Ta8Fe8Si13As
_symmetry_space_group_name_H-M   'P 1'
_cell_length_a   9.21386933
_cell_length_b   9.21436100
_cell_length_c   9.21358100
_cell_angle_alpha   94.18030322
_cell_angle_beta   94.23519723
_cell_angle_gamma   148.57269527
_symmetry_Int_Tables_number   1
_chemical_formula_structural   Ta8Fe8Si13As
_chemical_formula_sum   'Ta8 Fe8 Si13 As1'
_cell_volume   392.61516104
_cell_formula_units_Z   1
loop_
 _symmetry_equiv_pos_site_id
 _symmetry_equiv_pos_as_xyz
  1  'x, y, z'
loop_
 _atom_site_type_symbol
 _atom_site_label
 _atom_site_symmetry_multiplicity
 _atom_site_fract_x
 _atom_site_fract_y
 _atom_site_fract_z
 _atom_site_occupancy
  Ta  Ta0  1  0.134410  0.135533  0.269955  1
  Ta  Ta1  1  0.865822  0.864932  0.730750  1
  Ta  Ta2  1  0.865598  0.135546  0.001135  1
  Ta  Ta3  1  0.134177  0.864927  0.999112  1
  Ta  Ta4  1  0.500007  0.310433  0.810437  1
  Ta  Ta5  1  0.499997  0.689900  0.189897  1
  Ta  Ta6  1  0.691155  0.499989  0.191141  1
  Ta  Ta7  1  0.308842  0.499998  0.808856  1
  Fe  Fe8  1  0.400251  0.899398  0.800082  1
  Fe  Fe9  1  0.101295  0.601720  0.201717  1
  Fe  Fe10  1  0.099375  0.899444  0.499154  1
  Fe  Fe11  1  0.399987  0.601690  0.500393  1
  Fe  Fe12  1  0.599726  0.399789  0.499154  1
  Fe  Fe13  1  0.898682  0.100394  0.500391  1
  Fe  Fe14  1  0.900678  0.399821  0.800087  1
  Fe  Fe15  1  0.600006  0.100421  0.201700  1
  Si  Si16  1  0.499978  0.901517  0.401506  1
  Si  Si17  1  0.905026  0.499281  0.404278  1
  Si  Si18  1  0.094975  0.499262  0.594247  1
  Si  Si19  1  0.750905  0.751293  0.000385  1
  Si  Si20  1  0.249092  0.249475  0.000385  1
  Si  Si21  1  0.290227  0.290873  0.581096  1
  Si  Si22  1  0.708639  0.709488  0.418138  1
  Si  Si23  1  0.709780  0.290875  0.000650  1
  Si  Si24  1  0.291342  0.709505  0.000850  1
  Si  Si25  1  0.999991  0.298477  0.298468  1
  Si  Si26  1  0.000016  0.703955  0.703968  1
  Si  Si27  1  0.705759  0.999188  0.704974  1
  Si  Si28  1  0.294260  0.999205  0.293438  1
  As  As29  1  0.499998  0.093671  0.593657  1
