# generated using pymatgen
data_Sc6BP5Ru6
_symmetry_space_group_name_H-M   'P 1'
_cell_length_a   7.46518191
_cell_length_b   7.46707550
_cell_length_c   7.46518352
_cell_angle_alpha   127.62784376
_cell_angle_beta   123.90688373
_cell_angle_gamma   80.30013206
_symmetry_Int_Tables_number   1
_chemical_formula_structural   Sc6BP5Ru6
_chemical_formula_sum   'Sc6 B1 P5 Ru6'
_cell_volume   263.98708246
_cell_formula_units_Z   1
loop_
 _symmetry_equiv_pos_site_id
 _symmetry_equiv_pos_as_xyz
  1  'x, y, z'
loop_
 _atom_site_type_symbol
 _atom_site_label
 _atom_site_symmetry_multiplicity
 _atom_site_fract_x
 _atom_site_fract_y
 _atom_site_fract_z
 _atom_site_occupancy
  Sc  Sc0  1  0.453326  0.658962  0.705636  1
  Sc  Sc1  1  0.550273  0.255262  0.204990  1
  Sc  Sc2  1  0.750023  0.844450  0.594427  1
  Sc  Sc3  1  0.250073  0.854080  0.104006  1
  Sc  Sc4  1  0.046596  0.252432  0.705836  1
  Sc  Sc5  1  0.949639  0.654472  0.204833  1
  B  B6  1  0.250043  0.255031  0.504989  1
  P  P7  1  0.749988  0.250324  0.000337  1
  P  P8  1  0.333497  0.587168  0.253887  1
  P  P9  1  0.666734  0.920380  0.253817  1
  P  P10  1  0.166562  0.920380  0.753646  1
  P  P11  1  0.833282  0.587168  0.753671  1
  Ru  Ru12  1  0.479840  0.495080  0.974925  1
  Ru  Ru13  1  0.020156  0.495080  0.515240  1
  Ru  Ru14  1  0.140381  0.253143  0.151947  1
  Ru  Ru15  1  0.899012  0.011523  0.152142  1
  Ru  Ru16  1  0.359381  0.011523  0.612510  1
  Ru  Ru17  1  0.601196  0.253143  0.612762  1
