# generated using pymatgen
data_Tb4Tm4B24MoOs3
_symmetry_space_group_name_H-M   'P 1'
_cell_length_a   3.64591800
_cell_length_b   9.15102374
_cell_length_c   11.55404803
_cell_angle_alpha   89.90502908
_cell_angle_beta   90.00000000
_cell_angle_gamma   90.00000000
_symmetry_Int_Tables_number   1
_chemical_formula_structural   Tb4Tm4B24MoOs3
_chemical_formula_sum   'Tb4 Tm4 B24 Mo1 Os3'
_cell_volume   385.48736740
_cell_formula_units_Z   1
loop_
 _symmetry_equiv_pos_site_id
 _symmetry_equiv_pos_as_xyz
  1  'x, y, z'
loop_
 _atom_site_type_symbol
 _atom_site_label
 _atom_site_symmetry_multiplicity
 _atom_site_fract_x
 _atom_site_fract_y
 _atom_site_fract_z
 _atom_site_occupancy
  Tb  Tb0  1  0.000000  0.321810  0.413184  1
  Tb  Tb1  1  0.000000  0.677616  0.585028  1
  Tb  Tb2  1  0.000000  0.820490  0.087126  1
  Tb  Tb3  1  0.000000  0.177671  0.914479  1
  Tm  Tm4  1  0.000000  0.944909  0.372692  1
  Tm  Tm5  1  0.000000  0.057507  0.628416  1
  Tm  Tm6  1  0.000000  0.443297  0.127043  1
  Tm  Tm7  1  0.000000  0.556820  0.871266  1
  B  B8  1  0.500000  0.551550  0.434879  1
  B  B9  1  0.500000  0.445809  0.568436  1
  B  B10  1  0.500000  0.053948  0.067582  1
  B  B11  1  0.500000  0.945860  0.932584  1
  B  B12  1  0.500000  0.751456  0.420876  1
  B  B13  1  0.500000  0.251390  0.581770  1
  B  B14  1  0.500000  0.249004  0.080940  1
  B  B15  1  0.500000  0.750735  0.918387  1
  B  B16  1  0.500000  0.794309  0.265110  1
  B  B17  1  0.500000  0.208637  0.734147  1
  B  B18  1  0.500000  0.290889  0.232720  1
  B  B19  1  0.500000  0.709309  0.766113  1
  B  B20  1  0.500000  0.630889  0.183282  1
  B  B21  1  0.500000  0.368930  0.814972  1
  B  B22  1  0.500000  0.130636  0.313788  1
  B  B23  1  0.500000  0.870095  0.685647  1
  B  B24  1  0.500000  0.983186  0.213201  1
  B  B25  1  0.500000  0.017195  0.787535  1
  B  B26  1  0.500000  0.478768  0.285920  1
  B  B27  1  0.500000  0.516389  0.713485  1
  B  B28  1  0.500000  0.603568  0.027257  1
  B  B29  1  0.500000  0.395992  0.970505  1
  B  B30  1  0.500000  0.104404  0.471740  1
  B  B31  1  0.500000  0.898208  0.529659  1
  Mo  Mo32  1  0.000000  0.637955  0.320762  1
  Os  Os33  1  0.000000  0.360716  0.680931  1
  Os  Os34  1  0.000000  0.137946  0.178174  1
  Os  Os35  1  0.000000  0.862107  0.820364  1
