# generated using pymatgen
data_CaMg(FeBr4)4
_symmetry_space_group_name_H-M   'P 1'
_cell_length_a   10.78807323
_cell_length_b   10.78807317
_cell_length_c   12.90037701
_cell_angle_alpha   55.83463770
_cell_angle_beta   55.83463793
_cell_angle_gamma   49.23060173
_symmetry_Int_Tables_number   1
_chemical_formula_structural   CaMg(FeBr4)4
_chemical_formula_sum   'Ca1 Mg1 Fe4 Br16'
_cell_volume   894.18307667
_cell_formula_units_Z   1
loop_
 _symmetry_equiv_pos_site_id
 _symmetry_equiv_pos_as_xyz
  1  'x, y, z'
loop_
 _atom_site_type_symbol
 _atom_site_label
 _atom_site_symmetry_multiplicity
 _atom_site_fract_x
 _atom_site_fract_y
 _atom_site_fract_z
 _atom_site_occupancy
  Ca  Ca0  1  0.999677  0.000323  0.750000  1
  Mg  Mg1  1  0.008722  0.991278  0.250000  1
  Fe  Fe2  1  0.156757  0.677615  0.524766  1
  Fe  Fe3  1  0.322385  0.843243  0.975234  1
  Fe  Fe4  1  0.843391  0.322446  0.463218  1
  Fe  Fe5  1  0.677554  0.156609  0.036782  1
  Br  Br6  1  0.299679  0.394170  0.540333  1
  Br  Br7  1  0.605830  0.700321  0.959667  1
  Br  Br8  1  0.697978  0.607604  0.444909  1
  Br  Br9  1  0.392396  0.302022  0.055091  1
  Br  Br10  1  0.877490  0.832017  0.504086  1
  Br  Br11  1  0.167983  0.122510  0.995914  1
  Br  Br12  1  0.122927  0.185212  0.474570  1
  Br  Br13  1  0.814788  0.877073  0.025430  1
  Br  Br14  1  0.145860  0.677115  0.715284  1
  Br  Br15  1  0.322885  0.854140  0.784716  1
  Br  Br16  1  0.862991  0.298212  0.280365  1
  Br  Br17  1  0.701788  0.137009  0.219635  1
  Br  Br18  1  0.284400  0.838967  0.323545  1
  Br  Br19  1  0.161033  0.715600  0.176455  1
  Br  Br20  1  0.705801  0.172315  0.665736  1
  Br  Br21  1  0.827685  0.294199  0.834264  1
