# generated using pymatgen
data_Tb15HoIn4NiRh3
_symmetry_space_group_name_H-M   'P 1'
_cell_length_a   9.68326838
_cell_length_b   9.68383048
_cell_length_c   9.66325300
_cell_angle_alpha   60.07026389
_cell_angle_beta   60.06834910
_cell_angle_gamma   60.06248250
_symmetry_Int_Tables_number   1
_chemical_formula_structural   Tb15HoIn4NiRh3
_chemical_formula_sum   'Tb15 Ho1 In4 Ni1 Rh3'
_cell_volume   641.70695556
_cell_formula_units_Z   1
loop_
 _symmetry_equiv_pos_site_id
 _symmetry_equiv_pos_as_xyz
  1  'x, y, z'
loop_
 _atom_site_type_symbol
 _atom_site_label
 _atom_site_symmetry_multiplicity
 _atom_site_fract_x
 _atom_site_fract_y
 _atom_site_fract_z
 _atom_site_occupancy
  Tb  Tb0  1  0.810606  0.190406  0.810911  1
  Tb  Tb1  1  0.188615  0.190489  0.810448  1
  Tb  Tb2  1  0.648901  0.050194  0.650452  1
  Tb  Tb3  1  0.061411  0.061148  0.438721  1
  Tb  Tb4  1  0.436211  0.438517  0.062636  1
  Tb  Tb5  1  0.652037  0.649205  0.652565  1
  Tb  Tb6  1  0.810606  0.190406  0.188078  1
  Tb  Tb7  1  0.189630  0.810829  0.810117  1
  Tb  Tb8  1  0.048032  0.648084  0.651942  1
  Tb  Tb9  1  0.438523  0.060874  0.062346  1
  Tb  Tb10  1  0.438523  0.060874  0.438256  1
  Tb  Tb11  1  0.061878  0.438855  0.062831  1
  Tb  Tb12  1  0.652037  0.649205  0.046192  1
  Tb  Tb13  1  0.189630  0.810829  0.189423  1
  Tb  Tb14  1  0.061878  0.438855  0.436436  1
  Ho  Ho15  1  0.809684  0.810835  0.189740  1
  In  In16  1  0.417388  0.418088  0.416762  1
  In  In17  1  0.417388  0.418088  0.747761  1
  In  In18  1  0.418435  0.746019  0.417773  1
  In  In19  1  0.747287  0.418524  0.417094  1
  Ni  Ni20  1  0.858613  0.426167  0.857610  1
  Rh  Rh21  1  0.857901  0.857727  0.858291  1
  Rh  Rh22  1  0.857901  0.857727  0.426081  1
  Rh  Rh23  1  0.426884  0.858054  0.857531  1
