# generated using pymatgen
data_AcAl3Ag
_symmetry_space_group_name_H-M   'P 1'
_cell_length_a   4.49101754
_cell_length_b   4.49101767
_cell_length_c   6.40363334
_cell_angle_alpha   69.47219997
_cell_angle_beta   69.47219761
_cell_angle_gamma   90.00000186
_symmetry_Int_Tables_number   1
_chemical_formula_structural   AcAl3Ag
_chemical_formula_sum   'Ac1 Al3 Ag1'
_cell_volume   112.15600669
_cell_formula_units_Z   1
loop_
 _symmetry_equiv_pos_site_id
 _symmetry_equiv_pos_as_xyz
  1  'x, y, z'
loop_
 _atom_site_type_symbol
 _atom_site_label
 _atom_site_symmetry_multiplicity
 _atom_site_fract_x
 _atom_site_fract_y
 _atom_site_fract_z
 _atom_site_occupancy
  Ac  Ac0  1  0.993392  0.993392  0.013217  1
  Al  Al1  1  0.747761  0.247761  0.504479  1
  Al  Al2  1  0.247761  0.747761  0.504479  1
  Al  Al3  1  0.388322  0.388322  0.223357  1
  Ag  Ag4  1  0.622766  0.622766  0.754469  1
