# generated using pymatgen
data_Zr2Zn3Co4
_symmetry_space_group_name_H-M   'P 1'
_cell_length_a   4.81154361
_cell_length_b   4.83041188
_cell_length_c   6.47227333
_cell_angle_alpha   81.82965938
_cell_angle_beta   83.68062494
_cell_angle_gamma   119.63522816
_symmetry_Int_Tables_number   1
_chemical_formula_structural   Zr2Zn3Co4
_chemical_formula_sum   'Zr2 Zn3 Co4'
_cell_volume   126.54740752
_cell_formula_units_Z   1
loop_
 _symmetry_equiv_pos_site_id
 _symmetry_equiv_pos_as_xyz
  1  'x, y, z'
loop_
 _atom_site_type_symbol
 _atom_site_label
 _atom_site_symmetry_multiplicity
 _atom_site_fract_x
 _atom_site_fract_y
 _atom_site_fract_z
 _atom_site_occupancy
  Zr  Zr0  1  0.583621  0.588311  0.243828  1
  Zr  Zr1  1  0.422615  0.422186  0.730313  1
  Zn  Zn2  1  0.279724  0.963548  0.156040  1
  Zn  Zn3  1  0.044397  0.702197  0.849481  1
  Zn  Zn4  1  0.728645  0.049857  0.847364  1
  Co  Co5  1  0.998788  0.998138  0.499692  1
  Co  Co6  1  0.940547  0.274489  0.176125  1
  Co  Co7  1  0.499707  0.000530  0.500881  1
  Co  Co8  1  0.001955  0.500743  0.496274  1
