# generated using pymatgen
data_TbDy3(Er2Rh)4
_symmetry_space_group_name_H-M   'P 1'
_cell_length_a   6.29305204
_cell_length_b   7.15357574
_cell_length_c   9.32299200
_cell_angle_alpha   90.00000000
_cell_angle_beta   90.00000000
_cell_angle_gamma   89.96775541
_symmetry_Int_Tables_number   1
_chemical_formula_structural   TbDy3(Er2Rh)4
_chemical_formula_sum   'Tb1 Dy3 Er8 Rh4'
_cell_volume   419.70075009
_cell_formula_units_Z   1
loop_
 _symmetry_equiv_pos_site_id
 _symmetry_equiv_pos_as_xyz
  1  'x, y, z'
loop_
 _atom_site_type_symbol
 _atom_site_label
 _atom_site_symmetry_multiplicity
 _atom_site_fract_x
 _atom_site_fract_y
 _atom_site_fract_z
 _atom_site_occupancy
  Tb  Tb0  1  0.132459  0.033667  0.250000  1
  Dy  Dy1  1  0.867578  0.966193  0.750000  1
  Dy  Dy2  1  0.367670  0.533904  0.250000  1
  Dy  Dy3  1  0.632329  0.466188  0.750000  1
  Er  Er4  1  0.671892  0.177921  0.062757  1
  Er  Er5  1  0.171661  0.322113  0.937029  1
  Er  Er6  1  0.828434  0.677777  0.437078  1
  Er  Er7  1  0.328151  0.822082  0.562923  1
  Er  Er8  1  0.328151  0.822082  0.937077  1
  Er  Er9  1  0.828434  0.677777  0.062922  1
  Er  Er10  1  0.171661  0.322113  0.562971  1
  Er  Er11  1  0.671892  0.177921  0.437243  1
  Rh  Rh12  1  0.054938  0.616393  0.750000  1
  Rh  Rh13  1  0.554948  0.883791  0.250000  1
  Rh  Rh14  1  0.444801  0.116186  0.750000  1
  Rh  Rh15  1  0.945000  0.383892  0.250000  1
