# generated using pymatgen
data_La15Yb(CdPt)4
_symmetry_space_group_name_H-M   'P 1'
_cell_length_a   10.21236914
_cell_length_b   10.21237004
_cell_length_c   10.20169000
_cell_angle_alpha   60.03458857
_cell_angle_beta   60.03458567
_cell_angle_gamma   60.03009497
_symmetry_Int_Tables_number   1
_chemical_formula_structural   La15Yb(CdPt)4
_chemical_formula_sum   'La15 Yb1 Cd4 Pt4'
_cell_volume   752.89740361
_cell_formula_units_Z   1
loop_
 _symmetry_equiv_pos_site_id
 _symmetry_equiv_pos_as_xyz
  1  'x, y, z'
loop_
 _atom_site_type_symbol
 _atom_site_label
 _atom_site_symmetry_multiplicity
 _atom_site_fract_x
 _atom_site_fract_y
 _atom_site_fract_z
 _atom_site_occupancy
  La  La0  1  0.349585  0.349585  0.348623  1
  La  La1  1  0.349585  0.349585  0.952208  1
  La  La2  1  0.349090  0.950681  0.350114  1
  La  La3  1  0.950681  0.349090  0.350114  1
  La  La4  1  0.807314  0.191511  0.194521  1
  La  La5  1  0.191511  0.807314  0.806655  1
  La  La6  1  0.191511  0.807314  0.194521  1
  La  La7  1  0.807314  0.191511  0.806655  1
  La  La8  1  0.190795  0.190795  0.809205  1
  La  La9  1  0.807408  0.807408  0.192592  1
  La  La10  1  0.936050  0.565745  0.563650  1
  La  La11  1  0.565745  0.936050  0.934554  1
  La  La12  1  0.565745  0.936050  0.563650  1
  La  La13  1  0.936050  0.565745  0.934554  1
  La  La14  1  0.563505  0.563505  0.936495  1
  Yb  Yb15  1  0.938745  0.938745  0.561255  1
  Cd  Cd16  1  0.579823  0.579823  0.579550  1
  Cd  Cd17  1  0.579823  0.579823  0.260803  1
  Cd  Cd18  1  0.579774  0.259791  0.580218  1
  Cd  Cd19  1  0.259791  0.579774  0.580218  1
  Pt  Pt20  1  0.142542  0.142542  0.143201  1
  Pt  Pt21  1  0.142542  0.142542  0.571714  1
  Pt  Pt22  1  0.142355  0.572717  0.142464  1
  Pt  Pt23  1  0.572717  0.142355  0.142464  1
