# generated using pymatgen
data_Ca3Sm(Rh2O7)2
_symmetry_space_group_name_H-M   'P 1'
_cell_length_a   7.27192270
_cell_length_b   7.29262958
_cell_length_c   7.27192300
_cell_angle_alpha   60.09388627
_cell_angle_beta   60.00000321
_cell_angle_gamma   60.09388782
_symmetry_Int_Tables_number   1
_chemical_formula_structural   Ca3Sm(Rh2O7)2
_chemical_formula_sum   'Ca3 Sm1 Rh4 O14'
_cell_volume   273.07537958
_cell_formula_units_Z   1
loop_
 _symmetry_equiv_pos_site_id
 _symmetry_equiv_pos_as_xyz
  1  'x, y, z'
loop_
 _atom_site_type_symbol
 _atom_site_label
 _atom_site_symmetry_multiplicity
 _atom_site_fract_x
 _atom_site_fract_y
 _atom_site_fract_z
 _atom_site_occupancy
  Ca  Ca0  1  0.125000  0.125000  0.125000  1
  Ca  Ca1  1  0.625000  0.125000  0.125000  1
  Ca  Ca2  1  0.125000  0.125000  0.625000  1
  Sm  Sm3  1  0.125000  0.625000  0.125000  1
  Rh  Rh4  1  0.625000  0.625000  0.625000  1
  Rh  Rh5  1  0.625000  0.625000  0.125000  1
  Rh  Rh6  1  0.125000  0.625000  0.625000  1
  Rh  Rh7  1  0.625000  0.125000  0.625000  1
  O  O8  1  0.249491  0.251527  0.249491  1
  O  O9  1  0.296919  0.699808  0.296919  1
  O  O10  1  0.950395  0.948753  0.550426  1
  O  O11  1  0.550426  0.948753  0.550426  1
  O  O12  1  0.706354  0.699808  0.296919  1
  O  O13  1  0.953081  0.550192  0.543646  1
  O  O14  1  0.699574  0.301247  0.699574  1
  O  O15  1  0.299605  0.301247  0.699574  1
  O  O16  1  0.699574  0.301247  0.299605  1
  O  O17  1  0.296919  0.699808  0.706354  1
  O  O18  1  0.953081  0.550192  0.953081  1
  O  O19  1  0.543646  0.550192  0.953081  1
  O  O20  1  0.000509  0.998473  0.000509  1
  O  O21  1  0.550426  0.948753  0.950395  1
