# generated using pymatgen
data_ThNpPd2F24
_symmetry_space_group_name_H-M   'P 1'
_cell_length_a   5.38211989
_cell_length_b   9.26156200
_cell_length_c   10.12365270
_cell_angle_alpha   90.00000000
_cell_angle_beta   88.90630706
_cell_angle_gamma   90.00000000
_symmetry_Int_Tables_number   1
_chemical_formula_structural   ThNpPd2F24
_chemical_formula_sum   'Th1 Np1 Pd2 F24'
_cell_volume   504.54013220
_cell_formula_units_Z   1
loop_
 _symmetry_equiv_pos_site_id
 _symmetry_equiv_pos_as_xyz
  1  'x, y, z'
loop_
 _atom_site_type_symbol
 _atom_site_label
 _atom_site_symmetry_multiplicity
 _atom_site_fract_x
 _atom_site_fract_y
 _atom_site_fract_z
 _atom_site_occupancy
  Th  Th0  1  0.419463  0.250000  0.866138  1
  Np  Np1  1  0.580995  0.750000  0.130036  1
  Pd  Pd2  1  0.920159  0.750000  0.629695  1
  Pd  Pd3  1  0.076563  0.250000  0.371115  1
  F  F4  1  0.209165  0.750000  0.519794  1
  F  F5  1  0.787109  0.250000  0.480458  1
  F  F6  1  0.740769  0.250000  0.993434  1
  F  F7  1  0.281775  0.750000  0.017707  1
  F  F8  1  0.631038  0.750000  0.740097  1
  F  F9  1  0.365756  0.250000  0.261032  1
  F  F10  1  0.089399  0.250000  0.744799  1
  F  F11  1  0.881318  0.750000  0.242224  1
  F  F12  1  0.777061  0.605287  0.522627  1
  F  F13  1  0.219713  0.394338  0.478406  1
  F  F14  1  0.265575  0.422570  0.988671  1
  F  F15  1  0.219713  0.105662  0.478406  1
  F  F16  1  0.739319  0.599249  0.017529  1
  F  F17  1  0.777061  0.894713  0.522627  1
  F  F18  1  0.739319  0.900751  0.017529  1
  F  F19  1  0.265575  0.077430  0.988671  1
  F  F20  1  0.061861  0.605092  0.736776  1
  F  F21  1  0.935231  0.395020  0.263449  1
  F  F22  1  0.581633  0.424913  0.749614  1
  F  F23  1  0.935231  0.104980  0.263449  1
  F  F24  1  0.427851  0.599414  0.244661  1
  F  F25  1  0.061861  0.894908  0.736776  1
  F  F26  1  0.427851  0.900586  0.244661  1
  F  F27  1  0.581633  0.075087  0.749614  1
