# generated using pymatgen
data_Cs7PaSb4
_symmetry_space_group_name_H-M   'P 1'
_cell_length_a   9.69375900
_cell_length_b   10.84118200
_cell_length_c   12.03416300
_cell_angle_alpha   90.00000000
_cell_angle_beta   90.00000000
_cell_angle_gamma   90.00000000
_symmetry_Int_Tables_number   1
_chemical_formula_structural   Cs7PaSb4
_chemical_formula_sum   'Cs14 Pa2 Sb8'
_cell_volume   1264.69191835
_cell_formula_units_Z   2
loop_
 _symmetry_equiv_pos_site_id
 _symmetry_equiv_pos_as_xyz
  1  'x, y, z'
loop_
 _atom_site_type_symbol
 _atom_site_label
 _atom_site_symmetry_multiplicity
 _atom_site_fract_x
 _atom_site_fract_y
 _atom_site_fract_z
 _atom_site_occupancy
  Cs  Cs0  1  0.877636  0.030221  0.000000  1
  Cs  Cs1  1  0.706037  0.835072  0.716729  1
  Cs  Cs2  1  0.397039  0.904659  0.000000  1
  Cs  Cs3  1  0.377636  0.969779  0.500000  1
  Cs  Cs4  1  0.876581  0.462489  0.289616  1
  Cs  Cs5  1  0.897039  0.095341  0.500000  1
  Cs  Cs6  1  0.655251  0.334221  0.000000  1
  Cs  Cs7  1  0.155251  0.665779  0.500000  1
  Cs  Cs8  1  0.206037  0.164928  0.216729  1
  Cs  Cs9  1  0.376581  0.537511  0.210384  1
  Cs  Cs10  1  0.376581  0.537511  0.789616  1
  Cs  Cs11  1  0.876581  0.462489  0.710384  1
  Cs  Cs12  1  0.706037  0.835072  0.283271  1
  Cs  Cs13  1  0.206037  0.164928  0.783271  1
  Pa  Pa14  1  0.003426  0.671512  0.000000  1
  Pa  Pa15  1  0.503426  0.328488  0.500000  1
  Sb  Sb16  1  0.697685  0.678113  0.000000  1
  Sb  Sb17  1  0.197685  0.321887  0.500000  1
  Sb  Sb18  1  0.074532  0.404493  0.000000  1
  Sb  Sb19  1  0.574532  0.595507  0.500000  1
  Sb  Sb20  1  0.095149  0.809882  0.203173  1
  Sb  Sb21  1  0.595149  0.190118  0.296827  1
  Sb  Sb22  1  0.595149  0.190118  0.703173  1
  Sb  Sb23  1  0.095149  0.809882  0.796827  1
