# generated using pymatgen
data_Th5P12Ir6Ru13
_symmetry_space_group_name_H-M   'P 1'
_cell_length_a   12.74444519
_cell_length_b   12.70939811
_cell_length_c   4.01455700
_cell_angle_alpha   90.00000000
_cell_angle_beta   90.00000000
_cell_angle_gamma   119.88574247
_symmetry_Int_Tables_number   1
_chemical_formula_structural   Th5P12Ir6Ru13
_chemical_formula_sum   'Th5 P12 Ir6 Ru13'
_cell_volume   563.78438825
_cell_formula_units_Z   1
loop_
 _symmetry_equiv_pos_site_id
 _symmetry_equiv_pos_as_xyz
  1  'x, y, z'
loop_
 _atom_site_type_symbol
 _atom_site_label
 _atom_site_symmetry_multiplicity
 _atom_site_fract_x
 _atom_site_fract_y
 _atom_site_fract_z
 _atom_site_occupancy
  Th  Th0  1  0.667536  0.332279  0.000000  1
  Th  Th1  1  0.333665  0.666841  0.000000  1
  Th  Th2  1  0.810444  0.001807  0.500000  1
  Th  Th3  1  0.188143  0.189138  0.500000  1
  Th  Th4  1  0.999621  0.811147  0.500000  1
  P  P5  1  0.629220  0.003477  0.000000  1
  P  P6  1  0.373438  0.372878  0.000000  1
  P  P7  1  0.999736  0.626229  0.000000  1
  P  P8  1  0.688698  0.518857  0.500000  1
  P  P9  1  0.829734  0.307412  0.500000  1
  P  P10  1  0.312160  0.831684  0.500000  1
  P  P11  1  0.519533  0.688076  0.500000  1
  P  P12  1  0.182342  0.000669  0.000000  1
  P  P13  1  0.816950  0.817997  0.000000  1
  P  P14  1  0.997509  0.183387  0.000000  1
  P  P15  1  0.480417  0.168509  0.500000  1
  P  P16  1  0.168893  0.481009  0.500000  1
  Ir  Ir17  1  0.624650  0.805984  0.000000  1
  Ir  Ir18  1  0.182552  0.375556  0.000000  1
  Ir  Ir19  1  0.375295  0.180753  0.000000  1
  Ir  Ir20  1  0.192972  0.819121  0.000000  1
  Ir  Ir21  1  0.805701  0.624490  0.000000  1
  Ir  Ir22  1  0.999778  0.000280  0.000000  1
  Ru  Ru23  1  0.872993  0.509218  0.500000  1
  Ru  Ru24  1  0.489939  0.362257  0.500000  1
  Ru  Ru25  1  0.635457  0.125042  0.500000  1
  Ru  Ru26  1  0.127641  0.638486  0.500000  1
  Ru  Ru27  1  0.362838  0.489577  0.500000  1
  Ru  Ru28  1  0.509521  0.871484  0.500000  1
  Ru  Ru29  1  0.712328  0.712164  0.500000  1
  Ru  Ru30  1  0.002031  0.288502  0.500000  1
  Ru  Ru31  1  0.446234  0.997407  0.000000  1
  Ru  Ru32  1  0.552302  0.551971  0.000000  1
  Ru  Ru33  1  0.002566  0.449045  0.000000  1
  Ru  Ru34  1  0.819795  0.197147  0.000000  1
  Ru  Ru35  1  0.287371  0.000122  0.500000  1
