# generated using pymatgen
data_Li2YbPaPt2
_symmetry_space_group_name_H-M   'P 1'
_cell_length_a   3.93885900
_cell_length_b   7.12857360
_cell_length_c   8.60774591
_cell_angle_alpha   90.78329531
_cell_angle_beta   90.00000000
_cell_angle_gamma   90.00000000
_symmetry_Int_Tables_number   1
_chemical_formula_structural   Li2YbPaPt2
_chemical_formula_sum   'Li4 Yb2 Pa2 Pt4'
_cell_volume   241.66954568
_cell_formula_units_Z   2
loop_
 _symmetry_equiv_pos_site_id
 _symmetry_equiv_pos_as_xyz
  1  'x, y, z'
loop_
 _atom_site_type_symbol
 _atom_site_label
 _atom_site_symmetry_multiplicity
 _atom_site_fract_x
 _atom_site_fract_y
 _atom_site_fract_z
 _atom_site_occupancy
  Li  Li0  1  0.250000  0.626120  0.552190  1
  Li  Li1  1  0.750000  0.373880  0.447810  1
  Li  Li2  1  0.750000  0.881286  0.061217  1
  Li  Li3  1  0.250000  0.118714  0.938783  1
  Yb  Yb4  1  0.750000  0.947702  0.679167  1
  Yb  Yb5  1  0.250000  0.052298  0.320833  1
  Pa  Pa6  1  0.250000  0.547760  0.185924  1
  Pa  Pa7  1  0.750000  0.452240  0.814076  1
  Pt  Pt8  1  0.250000  0.721310  0.885057  1
  Pt  Pt9  1  0.750000  0.278690  0.114943  1
  Pt  Pt10  1  0.750000  0.739704  0.355318  1
  Pt  Pt11  1  0.250000  0.260296  0.644682  1
