# generated using pymatgen
data_Tm4ZnAs5Rh7
_symmetry_space_group_name_H-M   'P 1'
_cell_length_a   7.23129411
_cell_length_b   7.23129418
_cell_length_c   7.23129363
_cell_angle_alpha   109.83606665
_cell_angle_beta   108.74396276
_cell_angle_gamma   109.83606534
_symmetry_Int_Tables_number   1
_chemical_formula_structural   Tm4ZnAs5Rh7
_chemical_formula_sum   'Tm4 Zn1 As5 Rh7'
_cell_volume   291.05414638
_cell_formula_units_Z   1
loop_
 _symmetry_equiv_pos_site_id
 _symmetry_equiv_pos_as_xyz
  1  'x, y, z'
loop_
 _atom_site_type_symbol
 _atom_site_label
 _atom_site_symmetry_multiplicity
 _atom_site_fract_x
 _atom_site_fract_y
 _atom_site_fract_z
 _atom_site_occupancy
  Tm  Tm0  1  0.494328  0.497817  0.494328  1
  Tm  Tm1  1  0.996511  0.502183  0.996511  1
  Tm  Tm2  1  0.494328  0.000000  0.996511  1
  Tm  Tm3  1  0.996511  0.000000  0.494328  1
  Zn  Zn4  1  0.693694  0.000000  0.693694  1
  As  As5  1  0.680693  0.685268  0.995425  1
  As  As6  1  0.310157  0.314732  0.995425  1
  As  As7  1  0.995425  0.685268  0.680693  1
  As  As8  1  0.995425  0.314732  0.310157  1
  As  As9  1  0.331878  0.000000  0.331878  1
  Rh  Rh10  1  0.499998  0.748145  0.248142  1
  Rh  Rh11  1  0.751853  0.251855  0.499998  1
  Rh  Rh12  1  0.248142  0.748145  0.499998  1
  Rh  Rh13  1  0.247016  0.500000  0.747016  1
  Rh  Rh14  1  0.017027  0.000000  0.017027  1
  Rh  Rh15  1  0.499998  0.251855  0.751853  1
  Rh  Rh16  1  0.747016  0.500000  0.247016  1
