# generated using pymatgen
data_YErGa(AsRh2)6
_symmetry_space_group_name_H-M   'P 1'
_cell_length_a   9.96433100
_cell_length_b   9.96433058
_cell_length_c   3.95608800
_cell_angle_alpha   90.00000000
_cell_angle_beta   90.00000000
_cell_angle_gamma   120.00000473
_symmetry_Int_Tables_number   1
_chemical_formula_structural   YErGa(AsRh2)6
_chemical_formula_sum   'Y1 Er1 Ga1 As6 Rh12'
_cell_volume   340.16750727
_cell_formula_units_Z   1
loop_
 _symmetry_equiv_pos_site_id
 _symmetry_equiv_pos_as_xyz
  1  'x, y, z'
loop_
 _atom_site_type_symbol
 _atom_site_label
 _atom_site_symmetry_multiplicity
 _atom_site_fract_x
 _atom_site_fract_y
 _atom_site_fract_z
 _atom_site_occupancy
  Y  Y0  1  0.000000  0.000000  0.249607  1
  Er  Er1  1  0.333333  0.666667  0.751654  1
  Ga  Ga2  1  0.666667  0.333333  0.580297  1
  As  As3  1  0.953065  0.216417  0.750852  1
  As  As4  1  0.783583  0.736648  0.750852  1
  As  As5  1  0.263352  0.046935  0.750852  1
  As  As6  1  0.379320  0.449153  0.251391  1
  As  As7  1  0.550847  0.930168  0.251391  1
  As  As8  1  0.069832  0.620680  0.251391  1
  Rh  Rh9  1  0.732339  0.950964  0.751662  1
  Rh  Rh10  1  0.049036  0.781375  0.751662  1
  Rh  Rh11  1  0.218625  0.267661  0.751662  1
  Rh  Rh12  1  0.601636  0.717577  0.250623  1
  Rh  Rh13  1  0.282423  0.884059  0.250623  1
  Rh  Rh14  1  0.115941  0.398364  0.250623  1
  Rh  Rh15  1  0.945518  0.456838  0.752013  1
  Rh  Rh16  1  0.543162  0.488680  0.752013  1
  Rh  Rh17  1  0.511320  0.054482  0.752013  1
  Rh  Rh18  1  0.399977  0.213872  0.251002  1
  Rh  Rh19  1  0.786128  0.186105  0.251002  1
  Rh  Rh20  1  0.813895  0.600023  0.251002  1
