# generated using pymatgen
data_KBaLi4ThBi4
_symmetry_space_group_name_H-M   'P 1'
_cell_length_a   9.33579235
_cell_length_b   9.33579242
_cell_length_c   9.33579201
_cell_angle_alpha   148.97559769
_cell_angle_beta   130.71158530
_cell_angle_gamma   59.38947351
_symmetry_Int_Tables_number   1
_chemical_formula_structural   KBaLi4ThBi4
_chemical_formula_sum   'K1 Ba1 Li4 Th1 Bi4'
_cell_volume   315.29824417
_cell_formula_units_Z   1
loop_
 _symmetry_equiv_pos_site_id
 _symmetry_equiv_pos_as_xyz
  1  'x, y, z'
loop_
 _atom_site_type_symbol
 _atom_site_label
 _atom_site_symmetry_multiplicity
 _atom_site_fract_x
 _atom_site_fract_y
 _atom_site_fract_z
 _atom_site_occupancy
  K  K0  1  0.628924  0.128924  0.500000  1
  Ba  Ba1  1  0.374064  0.874064  0.500000  1
  Li  Li2  1  0.980003  0.673085  0.306918  1
  Li  Li3  1  0.006832  0.323737  0.683095  1
  Li  Li4  1  0.640641  0.323737  0.316905  1
  Li  Li5  1  0.366167  0.673085  0.693082  1
  Th  Th6  1  0.001956  0.001956  0.000000  1
  Bi  Bi7  1  0.796261  0.796261  0.000000  1
  Bi  Bi8  1  0.208510  0.208510  0.000000  1
  Bi  Bi9  1  0.725998  0.498322  0.227676  1
  Bi  Bi10  1  0.270645  0.498322  0.772324  1
