# generated using pymatgen
data_RbBa3Mn3CrN8
_symmetry_space_group_name_H-M   'P 1'
_cell_length_a   6.48091504
_cell_length_b   6.48091524
_cell_length_c   7.84793745
_cell_angle_alpha   89.74774808
_cell_angle_beta   90.25225360
_cell_angle_gamma   126.48451657
_symmetry_Int_Tables_number   1
_chemical_formula_structural   RbBa3Mn3CrN8
_chemical_formula_sum   'Rb1 Ba3 Mn3 Cr1 N8'
_cell_volume   265.02598994
_cell_formula_units_Z   1
loop_
 _symmetry_equiv_pos_site_id
 _symmetry_equiv_pos_as_xyz
  1  'x, y, z'
loop_
 _atom_site_type_symbol
 _atom_site_label
 _atom_site_symmetry_multiplicity
 _atom_site_fract_x
 _atom_site_fract_y
 _atom_site_fract_z
 _atom_site_occupancy
  Rb  Rb0  1  0.842620  0.157380  0.560072  1
  Ba  Ba1  1  0.158966  0.841034  0.451119  1
  Ba  Ba2  1  0.656113  0.343887  0.063950  1
  Ba  Ba3  1  0.342896  0.657104  0.939278  1
  Mn  Mn4  1  0.448602  0.551398  0.360363  1
  Mn  Mn5  1  0.953390  0.046610  0.134158  1
  Mn  Mn6  1  0.047828  0.952172  0.868030  1
  Cr  Cr7  1  0.545528  0.454472  0.632724  1
  N  N8  1  0.894417  0.105583  0.919389  1
  N  N9  1  0.111681  0.888319  0.084482  1
  N  N10  1  0.604461  0.395539  0.417858  1
  N  N11  1  0.392992  0.607008  0.583472  1
  N  N12  1  0.333225  0.164672  0.752329  1
  N  N13  1  0.171756  0.339802  0.240223  1
  N  N14  1  0.660198  0.828244  0.240223  1
  N  N15  1  0.835328  0.666775  0.752329  1
