# generated using pymatgen
data_Rb20Si3P13
_symmetry_space_group_name_H-M   'P 1'
_cell_length_a   5.46709500
_cell_length_b   14.87756949
_cell_length_c   15.56592616
_cell_angle_alpha   89.90453878
_cell_angle_beta   90.00000000
_cell_angle_gamma   90.00000000
_symmetry_Int_Tables_number   1
_chemical_formula_structural   Rb20Si3P13
_chemical_formula_sum   'Rb20 Si3 P13'
_cell_volume   1266.08531344
_cell_formula_units_Z   1
loop_
 _symmetry_equiv_pos_site_id
 _symmetry_equiv_pos_as_xyz
  1  'x, y, z'
loop_
 _atom_site_type_symbol
 _atom_site_label
 _atom_site_symmetry_multiplicity
 _atom_site_fract_x
 _atom_site_fract_y
 _atom_site_fract_z
 _atom_site_occupancy
  Rb  Rb0  1  0.250000  0.379483  0.015531  1
  Rb  Rb1  1  0.750000  0.622024  0.978833  1
  Rb  Rb2  1  0.250000  0.118320  0.517362  1
  Rb  Rb3  1  0.750000  0.883226  0.486382  1
  Rb  Rb4  1  0.750000  0.725976  0.233023  1
  Rb  Rb5  1  0.250000  0.269825  0.766775  1
  Rb  Rb6  1  0.750000  0.770542  0.732708  1
  Rb  Rb7  1  0.250000  0.230261  0.266666  1
  Rb  Rb8  1  0.750000  0.058563  0.695512  1
  Rb  Rb9  1  0.250000  0.941244  0.304824  1
  Rb  Rb10  1  0.750000  0.444814  0.197428  1
  Rb  Rb11  1  0.250000  0.558589  0.803803  1
  Rb  Rb12  1  0.750000  0.183014  0.915110  1
  Rb  Rb13  1  0.250000  0.818306  0.083612  1
  Rb  Rb14  1  0.750000  0.313976  0.417581  1
  Rb  Rb15  1  0.250000  0.683152  0.585848  1
  Rb  Rb16  1  0.750000  0.927469  0.931841  1
  Rb  Rb17  1  0.250000  0.072630  0.067392  1
  Rb  Rb18  1  0.750000  0.572103  0.429034  1
  Rb  Rb19  1  0.250000  0.428034  0.567907  1
  Si  Si20  1  0.750000  0.081446  0.219649  1
  Si  Si21  1  0.250000  0.917984  0.780439  1
  Si  Si22  1  0.750000  0.418700  0.719340  1
  P  P23  1  0.250000  0.581822  0.281282  1
  P  P24  1  0.750000  0.205048  0.139490  1
  P  P25  1  0.250000  0.794284  0.860579  1
  P  P26  1  0.750000  0.295383  0.639469  1
  P  P27  1  0.250000  0.700502  0.359804  1
  P  P28  1  0.750000  0.947930  0.157723  1
  P  P29  1  0.250000  0.051159  0.842735  1
  P  P30  1  0.750000  0.551581  0.656121  1
  P  P31  1  0.250000  0.451511  0.341229  1
  P  P32  1  0.750000  0.089729  0.362621  1
  P  P33  1  0.250000  0.910035  0.637341  1
  P  P34  1  0.750000  0.410613  0.862446  1
  P  P35  1  0.250000  0.590725  0.142561  1
