# generated using pymatgen
data_MnReF6
_symmetry_space_group_name_H-M   'P 1'
_cell_length_a   5.47678865
_cell_length_b   5.47678796
_cell_length_c   5.75781155
_cell_angle_alpha   118.39818249
_cell_angle_beta   118.39817937
_cell_angle_gamma   59.99999774
_symmetry_Int_Tables_number   1
_chemical_formula_structural   MnReF6
_chemical_formula_sum   'Mn1 Re1 F6'
_cell_volume   124.99581850
_cell_formula_units_Z   1
loop_
 _symmetry_equiv_pos_site_id
 _symmetry_equiv_pos_as_xyz
  1  'x, y, z'
loop_
 _atom_site_type_symbol
 _atom_site_label
 _atom_site_symmetry_multiplicity
 _atom_site_fract_x
 _atom_site_fract_y
 _atom_site_fract_z
 _atom_site_occupancy
  Mn  Mn0  1  0.000000  0.000000  0.000000  1
  Re  Re1  1  0.500000  0.500000  0.499999  1
  F  F2  1  0.159488  0.360482  0.261682  1
  F  F3  1  0.360483  0.741711  0.261682  1
  F  F4  1  0.741712  0.159488  0.261682  1
  F  F5  1  0.258289  0.840511  0.738317  1
  F  F6  1  0.639518  0.258289  0.738317  1
  F  F7  1  0.840510  0.639518  0.738317  1
