# generated using pymatgen
data_Y4Hf5ZrGe8
_symmetry_space_group_name_H-M   'P 1'
_cell_length_a   7.40932915
_cell_length_b   7.40933001
_cell_length_c   13.59235100
_cell_angle_alpha   90.00000000
_cell_angle_beta   90.00000000
_cell_angle_gamma   89.98159564
_symmetry_Int_Tables_number   1
_chemical_formula_structural   Y4Hf5ZrGe8
_chemical_formula_sum   'Y8 Hf10 Zr2 Ge16'
_cell_volume   746.19508718
_cell_formula_units_Z   2
loop_
 _symmetry_equiv_pos_site_id
 _symmetry_equiv_pos_as_xyz
  1  'x, y, z'
loop_
 _atom_site_type_symbol
 _atom_site_label
 _atom_site_symmetry_multiplicity
 _atom_site_fract_x
 _atom_site_fract_y
 _atom_site_fract_z
 _atom_site_occupancy
  Y  Y0  1  0.997793  0.341050  0.218270  1
  Y  Y1  1  0.002207  0.658950  0.718270  1
  Y  Y2  1  0.158211  0.497908  0.468627  1
  Y  Y3  1  0.502092  0.841789  0.031373  1
  Y  Y4  1  0.841789  0.502092  0.968627  1
  Y  Y5  1  0.497908  0.158211  0.531373  1
  Y  Y6  1  0.341050  0.997793  0.781730  1
  Y  Y7  1  0.658950  0.002207  0.281730  1
  Hf  Hf8  1  0.327382  0.672618  0.250000  1
  Hf  Hf9  1  0.672618  0.327382  0.750000  1
  Hf  Hf10  1  0.156179  0.996029  0.375611  1
  Hf  Hf11  1  0.843821  0.003971  0.875611  1
  Hf  Hf12  1  0.503804  0.656814  0.625442  1
  Hf  Hf13  1  0.343186  0.496196  0.874558  1
  Hf  Hf14  1  0.496196  0.343186  0.125442  1
  Hf  Hf15  1  0.656814  0.503804  0.374558  1
  Hf  Hf16  1  0.996029  0.156179  0.624389  1
  Hf  Hf17  1  0.003971  0.843821  0.124389  1
  Zr  Zr18  1  0.172495  0.172495  0.000000  1
  Zr  Zr19  1  0.827505  0.827505  0.500000  1
  Ge  Ge20  1  0.366415  0.301497  0.322896  1
  Ge  Ge21  1  0.633585  0.698503  0.822896  1
  Ge  Ge22  1  0.200197  0.866963  0.572934  1
  Ge  Ge23  1  0.133037  0.799803  0.927066  1
  Ge  Ge24  1  0.799803  0.133037  0.072934  1
  Ge  Ge25  1  0.866963  0.200197  0.427066  1
  Ge  Ge26  1  0.301497  0.366415  0.677104  1
  Ge  Ge27  1  0.698503  0.633585  0.177104  1
  Ge  Ge28  1  0.297075  0.036739  0.182205  1
  Ge  Ge29  1  0.702925  0.963261  0.682205  1
  Ge  Ge30  1  0.461312  0.795976  0.431211  1
  Ge  Ge31  1  0.204024  0.538688  0.068789  1
  Ge  Ge32  1  0.538688  0.204024  0.931211  1
  Ge  Ge33  1  0.795976  0.461312  0.568789  1
  Ge  Ge34  1  0.036739  0.297075  0.817795  1
  Ge  Ge35  1  0.963261  0.702925  0.317795  1
