# generated using pymatgen
data_TiZnTeO6
_symmetry_space_group_name_H-M   'P 1'
_cell_length_a   4.79990300
_cell_length_b   4.77934400
_cell_length_c   9.07740400
_cell_angle_alpha   90.00000000
_cell_angle_beta   90.00000000
_cell_angle_gamma   90.00000000
_symmetry_Int_Tables_number   1
_chemical_formula_structural   TiZnTeO6
_chemical_formula_sum   'Ti2 Zn2 Te2 O12'
_cell_volume   208.23916619
_cell_formula_units_Z   2
loop_
 _symmetry_equiv_pos_site_id
 _symmetry_equiv_pos_as_xyz
  1  'x, y, z'
loop_
 _atom_site_type_symbol
 _atom_site_label
 _atom_site_symmetry_multiplicity
 _atom_site_fract_x
 _atom_site_fract_y
 _atom_site_fract_z
 _atom_site_occupancy
  Ti  Ti0  1  0.500000  0.000000  0.106166  1
  Ti  Ti1  1  0.000000  0.499999  0.893833  1
  Zn  Zn2  1  0.500000  0.499999  0.497588  1
  Zn  Zn3  1  0.000000  0.000000  0.502411  1
  Te  Te4  1  0.000000  0.499999  0.239668  1
  Te  Te5  1  0.500000  0.000000  0.760333  1
  O  O6  1  0.810160  0.306711  0.077167  1
  O  O7  1  0.189840  0.693287  0.077167  1
  O  O8  1  0.290291  0.213509  0.233854  1
  O  O9  1  0.709710  0.786491  0.233854  1
  O  O10  1  0.802074  0.299527  0.390693  1
  O  O11  1  0.197927  0.700473  0.390693  1
  O  O12  1  0.302073  0.200474  0.609307  1
  O  O13  1  0.697926  0.799527  0.609307  1
  O  O14  1  0.790291  0.286492  0.766146  1
  O  O15  1  0.209710  0.713508  0.766146  1
  O  O16  1  0.310160  0.193288  0.922833  1
  O  O17  1  0.689841  0.806712  0.922833  1
