# generated using pymatgen
data_Sc2Al9SiOs3
_symmetry_space_group_name_H-M   'P 1'
_cell_length_a   8.76962200
_cell_length_b   8.76962200
_cell_length_c   6.29263000
_cell_angle_alpha   90.00000000
_cell_angle_beta   90.00000000
_cell_angle_gamma   90.00000000
_symmetry_Int_Tables_number   1
_chemical_formula_structural   Sc2Al9SiOs3
_chemical_formula_sum   'Sc4 Al18 Si2 Os6'
_cell_volume   483.94270193
_cell_formula_units_Z   2
loop_
 _symmetry_equiv_pos_site_id
 _symmetry_equiv_pos_as_xyz
  1  'x, y, z'
loop_
 _atom_site_type_symbol
 _atom_site_label
 _atom_site_symmetry_multiplicity
 _atom_site_fract_x
 _atom_site_fract_y
 _atom_site_fract_z
 _atom_site_occupancy
  Sc  Sc0  1  0.668365  0.168365  0.002934  1
  Sc  Sc1  1  0.331635  0.831635  0.002934  1
  Sc  Sc2  1  0.831635  0.668365  0.997066  1
  Sc  Sc3  1  0.168365  0.331635  0.997066  1
  Al  Al4  1  0.932974  0.205901  0.282716  1
  Al  Al5  1  0.705901  0.432974  0.282716  1
  Al  Al6  1  0.567026  0.705901  0.717284  1
  Al  Al7  1  0.293823  0.566866  0.711201  1
  Al  Al8  1  0.793823  0.933134  0.288799  1
  Al  Al9  1  0.933134  0.206177  0.711201  1
  Al  Al10  1  0.294099  0.567026  0.282716  1
  Al  Al11  1  0.067026  0.794099  0.282716  1
  Al  Al12  1  0.706177  0.433134  0.711201  1
  Al  Al13  1  0.432974  0.294099  0.717284  1
  Al  Al14  1  0.066866  0.793823  0.711201  1
  Al  Al15  1  0.205901  0.067026  0.717284  1
  Al  Al16  1  0.794099  0.932974  0.717284  1
  Al  Al17  1  0.206177  0.066866  0.288799  1
  Al  Al18  1  0.000000  0.500000  0.296549  1
  Al  Al19  1  0.566866  0.706177  0.288799  1
  Al  Al20  1  0.433134  0.293823  0.288799  1
  Al  Al21  1  0.500000  0.000000  0.703451  1
  Si  Si22  1  0.500000  0.000000  0.295269  1
  Si  Si23  1  0.000000  0.500000  0.704731  1
  Os  Os24  1  0.675999  0.175999  0.498396  1
  Os  Os25  1  0.824001  0.675999  0.501604  1
  Os  Os26  1  0.175999  0.324001  0.501604  1
  Os  Os27  1  0.000000  0.000000  0.000000  1
  Os  Os28  1  0.324001  0.824001  0.498396  1
  Os  Os29  1  0.500000  0.500000  0.000000  1
