# generated using pymatgen
data_NdPu7(Si3Pt)4
_symmetry_space_group_name_H-M   'P 1'
_cell_length_a   8.36004600
_cell_length_b   8.38291658
_cell_length_c   8.04274400
_cell_angle_alpha   90.00000000
_cell_angle_beta   90.00000000
_cell_angle_gamma   119.91103744
_symmetry_Int_Tables_number   1
_chemical_formula_structural   NdPu7(Si3Pt)4
_chemical_formula_sum   'Nd1 Pu7 Si12 Pt4'
_cell_volume   488.57058104
_cell_formula_units_Z   1
loop_
 _symmetry_equiv_pos_site_id
 _symmetry_equiv_pos_as_xyz
  1  'x, y, z'
loop_
 _atom_site_type_symbol
 _atom_site_label
 _atom_site_symmetry_multiplicity
 _atom_site_fract_x
 _atom_site_fract_y
 _atom_site_fract_z
 _atom_site_occupancy
  Nd  Nd0  1  0.502727  0.005499  0.250000  1
  Pu  Pu1  1  0.497794  0.995600  0.750000  1
  Pu  Pu2  1  0.995498  0.497995  0.250000  1
  Pu  Pu3  1  0.004947  0.502336  0.750000  1
  Pu  Pu4  1  0.502496  0.498016  0.250000  1
  Pu  Pu5  1  0.497399  0.502381  0.750000  1
  Pu  Pu6  1  0.000110  0.000239  0.250000  1
  Pu  Pu7  1  0.999893  0.999797  0.750000  1
  Si  Si8  1  0.164553  0.328759  0.000338  1
  Si  Si9  1  0.835306  0.670931  0.999445  1
  Si  Si10  1  0.671867  0.835517  0.996486  1
  Si  Si11  1  0.835306  0.670931  0.500555  1
  Si  Si12  1  0.327908  0.164288  0.994553  1
  Si  Si13  1  0.164553  0.328759  0.499662  1
  Si  Si14  1  0.163821  0.835707  0.997107  1
  Si  Si15  1  0.327908  0.164288  0.505447  1
  Si  Si16  1  0.836220  0.164104  0.995162  1
  Si  Si17  1  0.671867  0.835517  0.503514  1
  Si  Si18  1  0.836220  0.164104  0.504838  1
  Si  Si19  1  0.163821  0.835707  0.502893  1
  Pt  Pt20  1  0.333182  0.666075  0.005931  1
  Pt  Pt21  1  0.666710  0.333686  0.992229  1
  Pt  Pt22  1  0.666710  0.333686  0.507771  1
  Pt  Pt23  1  0.333182  0.666075  0.494069  1
