# generated using pymatgen
data_Ca2Np5PaH24
_symmetry_space_group_name_H-M   'P 1'
_cell_length_a   6.62871000
_cell_length_b   6.64550200
_cell_length_c   6.63978500
_cell_angle_alpha   90.00000000
_cell_angle_beta   90.00000000
_cell_angle_gamma   90.00000000
_symmetry_Int_Tables_number   1
_chemical_formula_structural   Ca2Np5PaH24
_chemical_formula_sum   'Ca2 Np5 Pa1 H24'
_cell_volume   292.48986995
_cell_formula_units_Z   1
loop_
 _symmetry_equiv_pos_site_id
 _symmetry_equiv_pos_as_xyz
  1  'x, y, z'
loop_
 _atom_site_type_symbol
 _atom_site_label
 _atom_site_symmetry_multiplicity
 _atom_site_fract_x
 _atom_site_fract_y
 _atom_site_fract_z
 _atom_site_occupancy
  Ca  Ca0  1  0.246480  0.000000  0.500000  1
  Ca  Ca1  1  0.753520  0.000000  0.500000  1
  Np  Np2  1  0.000000  0.000000  0.000000  1
  Np  Np3  1  0.000000  0.500000  0.250025  1
  Np  Np4  1  0.000000  0.500000  0.749975  1
  Np  Np5  1  0.500000  0.753479  0.000000  1
  Np  Np6  1  0.500000  0.246521  0.000000  1
  Pa  Pa7  1  0.500000  0.500000  0.500000  1
  H  H8  1  0.000000  0.161722  0.289375  1
  H  H9  1  0.500000  0.212636  0.660296  1
  H  H10  1  0.500000  0.787364  0.339704  1
  H  H11  1  0.806305  0.647246  0.500000  1
  H  H12  1  0.193695  0.647246  0.500000  1
  H  H13  1  0.344869  0.500000  0.800933  1
  H  H14  1  0.655131  0.500000  0.800933  1
  H  H15  1  0.310654  0.000000  0.148632  1
  H  H16  1  0.155092  0.304622  0.000000  1
  H  H17  1  0.844908  0.695378  0.000000  1
  H  H18  1  0.310654  0.000000  0.851368  1
  H  H19  1  0.844908  0.304622  0.000000  1
  H  H20  1  0.689346  0.000000  0.148632  1
  H  H21  1  0.689346  0.000000  0.851368  1
  H  H22  1  0.155092  0.695378  0.000000  1
  H  H23  1  0.000000  0.838278  0.710625  1
  H  H24  1  0.000000  0.161722  0.710625  1
  H  H25  1  0.000000  0.838278  0.289375  1
  H  H26  1  0.655131  0.500000  0.199067  1
  H  H27  1  0.344869  0.500000  0.199067  1
  H  H28  1  0.806305  0.352754  0.500000  1
  H  H29  1  0.193695  0.352754  0.500000  1
  H  H30  1  0.500000  0.787364  0.660296  1
  H  H31  1  0.500000  0.212636  0.339704  1
