# generated using pymatgen
data_CeAs4Ru5Rh
_symmetry_space_group_name_H-M   'P 1'
_cell_length_a   7.17579894
_cell_length_b   7.14416124
_cell_length_c   3.90213500
_cell_angle_alpha   90.00000000
_cell_angle_beta   90.00000000
_cell_angle_gamma   119.85426352
_symmetry_Int_Tables_number   1
_chemical_formula_structural   CeAs4Ru5Rh
_chemical_formula_sum   'Ce1 As4 Ru5 Rh1'
_cell_volume   173.49634826
_cell_formula_units_Z   1
loop_
 _symmetry_equiv_pos_site_id
 _symmetry_equiv_pos_as_xyz
  1  'x, y, z'
loop_
 _atom_site_type_symbol
 _atom_site_label
 _atom_site_symmetry_multiplicity
 _atom_site_fract_x
 _atom_site_fract_y
 _atom_site_fract_z
 _atom_site_occupancy
  Ce  Ce0  1  0.004340  0.002170  0.000000  1
  As  As1  1  0.328840  0.664421  0.000000  1
  As  As2  1  0.386820  0.193410  0.499999  1
  As  As3  1  0.808399  0.196111  0.499999  1
  As  As4  1  0.808399  0.612287  0.499999  1
  Ru  Ru5  1  0.532494  0.066225  0.000000  1
  Ru  Ru6  1  0.931290  0.465644  0.000000  1
  Ru  Ru7  1  0.532494  0.466269  0.000000  1
  Ru  Ru8  1  0.199008  0.399295  0.499999  1
  Ru  Ru9  1  0.199008  0.799714  0.499999  1
  Rh  Rh10  1  0.602239  0.801120  0.499999  1
