# generated using pymatgen
data_Sm2Cr3Co9P7
_symmetry_space_group_name_H-M   'P 1'
_cell_length_a   9.00499300
_cell_length_b   9.00499401
_cell_length_c   3.66435600
_cell_angle_alpha   90.00000000
_cell_angle_beta   90.00000000
_cell_angle_gamma   120.00000731
_symmetry_Int_Tables_number   1
_chemical_formula_structural   Sm2Cr3Co9P7
_chemical_formula_sum   'Sm2 Cr3 Co9 P7'
_cell_volume   257.33275363
_cell_formula_units_Z   1
loop_
 _symmetry_equiv_pos_site_id
 _symmetry_equiv_pos_as_xyz
  1  'x, y, z'
loop_
 _atom_site_type_symbol
 _atom_site_label
 _atom_site_symmetry_multiplicity
 _atom_site_fract_x
 _atom_site_fract_y
 _atom_site_fract_z
 _atom_site_occupancy
  Sm  Sm0  1  0.333333  0.666667  0.000000  1
  Sm  Sm1  1  0.666667  0.333333  0.500000  1
  Cr  Cr2  1  0.215710  0.120120  0.500000  1
  Cr  Cr3  1  0.879880  0.095591  0.500000  1
  Cr  Cr4  1  0.904409  0.784290  0.500000  1
  Co  Co5  1  0.430495  0.371138  0.000000  1
  Co  Co6  1  0.628862  0.059357  0.000000  1
  Co  Co7  1  0.940643  0.569505  0.000000  1
  Co  Co8  1  0.154783  0.879955  0.000000  1
  Co  Co9  1  0.120045  0.274828  0.000000  1
  Co  Co10  1  0.725172  0.845217  0.000000  1
  Co  Co11  1  0.383083  0.951306  0.500000  1
  Co  Co12  1  0.048694  0.431776  0.500000  1
  Co  Co13  1  0.568224  0.616917  0.500000  1
  P  P14  1  0.405562  0.109847  0.000000  1
  P  P15  1  0.890153  0.295715  0.000000  1
  P  P16  1  0.704285  0.594438  0.000000  1
  P  P17  1  0.109000  0.709205  0.500000  1
  P  P18  1  0.290795  0.399794  0.500000  1
  P  P19  1  0.600206  0.891000  0.500000  1
  P  P20  1  0.000000  0.000000  0.000000  1
