# generated using pymatgen
data_LuZr4Np3F28
_symmetry_space_group_name_H-M   'P 1'
_cell_length_a   5.79182775
_cell_length_b   9.33289901
_cell_length_c   12.51463307
_cell_angle_alpha   61.83774675
_cell_angle_beta   89.95528861
_cell_angle_gamma   90.11295388
_symmetry_Int_Tables_number   1
_chemical_formula_structural   LuZr4Np3F28
_chemical_formula_sum   'Lu1 Zr4 Np3 F28'
_cell_volume   596.38598118
_cell_formula_units_Z   1
loop_
 _symmetry_equiv_pos_site_id
 _symmetry_equiv_pos_as_xyz
  1  'x, y, z'
loop_
 _atom_site_type_symbol
 _atom_site_label
 _atom_site_symmetry_multiplicity
 _atom_site_fract_x
 _atom_site_fract_y
 _atom_site_fract_z
 _atom_site_occupancy
  Lu  Lu0  1  0.741183  0.812594  0.263773  1
  Zr  Zr1  1  0.743545  0.285535  0.450876  1
  Zr  Zr2  1  0.240758  0.723867  0.052363  1
  Zr  Zr3  1  0.256345  0.722322  0.536822  1
  Zr  Zr4  1  0.754918  0.269662  0.958643  1
  Np  Np5  1  0.242260  0.177566  0.234997  1
  Np  Np6  1  0.259832  0.181998  0.735376  1
  Np  Np7  1  0.757850  0.811580  0.763410  1
  F  F8  1  0.456212  0.717088  0.925977  1
  F  F9  1  0.952715  0.290143  0.580149  1
  F  F10  1  0.547924  0.287825  0.083629  1
  F  F11  1  0.033158  0.716110  0.412953  1
  F  F12  1  0.451801  0.289761  0.542392  1
  F  F13  1  0.956646  0.717534  0.957190  1
  F  F14  1  0.546293  0.721491  0.440470  1
  F  F15  1  0.049272  0.283567  0.045133  1
  F  F16  1  0.764841  0.517655  0.863309  1
  F  F17  1  0.270724  0.477961  0.636664  1
  F  F18  1  0.230886  0.478232  0.145299  1
  F  F19  1  0.737400  0.533974  0.354720  1
  F  F20  1  0.763224  0.022695  0.063958  1
  F  F21  1  0.269981  0.970567  0.444095  1
  F  F22  1  0.229426  0.971019  0.946700  1
  F  F23  1  0.730287  0.037289  0.554844  1
  F  F24  1  0.980757  0.731998  0.635528  1
  F  F25  1  0.473959  0.264548  0.863202  1
  F  F26  1  0.019695  0.265213  0.358435  1
  F  F27  1  0.513071  0.737975  0.152779  1
  F  F28  1  0.023869  0.749381  0.174418  1
  F  F29  1  0.539042  0.265255  0.325660  1
  F  F30  1  0.956736  0.258234  0.828808  1
  F  F31  1  0.461393  0.736652  0.666130  1
  F  F32  1  0.435141  0.962033  0.233341  1
  F  F33  1  0.911402  0.015033  0.266890  1
  F  F34  1  0.598238  0.035116  0.770678  1
  F  F35  1  0.099215  0.960526  0.730389  1
