# generated using pymatgen
data_Zr6Ti3MnAl13Pd6
_symmetry_space_group_name_H-M   'P 1'
_cell_length_a   8.82608861
_cell_length_b   8.82608939
_cell_length_c   8.82608870
_cell_angle_alpha   59.59741629
_cell_angle_beta   59.59741334
_cell_angle_gamma   59.59741290
_symmetry_Int_Tables_number   1
_chemical_formula_structural   Zr6Ti3MnAl13Pd6
_chemical_formula_sum   'Zr6 Ti3 Mn1 Al13 Pd6'
_cell_volume   481.72325297
_cell_formula_units_Z   1
loop_
 _symmetry_equiv_pos_site_id
 _symmetry_equiv_pos_as_xyz
  1  'x, y, z'
loop_
 _atom_site_type_symbol
 _atom_site_label
 _atom_site_symmetry_multiplicity
 _atom_site_fract_x
 _atom_site_fract_y
 _atom_site_fract_z
 _atom_site_occupancy
  Zr  Zr0  1  0.691418  0.691418  0.306949  1
  Zr  Zr1  1  0.309874  0.689619  0.309874  1
  Zr  Zr2  1  0.689619  0.309874  0.309874  1
  Zr  Zr3  1  0.309874  0.309874  0.689619  1
  Zr  Zr4  1  0.691418  0.306949  0.691418  1
  Zr  Zr5  1  0.306949  0.691418  0.691418  1
  Ti  Ti6  1  0.885053  0.885053  0.344309  1
  Ti  Ti7  1  0.885053  0.344309  0.885053  1
  Ti  Ti8  1  0.344309  0.885053  0.885053  1
  Mn  Mn9  1  0.003153  0.003153  0.003153  1
  Al  Al10  1  0.884978  0.884978  0.884978  1
  Al  Al11  1  0.115396  0.115396  0.652254  1
  Al  Al12  1  0.115396  0.652254  0.115396  1
  Al  Al13  1  0.652254  0.115396  0.115396  1
  Al  Al14  1  0.117595  0.117595  0.117595  1
  Al  Al15  1  0.666719  0.666719  0.998277  1
  Al  Al16  1  0.666719  0.998277  0.666719  1
  Al  Al17  1  0.998277  0.666719  0.666719  1
  Al  Al18  1  0.666287  0.666287  0.666287  1
  Al  Al19  1  0.333660  0.333660  0.999622  1
  Al  Al20  1  0.333660  0.999622  0.333660  1
  Al  Al21  1  0.999622  0.333660  0.333660  1
  Al  Al22  1  0.333383  0.333383  0.333383  1
  Pd  Pd23  1  0.999294  0.999294  0.501841  1
  Pd  Pd24  1  0.499549  0.999807  0.499549  1
  Pd  Pd25  1  0.999807  0.499549  0.499549  1
  Pd  Pd26  1  0.499549  0.499549  0.999807  1
  Pd  Pd27  1  0.999294  0.501841  0.999294  1
  Pd  Pd28  1  0.501841  0.999294  0.999294  1
