# generated using pymatgen
data_Tb2Sm2Tc3Os5
_symmetry_space_group_name_H-M   'P 1'
_cell_length_a   5.29255088
_cell_length_b   5.31346975
_cell_length_c   9.18770201
_cell_angle_alpha   90.00000063
_cell_angle_beta   90.00460625
_cell_angle_gamma   120.13083405
_symmetry_Int_Tables_number   1
_chemical_formula_structural   Tb2Sm2Tc3Os5
_chemical_formula_sum   'Tb2 Sm2 Tc3 Os5'
_cell_volume   223.46356012
_cell_formula_units_Z   1
loop_
 _symmetry_equiv_pos_site_id
 _symmetry_equiv_pos_as_xyz
  1  'x, y, z'
loop_
 _atom_site_type_symbol
 _atom_site_label
 _atom_site_symmetry_multiplicity
 _atom_site_fract_x
 _atom_site_fract_y
 _atom_site_fract_z
 _atom_site_occupancy
  Tb  Tb0  1  0.337932  0.668967  0.435986  1
  Tb  Tb1  1  0.669581  0.334790  0.561772  1
  Sm  Sm2  1  0.669901  0.334950  0.938216  1
  Sm  Sm3  1  0.337672  0.668837  0.063667  1
  Tc  Tc4  1  0.164765  0.331351  0.747842  1
  Tc  Tc5  1  0.164765  0.833414  0.747842  1
  Tc  Tc6  1  0.324298  0.162149  0.251998  1
  Os  Os7  1  0.825972  0.654817  0.252519  1
  Os  Os8  1  0.651692  0.825845  0.747420  1
  Os  Os9  1  0.013465  0.006732  0.001656  1
  Os  Os10  1  0.825972  0.171155  0.252519  1
  Os  Os11  1  0.013987  0.006993  0.498562  1
