# generated using pymatgen
data_YPa3(SbTe)4
_symmetry_space_group_name_H-M   'P 1'
_cell_length_a   4.32768900
_cell_length_b   4.32722801
_cell_length_c   18.20505700
_cell_angle_alpha   90.00376038
_cell_angle_beta   90.00000000
_cell_angle_gamma   90.00000000
_symmetry_Int_Tables_number   1
_chemical_formula_structural   YPa3(SbTe)4
_chemical_formula_sum   'Y1 Pa3 Sb4 Te4'
_cell_volume   340.92422761
_cell_formula_units_Z   1
loop_
 _symmetry_equiv_pos_site_id
 _symmetry_equiv_pos_as_xyz
  1  'x, y, z'
loop_
 _atom_site_type_symbol
 _atom_site_label
 _atom_site_symmetry_multiplicity
 _atom_site_fract_x
 _atom_site_fract_y
 _atom_site_fract_z
 _atom_site_occupancy
  Y  Y0  1  0.750000  0.248087  0.867436  1
  Pa  Pa1  1  0.250000  0.751809  0.135402  1
  Pa  Pa2  1  0.750000  0.251441  0.364232  1
  Pa  Pa3  1  0.250000  0.748431  0.634108  1
  Sb  Sb4  1  0.250000  0.250529  0.001541  1
  Sb  Sb5  1  0.750000  0.750089  0.499052  1
  Sb  Sb6  1  0.250000  0.249805  0.499042  1
  Sb  Sb7  1  0.750000  0.750215  0.001549  1
  Te  Te8  1  0.750000  0.251931  0.183860  1
  Te  Te9  1  0.250000  0.751732  0.316543  1
  Te  Te10  1  0.750000  0.248162  0.683569  1
  Te  Te11  1  0.250000  0.747765  0.813665  1
