# generated using pymatgen
data_DyTm2In3NiAu2
_symmetry_space_group_name_H-M   'P 1'
_cell_length_a   3.68824400
_cell_length_b   7.81771387
_cell_length_c   7.81737809
_cell_angle_alpha   120.00141735
_cell_angle_beta   90.00000000
_cell_angle_gamma   90.00000000
_symmetry_Int_Tables_number   1
_chemical_formula_structural   DyTm2In3NiAu2
_chemical_formula_sum   'Dy1 Tm2 In3 Ni1 Au2'
_cell_volume   195.20231406
_cell_formula_units_Z   1
loop_
 _symmetry_equiv_pos_site_id
 _symmetry_equiv_pos_as_xyz
  1  'x, y, z'
loop_
 _atom_site_type_symbol
 _atom_site_label
 _atom_site_symmetry_multiplicity
 _atom_site_fract_x
 _atom_site_fract_y
 _atom_site_fract_z
 _atom_site_occupancy
  Dy  Dy0  1  0.500000  0.401089  0.000000  1
  Tm  Tm1  1  0.500000  0.599148  0.598641  1
  Tm  Tm2  1  0.500000  0.000507  0.401359  1
  In  In3  1  0.000000  0.750863  0.000000  1
  In  In4  1  0.000000  0.249386  0.249978  1
  In  In5  1  0.000000  0.999408  0.750022  1
  Ni  Ni6  1  0.500000  0.999168  0.000000  1
  Au  Au7  1  0.000000  0.667687  0.334842  1
  Au  Au8  1  0.000000  0.332846  0.665158  1
