# generated using pymatgen
data_Tb3Fe(Ni4P3)2
_symmetry_space_group_name_H-M   'P 1'
_cell_length_a   3.76962100
_cell_length_b   10.51097200
_cell_length_c   12.31230100
_cell_angle_alpha   90.00000000
_cell_angle_beta   90.00000000
_cell_angle_gamma   90.00000000
_symmetry_Int_Tables_number   1
_chemical_formula_structural   Tb3Fe(Ni4P3)2
_chemical_formula_sum   'Tb6 Fe2 Ni16 P12'
_cell_volume   487.84267852
_cell_formula_units_Z   2
loop_
 _symmetry_equiv_pos_site_id
 _symmetry_equiv_pos_as_xyz
  1  'x, y, z'
loop_
 _atom_site_type_symbol
 _atom_site_label
 _atom_site_symmetry_multiplicity
 _atom_site_fract_x
 _atom_site_fract_y
 _atom_site_fract_z
 _atom_site_occupancy
  Tb  Tb0  1  0.000000  0.500000  0.520704  1
  Tb  Tb1  1  0.500000  0.000000  0.479296  1
  Tb  Tb2  1  0.500000  0.815765  0.206753  1
  Tb  Tb3  1  0.500000  0.184235  0.206753  1
  Tb  Tb4  1  0.000000  0.684235  0.793247  1
  Tb  Tb5  1  0.000000  0.315765  0.793247  1
  Fe  Fe6  1  0.000000  0.500000  0.985617  1
  Fe  Fe7  1  0.500000  0.000000  0.014383  1
  Ni  Ni8  1  0.500000  0.500000  0.156559  1
  Ni  Ni9  1  0.000000  0.000000  0.843441  1
  Ni  Ni10  1  0.500000  0.500000  0.702352  1
  Ni  Ni11  1  0.000000  0.000000  0.297648  1
  Ni  Ni12  1  0.500000  0.331669  0.994562  1
  Ni  Ni13  1  0.500000  0.668331  0.994562  1
  Ni  Ni14  1  0.000000  0.168331  0.005438  1
  Ni  Ni15  1  0.000000  0.831669  0.005438  1
  Ni  Ni16  1  0.500000  0.300220  0.429520  1
  Ni  Ni17  1  0.500000  0.699780  0.429520  1
  Ni  Ni18  1  0.000000  0.199780  0.570480  1
  Ni  Ni19  1  0.000000  0.800220  0.570480  1
  Ni  Ni20  1  0.500000  0.880150  0.711298  1
  Ni  Ni21  1  0.500000  0.119850  0.711298  1
  Ni  Ni22  1  0.000000  0.619850  0.288702  1
  Ni  Ni23  1  0.000000  0.380150  0.288702  1
  P  P24  1  0.500000  0.500000  0.881291  1
  P  P25  1  0.000000  0.000000  0.118709  1
  P  P26  1  0.500000  0.500000  0.343390  1
  P  P27  1  0.000000  0.000000  0.656610  1
  P  P28  1  0.500000  0.312963  0.614838  1
  P  P29  1  0.500000  0.687037  0.614838  1
  P  P30  1  0.000000  0.187037  0.385162  1
  P  P31  1  0.000000  0.812963  0.385162  1
  P  P32  1  0.500000  0.850898  0.893180  1
  P  P33  1  0.500000  0.149102  0.893180  1
  P  P34  1  0.000000  0.649102  0.106820  1
  P  P35  1  0.000000  0.350898  0.106820  1
