# generated using pymatgen
data_La4PRu3I2
_symmetry_space_group_name_H-M   'P 1'
_cell_length_a   4.32468800
_cell_length_b   4.32468828
_cell_length_c   17.59438900
_cell_angle_alpha   90.00000000
_cell_angle_beta   90.00000000
_cell_angle_gamma   119.99999782
_symmetry_Int_Tables_number   1
_chemical_formula_structural   La4PRu3I2
_chemical_formula_sum   'La4 P1 Ru3 I2'
_cell_volume   284.98002611
_cell_formula_units_Z   1
loop_
 _symmetry_equiv_pos_site_id
 _symmetry_equiv_pos_as_xyz
  1  'x, y, z'
loop_
 _atom_site_type_symbol
 _atom_site_label
 _atom_site_symmetry_multiplicity
 _atom_site_fract_x
 _atom_site_fract_y
 _atom_site_fract_z
 _atom_site_occupancy
  La  La0  1  0.000000  0.000000  0.107412  1
  La  La1  1  0.000000  0.000000  0.892663  1
  La  La2  1  0.000000  0.000000  0.599779  1
  La  La3  1  0.000000  0.000000  0.403725  1
  P  P4  1  0.333333  0.666667  0.507975  1
  Ru  Ru5  1  0.666667  0.333333  0.493495  1
  Ru  Ru6  1  0.666667  0.333333  0.004083  1
  Ru  Ru7  1  0.333333  0.666667  0.994926  1
  I  I8  1  0.333333  0.666667  0.253671  1
  I  I9  1  0.666667  0.333333  0.742274  1
