# generated using pymatgen
data_Tm2V3As7Rh9
_symmetry_space_group_name_H-M   'P 1'
_cell_length_a   3.91516900
_cell_length_b   9.91810125
_cell_length_c   9.91810100
_cell_angle_alpha   119.99999583
_cell_angle_beta   90.00000000
_cell_angle_gamma   90.00000000
_symmetry_Int_Tables_number   1
_chemical_formula_structural   Tm2V3As7Rh9
_chemical_formula_sum   'Tm2 V3 As7 Rh9'
_cell_volume   333.53255266
_cell_formula_units_Z   1
loop_
 _symmetry_equiv_pos_site_id
 _symmetry_equiv_pos_as_xyz
  1  'x, y, z'
loop_
 _atom_site_type_symbol
 _atom_site_label
 _atom_site_symmetry_multiplicity
 _atom_site_fract_x
 _atom_site_fract_y
 _atom_site_fract_z
 _atom_site_occupancy
  Tm  Tm0  1  0.000000  0.666667  0.333333  1
  Tm  Tm1  1  0.500000  0.333333  0.666667  1
  V  V2  1  0.500000  0.781569  0.903785  1
  V  V3  1  0.500000  0.122218  0.218431  1
  V  V4  1  0.500000  0.096215  0.877782  1
  As  As5  1  0.000000  0.000000  0.000000  1
  As  As6  1  0.500000  0.709456  0.119287  1
  As  As7  1  0.500000  0.409831  0.290544  1
  As  As8  1  0.500000  0.880713  0.590169  1
  As  As9  1  0.000000  0.587811  0.706293  1
  As  As10  1  0.000000  0.118483  0.412189  1
  As  As11  1  0.000000  0.293707  0.881517  1
  Rh  Rh12  1  0.000000  0.561656  0.932426  1
  Rh  Rh13  1  0.000000  0.370769  0.438344  1
  Rh  Rh14  1  0.000000  0.067574  0.629231  1
  Rh  Rh15  1  0.000000  0.881096  0.156972  1
  Rh  Rh16  1  0.000000  0.275876  0.118904  1
  Rh  Rh17  1  0.000000  0.843028  0.724124  1
  Rh  Rh18  1  0.500000  0.946315  0.384807  1
  Rh  Rh19  1  0.500000  0.438491  0.053685  1
  Rh  Rh20  1  0.500000  0.615193  0.561509  1
