# generated using pymatgen
data_GaTc3Te4
_symmetry_space_group_name_H-M   'P 1'
_cell_length_a   7.06955499
_cell_length_b   12.56013620
_cell_length_c   11.50098560
_cell_angle_alpha   89.96986671
_cell_angle_beta   103.08429599
_cell_angle_gamma   90.04292883
_symmetry_Int_Tables_number   1
_chemical_formula_structural   GaTc3Te4
_chemical_formula_sum   'Ga4 Tc12 Te16'
_cell_volume   994.71177300
_cell_formula_units_Z   4
loop_
 _symmetry_equiv_pos_site_id
 _symmetry_equiv_pos_as_xyz
  1  'x, y, z'
loop_
 _atom_site_type_symbol
 _atom_site_label
 _atom_site_symmetry_multiplicity
 _atom_site_fract_x
 _atom_site_fract_y
 _atom_site_fract_z
 _atom_site_occupancy
  Ga  Ga0  1  0.238223  0.723853  0.217365  1
  Ga  Ga1  1  0.261740  0.223845  0.282631  1
  Ga  Ga2  1  0.761783  0.276155  0.782639  1
  Ga  Ga3  1  0.738268  0.776158  0.717372  1
  Tc  Tc4  1  0.105448  0.877731  0.088234  1
  Tc  Tc5  1  0.394294  0.377744  0.411830  1
  Tc  Tc6  1  0.894494  0.122267  0.911786  1
  Tc  Tc7  1  0.605769  0.622256  0.588152  1
  Tc  Tc8  1  0.228680  0.009662  0.936536  1
  Tc  Tc9  1  0.271346  0.509590  0.563466  1
  Tc  Tc10  1  0.771267  0.990336  0.063490  1
  Tc  Tc11  1  0.728708  0.490413  0.436512  1
  Tc  Tc12  1  0.120273  0.089883  0.128151  1
  Tc  Tc13  1  0.379899  0.589919  0.371812  1
  Tc  Tc14  1  0.879668  0.910117  0.871869  1
  Tc  Tc15  1  0.620153  0.410077  0.628169  1
  Te  Te16  1  0.238750  0.222710  0.974342  1
  Te  Te17  1  0.261734  0.722653  0.525557  1
  Te  Te18  1  0.761181  0.777291  0.025676  1
  Te  Te19  1  0.738348  0.277358  0.474419  1
  Te  Te20  1  0.004654  0.957859  0.283677  1
  Te  Te21  1  0.495290  0.457967  0.216335  1
  Te  Te22  1  0.995312  0.042138  0.716349  1
  Te  Te23  1  0.504746  0.542031  0.783639  1
  Te  Te24  1  0.210104  0.797088  0.895037  1
  Te  Te25  1  0.289523  0.297013  0.605049  1
  Te  Te26  1  0.789833  0.202908  0.104980  1
  Te  Te27  1  0.710520  0.702983  0.394920  1
  Te  Te28  1  0.450294  0.974711  0.170549  1
  Te  Te29  1  0.049659  0.474693  0.329489  1
  Te  Te30  1  0.549651  0.025287  0.829476  1
  Te  Te31  1  0.950393  0.525307  0.670499  1
