# generated using pymatgen
data_Hg3PtF12
_symmetry_space_group_name_H-M   'P 1'
_cell_length_a   5.89220125
_cell_length_b   6.20760576
_cell_length_c   8.55740000
_cell_angle_alpha   95.70143914
_cell_angle_beta   91.58880417
_cell_angle_gamma   90.33739052
_symmetry_Int_Tables_number   1
_chemical_formula_structural   Hg3PtF12
_chemical_formula_sum   'Hg3 Pt1 F12'
_cell_volume   311.31954399
_cell_formula_units_Z   1
loop_
 _symmetry_equiv_pos_site_id
 _symmetry_equiv_pos_as_xyz
  1  'x, y, z'
loop_
 _atom_site_type_symbol
 _atom_site_label
 _atom_site_symmetry_multiplicity
 _atom_site_fract_x
 _atom_site_fract_y
 _atom_site_fract_z
 _atom_site_occupancy
  Hg  Hg0  1  0.000000  0.000000  0.000000  1
  Hg  Hg1  1  0.500000  0.500000  0.500000  1
  Hg  Hg2  1  0.000000  0.000000  0.500000  1
  Pt  Pt3  1  0.500000  0.500000  0.000000  1
  F  F4  1  0.901795  0.003372  0.771589  1
  F  F5  1  0.224177  0.288065  0.536583  1
  F  F6  1  0.227260  0.630348  0.921969  1
  F  F7  1  0.364066  0.484928  0.202253  1
  F  F8  1  0.378212  0.215575  0.931131  1
  F  F9  1  0.284089  0.778714  0.530484  1
  F  F10  1  0.715911  0.221286  0.469516  1
  F  F11  1  0.621788  0.784425  0.068869  1
  F  F12  1  0.635934  0.515072  0.797747  1
  F  F13  1  0.772740  0.369652  0.078031  1
  F  F14  1  0.775823  0.711935  0.463417  1
  F  F15  1  0.098205  0.996628  0.228411  1
