# generated using pymatgen
data_InMo(PO4)2
_symmetry_space_group_name_H-M   'P 1'
_cell_length_a   4.88647073
_cell_length_b   4.88647027
_cell_length_c   6.90013093
_cell_angle_alpha   90.90062776
_cell_angle_beta   89.09937334
_cell_angle_gamma   113.64052445
_symmetry_Int_Tables_number   1
_chemical_formula_structural   InMo(PO4)2
_chemical_formula_sum   'In1 Mo1 P2 O8'
_cell_volume   150.90526125
_cell_formula_units_Z   1
loop_
 _symmetry_equiv_pos_site_id
 _symmetry_equiv_pos_as_xyz
  1  'x, y, z'
loop_
 _atom_site_type_symbol
 _atom_site_label
 _atom_site_symmetry_multiplicity
 _atom_site_fract_x
 _atom_site_fract_y
 _atom_site_fract_z
 _atom_site_occupancy
  In  In0  1  0.000000  0.000000  0.500000  1
  Mo  Mo1  1  0.000000  0.000000  0.000000  1
  P  P2  1  0.649448  0.350552  0.752312  1
  P  P3  1  0.350552  0.649448  0.247688  1
  O  O4  1  0.252756  0.747244  0.062883  1
  O  O5  1  0.746826  0.253174  0.561015  1
  O  O6  1  0.747244  0.252756  0.937117  1
  O  O7  1  0.253174  0.746826  0.438985  1
  O  O8  1  0.704845  0.775610  0.245887  1
  O  O9  1  0.295155  0.224390  0.754113  1
  O  O10  1  0.775610  0.704845  0.754113  1
  O  O11  1  0.224390  0.295155  0.245887  1
