# generated using pymatgen
data_ZrCo4P3Ru
_symmetry_space_group_name_H-M   'P 1'
_cell_length_a   3.64698700
_cell_length_b   10.25799100
_cell_length_c   11.68111100
_cell_angle_alpha   90.00000000
_cell_angle_beta   90.00000000
_cell_angle_gamma   90.00000000
_symmetry_Int_Tables_number   1
_chemical_formula_structural   ZrCo4P3Ru
_chemical_formula_sum   'Zr4 Co16 P12 Ru4'
_cell_volume   436.99923809
_cell_formula_units_Z   4
loop_
 _symmetry_equiv_pos_site_id
 _symmetry_equiv_pos_as_xyz
  1  'x, y, z'
loop_
 _atom_site_type_symbol
 _atom_site_label
 _atom_site_symmetry_multiplicity
 _atom_site_fract_x
 _atom_site_fract_y
 _atom_site_fract_z
 _atom_site_occupancy
  Zr  Zr0  1  0.250000  0.585200  0.703857  1
  Zr  Zr1  1  0.250000  0.914800  0.203857  1
  Zr  Zr2  1  0.750000  0.414800  0.296143  1
  Zr  Zr3  1  0.750000  0.085200  0.796143  1
  Co  Co4  1  0.250000  0.410771  0.486610  1
  Co  Co5  1  0.250000  0.089229  0.986610  1
  Co  Co6  1  0.750000  0.589229  0.513390  1
  Co  Co7  1  0.750000  0.910771  0.013390  1
  Co  Co8  1  0.250000  0.223727  0.177985  1
  Co  Co9  1  0.250000  0.276274  0.677985  1
  Co  Co10  1  0.750000  0.776274  0.822015  1
  Co  Co11  1  0.750000  0.723726  0.322015  1
  Co  Co12  1  0.250000  0.887536  0.704285  1
  Co  Co13  1  0.250000  0.612464  0.204285  1
  Co  Co14  1  0.750000  0.112464  0.295715  1
  Co  Co15  1  0.750000  0.387536  0.795715  1
  Co  Co16  1  0.250000  0.465349  0.929198  1
  Co  Co17  1  0.250000  0.034651  0.429198  1
  Co  Co18  1  0.750000  0.534651  0.070802  1
  Co  Co19  1  0.750000  0.965349  0.570802  1
  P  P20  1  0.250000  0.420703  0.113838  1
  P  P21  1  0.250000  0.079297  0.613838  1
  P  P22  1  0.750000  0.579297  0.886162  1
  P  P23  1  0.750000  0.920703  0.386162  1
  P  P24  1  0.250000  0.267205  0.866599  1
  P  P25  1  0.250000  0.232795  0.366599  1
  P  P26  1  0.750000  0.732795  0.133401  1
  P  P27  1  0.750000  0.767205  0.633401  1
  P  P28  1  0.250000  0.594163  0.388736  1
  P  P29  1  0.250000  0.905837  0.888736  1
  P  P30  1  0.750000  0.405837  0.611264  1
  P  P31  1  0.750000  0.094163  0.111264  1
  Ru  Ru32  1  0.250000  0.718086  0.993087  1
  Ru  Ru33  1  0.250000  0.781914  0.493087  1
  Ru  Ru34  1  0.750000  0.281914  0.006913  1
  Ru  Ru35  1  0.750000  0.218086  0.506913  1
