# generated using pymatgen
data_Cs3CoO4
_symmetry_space_group_name_H-M   'P 1'
_cell_length_a   6.66881700
_cell_length_b   9.13245700
_cell_length_c   12.48664600
_cell_angle_alpha   90.00000000
_cell_angle_beta   90.00000000
_cell_angle_gamma   90.00000000
_symmetry_Int_Tables_number   1
_chemical_formula_structural   Cs3CoO4
_chemical_formula_sum   'Cs12 Co4 O16'
_cell_volume   760.47026172
_cell_formula_units_Z   4
loop_
 _symmetry_equiv_pos_site_id
 _symmetry_equiv_pos_as_xyz
  1  'x, y, z'
loop_
 _atom_site_type_symbol
 _atom_site_label
 _atom_site_symmetry_multiplicity
 _atom_site_fract_x
 _atom_site_fract_y
 _atom_site_fract_z
 _atom_site_occupancy
  Cs  Cs0  1  0.181041  0.991104  0.353803  1
  Cs  Cs1  1  0.863174  0.750000  0.927749  1
  Cs  Cs2  1  0.636826  0.750000  0.427749  1
  Cs  Cs3  1  0.136826  0.250000  0.072251  1
  Cs  Cs4  1  0.363174  0.250000  0.572251  1
  Cs  Cs5  1  0.681041  0.008896  0.146197  1
  Cs  Cs6  1  0.818959  0.491104  0.646197  1
  Cs  Cs7  1  0.318959  0.508896  0.853803  1
  Cs  Cs8  1  0.818959  0.008896  0.646197  1
  Cs  Cs9  1  0.318959  0.991104  0.853803  1
  Cs  Cs10  1  0.181041  0.508896  0.353803  1
  Cs  Cs11  1  0.681041  0.491104  0.146197  1
  Co  Co12  1  0.275635  0.750000  0.113315  1
  Co  Co13  1  0.724365  0.250000  0.886685  1
  Co  Co14  1  0.775635  0.250000  0.386685  1
  Co  Co15  1  0.224365  0.750000  0.613315  1
  O  O16  1  0.632380  0.404133  0.392694  1
  O  O17  1  0.132380  0.595867  0.107306  1
  O  O18  1  0.367620  0.904133  0.607306  1
  O  O19  1  0.867620  0.095867  0.892694  1
  O  O20  1  0.367620  0.595867  0.607306  1
  O  O21  1  0.867620  0.404133  0.892694  1
  O  O22  1  0.632380  0.095867  0.392694  1
  O  O23  1  0.132380  0.904133  0.107306  1
  O  O24  1  0.057188  0.750000  0.509279  1
  O  O25  1  0.411212  0.750000  0.229698  1
  O  O26  1  0.942812  0.250000  0.490721  1
  O  O27  1  0.442812  0.750000  0.009279  1
  O  O28  1  0.088788  0.750000  0.729698  1
  O  O29  1  0.588788  0.250000  0.770302  1
  O  O30  1  0.911212  0.250000  0.270302  1
  O  O31  1  0.557188  0.250000  0.990721  1
