# generated using pymatgen
data_V6Fe11Si6Os
_symmetry_space_group_name_H-M   'P 1'
_cell_length_a   3.99104300
_cell_length_b   5.74288000
_cell_length_c   11.95648400
_cell_angle_alpha   90.00000000
_cell_angle_beta   90.00038787
_cell_angle_gamma   90.00000000
_symmetry_Int_Tables_number   1
_chemical_formula_structural   V6Fe11Si6Os
_chemical_formula_sum   'V6 Fe11 Si6 Os1'
_cell_volume   274.04358204
_cell_formula_units_Z   1
loop_
 _symmetry_equiv_pos_site_id
 _symmetry_equiv_pos_as_xyz
  1  'x, y, z'
loop_
 _atom_site_type_symbol
 _atom_site_label
 _atom_site_symmetry_multiplicity
 _atom_site_fract_x
 _atom_site_fract_y
 _atom_site_fract_z
 _atom_site_occupancy
  V  V0  1  0.000000  0.518299  0.000000  1
  V  V1  1  0.500008  0.991744  0.173707  1
  V  V2  1  0.000009  0.499793  0.334844  1
  V  V3  1  0.500000  0.000106  0.499999  1
  V  V4  1  0.999990  0.499793  0.665156  1
  V  V5  1  0.499991  0.991744  0.826294  1
  Fe  Fe6  1  0.500000  0.751057  0.000000  1
  Fe  Fe7  1  0.000007  0.250878  0.169523  1
  Fe  Fe8  1  0.000008  0.750579  0.171137  1
  Fe  Fe9  1  0.500001  0.249851  0.333766  1
  Fe  Fe10  1  0.500016  0.748463  0.338134  1
  Fe  Fe11  1  0.000000  0.248986  0.499999  1
  Fe  Fe12  1  0.000000  0.750389  0.499999  1
  Fe  Fe13  1  0.499999  0.249851  0.666234  1
  Fe  Fe14  1  0.499984  0.748463  0.661866  1
  Fe  Fe15  1  0.999993  0.250878  0.830477  1
  Fe  Fe16  1  0.999992  0.750579  0.828863  1
  Si  Si17  1  0.000000  0.989175  0.000000  1
  Si  Si18  1  0.500009  0.505335  0.171777  1
  Si  Si19  1  0.000009  0.000473  0.334920  1
  Si  Si20  1  0.500000  0.497952  0.499999  1
  Si  Si21  1  0.999991  0.000473  0.665080  1
  Si  Si22  1  0.499991  0.505335  0.828223  1
  Os  Os23  1  0.500000  0.249790  0.000000  1
