# generated using pymatgen
data_Sc4Be3FeOs4
_symmetry_space_group_name_H-M   'P 1'
_cell_length_a   4.95999958
_cell_length_b   4.92927274
_cell_length_c   8.41180200
_cell_angle_alpha   90.00000000
_cell_angle_beta   90.00000000
_cell_angle_gamma   119.42461649
_symmetry_Int_Tables_number   1
_chemical_formula_structural   Sc4Be3FeOs4
_chemical_formula_sum   'Sc4 Be3 Fe1 Os4'
_cell_volume   179.13196564
_cell_formula_units_Z   1
loop_
 _symmetry_equiv_pos_site_id
 _symmetry_equiv_pos_as_xyz
  1  'x, y, z'
loop_
 _atom_site_type_symbol
 _atom_site_label
 _atom_site_symmetry_multiplicity
 _atom_site_fract_x
 _atom_site_fract_y
 _atom_site_fract_z
 _atom_site_occupancy
  Sc  Sc0  1  0.323898  0.672446  0.439053  1
  Sc  Sc1  1  0.659322  0.334795  0.565167  1
  Sc  Sc2  1  0.659322  0.334795  0.934833  1
  Sc  Sc3  1  0.323898  0.672446  0.060947  1
  Be  Be4  1  0.174313  0.833556  0.750000  1
  Be  Be5  1  0.342358  0.152330  0.250000  1
  Be  Be6  1  0.849848  0.660855  0.250000  1
  Fe  Fe7  1  0.174996  0.337809  0.750000  1
  Os  Os8  1  0.658097  0.824694  0.750000  1
  Os  Os9  1  0.999556  0.005657  0.002611  1
  Os  Os10  1  0.834832  0.164961  0.250000  1
  Os  Os11  1  0.999556  0.005657  0.497389  1
