# generated using pymatgen
data_Eu6Re2N6F
_symmetry_space_group_name_H-M   'P 1'
_cell_length_a   6.12713267
_cell_length_b   6.12713374
_cell_length_c   6.12713400
_cell_angle_alpha   95.44327229
_cell_angle_beta   95.44327324
_cell_angle_gamma   95.44326933
_symmetry_Int_Tables_number   1
_chemical_formula_structural   Eu6Re2N6F
_chemical_formula_sum   'Eu6 Re2 N6 F1'
_cell_volume   226.69823979
_cell_formula_units_Z   1
loop_
 _symmetry_equiv_pos_site_id
 _symmetry_equiv_pos_as_xyz
  1  'x, y, z'
loop_
 _atom_site_type_symbol
 _atom_site_label
 _atom_site_symmetry_multiplicity
 _atom_site_fract_x
 _atom_site_fract_y
 _atom_site_fract_z
 _atom_site_occupancy
  Eu  Eu0  1  0.634311  0.116987  0.786607  1
  Eu  Eu1  1  0.116987  0.786607  0.634311  1
  Eu  Eu2  1  0.786607  0.634311  0.116987  1
  Eu  Eu3  1  0.365689  0.883013  0.213393  1
  Eu  Eu4  1  0.883013  0.213393  0.365689  1
  Eu  Eu5  1  0.213393  0.365689  0.883013  1
  Re  Re6  1  0.624816  0.624816  0.624816  1
  Re  Re7  1  0.375184  0.375184  0.375184  1
  N  N8  1  0.735562  0.865811  0.471752  1
  N  N9  1  0.865811  0.471752  0.735562  1
  N  N10  1  0.471752  0.735562  0.865811  1
  N  N11  1  0.264438  0.134189  0.528248  1
  N  N12  1  0.134189  0.528248  0.264438  1
  N  N13  1  0.528248  0.264438  0.134189  1
  F  F14  1  0.000000  0.000000  0.000000  1
