# generated using pymatgen
data_Tm3Sc2(In2Rh)2
_symmetry_space_group_name_H-M   'P 1'
_cell_length_a   3.51140900
_cell_length_b   7.84865500
_cell_length_c   17.87768100
_cell_angle_alpha   90.00000000
_cell_angle_beta   90.00000000
_cell_angle_gamma   90.00000000
_symmetry_Int_Tables_number   1
_chemical_formula_structural   Tm3Sc2(In2Rh)2
_chemical_formula_sum   'Tm6 Sc4 In8 Rh4'
_cell_volume   492.70598869
_cell_formula_units_Z   2
loop_
 _symmetry_equiv_pos_site_id
 _symmetry_equiv_pos_as_xyz
  1  'x, y, z'
loop_
 _atom_site_type_symbol
 _atom_site_label
 _atom_site_symmetry_multiplicity
 _atom_site_fract_x
 _atom_site_fract_y
 _atom_site_fract_z
 _atom_site_occupancy
  Tm  Tm0  1  0.000000  0.000000  0.000000  1
  Tm  Tm1  1  0.000000  0.500000  0.500000  1
  Tm  Tm2  1  0.000000  0.747756  0.780859  1
  Tm  Tm3  1  0.000000  0.252244  0.219141  1
  Tm  Tm4  1  0.000000  0.247756  0.719141  1
  Tm  Tm5  1  0.000000  0.752244  0.280859  1
  Sc  Sc6  1  0.000000  0.877945  0.588042  1
  Sc  Sc7  1  0.000000  0.122055  0.411958  1
  Sc  Sc8  1  0.000000  0.377945  0.911958  1
  Sc  Sc9  1  0.000000  0.622055  0.088042  1
  In  In10  1  0.500000  0.806583  0.437048  1
  In  In11  1  0.500000  0.193417  0.562952  1
  In  In12  1  0.500000  0.306583  0.062952  1
  In  In13  1  0.500000  0.693417  0.937048  1
  In  In14  1  0.500000  0.926707  0.149301  1
  In  In15  1  0.500000  0.073293  0.850699  1
  In  In16  1  0.500000  0.426707  0.350699  1
  In  In17  1  0.500000  0.573293  0.649301  1
  Rh  Rh18  1  0.500000  0.963244  0.692913  1
  Rh  Rh19  1  0.500000  0.036756  0.307087  1
  Rh  Rh20  1  0.500000  0.463244  0.807087  1
  Rh  Rh21  1  0.500000  0.536756  0.192913  1
