# generated using pymatgen
data_Cu2Ir3Pb3O14
_symmetry_space_group_name_H-M   'P 1'
_cell_length_a   7.17962357
_cell_length_b   7.17962357
_cell_length_c   7.17962451
_cell_angle_alpha   61.24183961
_cell_angle_beta   61.24183833
_cell_angle_gamma   61.24183963
_symmetry_Int_Tables_number   1
_chemical_formula_structural   Cu2Ir3Pb3O14
_chemical_formula_sum   'Cu2 Ir3 Pb3 O14'
_cell_volume   268.99982048
_cell_formula_units_Z   1
loop_
 _symmetry_equiv_pos_site_id
 _symmetry_equiv_pos_as_xyz
  1  'x, y, z'
loop_
 _atom_site_type_symbol
 _atom_site_label
 _atom_site_symmetry_multiplicity
 _atom_site_fract_x
 _atom_site_fract_y
 _atom_site_fract_z
 _atom_site_occupancy
  Cu  Cu0  1  0.500000  0.500000  0.500000  1
  Cu  Cu1  1  0.000000  0.000000  0.000000  1
  Ir  Ir2  1  0.500000  0.000000  0.000000  1
  Ir  Ir3  1  0.000000  0.000000  0.500000  1
  Ir  Ir4  1  0.000000  0.500000  0.000000  1
  Pb  Pb5  1  0.000000  0.500000  0.500000  1
  Pb  Pb6  1  0.500000  0.500000  0.000000  1
  Pb  Pb7  1  0.500000  0.000000  0.500000  1
  O  O8  1  0.923139  0.323662  0.323662  1
  O  O9  1  0.339075  0.915239  0.915239  1
  O  O10  1  0.323662  0.323662  0.923139  1
  O  O11  1  0.915239  0.915239  0.339075  1
  O  O12  1  0.915239  0.339075  0.915239  1
  O  O13  1  0.323662  0.923139  0.323662  1
  O  O14  1  0.076861  0.676338  0.676338  1
  O  O15  1  0.660925  0.084761  0.084761  1
  O  O16  1  0.676338  0.676338  0.076861  1
  O  O17  1  0.084761  0.084761  0.660925  1
  O  O18  1  0.084761  0.660925  0.084761  1
  O  O19  1  0.676338  0.076861  0.676338  1
  O  O20  1  0.392922  0.392922  0.392922  1
  O  O21  1  0.607078  0.607078  0.607078  1
