# generated using pymatgen
data_DyYMn4Fe8P7
_symmetry_space_group_name_H-M   'P 1'
_cell_length_a   9.06798306
_cell_length_b   9.18732071
_cell_length_c   3.60845200
_cell_angle_alpha   90.00000000
_cell_angle_beta   90.00000000
_cell_angle_gamma   120.16024113
_symmetry_Int_Tables_number   1
_chemical_formula_structural   DyYMn4Fe8P7
_chemical_formula_sum   'Dy1 Y1 Mn4 Fe8 P7'
_cell_volume   259.92474164
_cell_formula_units_Z   1
loop_
 _symmetry_equiv_pos_site_id
 _symmetry_equiv_pos_as_xyz
  1  'x, y, z'
loop_
 _atom_site_type_symbol
 _atom_site_label
 _atom_site_symmetry_multiplicity
 _atom_site_fract_x
 _atom_site_fract_y
 _atom_site_fract_z
 _atom_site_occupancy
  Dy  Dy0  1  0.669753  0.340145  0.000000  1
  Y  Y1  1  0.331328  0.661222  0.500000  1
  Mn  Mn2  1  0.610119  0.047918  0.500000  1
  Mn  Mn3  1  0.123684  0.892221  0.500000  1
  Mn  Mn4  1  0.103135  0.223320  0.500000  1
  Mn  Mn5  1  0.772374  0.876838  0.500000  1
  Fe  Fe6  1  0.376721  0.947620  0.000000  1
  Fe  Fe7  1  0.057450  0.426264  0.000000  1
  Fe  Fe8  1  0.574195  0.627893  0.000000  1
  Fe  Fe9  1  0.882241  0.729124  0.000000  1
  Fe  Fe10  1  0.271691  0.153216  0.000000  1
  Fe  Fe11  1  0.841172  0.119442  0.000000  1
  Fe  Fe12  1  0.950448  0.566483  0.500000  1
  Fe  Fe13  1  0.435636  0.387108  0.500000  1
  P  P14  1  0.108632  0.695942  0.000000  1
  P  P15  1  0.301552  0.410386  0.000000  1
  P  P16  1  0.588593  0.877238  0.000000  1
  P  P17  1  0.712646  0.595386  0.500000  1
  P  P18  1  0.404070  0.127113  0.500000  1
  P  P19  1  0.887116  0.295247  0.500000  1
  P  P20  1  0.997445  0.999875  0.000000  1
