# generated using pymatgen
data_Zr15Ta4Si16Tc
_symmetry_space_group_name_H-M   'P 1'
_cell_length_a   7.01148736
_cell_length_b   7.03070712
_cell_length_c   12.91823970
_cell_angle_alpha   90.42200039
_cell_angle_beta   90.24304872
_cell_angle_gamma   90.23963193
_symmetry_Int_Tables_number   1
_chemical_formula_structural   Zr15Ta4Si16Tc
_chemical_formula_sum   'Zr15 Ta4 Si16 Tc1'
_cell_volume   636.78519471
_cell_formula_units_Z   1
loop_
 _symmetry_equiv_pos_site_id
 _symmetry_equiv_pos_as_xyz
  1  'x, y, z'
loop_
 _atom_site_type_symbol
 _atom_site_label
 _atom_site_symmetry_multiplicity
 _atom_site_fract_x
 _atom_site_fract_y
 _atom_site_fract_z
 _atom_site_occupancy
  Zr  Zr0  1  0.854432  0.998858  0.374370  1
  Zr  Zr1  1  0.007314  0.149555  0.128992  1
  Zr  Zr2  1  0.999620  0.849255  0.624287  1
  Zr  Zr3  1  0.647033  0.497714  0.876421  1
  Zr  Zr4  1  0.499170  0.352233  0.623006  1
  Zr  Zr5  1  0.500437  0.645978  0.123221  1
  Zr  Zr6  1  0.146826  0.002138  0.874278  1
  Zr  Zr7  1  0.004798  0.651729  0.036257  1
  Zr  Zr8  1  0.997944  0.347250  0.532056  1
  Zr  Zr9  1  0.650658  0.999782  0.966246  1
  Zr  Zr10  1  0.150583  0.498960  0.783476  1
  Zr  Zr11  1  0.847373  0.498546  0.284119  1
  Zr  Zr12  1  0.502208  0.148960  0.218761  1
  Zr  Zr13  1  0.499779  0.846119  0.713269  1
  Zr  Zr14  1  0.346307  0.997807  0.465461  1
  Ta  Ta15  1  0.673196  0.672711  0.498027  1
  Ta  Ta16  1  0.824499  0.174588  0.749617  1
  Ta  Ta17  1  0.175806  0.827749  0.250737  1
  Ta  Ta18  1  0.326843  0.325004  0.001360  1
  Si  Si19  1  0.054223  0.697749  0.432983  1
  Si  Si20  1  0.953069  0.300491  0.936632  1
  Si  Si21  1  0.700885  0.048983  0.563801  1
  Si  Si22  1  0.205605  0.454769  0.190849  1
  Si  Si23  1  0.799938  0.546716  0.684972  1
  Si  Si24  1  0.452296  0.198397  0.814013  1
  Si  Si25  1  0.543579  0.792486  0.314942  1
  Si  Si26  1  0.301055  0.950951  0.065040  1
  Si  Si27  1  0.852845  0.796720  0.820193  1
  Si  Si28  1  0.148682  0.217703  0.326408  1
  Si  Si29  1  0.797971  0.855462  0.179505  1
  Si  Si30  1  0.298544  0.642178  0.565562  1
  Si  Si31  1  0.703160  0.351413  0.072238  1
  Si  Si32  1  0.629421  0.301530  0.425264  1
  Si  Si33  1  0.353143  0.701994  0.929057  1
  Si  Si34  1  0.199177  0.147178  0.678808  1
  Tc  Tc35  1  0.351582  0.510344  0.375773  1
