# generated using pymatgen
data_Ho3NiP2Ir3
_symmetry_space_group_name_H-M   'P 1'
_cell_length_a   6.58833000
_cell_length_b   6.58833037
_cell_length_c   4.07278300
_cell_angle_alpha   90.00000000
_cell_angle_beta   90.00000000
_cell_angle_gamma   120.00000818
_symmetry_Int_Tables_number   1
_chemical_formula_structural   Ho3NiP2Ir3
_chemical_formula_sum   'Ho3 Ni1 P2 Ir3'
_cell_volume   153.09907971
_cell_formula_units_Z   1
loop_
 _symmetry_equiv_pos_site_id
 _symmetry_equiv_pos_as_xyz
  1  'x, y, z'
loop_
 _atom_site_type_symbol
 _atom_site_label
 _atom_site_symmetry_multiplicity
 _atom_site_fract_x
 _atom_site_fract_y
 _atom_site_fract_z
 _atom_site_occupancy
  Ho  Ho0  1  0.000000  0.400319  0.500000  1
  Ho  Ho1  1  0.599681  0.599681  0.500000  1
  Ho  Ho2  1  0.400319  0.000000  0.500000  1
  Ni  Ni3  1  0.000000  0.000000  0.500000  1
  P  P4  1  0.666667  0.333333  0.000000  1
  P  P5  1  0.333333  0.666667  0.000000  1
  Ir  Ir6  1  0.000000  0.760657  0.000000  1
  Ir  Ir7  1  0.239343  0.239343  0.000000  1
  Ir  Ir8  1  0.760657  0.000000  0.000000  1
