# generated using pymatgen
data_Sm3Ho(B4W)4
_symmetry_space_group_name_H-M   'P 1'
_cell_length_a   3.66272200
_cell_length_b   6.07465046
_cell_length_c   11.74783882
_cell_angle_alpha   90.07946464
_cell_angle_beta   90.00000000
_cell_angle_gamma   90.00000000
_symmetry_Int_Tables_number   1
_chemical_formula_structural   Sm3Ho(B4W)4
_chemical_formula_sum   'Sm3 Ho1 B16 W4'
_cell_volume   261.38629462
_cell_formula_units_Z   1
loop_
 _symmetry_equiv_pos_site_id
 _symmetry_equiv_pos_as_xyz
  1  'x, y, z'
loop_
 _atom_site_type_symbol
 _atom_site_label
 _atom_site_symmetry_multiplicity
 _atom_site_fract_x
 _atom_site_fract_y
 _atom_site_fract_z
 _atom_site_occupancy
  Sm  Sm0  1  0.000000  0.126485  0.150121  1
  Sm  Sm1  1  0.000000  0.873580  0.849387  1
  Sm  Sm2  1  0.000000  0.626316  0.350253  1
  Ho  Ho3  1  0.000000  0.373506  0.649504  1
  B  B4  1  0.500000  0.476287  0.191935  1
  B  B5  1  0.500000  0.522161  0.806119  1
  B  B6  1  0.500000  0.976447  0.308643  1
  B  B7  1  0.500000  0.025318  0.692156  1
  B  B8  1  0.500000  0.284764  0.315065  1
  B  B9  1  0.500000  0.712355  0.685252  1
  B  B10  1  0.500000  0.784833  0.185709  1
  B  B11  1  0.500000  0.215615  0.812726  1
  B  B12  1  0.500000  0.365591  0.469637  1
  B  B13  1  0.500000  0.634120  0.533117  1
  B  B14  1  0.500000  0.864982  0.031678  1
  B  B15  1  0.500000  0.135345  0.967356  1
  B  B16  1  0.500000  0.387110  0.046201  1
  B  B17  1  0.500000  0.612237  0.952513  1
  B  B18  1  0.500000  0.887890  0.454374  1
  B  B19  1  0.500000  0.114830  0.548146  1
  W  W20  1  0.000000  0.130330  0.416984  1
  W  W21  1  0.000000  0.870213  0.584740  1
  W  W22  1  0.000000  0.629592  0.083565  1
  W  W23  1  0.000000  0.370092  0.914818  1
