# generated using pymatgen
data_Lu4Zn4Ir3Pt
_symmetry_space_group_name_H-M   'P 1'
_cell_length_a   4.05718700
_cell_length_b   6.84433212
_cell_length_c   8.04590614
_cell_angle_alpha   89.97898916
_cell_angle_beta   90.00000000
_cell_angle_gamma   90.00000000
_symmetry_Int_Tables_number   1
_chemical_formula_structural   Lu4Zn4Ir3Pt
_chemical_formula_sum   'Lu4 Zn4 Ir3 Pt1'
_cell_volume   223.42462254
_cell_formula_units_Z   1
loop_
 _symmetry_equiv_pos_site_id
 _symmetry_equiv_pos_as_xyz
  1  'x, y, z'
loop_
 _atom_site_type_symbol
 _atom_site_label
 _atom_site_symmetry_multiplicity
 _atom_site_fract_x
 _atom_site_fract_y
 _atom_site_fract_z
 _atom_site_occupancy
  Lu  Lu0  1  0.250000  0.534508  0.180588  1
  Lu  Lu1  1  0.750000  0.469673  0.823247  1
  Lu  Lu2  1  0.750000  0.959217  0.681996  1
  Lu  Lu3  1  0.250000  0.031276  0.314994  1
  Zn  Zn4  1  0.250000  0.644661  0.564908  1
  Zn  Zn5  1  0.750000  0.360812  0.432222  1
  Zn  Zn6  1  0.750000  0.858511  0.065319  1
  Zn  Zn7  1  0.250000  0.140148  0.937323  1
  Ir  Ir8  1  0.250000  0.756064  0.877159  1
  Ir  Ir9  1  0.750000  0.244067  0.122179  1
  Ir  Ir10  1  0.750000  0.744948  0.378473  1
  Pt  Pt11  1  0.250000  0.256114  0.621594  1
