# generated using pymatgen
data_Gd6NbO12
_symmetry_space_group_name_H-M   'P 1'
_cell_length_a   6.55388707
_cell_length_b   6.55388610
_cell_length_c   6.55388492
_cell_angle_alpha   98.70813316
_cell_angle_beta   98.70813070
_cell_angle_gamma   98.70813859
_symmetry_Int_Tables_number   1
_chemical_formula_structural   Gd6NbO12
_chemical_formula_sum   'Gd6 Nb1 O12'
_cell_volume   270.64579599
_cell_formula_units_Z   1
loop_
 _symmetry_equiv_pos_site_id
 _symmetry_equiv_pos_as_xyz
  1  'x, y, z'
loop_
 _atom_site_type_symbol
 _atom_site_label
 _atom_site_symmetry_multiplicity
 _atom_site_fract_x
 _atom_site_fract_y
 _atom_site_fract_z
 _atom_site_occupancy
  Gd  Gd0  1  0.861254  0.389759  0.697713  1
  Gd  Gd1  1  0.610241  0.302287  0.138746  1
  Gd  Gd2  1  0.302287  0.138746  0.610241  1
  Gd  Gd3  1  0.697713  0.861254  0.389759  1
  Gd  Gd4  1  0.389759  0.697713  0.861254  1
  Gd  Gd5  1  0.138746  0.610241  0.302287  1
  Nb  Nb6  1  0.000000  0.000000  0.000000  1
  O  O7  1  0.927353  0.040873  0.697715  1
  O  O8  1  0.959127  0.302285  0.072647  1
  O  O9  1  0.589162  0.177266  0.435241  1
  O  O10  1  0.822734  0.564759  0.410838  1
  O  O11  1  0.302285  0.072647  0.959127  1
  O  O12  1  0.564759  0.410838  0.822734  1
  O  O13  1  0.435241  0.589162  0.177266  1
  O  O14  1  0.697715  0.927353  0.040873  1
  O  O15  1  0.177266  0.435241  0.589162  1
  O  O16  1  0.410838  0.822734  0.564759  1
  O  O17  1  0.040873  0.697715  0.927353  1
  O  O18  1  0.072647  0.959127  0.302285  1
