# generated using pymatgen
data_Ba8Bi5Br
_symmetry_space_group_name_H-M   'P 1'
_cell_length_a   9.30721477
_cell_length_b   9.30721484
_cell_length_c   9.30721463
_cell_angle_alpha   109.64078025
_cell_angle_beta   109.13262325
_cell_angle_gamma   109.64077907
_symmetry_Int_Tables_number   1
_chemical_formula_structural   Ba8Bi5Br
_chemical_formula_sum   'Ba8 Bi5 Br1'
_cell_volume   620.62032452
_cell_formula_units_Z   1
loop_
 _symmetry_equiv_pos_site_id
 _symmetry_equiv_pos_as_xyz
  1  'x, y, z'
loop_
 _atom_site_type_symbol
 _atom_site_label
 _atom_site_symmetry_multiplicity
 _atom_site_fract_x
 _atom_site_fract_y
 _atom_site_fract_z
 _atom_site_occupancy
  Ba  Ba0  1  0.487004  0.992968  0.621915  1
  Ba  Ba1  1  0.144036  0.500830  0.997523  1
  Ba  Ba2  1  0.378085  0.365090  0.371053  1
  Ba  Ba3  1  0.005963  0.134910  0.512996  1
  Ba  Ba4  1  0.856793  0.853486  0.855964  1
  Ba  Ba5  1  0.002477  0.646514  0.503307  1
  Ba  Ba6  1  0.496693  0.999170  0.143207  1
  Ba  Ba7  1  0.628947  0.507032  0.994037  1
  Bi  Bi8  1  0.115607  0.868480  0.242421  1
  Bi  Bi9  1  0.373940  0.631520  0.747127  1
  Bi  Bi10  1  0.252873  0.126814  0.884393  1
  Bi  Bi11  1  0.757579  0.373186  0.626060  1
  Bi  Bi12  1  0.625000  0.750000  0.375000  1
  Br  Br13  1  0.875000  0.250000  0.125000  1
