# generated using pymatgen
data_Nd5Bi2Os
_symmetry_space_group_name_H-M   'P 1'
_cell_length_a   8.35210800
_cell_length_b   9.22807800
_cell_length_c   12.90323200
_cell_angle_alpha   90.00000000
_cell_angle_beta   90.00000000
_cell_angle_gamma   90.00000000
_symmetry_Int_Tables_number   1
_chemical_formula_structural   Nd5Bi2Os
_chemical_formula_sum   'Nd20 Bi8 Os4'
_cell_volume   994.50246560
_cell_formula_units_Z   4
loop_
 _symmetry_equiv_pos_site_id
 _symmetry_equiv_pos_as_xyz
  1  'x, y, z'
loop_
 _atom_site_type_symbol
 _atom_site_label
 _atom_site_symmetry_multiplicity
 _atom_site_fract_x
 _atom_site_fract_y
 _atom_site_fract_z
 _atom_site_occupancy
  Nd  Nd0  1  0.842875  0.750000  0.792564  1
  Nd  Nd1  1  0.157125  0.250000  0.207436  1
  Nd  Nd2  1  0.342875  0.250000  0.707436  1
  Nd  Nd3  1  0.657125  0.750000  0.292564  1
  Nd  Nd4  1  0.374486  0.750000  0.693140  1
  Nd  Nd5  1  0.625514  0.250000  0.306860  1
  Nd  Nd6  1  0.874486  0.250000  0.806860  1
  Nd  Nd7  1  0.125514  0.750000  0.193140  1
  Nd  Nd8  1  0.940665  0.750000  0.503046  1
  Nd  Nd9  1  0.059335  0.250000  0.496954  1
  Nd  Nd10  1  0.440665  0.250000  0.996954  1
  Nd  Nd11  1  0.559335  0.750000  0.003046  1
  Nd  Nd12  1  0.675908  0.040029  0.565908  1
  Nd  Nd13  1  0.324092  0.959971  0.434092  1
  Nd  Nd14  1  0.175908  0.959971  0.934092  1
  Nd  Nd15  1  0.324092  0.540029  0.434092  1
  Nd  Nd16  1  0.824092  0.040029  0.065908  1
  Nd  Nd17  1  0.675908  0.459971  0.565908  1
  Nd  Nd18  1  0.824092  0.459971  0.065908  1
  Nd  Nd19  1  0.175908  0.540029  0.934092  1
  Bi  Bi20  1  0.569289  0.493339  0.827590  1
  Bi  Bi21  1  0.430711  0.506661  0.172410  1
  Bi  Bi22  1  0.069289  0.506661  0.672410  1
  Bi  Bi23  1  0.430711  0.993339  0.172410  1
  Bi  Bi24  1  0.930711  0.493339  0.327590  1
  Bi  Bi25  1  0.569289  0.006661  0.827590  1
  Bi  Bi26  1  0.930711  0.006661  0.327590  1
  Bi  Bi27  1  0.069289  0.993339  0.672410  1
  Os  Os28  1  0.577828  0.750000  0.510074  1
  Os  Os29  1  0.422172  0.250000  0.489926  1
  Os  Os30  1  0.077828  0.250000  0.989926  1
  Os  Os31  1  0.922172  0.750000  0.010074  1
