# generated using pymatgen
data_Tb9Y7(CdRu)4
_symmetry_space_group_name_H-M   'P 1'
_cell_length_a   9.65570382
_cell_length_b   9.65570362
_cell_length_c   9.63520400
_cell_angle_alpha   60.07020539
_cell_angle_beta   60.07020607
_cell_angle_gamma   60.02357693
_symmetry_Int_Tables_number   1
_chemical_formula_structural   Tb9Y7(CdRu)4
_chemical_formula_sum   'Tb9 Y7 Cd4 Ru4'
_cell_volume   635.99149520
_cell_formula_units_Z   1
loop_
 _symmetry_equiv_pos_site_id
 _symmetry_equiv_pos_as_xyz
  1  'x, y, z'
loop_
 _atom_site_type_symbol
 _atom_site_label
 _atom_site_symmetry_multiplicity
 _atom_site_fract_x
 _atom_site_fract_y
 _atom_site_fract_z
 _atom_site_occupancy
  Tb  Tb0  1  0.596163  0.596163  0.598903  1
  Tb  Tb1  1  0.596163  0.596163  0.208773  1
  Tb  Tb2  1  0.595572  0.212181  0.596123  1
  Tb  Tb3  1  0.212181  0.595572  0.596123  1
  Tb  Tb4  1  0.059836  0.439787  0.439332  1
  Tb  Tb5  1  0.439787  0.059836  0.061045  1
  Tb  Tb6  1  0.439787  0.059836  0.439332  1
  Tb  Tb7  1  0.059836  0.439787  0.061045  1
  Tb  Tb8  1  0.438984  0.438984  0.061016  1
  Y  Y9  1  0.059992  0.059992  0.440008  1
  Y  Y10  1  0.188871  0.812207  0.811309  1
  Y  Y11  1  0.812207  0.188871  0.187613  1
  Y  Y12  1  0.812207  0.188871  0.811309  1
  Y  Y13  1  0.188871  0.812207  0.187613  1
  Y  Y14  1  0.811712  0.811712  0.188288  1
  Y  Y15  1  0.189563  0.189563  0.810437  1
  Cd  Cd16  1  0.829947  0.829947  0.830134  1
  Cd  Cd17  1  0.829947  0.829947  0.509969  1
  Cd  Cd18  1  0.829475  0.509515  0.830504  1
  Cd  Cd19  1  0.509515  0.829475  0.830504  1
  Ru  Ru20  1  0.388169  0.388169  0.389335  1
  Ru  Ru21  1  0.388169  0.388169  0.834329  1
  Ru  Ru22  1  0.392820  0.830228  0.388477  1
  Ru  Ru23  1  0.830228  0.392820  0.388477  1
