# generated using pymatgen
data_YHo2Ga8HgOs3
_symmetry_space_group_name_H-M   'P 1'
_cell_length_a   6.45310100
_cell_length_b   6.46377500
_cell_length_c   6.46377500
_cell_angle_alpha   90.00000000
_cell_angle_beta   90.00000000
_cell_angle_gamma   90.00000000
_symmetry_Int_Tables_number   1
_chemical_formula_structural   YHo2Ga8HgOs3
_chemical_formula_sum   'Y1 Ho2 Ga8 Hg1 Os3'
_cell_volume   269.61305875
_cell_formula_units_Z   1
loop_
 _symmetry_equiv_pos_site_id
 _symmetry_equiv_pos_as_xyz
  1  'x, y, z'
loop_
 _atom_site_type_symbol
 _atom_site_label
 _atom_site_symmetry_multiplicity
 _atom_site_fract_x
 _atom_site_fract_y
 _atom_site_fract_z
 _atom_site_occupancy
  Y  Y0  1  0.500000  0.000000  0.000000  1
  Ho  Ho1  1  0.000000  0.500000  0.000000  1
  Ho  Ho2  1  0.000000  0.000000  0.500000  1
  Ga  Ga3  1  0.291070  0.291391  0.291391  1
  Ga  Ga4  1  0.708930  0.708609  0.708609  1
  Ga  Ga5  1  0.708930  0.708609  0.291391  1
  Ga  Ga6  1  0.708930  0.291391  0.708609  1
  Ga  Ga7  1  0.291070  0.291391  0.708609  1
  Ga  Ga8  1  0.291070  0.708609  0.291391  1
  Ga  Ga9  1  0.291070  0.708609  0.708609  1
  Ga  Ga10  1  0.708930  0.291391  0.291391  1
  Hg  Hg11  1  0.000000  0.000000  0.000000  1
  Os  Os12  1  0.000000  0.500000  0.500000  1
  Os  Os13  1  0.500000  0.000000  0.500000  1
  Os  Os14  1  0.500000  0.500000  0.000000  1
