# generated using pymatgen
data_Tb4P8Pd13Pt3
_symmetry_space_group_name_H-M   'P 1'
_cell_length_a   4.18199200
_cell_length_b   7.42565394
_cell_length_c   15.13540733
_cell_angle_alpha   90.25821815
_cell_angle_beta   90.00000000
_cell_angle_gamma   90.00000000
_symmetry_Int_Tables_number   1
_chemical_formula_structural   Tb4P8Pd13Pt3
_chemical_formula_sum   'Tb4 P8 Pd13 Pt3'
_cell_volume   470.01055013
_cell_formula_units_Z   1
loop_
 _symmetry_equiv_pos_site_id
 _symmetry_equiv_pos_as_xyz
  1  'x, y, z'
loop_
 _atom_site_type_symbol
 _atom_site_label
 _atom_site_symmetry_multiplicity
 _atom_site_fract_x
 _atom_site_fract_y
 _atom_site_fract_z
 _atom_site_occupancy
  Tb  Tb0  1  0.250000  0.856627  0.182365  1
  Tb  Tb1  1  0.750000  0.143206  0.817681  1
  Tb  Tb2  1  0.250000  0.353340  0.317921  1
  Tb  Tb3  1  0.750000  0.644775  0.681922  1
  P  P4  1  0.250000  0.310365  0.695051  1
  P  P5  1  0.250000  0.779260  0.553362  1
  P  P6  1  0.750000  0.216726  0.442473  1
  P  P7  1  0.750000  0.186879  0.193420  1
  P  P8  1  0.250000  0.811533  0.804517  1
  P  P9  1  0.250000  0.279058  0.945039  1
  P  P10  1  0.750000  0.719319  0.056658  1
  P  P11  1  0.750000  0.688856  0.306324  1
  Pd  Pd12  1  0.250000  0.983285  0.674342  1
  Pd  Pd13  1  0.250000  0.484368  0.824855  1
  Pd  Pd14  1  0.750000  0.378214  0.992699  1
  Pd  Pd15  1  0.750000  0.739981  0.881633  1
  Pd  Pd16  1  0.750000  0.530618  0.443282  1
  Pd  Pd17  1  0.750000  0.237753  0.618778  1
  Pd  Pd18  1  0.750000  0.514624  0.177147  1
  Pd  Pd19  1  0.750000  0.030645  0.056620  1
  Pd  Pd20  1  0.250000  0.761486  0.383435  1
  Pd  Pd21  1  0.250000  0.261194  0.117565  1
  Pd  Pd22  1  0.250000  0.968425  0.942043  1
  Pd  Pd23  1  0.250000  0.127258  0.494804  1
  Pd  Pd24  1  0.750000  0.882319  0.505564  1
  Pt  Pt25  1  0.750000  0.014579  0.321585  1
  Pt  Pt26  1  0.250000  0.623979  0.007935  1
  Pt  Pt27  1  0.250000  0.471328  0.560978  1
