# generated using pymatgen
data_Yb3SbPd3PtO14
_symmetry_space_group_name_H-M   'P 1'
_cell_length_a   7.12738707
_cell_length_b   7.20309453
_cell_length_c   7.12738700
_cell_angle_alpha   60.34707245
_cell_angle_beta   59.99999570
_cell_angle_gamma   60.34707650
_symmetry_Int_Tables_number   1
_chemical_formula_structural   Yb3SbPd3PtO14
_chemical_formula_sum   'Yb3 Sb1 Pd3 Pt1 O14'
_cell_volume   260.08978741
_cell_formula_units_Z   1
loop_
 _symmetry_equiv_pos_site_id
 _symmetry_equiv_pos_as_xyz
  1  'x, y, z'
loop_
 _atom_site_type_symbol
 _atom_site_label
 _atom_site_symmetry_multiplicity
 _atom_site_fract_x
 _atom_site_fract_y
 _atom_site_fract_z
 _atom_site_occupancy
  Yb  Yb0  1  0.125000  0.125000  0.125000  1
  Yb  Yb1  1  0.625000  0.125000  0.125000  1
  Yb  Yb2  1  0.125000  0.125000  0.625000  1
  Sb  Sb3  1  0.125000  0.625000  0.125000  1
  Pd  Pd4  1  0.625000  0.625000  0.625000  1
  Pd  Pd5  1  0.125000  0.625000  0.625000  1
  Pd  Pd6  1  0.625000  0.625000  0.125000  1
  Pt  Pt7  1  0.625000  0.125000  0.625000  1
  O  O8  1  0.015265  0.954205  0.015265  1
  O  O9  1  0.234735  0.295795  0.234735  1
  O  O10  1  0.520557  0.546594  0.966425  1
  O  O11  1  0.285958  0.287760  0.713141  1
  O  O12  1  0.966425  0.546594  0.966425  1
  O  O13  1  0.966425  0.546594  0.520557  1
  O  O14  1  0.536859  0.962240  0.964042  1
  O  O15  1  0.536859  0.962240  0.536859  1
  O  O16  1  0.964042  0.962240  0.536859  1
  O  O17  1  0.713141  0.287760  0.285958  1
  O  O18  1  0.283575  0.703406  0.729443  1
  O  O19  1  0.729443  0.703406  0.283575  1
  O  O20  1  0.713141  0.287760  0.713141  1
  O  O21  1  0.283575  0.703406  0.283575  1
