# generated using pymatgen
data_CaYTm6(B6Os)4
_symmetry_space_group_name_H-M   'P 1'
_cell_length_a   3.62508700
_cell_length_b   9.10176650
_cell_length_c   11.48988620
_cell_angle_alpha   89.90524998
_cell_angle_beta   90.00000000
_cell_angle_gamma   90.00000000
_symmetry_Int_Tables_number   1
_chemical_formula_structural   CaYTm6(B6Os)4
_chemical_formula_sum   'Ca1 Y1 Tm6 B24 Os4'
_cell_volume   379.10477715
_cell_formula_units_Z   1
loop_
 _symmetry_equiv_pos_site_id
 _symmetry_equiv_pos_as_xyz
  1  'x, y, z'
loop_
 _atom_site_type_symbol
 _atom_site_label
 _atom_site_symmetry_multiplicity
 _atom_site_fract_x
 _atom_site_fract_y
 _atom_site_fract_z
 _atom_site_occupancy
  Ca  Ca0  1  0.000000  0.678457  0.586151  1
  Y  Y1  1  0.000000  0.322723  0.414761  1
  Tm  Tm2  1  0.000000  0.820636  0.085004  1
  Tm  Tm3  1  0.000000  0.178610  0.913926  1
  Tm  Tm4  1  0.000000  0.942379  0.371992  1
  Tm  Tm5  1  0.000000  0.055870  0.628742  1
  Tm  Tm6  1  0.000000  0.443781  0.126812  1
  Tm  Tm7  1  0.000000  0.556962  0.871839  1
  B  B8  1  0.500000  0.554217  0.431990  1
  B  B9  1  0.500000  0.445672  0.567998  1
  B  B10  1  0.500000  0.053833  0.066488  1
  B  B11  1  0.500000  0.946927  0.934242  1
  B  B12  1  0.500000  0.749104  0.417864  1
  B  B13  1  0.500000  0.250537  0.581909  1
  B  B14  1  0.500000  0.248782  0.079836  1
  B  B15  1  0.500000  0.751827  0.920048  1
  B  B16  1  0.500000  0.791179  0.264314  1
  B  B17  1  0.500000  0.207921  0.735464  1
  B  B18  1  0.500000  0.290699  0.233087  1
  B  B19  1  0.500000  0.709888  0.767063  1
  B  B20  1  0.500000  0.631099  0.183609  1
  B  B21  1  0.500000  0.368546  0.815519  1
  B  B22  1  0.500000  0.130189  0.314433  1
  B  B23  1  0.500000  0.870011  0.686384  1
  B  B24  1  0.500000  0.981915  0.212056  1
  B  B25  1  0.500000  0.018091  0.788712  1
  B  B26  1  0.500000  0.483017  0.286132  1
  B  B27  1  0.500000  0.516809  0.713596  1
  B  B28  1  0.500000  0.606187  0.028912  1
  B  B29  1  0.500000  0.393647  0.970598  1
  B  B30  1  0.500000  0.102532  0.471713  1
  B  B31  1  0.500000  0.898585  0.528058  1
  Os  Os32  1  0.000000  0.638417  0.318399  1
  Os  Os33  1  0.000000  0.359885  0.680851  1
  Os  Os34  1  0.000000  0.136983  0.178212  1
  Os  Os35  1  0.000000  0.864081  0.823286  1
