# generated using pymatgen
data_SICl9
_symmetry_space_group_name_H-M   'P 1'
_cell_length_a   7.85047798
_cell_length_b   7.85047815
_cell_length_c   14.40476773
_cell_angle_alpha   74.57514632
_cell_angle_beta   74.57514633
_cell_angle_gamma   62.38805382
_symmetry_Int_Tables_number   1
_chemical_formula_structural   SICl9
_chemical_formula_sum   'S2 I2 Cl18'
_cell_volume   747.66353205
_cell_formula_units_Z   2
loop_
 _symmetry_equiv_pos_site_id
 _symmetry_equiv_pos_as_xyz
  1  'x, y, z'
loop_
 _atom_site_type_symbol
 _atom_site_label
 _atom_site_symmetry_multiplicity
 _atom_site_fract_x
 _atom_site_fract_y
 _atom_site_fract_z
 _atom_site_occupancy
  S  S0  1  0.844153  0.844153  0.719983  1
  S  S1  1  0.155847  0.155847  0.280017  1
  I  I2  1  0.000000  0.000000  0.000000  1
  I  I3  1  0.500000  0.500000  0.500000  1
  Cl  Cl4  1  0.036773  0.419419  0.199329  1
  Cl  Cl5  1  0.255673  0.692954  0.386173  1
  Cl  Cl6  1  0.307046  0.744327  0.613827  1
  Cl  Cl7  1  0.419419  0.036773  0.199329  1
  Cl  Cl8  1  0.692954  0.255673  0.386173  1
  Cl  Cl9  1  0.693697  0.693697  0.415877  1
  Cl  Cl10  1  0.213022  0.213022  0.393362  1
  Cl  Cl11  1  0.580581  0.963227  0.800671  1
  Cl  Cl12  1  0.694152  0.305848  0.000000  1
  Cl  Cl13  1  0.744327  0.307046  0.613827  1
  Cl  Cl14  1  0.963227  0.580581  0.800671  1
  Cl  Cl15  1  0.786978  0.786978  0.606638  1
  Cl  Cl16  1  0.803476  0.803476  0.038895  1
  Cl  Cl17  1  0.973482  0.973482  0.181168  1
  Cl  Cl18  1  0.306303  0.306303  0.584123  1
  Cl  Cl19  1  0.196524  0.196524  0.961105  1
  Cl  Cl20  1  0.305848  0.694152  0.000000  1
  Cl  Cl21  1  0.026518  0.026518  0.818832  1
