# generated using pymatgen
data_HoEr2Zr(Co4P3)2
_symmetry_space_group_name_H-M   'P 1'
_cell_length_a   3.71281700
_cell_length_b   10.67980800
_cell_length_c   12.38668600
_cell_angle_alpha   90.00000000
_cell_angle_beta   90.00000000
_cell_angle_gamma   90.00000000
_symmetry_Int_Tables_number   1
_chemical_formula_structural   HoEr2Zr(Co4P3)2
_chemical_formula_sum   'Ho2 Er4 Zr2 Co16 P12'
_cell_volume   491.15901244
_cell_formula_units_Z   2
loop_
 _symmetry_equiv_pos_site_id
 _symmetry_equiv_pos_as_xyz
  1  'x, y, z'
loop_
 _atom_site_type_symbol
 _atom_site_label
 _atom_site_symmetry_multiplicity
 _atom_site_fract_x
 _atom_site_fract_y
 _atom_site_fract_z
 _atom_site_occupancy
  Ho  Ho0  1  0.750000  0.250000  0.470326  1
  Ho  Ho1  1  0.250000  0.750000  0.529674  1
  Er  Er2  1  0.250000  0.927915  0.795150  1
  Er  Er3  1  0.250000  0.572085  0.795150  1
  Er  Er4  1  0.750000  0.072085  0.204850  1
  Er  Er5  1  0.750000  0.427915  0.204850  1
  Zr  Zr6  1  0.250000  0.250000  0.841416  1
  Zr  Zr7  1  0.750000  0.750000  0.158584  1
  Co  Co8  1  0.250000  0.250000  0.296836  1
  Co  Co9  1  0.750000  0.750000  0.703164  1
  Co  Co10  1  0.750000  0.250000  0.014435  1
  Co  Co11  1  0.250000  0.750000  0.985565  1
  Co  Co12  1  0.250000  0.418001  0.007364  1
  Co  Co13  1  0.250000  0.081999  0.007364  1
  Co  Co14  1  0.750000  0.581999  0.992636  1
  Co  Co15  1  0.750000  0.918001  0.992636  1
  Co  Co16  1  0.250000  0.454985  0.566591  1
  Co  Co17  1  0.250000  0.045015  0.566591  1
  Co  Co18  1  0.750000  0.545015  0.433409  1
  Co  Co19  1  0.750000  0.954985  0.433409  1
  Co  Co20  1  0.250000  0.873071  0.298693  1
  Co  Co21  1  0.250000  0.626929  0.298693  1
  Co  Co22  1  0.750000  0.126929  0.701307  1
  Co  Co23  1  0.750000  0.373071  0.701307  1
  P  P24  1  0.250000  0.250000  0.117188  1
  P  P25  1  0.750000  0.750000  0.882812  1
  P  P26  1  0.250000  0.250000  0.636041  1
  P  P27  1  0.750000  0.750000  0.363959  1
  P  P28  1  0.250000  0.439301  0.384068  1
  P  P29  1  0.250000  0.060699  0.384068  1
  P  P30  1  0.750000  0.560699  0.615932  1
  P  P31  1  0.750000  0.939301  0.615932  1
  P  P32  1  0.250000  0.912475  0.106660  1
  P  P33  1  0.250000  0.587525  0.106660  1
  P  P34  1  0.750000  0.087525  0.893340  1
  P  P35  1  0.750000  0.412475  0.893340  1
