# generated using pymatgen
data_Pr5SnPtO12
_symmetry_space_group_name_H-M   'P 1'
_cell_length_a   7.19332233
_cell_length_b   7.19332249
_cell_length_c   7.68603728
_cell_angle_alpha   74.53307476
_cell_angle_beta   74.53308401
_cell_angle_gamma   50.94476571
_symmetry_Int_Tables_number   1
_chemical_formula_structural   Pr5SnPtO12
_chemical_formula_sum   'Pr5 Sn1 Pt1 O12'
_cell_volume   295.05195499
_cell_formula_units_Z   1
loop_
 _symmetry_equiv_pos_site_id
 _symmetry_equiv_pos_as_xyz
  1  'x, y, z'
loop_
 _atom_site_type_symbol
 _atom_site_label
 _atom_site_symmetry_multiplicity
 _atom_site_fract_x
 _atom_site_fract_y
 _atom_site_fract_z
 _atom_site_occupancy
  Pr  Pr0  1  0.300468  0.305041  0.360201  1
  Pr  Pr1  1  0.694959  0.699532  0.639799  1
  Pr  Pr2  1  0.690135  0.699833  0.166787  1
  Pr  Pr3  1  0.300167  0.309865  0.833213  1
  Pr  Pr4  1  0.006445  0.993555  0.500000  1
  Sn  Sn5  1  0.762213  0.237787  0.000000  1
  Pt  Pt6  1  0.250985  0.749015  0.000000  1
  O  O7  1  0.093339  0.597635  0.575817  1
  O  O8  1  0.012627  0.985808  0.181138  1
  O  O9  1  0.402365  0.906661  0.424183  1
  O  O10  1  0.494510  0.506252  0.179781  1
  O  O11  1  0.099505  0.580303  0.080186  1
  O  O12  1  0.903018  0.404479  0.422904  1
  O  O13  1  0.014192  0.987373  0.818862  1
  O  O14  1  0.595521  0.096981  0.577096  1
  O  O15  1  0.493748  0.505490  0.820219  1
  O  O16  1  0.568326  0.102219  0.081388  1
  O  O17  1  0.419697  0.900495  0.919814  1
  O  O18  1  0.897781  0.431674  0.918612  1
