# generated using pymatgen
data_Np4TcB12Ru
_symmetry_space_group_name_H-M   'P 1'
_cell_length_a   3.59045700
_cell_length_b   9.32020860
_cell_length_c   11.36004690
_cell_angle_alpha   89.93329375
_cell_angle_beta   90.00000000
_cell_angle_gamma   90.00000000
_symmetry_Int_Tables_number   1
_chemical_formula_structural   Np4TcB12Ru
_chemical_formula_sum   'Np8 Tc2 B24 Ru2'
_cell_volume   380.15017306
_cell_formula_units_Z   2
loop_
 _symmetry_equiv_pos_site_id
 _symmetry_equiv_pos_as_xyz
  1  'x, y, z'
loop_
 _atom_site_type_symbol
 _atom_site_label
 _atom_site_symmetry_multiplicity
 _atom_site_fract_x
 _atom_site_fract_y
 _atom_site_fract_z
 _atom_site_occupancy
  Np  Np0  1  0.000000  0.339003  0.407361  1
  Np  Np1  1  0.000000  0.660997  0.592639  1
  Np  Np2  1  0.000000  0.837275  0.093531  1
  Np  Np3  1  0.000000  0.162725  0.906469  1
  Np  Np4  1  0.000000  0.957942  0.401121  1
  Np  Np5  1  0.000000  0.042058  0.598879  1
  Np  Np6  1  0.000000  0.460421  0.099843  1
  Np  Np7  1  0.000000  0.539579  0.900157  1
  Tc  Tc8  1  0.000000  0.646407  0.319227  1
  Tc  Tc9  1  0.000000  0.353593  0.680773  1
  B  B10  1  0.500000  0.552365  0.432008  1
  B  B11  1  0.500000  0.447635  0.567992  1
  B  B12  1  0.500000  0.051910  0.068011  1
  B  B13  1  0.500000  0.948090  0.931989  1
  B  B14  1  0.500000  0.743521  0.423717  1
  B  B15  1  0.500000  0.256479  0.576283  1
  B  B16  1  0.500000  0.243019  0.076650  1
  B  B17  1  0.500000  0.756981  0.923350  1
  B  B18  1  0.500000  0.806183  0.274353  1
  B  B19  1  0.500000  0.193817  0.725647  1
  B  B20  1  0.500000  0.306272  0.225761  1
  B  B21  1  0.500000  0.693728  0.774239  1
  B  B22  1  0.500000  0.647024  0.188205  1
  B  B23  1  0.500000  0.352976  0.811795  1
  B  B24  1  0.500000  0.146975  0.311122  1
  B  B25  1  0.500000  0.853025  0.688878  1
  B  B26  1  0.500000  0.989130  0.220495  1
  B  B27  1  0.500000  0.010870  0.779505  1
  B  B28  1  0.500000  0.488862  0.279124  1
  B  B29  1  0.500000  0.511138  0.720876  1
  B  B30  1  0.500000  0.644280  0.039458  1
  B  B31  1  0.500000  0.355720  0.960542  1
  B  B32  1  0.500000  0.144131  0.459493  1
  B  B33  1  0.500000  0.855869  0.540507  1
  Ru  Ru34  1  0.000000  0.147134  0.180585  1
  Ru  Ru35  1  0.000000  0.852866  0.819415  1
