# generated using pymatgen
data_Tb4BeCo(SiI)2
_symmetry_space_group_name_H-M   'P 1'
_cell_length_a   3.99266800
_cell_length_b   3.99266707
_cell_length_c   16.88110200
_cell_angle_alpha   90.00000000
_cell_angle_beta   90.00000000
_cell_angle_gamma   119.99997455
_symmetry_Int_Tables_number   1
_chemical_formula_structural   Tb4BeCo(SiI)2
_chemical_formula_sum   'Tb4 Be1 Co1 Si2 I2'
_cell_volume   233.05468310
_cell_formula_units_Z   1
loop_
 _symmetry_equiv_pos_site_id
 _symmetry_equiv_pos_as_xyz
  1  'x, y, z'
loop_
 _atom_site_type_symbol
 _atom_site_label
 _atom_site_symmetry_multiplicity
 _atom_site_fract_x
 _atom_site_fract_y
 _atom_site_fract_z
 _atom_site_occupancy
  Tb  Tb0  1  0.000000  0.000000  0.112507  1
  Tb  Tb1  1  0.000000  0.000000  0.606451  1
  Tb  Tb2  1  0.000000  0.000000  0.396176  1
  Tb  Tb3  1  0.000000  0.000000  0.888567  1
  Be  Be4  1  0.666667  0.333333  0.995884  1
  Co  Co5  1  0.333333  0.666667  0.494508  1
  Si  Si6  1  0.333333  0.666667  0.002847  1
  Si  Si7  1  0.666667  0.333333  0.504039  1
  I  I8  1  0.666667  0.333333  0.247314  1
  I  I9  1  0.333333  0.666667  0.751707  1
