# generated using pymatgen
data_Ca7Lu(Si3Pd)4
_symmetry_space_group_name_H-M   'P 1'
_cell_length_a   8.25983000
_cell_length_b   8.25983070
_cell_length_c   8.33091900
_cell_angle_alpha   90.00000000
_cell_angle_beta   90.00000000
_cell_angle_gamma   119.99998917
_symmetry_Int_Tables_number   1
_chemical_formula_structural   Ca7Lu(Si3Pd)4
_chemical_formula_sum   'Ca7 Lu1 Si12 Pd4'
_cell_volume   492.22746880
_cell_formula_units_Z   1
loop_
 _symmetry_equiv_pos_site_id
 _symmetry_equiv_pos_as_xyz
  1  'x, y, z'
loop_
 _atom_site_type_symbol
 _atom_site_label
 _atom_site_symmetry_multiplicity
 _atom_site_fract_x
 _atom_site_fract_y
 _atom_site_fract_z
 _atom_site_occupancy
  Ca  Ca0  1  0.501938  0.003876  0.250000  1
  Ca  Ca1  1  0.497903  0.995806  0.750000  1
  Ca  Ca2  1  0.996124  0.498062  0.250000  1
  Ca  Ca3  1  0.004194  0.502097  0.750000  1
  Ca  Ca4  1  0.501938  0.498062  0.250000  1
  Ca  Ca5  1  0.497903  0.502097  0.750000  1
  Ca  Ca6  1  0.000000  0.000000  0.250000  1
  Lu  Lu7  1  0.000000  0.000000  0.750000  1
  Si  Si8  1  0.164270  0.328542  0.995746  1
  Si  Si9  1  0.835773  0.671546  0.992873  1
  Si  Si10  1  0.671458  0.835730  0.995746  1
  Si  Si11  1  0.835773  0.671546  0.507127  1
  Si  Si12  1  0.328454  0.164227  0.992873  1
  Si  Si13  1  0.164270  0.328542  0.504254  1
  Si  Si14  1  0.164270  0.835730  0.995746  1
  Si  Si15  1  0.328454  0.164227  0.507127  1
  Si  Si16  1  0.835773  0.164227  0.992873  1
  Si  Si17  1  0.671458  0.835730  0.504254  1
  Si  Si18  1  0.835773  0.164227  0.507127  1
  Si  Si19  1  0.164270  0.835730  0.504254  1
  Pd  Pd20  1  0.333333  0.666667  0.004230  1
  Pd  Pd21  1  0.666667  0.333333  0.995669  1
  Pd  Pd22  1  0.666667  0.333333  0.504331  1
  Pd  Pd23  1  0.333333  0.666667  0.495770  1
