# generated using pymatgen
data_LiLa4GaSi6
_symmetry_space_group_name_H-M   'P 1'
_cell_length_a   8.42796508
_cell_length_b   8.31911565
_cell_length_c   6.03956500
_cell_angle_alpha   69.82718465
_cell_angle_beta   67.90081410
_cell_angle_gamma   42.27200677
_symmetry_Int_Tables_number   1
_chemical_formula_structural   LiLa4GaSi6
_chemical_formula_sum   'Li1 La4 Ga1 Si6'
_cell_volume   262.40518314
_cell_formula_units_Z   1
loop_
 _symmetry_equiv_pos_site_id
 _symmetry_equiv_pos_as_xyz
  1  'x, y, z'
loop_
 _atom_site_type_symbol
 _atom_site_label
 _atom_site_symmetry_multiplicity
 _atom_site_fract_x
 _atom_site_fract_y
 _atom_site_fract_z
 _atom_site_occupancy
  Li  Li0  1  0.333721  0.333721  0.666279  1
  La  La1  1  0.749588  0.749588  0.750412  1
  La  La2  1  0.756141  0.245023  0.754977  1
  La  La3  1  0.249588  0.249588  0.250412  1
  La  La4  1  0.245023  0.756141  0.243859  1
  Ga  Ga5  1  0.666007  0.666007  0.333993  1
  Si  Si6  1  0.835757  0.327076  0.164243  1
  Si  Si7  1  0.664487  0.168678  0.335513  1
  Si  Si8  1  0.168678  0.664487  0.831322  1
  Si  Si9  1  0.327076  0.835757  0.672924  1
  Si  Si10  1  0.166881  0.166881  0.833119  1
  Si  Si11  1  0.837054  0.837054  0.162946  1
