# generated using pymatgen
data_CeSmHo2(ReB6)2
_symmetry_space_group_name_H-M   'P 1'
_cell_length_a   3.71499000
_cell_length_b   9.20529856
_cell_length_c   11.61001411
_cell_angle_alpha   90.13472854
_cell_angle_beta   90.00000000
_cell_angle_gamma   90.00000000
_symmetry_Int_Tables_number   1
_chemical_formula_structural   CeSmHo2(ReB6)2
_chemical_formula_sum   'Ce2 Sm2 Ho4 Re4 B24'
_cell_volume   397.03342928
_cell_formula_units_Z   2
loop_
 _symmetry_equiv_pos_site_id
 _symmetry_equiv_pos_as_xyz
  1  'x, y, z'
loop_
 _atom_site_type_symbol
 _atom_site_label
 _atom_site_symmetry_multiplicity
 _atom_site_fract_x
 _atom_site_fract_y
 _atom_site_fract_z
 _atom_site_occupancy
  Ce  Ce0  1  0.000000  0.322281  0.413884  1
  Ce  Ce1  1  0.000000  0.677719  0.586116  1
  Sm  Sm2  1  0.000000  0.823622  0.085725  1
  Sm  Sm3  1  0.000000  0.176378  0.914275  1
  Ho  Ho4  1  0.000000  0.943438  0.370749  1
  Ho  Ho5  1  0.000000  0.056562  0.629251  1
  Ho  Ho6  1  0.000000  0.442954  0.129246  1
  Ho  Ho7  1  0.000000  0.557046  0.870754  1
  Re  Re8  1  0.000000  0.637300  0.322081  1
  Re  Re9  1  0.000000  0.362700  0.677919  1
  Re  Re10  1  0.000000  0.140199  0.181239  1
  Re  Re11  1  0.000000  0.859801  0.818761  1
  B  B12  1  0.500000  0.554207  0.431431  1
  B  B13  1  0.500000  0.445793  0.568569  1
  B  B14  1  0.500000  0.054436  0.068254  1
  B  B15  1  0.500000  0.945564  0.931746  1
  B  B16  1  0.500000  0.749101  0.417426  1
  B  B17  1  0.500000  0.250899  0.582574  1
  B  B18  1  0.500000  0.249157  0.082500  1
  B  B19  1  0.500000  0.750843  0.917500  1
  B  B20  1  0.500000  0.791218  0.266154  1
  B  B21  1  0.500000  0.208782  0.733846  1
  B  B22  1  0.500000  0.291357  0.234097  1
  B  B23  1  0.500000  0.708643  0.765903  1
  B  B24  1  0.500000  0.630123  0.186044  1
  B  B25  1  0.500000  0.369877  0.813956  1
  B  B26  1  0.500000  0.131092  0.313975  1
  B  B27  1  0.500000  0.868908  0.686025  1
  B  B28  1  0.500000  0.983770  0.212701  1
  B  B29  1  0.500000  0.016230  0.787299  1
  B  B30  1  0.500000  0.483394  0.287096  1
  B  B31  1  0.500000  0.516606  0.712904  1
  B  B32  1  0.500000  0.599290  0.027727  1
  B  B33  1  0.500000  0.400710  0.972273  1
  B  B34  1  0.500000  0.102566  0.471573  1
  B  B35  1  0.500000  0.897434  0.528427  1
