# generated using pymatgen
data_Zr4Sn3BMo
_symmetry_space_group_name_H-M   'P 1'
_cell_length_a   8.45276500
_cell_length_b   8.45276542
_cell_length_c   5.69890200
_cell_angle_alpha   90.00000000
_cell_angle_beta   90.00000000
_cell_angle_gamma   119.99999443
_symmetry_Int_Tables_number   1
_chemical_formula_structural   Zr4Sn3BMo
_chemical_formula_sum   'Zr8 Sn6 B2 Mo2'
_cell_volume   352.63016210
_cell_formula_units_Z   2
loop_
 _symmetry_equiv_pos_site_id
 _symmetry_equiv_pos_as_xyz
  1  'x, y, z'
loop_
 _atom_site_type_symbol
 _atom_site_label
 _atom_site_symmetry_multiplicity
 _atom_site_fract_x
 _atom_site_fract_y
 _atom_site_fract_z
 _atom_site_occupancy
  Zr  Zr0  1  0.333333  0.666667  0.500000  1
  Zr  Zr1  1  0.666667  0.333333  0.500000  1
  Zr  Zr2  1  0.766102  0.766102  0.746589  1
  Zr  Zr3  1  0.233898  0.000000  0.746589  1
  Zr  Zr4  1  0.000000  0.233898  0.746589  1
  Zr  Zr5  1  0.233898  0.233898  0.253411  1
  Zr  Zr6  1  0.766102  0.000000  0.253411  1
  Zr  Zr7  1  0.000000  0.766102  0.253411  1
  Sn  Sn8  1  0.402758  0.402758  0.763309  1
  Sn  Sn9  1  0.597242  0.000000  0.763309  1
  Sn  Sn10  1  0.000000  0.597242  0.763309  1
  Sn  Sn11  1  0.597242  0.597242  0.236691  1
  Sn  Sn12  1  0.402758  0.000000  0.236691  1
  Sn  Sn13  1  0.000000  0.402758  0.236691  1
  B  B14  1  0.000000  0.000000  0.000000  1
  B  B15  1  0.000000  0.000000  0.500000  1
  Mo  Mo16  1  0.666667  0.333333  0.000000  1
  Mo  Mo17  1  0.333333  0.666667  0.000000  1
