# generated using pymatgen
data_Ta12Al8ZnRe3C4
_symmetry_space_group_name_H-M   'P 1'
_cell_length_a   8.31498083
_cell_length_b   8.31498099
_cell_length_c   8.31498013
_cell_angle_alpha   60.45162893
_cell_angle_beta   60.45164074
_cell_angle_gamma   60.45162584
_symmetry_Int_Tables_number   1
_chemical_formula_structural   Ta12Al8ZnRe3C4
_chemical_formula_sum   'Ta12 Al8 Zn1 Re3 C4'
_cell_volume   410.65812069
_cell_formula_units_Z   1
loop_
 _symmetry_equiv_pos_site_id
 _symmetry_equiv_pos_as_xyz
  1  'x, y, z'
loop_
 _atom_site_type_symbol
 _atom_site_label
 _atom_site_symmetry_multiplicity
 _atom_site_fract_x
 _atom_site_fract_y
 _atom_site_fract_z
 _atom_site_occupancy
  Ta  Ta0  1  0.558246  0.941600  0.558246  1
  Ta  Ta1  1  0.308400  0.691754  0.691754  1
  Ta  Ta2  1  0.682192  0.311281  0.311281  1
  Ta  Ta3  1  0.311281  0.682192  0.311281  1
  Ta  Ta4  1  0.691754  0.691754  0.308400  1
  Ta  Ta5  1  0.311281  0.311281  0.682192  1
  Ta  Ta6  1  0.558246  0.558246  0.941600  1
  Ta  Ta7  1  0.941600  0.558246  0.558246  1
  Ta  Ta8  1  0.567808  0.938719  0.938719  1
  Ta  Ta9  1  0.938719  0.938719  0.567808  1
  Ta  Ta10  1  0.691754  0.308400  0.691754  1
  Ta  Ta11  1  0.938719  0.567808  0.938719  1
  Al  Al12  1  0.917513  0.917513  0.917513  1
  Al  Al13  1  0.994435  0.335300  0.335300  1
  Al  Al14  1  0.335300  0.994435  0.335300  1
  Al  Al15  1  0.335300  0.335300  0.994435  1
  Al  Al16  1  0.914700  0.255565  0.914700  1
  Al  Al17  1  0.914700  0.914700  0.255565  1
  Al  Al18  1  0.255565  0.914700  0.914700  1
  Al  Al19  1  0.332487  0.332487  0.332487  1
  Zn  Zn20  1  0.125000  0.125000  0.125000  1
  Re  Re21  1  0.625000  0.125000  0.125000  1
  Re  Re22  1  0.125000  0.625000  0.125000  1
  Re  Re23  1  0.125000  0.125000  0.625000  1
  C  C24  1  0.625000  0.625000  0.625000  1
  C  C25  1  0.125000  0.625000  0.625000  1
  C  C26  1  0.625000  0.125000  0.625000  1
  C  C27  1  0.625000  0.625000  0.125000  1
