# generated using pymatgen
data_LiHf2SiAs2Pd3
_symmetry_space_group_name_H-M   'P 1'
_cell_length_a   6.73589700
_cell_length_b   6.93351991
_cell_length_c   3.66847500
_cell_angle_alpha   90.00000000
_cell_angle_beta   90.00000000
_cell_angle_gamma   119.06154365
_symmetry_Int_Tables_number   1
_chemical_formula_structural   LiHf2SiAs2Pd3
_chemical_formula_sum   'Li1 Hf2 Si1 As2 Pd3'
_cell_volume   149.75975403
_cell_formula_units_Z   1
loop_
 _symmetry_equiv_pos_site_id
 _symmetry_equiv_pos_as_xyz
  1  'x, y, z'
loop_
 _atom_site_type_symbol
 _atom_site_label
 _atom_site_symmetry_multiplicity
 _atom_site_fract_x
 _atom_site_fract_y
 _atom_site_fract_z
 _atom_site_occupancy
  Li  Li0  1  0.599328  0.000000  0.000000  1
  Hf  Hf1  1  0.995420  0.591191  0.000000  1
  Hf  Hf2  1  0.404230  0.408809  0.000000  1
  Si  Si3  1  0.006918  0.000000  0.000000  1
  As  As4  1  0.327053  0.662096  0.500000  1
  As  As5  1  0.664958  0.337904  0.500000  1
  Pd  Pd6  1  0.258016  0.000000  0.500000  1
  Pd  Pd7  1  0.992101  0.240125  0.500000  1
  Pd  Pd8  1  0.751976  0.759875  0.500000  1
