# generated using pymatgen
data_Er4Ga18(CoPd)3
_symmetry_space_group_name_H-M   'P 1'
_cell_length_a   7.49393913
_cell_length_b   7.49393944
_cell_length_c   9.42416479
_cell_angle_alpha   90.11425225
_cell_angle_beta   90.11424975
_cell_angle_gamma   119.75566122
_symmetry_Int_Tables_number   1
_chemical_formula_structural   Er4Ga18(CoPd)3
_chemical_formula_sum   'Er4 Ga18 Co3 Pd3'
_cell_volume   459.46712530
_cell_formula_units_Z   1
loop_
 _symmetry_equiv_pos_site_id
 _symmetry_equiv_pos_as_xyz
  1  'x, y, z'
loop_
 _atom_site_type_symbol
 _atom_site_label
 _atom_site_symmetry_multiplicity
 _atom_site_fract_x
 _atom_site_fract_y
 _atom_site_fract_z
 _atom_site_occupancy
  Er  Er0  1  0.503627  0.831475  0.750596  1
  Er  Er1  1  0.497352  0.169125  0.250182  1
  Er  Er2  1  0.168525  0.496373  0.249404  1
  Er  Er3  1  0.830875  0.502648  0.749818  1
  Ga  Ga4  1  0.162672  0.951990  0.744619  1
  Ga  Ga5  1  0.837966  0.047816  0.241508  1
  Ga  Ga6  1  0.048010  0.837328  0.255381  1
  Ga  Ga7  1  0.952184  0.162034  0.758492  1
  Ga  Ga8  1  0.625179  0.624577  0.241989  1
  Ga  Ga9  1  0.375423  0.374821  0.758011  1
  Ga  Ga10  1  0.171312  0.176882  0.062270  1
  Ga  Ga11  1  0.841041  0.834692  0.566867  1
  Ga  Ga12  1  0.823118  0.828688  0.937730  1
  Ga  Ga13  1  0.165308  0.158959  0.433133  1
  Ga  Ga14  1  0.507335  0.834404  0.073240  1
  Ga  Ga15  1  0.490451  0.157180  0.578164  1
  Ga  Ga16  1  0.165596  0.492665  0.926760  1
  Ga  Ga17  1  0.842820  0.509549  0.421836  1
  Ga  Ga18  1  0.512322  0.173444  0.926201  1
  Ga  Ga19  1  0.487112  0.834064  0.421138  1
  Ga  Ga20  1  0.826556  0.487678  0.073799  1
  Ga  Ga21  1  0.165936  0.512888  0.578862  1
  Co  Co22  1  0.501089  0.498911  0.000000  1
  Co  Co23  1  0.830266  0.169734  0.000000  1
  Co  Co24  1  0.169304  0.830696  0.500000  1
  Pd  Pd25  1  0.171322  0.828678  0.000000  1
  Pd  Pd26  1  0.498991  0.501009  0.500000  1
  Pd  Pd27  1  0.828310  0.171690  0.500000  1
