# generated using pymatgen
data_Y3Hf(Ti4Sn5)2
_symmetry_space_group_name_H-M   'P 1'
_cell_length_a   10.72431033
_cell_length_b   10.73437037
_cell_length_c   10.73436800
_cell_angle_alpha   148.84881447
_cell_angle_beta   131.61087664
_cell_angle_gamma   58.68530397
_symmetry_Int_Tables_number   1
_chemical_formula_structural   Y3Hf(Ti4Sn5)2
_chemical_formula_sum   'Y3 Hf1 Ti8 Sn10'
_cell_volume   474.15686215
_cell_formula_units_Z   1
loop_
 _symmetry_equiv_pos_site_id
 _symmetry_equiv_pos_as_xyz
  1  'x, y, z'
loop_
 _atom_site_type_symbol
 _atom_site_label
 _atom_site_symmetry_multiplicity
 _atom_site_fract_x
 _atom_site_fract_y
 _atom_site_fract_z
 _atom_site_occupancy
  Y  Y0  1  0.257692  0.143769  0.113925  1
  Y  Y1  1  0.745272  0.856690  0.888581  1
  Y  Y2  1  0.029776  0.643391  0.386386  1
  Hf  Hf3  1  0.968733  0.356431  0.612302  1
  Ti  Ti4  1  0.311009  0.560869  0.250011  1
  Ti  Ti5  1  0.690899  0.438867  0.749560  1
  Ti  Ti6  1  0.690899  0.941339  0.252032  1
  Ti  Ti7  1  0.311009  0.060997  0.750139  1
  Ti  Ti8  1  0.675179  0.436113  0.239065  1
  Ti  Ti9  1  0.323637  0.563428  0.760210  1
  Ti  Ti10  1  0.194220  0.935764  0.258456  1
  Ti  Ti11  1  0.803562  0.063492  0.740069  1
  Sn  Sn12  1  0.591029  0.290289  0.300739  1
  Sn  Sn13  1  0.416885  0.710959  0.705926  1
  Sn  Sn14  1  0.993633  0.789749  0.203884  1
  Sn  Sn15  1  0.005640  0.212807  0.792832  1
  Sn  Sn16  1  0.999848  0.249820  0.252877  1
  Sn  Sn17  1  0.999848  0.746971  0.750029  1
  Sn  Sn18  1  0.473181  0.066648  0.406531  1
  Sn  Sn19  1  0.526606  0.933087  0.593520  1
  Sn  Sn20  1  0.659110  0.566752  0.092358  1
  Sn  Sn21  1  0.332331  0.431766  0.900566  1
