# generated using pymatgen
data_Y20Cd3Os2Au3
_symmetry_space_group_name_H-M   'P 1'
_cell_length_a   9.62944200
_cell_length_b   9.62944079
_cell_length_c   9.68637800
_cell_angle_alpha   90.00000000
_cell_angle_beta   90.00000000
_cell_angle_gamma   120.00000415
_symmetry_Int_Tables_number   1
_chemical_formula_structural   Y20Cd3Os2Au3
_chemical_formula_sum   'Y20 Cd3 Os2 Au3'
_cell_volume   777.84706116
_cell_formula_units_Z   1
loop_
 _symmetry_equiv_pos_site_id
 _symmetry_equiv_pos_as_xyz
  1  'x, y, z'
loop_
 _atom_site_type_symbol
 _atom_site_label
 _atom_site_symmetry_multiplicity
 _atom_site_fract_x
 _atom_site_fract_y
 _atom_site_fract_z
 _atom_site_occupancy
  Y  Y0  1  0.000000  0.000000  0.461411  1
  Y  Y1  1  0.000000  0.000000  0.038589  1
  Y  Y2  1  0.209172  0.790828  0.440497  1
  Y  Y3  1  0.209172  0.418345  0.440497  1
  Y  Y4  1  0.581655  0.790828  0.440497  1
  Y  Y5  1  0.791779  0.208221  0.558266  1
  Y  Y6  1  0.791779  0.583556  0.558266  1
  Y  Y7  1  0.416444  0.208221  0.558266  1
  Y  Y8  1  0.791779  0.208221  0.941734  1
  Y  Y9  1  0.791779  0.583556  0.941734  1
  Y  Y10  1  0.416444  0.208221  0.941734  1
  Y  Y11  1  0.209172  0.790828  0.059503  1
  Y  Y12  1  0.209172  0.418345  0.059503  1
  Y  Y13  1  0.581655  0.790828  0.059503  1
  Y  Y14  1  0.539774  0.460226  0.250000  1
  Y  Y15  1  0.539774  0.079547  0.250000  1
  Y  Y16  1  0.920453  0.460226  0.250000  1
  Y  Y17  1  0.459699  0.540301  0.750000  1
  Y  Y18  1  0.459699  0.919398  0.750000  1
  Y  Y19  1  0.080602  0.540301  0.750000  1
  Cd  Cd20  1  0.109775  0.890225  0.750000  1
  Cd  Cd21  1  0.109775  0.219550  0.750000  1
  Cd  Cd22  1  0.780450  0.890225  0.750000  1
  Os  Os23  1  0.333333  0.666667  0.250000  1
  Os  Os24  1  0.666667  0.333333  0.750000  1
  Au  Au25  1  0.869767  0.130233  0.250000  1
  Au  Au26  1  0.869767  0.739535  0.250000  1
  Au  Au27  1  0.260465  0.130233  0.250000  1
