# generated using pymatgen
data_Ho4TlIr
_symmetry_space_group_name_H-M   'P 1'
_cell_length_a   9.65005408
_cell_length_b   9.65005403
_cell_length_c   9.65005300
_cell_angle_alpha   60.00000009
_cell_angle_beta   60.00000026
_cell_angle_gamma   59.99999802
_symmetry_Int_Tables_number   1
_chemical_formula_structural   Ho4TlIr
_chemical_formula_sum   'Ho16 Tl4 Ir4'
_cell_volume   635.43946979
_cell_formula_units_Z   4
loop_
 _symmetry_equiv_pos_site_id
 _symmetry_equiv_pos_as_xyz
  1  'x, y, z'
loop_
 _atom_site_type_symbol
 _atom_site_label
 _atom_site_symmetry_multiplicity
 _atom_site_fract_x
 _atom_site_fract_y
 _atom_site_fract_z
 _atom_site_occupancy
  Ho  Ho0  1  0.810170  0.189829  0.189829  1
  Ho  Ho1  1  0.189828  0.810172  0.810172  1
  Ho  Ho2  1  0.189829  0.810170  0.189829  1
  Ho  Ho3  1  0.189829  0.189829  0.810170  1
  Ho  Ho4  1  0.810172  0.189828  0.810172  1
  Ho  Ho5  1  0.810172  0.810172  0.189828  1
  Ho  Ho6  1  0.349113  0.349113  0.349113  1
  Ho  Ho7  1  0.349113  0.349113  0.952660  1
  Ho  Ho8  1  0.952660  0.349113  0.349113  1
  Ho  Ho9  1  0.349113  0.952660  0.349113  1
  Ho  Ho10  1  0.939952  0.560048  0.560048  1
  Ho  Ho11  1  0.560048  0.939952  0.939952  1
  Ho  Ho12  1  0.560048  0.939952  0.560048  1
  Ho  Ho13  1  0.560048  0.560048  0.939952  1
  Ho  Ho14  1  0.939952  0.560048  0.939952  1
  Ho  Ho15  1  0.939952  0.939952  0.560048  1
  Tl  Tl16  1  0.585741  0.585741  0.585741  1
  Tl  Tl17  1  0.585741  0.585741  0.242778  1
  Tl  Tl18  1  0.242778  0.585741  0.585741  1
  Tl  Tl19  1  0.585741  0.242778  0.585741  1
  Ir  Ir20  1  0.141519  0.141519  0.141519  1
  Ir  Ir21  1  0.141519  0.141519  0.575443  1
  Ir  Ir22  1  0.575443  0.141519  0.141519  1
  Ir  Ir23  1  0.141519  0.575443  0.141519  1
