# generated using pymatgen
data_Tb3Ce4Er9(CdRu)4
_symmetry_space_group_name_H-M   'P 1'
_cell_length_a   9.62029624
_cell_length_b   9.62029639
_cell_length_c   9.60077593
_cell_angle_alpha   59.93272140
_cell_angle_beta   59.93271898
_cell_angle_gamma   59.99999710
_symmetry_Int_Tables_number   1
_chemical_formula_structural   Tb3Ce4Er9(CdRu)4
_chemical_formula_sum   'Tb3 Ce4 Er9 Cd4 Ru4'
_cell_volume   627.66198533
_cell_formula_units_Z   1
loop_
 _symmetry_equiv_pos_site_id
 _symmetry_equiv_pos_as_xyz
  1  'x, y, z'
loop_
 _atom_site_type_symbol
 _atom_site_label
 _atom_site_symmetry_multiplicity
 _atom_site_fract_x
 _atom_site_fract_y
 _atom_site_fract_z
 _atom_site_occupancy
  Tb  Tb0  1  0.810736  0.810737  0.188637  1
  Tb  Tb1  1  0.189889  0.810736  0.188636  1
  Tb  Tb2  1  0.810736  0.189890  0.188637  1
  Ce  Ce3  1  0.346112  0.346112  0.961664  1
  Ce  Ce4  1  0.345534  0.962566  0.346367  1
  Ce  Ce5  1  0.962566  0.345534  0.346367  1
  Ce  Ce6  1  0.345534  0.345534  0.346367  1
  Er  Er7  1  0.562682  0.562682  0.936812  1
  Er  Er8  1  0.937824  0.562682  0.936812  1
  Er  Er9  1  0.562682  0.937824  0.936812  1
  Er  Er10  1  0.937118  0.937118  0.563519  1
  Er  Er11  1  0.562246  0.937118  0.563519  1
  Er  Er12  1  0.937118  0.562246  0.563519  1
  Er  Er13  1  0.189048  0.189048  0.810620  1
  Er  Er14  1  0.811285  0.189048  0.810620  1
  Er  Er15  1  0.189047  0.811286  0.810620  1
  Cd  Cd16  1  0.580860  0.580860  0.257421  1
  Cd  Cd17  1  0.580750  0.257324  0.581176  1
  Cd  Cd18  1  0.257324  0.580750  0.581176  1
  Cd  Cd19  1  0.580750  0.580750  0.581176  1
  Ru  Ru20  1  0.144356  0.144356  0.566932  1
  Ru  Ru21  1  0.144925  0.565952  0.144197  1
  Ru  Ru22  1  0.565952  0.144925  0.144197  1
  Ru  Ru23  1  0.144925  0.144925  0.144197  1
