# generated using pymatgen
data_Th10ZnSn6Sb
_symmetry_space_group_name_H-M   'P 1'
_cell_length_a   9.63343600
_cell_length_b   9.63343574
_cell_length_c   6.60786700
_cell_angle_alpha   90.00000000
_cell_angle_beta   90.00000000
_cell_angle_gamma   120.00000090
_symmetry_Int_Tables_number   1
_chemical_formula_structural   Th10ZnSn6Sb
_chemical_formula_sum   'Th10 Zn1 Sn6 Sb1'
_cell_volume   531.07314653
_cell_formula_units_Z   1
loop_
 _symmetry_equiv_pos_site_id
 _symmetry_equiv_pos_as_xyz
  1  'x, y, z'
loop_
 _atom_site_type_symbol
 _atom_site_label
 _atom_site_symmetry_multiplicity
 _atom_site_fract_x
 _atom_site_fract_y
 _atom_site_fract_z
 _atom_site_occupancy
  Th  Th0  1  0.000000  0.723982  0.755680  1
  Th  Th1  1  0.276018  0.276018  0.755680  1
  Th  Th2  1  0.333333  0.666667  0.500000  1
  Th  Th3  1  0.666667  0.333333  0.500000  1
  Th  Th4  1  0.723982  0.723982  0.244320  1
  Th  Th5  1  0.723982  0.000000  0.755680  1
  Th  Th6  1  0.000000  0.276018  0.244320  1
  Th  Th7  1  0.276018  0.000000  0.244320  1
  Th  Th8  1  0.333333  0.666667  0.000000  1
  Th  Th9  1  0.666667  0.333333  0.000000  1
  Zn  Zn10  1  0.000000  0.000000  0.000000  1
  Sn  Sn11  1  0.620591  0.620591  0.749875  1
  Sn  Sn12  1  0.000000  0.379409  0.749875  1
  Sn  Sn13  1  0.379409  0.000000  0.749875  1
  Sn  Sn14  1  0.620591  0.000000  0.250125  1
  Sn  Sn15  1  0.379409  0.379409  0.250125  1
  Sn  Sn16  1  0.000000  0.620591  0.250125  1
  Sb  Sb17  1  0.000000  0.000000  0.500000  1
