# generated using pymatgen
data_Dy8TaTi10Si16Os
_symmetry_space_group_name_H-M   'P 1'
_cell_length_a   7.02757287
_cell_length_b   7.01496552
_cell_length_c   12.93763056
_cell_angle_alpha   90.18638690
_cell_angle_beta   90.05044009
_cell_angle_gamma   90.04565056
_symmetry_Int_Tables_number   1
_chemical_formula_structural   Dy8TaTi10Si16Os
_chemical_formula_sum   'Dy8 Ta1 Ti10 Si16 Os1'
_cell_volume   637.79783182
_cell_formula_units_Z   1
loop_
 _symmetry_equiv_pos_site_id
 _symmetry_equiv_pos_as_xyz
  1  'x, y, z'
loop_
 _atom_site_type_symbol
 _atom_site_label
 _atom_site_symmetry_multiplicity
 _atom_site_fract_x
 _atom_site_fract_y
 _atom_site_fract_z
 _atom_site_occupancy
  Dy  Dy0  1  0.999631  0.657780  0.035495  1
  Dy  Dy1  1  0.000996  0.341276  0.531408  1
  Dy  Dy2  1  0.660239  0.996585  0.966759  1
  Dy  Dy3  1  0.158860  0.501059  0.783463  1
  Dy  Dy4  1  0.839748  0.495342  0.282886  1
  Dy  Dy5  1  0.501045  0.159334  0.218881  1
  Dy  Dy6  1  0.497021  0.839597  0.715248  1
  Dy  Dy7  1  0.342179  0.001468  0.466569  1
  Ta  Ta8  1  0.844426  0.991353  0.375377  1
  Ti  Ti9  1  0.010489  0.158350  0.128636  1
  Ti  Ti10  1  0.996609  0.841422  0.621328  1
  Ti  Ti11  1  0.508038  0.345326  0.625390  1
  Ti  Ti12  1  0.154076  0.006562  0.873979  1
  Ti  Ti13  1  0.670679  0.671951  0.498260  1
  Ti  Ti14  1  0.826168  0.172131  0.750378  1
  Ti  Ti15  1  0.173783  0.827221  0.251124  1
  Ti  Ti16  1  0.329548  0.328023  0.001243  1
  Ti  Ti17  1  0.496466  0.655010  0.123998  1
  Ti  Ti18  1  0.653620  0.493450  0.876023  1
  Si  Si19  1  0.048452  0.707708  0.435336  1
  Si  Si20  1  0.955241  0.290066  0.936390  1
  Si  Si21  1  0.709113  0.046967  0.565544  1
  Si  Si22  1  0.210080  0.457190  0.187837  1
  Si  Si23  1  0.790324  0.547060  0.685055  1
  Si  Si24  1  0.454701  0.208657  0.814963  1
  Si  Si25  1  0.541680  0.785985  0.312157  1
  Si  Si26  1  0.291432  0.954303  0.064313  1
  Si  Si27  1  0.796529  0.870201  0.183307  1
  Si  Si28  1  0.299137  0.630145  0.563458  1
  Si  Si29  1  0.702342  0.368107  0.066717  1
  Si  Si30  1  0.624175  0.302593  0.434361  1
  Si  Si31  1  0.368773  0.703119  0.933774  1
  Si  Si32  1  0.131980  0.206472  0.317770  1
  Si  Si33  1  0.200366  0.130688  0.682791  1
  Si  Si34  1  0.869761  0.797439  0.815048  1
  Os  Os35  1  0.342291  0.510062  0.374736  1
