# generated using pymatgen
data_SmCl30
_symmetry_space_group_name_H-M   'P 1'
_cell_length_a   13.25644980
_cell_length_b   13.25645030
_cell_length_c   15.67693896
_cell_angle_alpha   82.65778095
_cell_angle_beta   82.65778204
_cell_angle_gamma   120.52285844
_symmetry_Int_Tables_number   1
_chemical_formula_structural   SmCl30
_chemical_formula_sum   'Sm1 Cl30'
_cell_volume   2293.08801425
_cell_formula_units_Z   1
loop_
 _symmetry_equiv_pos_site_id
 _symmetry_equiv_pos_as_xyz
  1  'x, y, z'
loop_
 _atom_site_type_symbol
 _atom_site_label
 _atom_site_symmetry_multiplicity
 _atom_site_fract_x
 _atom_site_fract_y
 _atom_site_fract_z
 _atom_site_occupancy
  Sm  Sm0  1  0.000000  0.000000  0.000000  1
  Cl  Cl1  1  0.936884  0.936884  0.180048  1
  Cl  Cl2  1  0.063116  0.063116  0.819952  1
  Cl  Cl3  1  0.117951  0.235297  0.006289  1
  Cl  Cl4  1  0.882049  0.764703  0.993711  1
  Cl  Cl5  1  0.235297  0.117951  0.006289  1
  Cl  Cl6  1  0.764703  0.882049  0.993711  1
  Cl  Cl7  1  0.199398  0.742464  0.066007  1
  Cl  Cl8  1  0.800602  0.257536  0.933993  1
  Cl  Cl9  1  0.689452  0.084575  0.261661  1
  Cl  Cl10  1  0.257536  0.800602  0.933993  1
  Cl  Cl11  1  0.310548  0.915425  0.738339  1
  Cl  Cl12  1  0.742464  0.199398  0.066007  1
  Cl  Cl13  1  0.981415  0.204265  0.769431  1
  Cl  Cl14  1  0.915425  0.310548  0.738339  1
  Cl  Cl15  1  0.018585  0.795735  0.230569  1
  Cl  Cl16  1  0.084575  0.689452  0.261661  1
  Cl  Cl17  1  0.795735  0.018585  0.230569  1
  Cl  Cl18  1  0.204265  0.981415  0.769431  1
  Cl  Cl19  1  0.464711  0.551193  0.261606  1
  Cl  Cl20  1  0.535289  0.448807  0.738394  1
  Cl  Cl21  1  0.509551  0.205580  0.449823  1
  Cl  Cl22  1  0.448807  0.535289  0.738394  1
  Cl  Cl23  1  0.490449  0.794420  0.550177  1
  Cl  Cl24  1  0.551193  0.464711  0.261606  1
  Cl  Cl25  1  0.240642  0.428694  0.547202  1
  Cl  Cl26  1  0.794420  0.490449  0.550177  1
  Cl  Cl27  1  0.759358  0.571306  0.452798  1
  Cl  Cl28  1  0.205580  0.509551  0.449823  1
  Cl  Cl29  1  0.571306  0.759358  0.452798  1
  Cl  Cl30  1  0.428694  0.240642  0.547202  1
