# generated using pymatgen
data_Tb6Al7CuNi15
_symmetry_space_group_name_H-M   'P 1'
_cell_length_a   8.55497852
_cell_length_b   8.55497890
_cell_length_c   8.55497892
_cell_angle_alpha   60.21172528
_cell_angle_beta   60.21172421
_cell_angle_gamma   60.21172415
_symmetry_Int_Tables_number   1
_chemical_formula_structural   Tb6Al7CuNi15
_chemical_formula_sum   'Tb6 Al7 Cu1 Ni15'
_cell_volume   444.85532289
_cell_formula_units_Z   1
loop_
 _symmetry_equiv_pos_site_id
 _symmetry_equiv_pos_as_xyz
  1  'x, y, z'
loop_
 _atom_site_type_symbol
 _atom_site_label
 _atom_site_symmetry_multiplicity
 _atom_site_fract_x
 _atom_site_fract_y
 _atom_site_fract_z
 _atom_site_occupancy
  Tb  Tb0  1  0.717036  0.717036  0.282312  1
  Tb  Tb1  1  0.281640  0.721605  0.281640  1
  Tb  Tb2  1  0.721605  0.281640  0.281640  1
  Tb  Tb3  1  0.281640  0.281640  0.721605  1
  Tb  Tb4  1  0.717036  0.282312  0.717036  1
  Tb  Tb5  1  0.282312  0.717036  0.717036  1
  Al  Al6  1  0.999932  0.999932  0.999932  1
  Al  Al7  1  0.000061  0.000061  0.501031  1
  Al  Al8  1  0.501491  0.996425  0.501491  1
  Al  Al9  1  0.996425  0.501491  0.501491  1
  Al  Al10  1  0.501491  0.501491  0.996425  1
  Al  Al11  1  0.000061  0.501031  0.000061  1
  Al  Al12  1  0.501031  0.000061  0.000061  1
  Cu  Cu13  1  0.324773  0.324773  0.324773  1
  Ni  Ni14  1  0.875460  0.875460  0.374003  1
  Ni  Ni15  1  0.875460  0.374003  0.875460  1
  Ni  Ni16  1  0.374003  0.875460  0.875460  1
  Ni  Ni17  1  0.874498  0.874498  0.874498  1
  Ni  Ni18  1  0.124851  0.124851  0.627500  1
  Ni  Ni19  1  0.124851  0.627500  0.124851  1
  Ni  Ni20  1  0.627500  0.124851  0.124851  1
  Ni  Ni21  1  0.124850  0.124850  0.124850  1
  Ni  Ni22  1  0.673509  0.673509  0.978962  1
  Ni  Ni23  1  0.673509  0.978962  0.673509  1
  Ni  Ni24  1  0.978962  0.673509  0.673509  1
  Ni  Ni25  1  0.673536  0.673536  0.673536  1
  Ni  Ni26  1  0.326685  0.326685  0.019109  1
  Ni  Ni27  1  0.326685  0.019109  0.326685  1
  Ni  Ni28  1  0.019109  0.326685  0.326685  1
