# generated using pymatgen
data_TbTa2(Nb2Sn3)2
_symmetry_space_group_name_H-M   'P 1'
_cell_length_a   5.81125712
_cell_length_b   5.80924410
_cell_length_c   9.60881800
_cell_angle_alpha   90.00000000
_cell_angle_beta   90.00000000
_cell_angle_gamma   119.98854274
_symmetry_Int_Tables_number   1
_chemical_formula_structural   TbTa2(Nb2Sn3)2
_chemical_formula_sum   'Tb1 Ta2 Nb4 Sn6'
_cell_volume   280.95737991
_cell_formula_units_Z   1
loop_
 _symmetry_equiv_pos_site_id
 _symmetry_equiv_pos_as_xyz
  1  'x, y, z'
loop_
 _atom_site_type_symbol
 _atom_site_label
 _atom_site_symmetry_multiplicity
 _atom_site_fract_x
 _atom_site_fract_y
 _atom_site_fract_z
 _atom_site_occupancy
  Tb  Tb0  1  0.000000  0.000000  0.999974  1
  Ta  Ta1  1  0.500000  0.500000  0.750842  1
  Ta  Ta2  1  0.500000  0.000000  0.750842  1
  Nb  Nb3  1  0.000000  0.500000  0.750497  1
  Nb  Nb4  1  0.000000  0.500000  0.249514  1
  Nb  Nb5  1  0.500000  0.500000  0.249573  1
  Nb  Nb6  1  0.500000  0.000000  0.249573  1
  Sn  Sn7  1  0.666377  0.333188  0.499855  1
  Sn  Sn8  1  0.333623  0.666812  0.499855  1
  Sn  Sn9  1  0.666634  0.333317  0.000077  1
  Sn  Sn10  1  0.333366  0.666683  0.000077  1
  Sn  Sn11  1  0.000000  0.000000  0.668841  1
  Sn  Sn12  1  0.000000  0.000000  0.330479  1
