# generated using pymatgen
data_ErLuB6Os
_symmetry_space_group_name_H-M   'P 1'
_cell_length_a   3.60700300
_cell_length_b   9.05146100
_cell_length_c   11.42922300
_cell_angle_alpha   90.00000000
_cell_angle_beta   90.00000000
_cell_angle_gamma   90.00000000
_symmetry_Int_Tables_number   1
_chemical_formula_structural   ErLuB6Os
_chemical_formula_sum   'Er4 Lu4 B24 Os4'
_cell_volume   373.14866700
_cell_formula_units_Z   4
loop_
 _symmetry_equiv_pos_site_id
 _symmetry_equiv_pos_as_xyz
  1  'x, y, z'
loop_
 _atom_site_type_symbol
 _atom_site_label
 _atom_site_symmetry_multiplicity
 _atom_site_fract_x
 _atom_site_fract_y
 _atom_site_fract_z
 _atom_site_occupancy
  Er  Er0  1  0.000000  0.321082  0.414145  1
  Er  Er1  1  0.000000  0.678918  0.585855  1
  Er  Er2  1  0.000000  0.821082  0.085855  1
  Er  Er3  1  0.000000  0.178918  0.914145  1
  Lu  Lu4  1  0.000000  0.944123  0.373133  1
  Lu  Lu5  1  0.000000  0.055877  0.626867  1
  Lu  Lu6  1  0.000000  0.444123  0.126867  1
  Lu  Lu7  1  0.000000  0.555877  0.873133  1
  B  B8  1  0.500000  0.554208  0.433261  1
  B  B9  1  0.500000  0.445792  0.566739  1
  B  B10  1  0.500000  0.054208  0.066739  1
  B  B11  1  0.500000  0.945792  0.933261  1
  B  B12  1  0.500000  0.749528  0.419826  1
  B  B13  1  0.500000  0.250472  0.580174  1
  B  B14  1  0.500000  0.249528  0.080174  1
  B  B15  1  0.500000  0.750472  0.919826  1
  B  B16  1  0.500000  0.791994  0.265844  1
  B  B17  1  0.500000  0.208006  0.734156  1
  B  B18  1  0.500000  0.291994  0.234156  1
  B  B19  1  0.500000  0.708006  0.765844  1
  B  B20  1  0.500000  0.630872  0.184307  1
  B  B21  1  0.500000  0.369128  0.815693  1
  B  B22  1  0.500000  0.130872  0.315693  1
  B  B23  1  0.500000  0.869128  0.684307  1
  B  B24  1  0.500000  0.982230  0.213457  1
  B  B25  1  0.500000  0.017770  0.786543  1
  B  B26  1  0.500000  0.482230  0.286543  1
  B  B27  1  0.500000  0.517770  0.713457  1
  B  B28  1  0.500000  0.604738  0.028809  1
  B  B29  1  0.500000  0.395262  0.971191  1
  B  B30  1  0.500000  0.104738  0.471191  1
  B  B31  1  0.500000  0.895262  0.528809  1
  Os  Os32  1  0.000000  0.637948  0.320642  1
  Os  Os33  1  0.000000  0.362052  0.679358  1
  Os  Os34  1  0.000000  0.137948  0.179358  1
  Os  Os35  1  0.000000  0.862052  0.820642  1
