# generated using pymatgen
data_Nd5Sm3(RuC2)4
_symmetry_space_group_name_H-M   'P 1'
_cell_length_a   5.34593600
_cell_length_b   6.54628239
_cell_length_c   10.07887765
_cell_angle_alpha   90.09776540
_cell_angle_beta   90.00000000
_cell_angle_gamma   90.00000000
_symmetry_Int_Tables_number   1
_chemical_formula_structural   Nd5Sm3(RuC2)4
_chemical_formula_sum   'Nd5 Sm3 Ru4 C8'
_cell_volume   352.71995647
_cell_formula_units_Z   1
loop_
 _symmetry_equiv_pos_site_id
 _symmetry_equiv_pos_as_xyz
  1  'x, y, z'
loop_
 _atom_site_type_symbol
 _atom_site_label
 _atom_site_symmetry_multiplicity
 _atom_site_fract_x
 _atom_site_fract_y
 _atom_site_fract_z
 _atom_site_occupancy
  Nd  Nd0  1  0.750000  0.480284  0.782674  1
  Nd  Nd1  1  0.250000  0.019840  0.283837  1
  Nd  Nd2  1  0.750000  0.980863  0.715120  1
  Nd  Nd3  1  0.250000  0.518986  0.217298  1
  Nd  Nd4  1  0.750000  0.810004  0.049818  1
  Sm  Sm5  1  0.250000  0.186693  0.948181  1
  Sm  Sm6  1  0.750000  0.313912  0.448957  1
  Sm  Sm7  1  0.250000  0.685748  0.551407  1
  Ru  Ru8  1  0.750000  0.772608  0.361529  1
  Ru  Ru9  1  0.250000  0.727884  0.859929  1
  Ru  Ru10  1  0.250000  0.227591  0.639025  1
  Ru  Ru11  1  0.750000  0.272308  0.139693  1
  C  C12  1  0.250000  0.965082  0.744205  1
  C  C13  1  0.750000  0.533952  0.246303  1
  C  C14  1  0.250000  0.464852  0.755565  1
  C  C15  1  0.750000  0.035797  0.256675  1
  C  C16  1  0.250000  0.320481  0.456504  1
  C  C17  1  0.750000  0.183369  0.956711  1
  C  C18  1  0.250000  0.819964  0.042674  1
  C  C19  1  0.750000  0.679784  0.543893  1
