# generated using pymatgen
data_Sc5Co18ReP12
_symmetry_space_group_name_H-M   'P 1'
_cell_length_a   11.84842216
_cell_length_b   11.84842380
_cell_length_c   3.61316900
_cell_angle_alpha   90.00000000
_cell_angle_beta   90.00000000
_cell_angle_gamma   119.69340447
_symmetry_Int_Tables_number   1
_chemical_formula_structural   Sc5Co18ReP12
_chemical_formula_sum   'Sc5 Co18 Re1 P12'
_cell_volume   440.62939773
_cell_formula_units_Z   1
loop_
 _symmetry_equiv_pos_site_id
 _symmetry_equiv_pos_as_xyz
  1  'x, y, z'
loop_
 _atom_site_type_symbol
 _atom_site_label
 _atom_site_symmetry_multiplicity
 _atom_site_fract_x
 _atom_site_fract_y
 _atom_site_fract_z
 _atom_site_occupancy
  Sc  Sc0  1  0.666066  0.334367  0.000000  1
  Sc  Sc1  1  0.334367  0.666066  0.000000  1
  Sc  Sc2  1  0.819182  0.819182  0.500000  1
  Sc  Sc3  1  0.185793  0.000797  0.500000  1
  Sc  Sc4  1  0.000797  0.185793  0.500000  1
  Co  Co5  1  0.873867  0.356332  0.500000  1
  Co  Co6  1  0.645051  0.517425  0.500000  1
  Co  Co7  1  0.484582  0.128921  0.500000  1
  Co  Co8  1  0.356332  0.873867  0.500000  1
  Co  Co9  1  0.517425  0.645051  0.500000  1
  Co  Co10  1  0.128921  0.484582  0.500000  1
  Co  Co11  1  0.550415  0.001180  0.000000  1
  Co  Co12  1  0.001180  0.550415  0.000000  1
  Co  Co13  1  0.801689  0.178271  0.000000  1
  Co  Co14  1  0.823190  0.624085  0.000000  1
  Co  Co15  1  0.372158  0.194327  0.000000  1
  Co  Co16  1  0.178271  0.801689  0.000000  1
  Co  Co17  1  0.624085  0.823190  0.000000  1
  Co  Co18  1  0.194327  0.372158  0.000000  1
  Co  Co19  1  0.280793  0.280793  0.500000  1
  Co  Co20  1  0.714740  0.000467  0.500000  1
  Co  Co21  1  0.000467  0.714740  0.500000  1
  Co  Co22  1  0.997028  0.997028  0.000000  1
  Re  Re23  1  0.447816  0.447816  0.000000  1
  P  P24  1  0.684523  0.168285  0.500000  1
  P  P25  1  0.834012  0.516721  0.500000  1
  P  P26  1  0.482707  0.315171  0.500000  1
  P  P27  1  0.168285  0.684523  0.500000  1
  P  P28  1  0.516721  0.834012  0.500000  1
  P  P29  1  0.315171  0.482707  0.500000  1
  P  P30  1  0.173322  0.173322  0.000000  1
  P  P31  1  0.821686  0.000524  0.000000  1
  P  P32  1  0.000524  0.821686  0.000000  1
  P  P33  1  0.643492  0.643492  0.000000  1
  P  P34  1  0.362101  0.998913  0.000000  1
  P  P35  1  0.998913  0.362101  0.000000  1
