# generated using pymatgen
data_Ce5As12Ru16Rh3
_symmetry_space_group_name_H-M   'P 1'
_cell_length_a   13.09095300
_cell_length_b   13.09095287
_cell_length_c   4.06502400
_cell_angle_alpha   90.00000000
_cell_angle_beta   90.00000000
_cell_angle_gamma   119.99999779
_symmetry_Int_Tables_number   1
_chemical_formula_structural   Ce5As12Ru16Rh3
_chemical_formula_sum   'Ce5 As12 Ru16 Rh3'
_cell_volume   603.30410233
_cell_formula_units_Z   1
loop_
 _symmetry_equiv_pos_site_id
 _symmetry_equiv_pos_as_xyz
  1  'x, y, z'
loop_
 _atom_site_type_symbol
 _atom_site_label
 _atom_site_symmetry_multiplicity
 _atom_site_fract_x
 _atom_site_fract_y
 _atom_site_fract_z
 _atom_site_occupancy
  Ce  Ce0  1  0.185376  0.185376  0.500000  1
  Ce  Ce1  1  0.814624  0.000000  0.500000  1
  Ce  Ce2  1  0.000000  0.814624  0.500000  1
  Ce  Ce3  1  0.333333  0.666667  0.000000  1
  Ce  Ce4  1  0.666667  0.333333  0.000000  1
  As  As5  1  0.815995  0.815995  0.000000  1
  As  As6  1  0.184005  0.000000  0.000000  1
  As  As7  1  0.000000  0.184005  0.000000  1
  As  As8  1  0.173273  0.480227  0.500000  1
  As  As9  1  0.519773  0.693047  0.500000  1
  As  As10  1  0.306953  0.826727  0.500000  1
  As  As11  1  0.693047  0.519773  0.500000  1
  As  As12  1  0.826727  0.306953  0.500000  1
  As  As13  1  0.480227  0.173273  0.500000  1
  As  As14  1  0.370167  0.370167  0.000000  1
  As  As15  1  0.629833  0.000000  0.000000  1
  As  As16  1  0.000000  0.629833  0.000000  1
  Ru  Ru17  1  0.713993  0.713993  0.500000  1
  Ru  Ru18  1  0.286007  0.000000  0.500000  1
  Ru  Ru19  1  0.000000  0.286007  0.500000  1
  Ru  Ru20  1  0.183757  0.377310  0.000000  1
  Ru  Ru21  1  0.622690  0.806447  0.000000  1
  Ru  Ru22  1  0.193553  0.816243  0.000000  1
  Ru  Ru23  1  0.806447  0.622690  0.000000  1
  Ru  Ru24  1  0.816243  0.193553  0.000000  1
  Ru  Ru25  1  0.377310  0.183757  0.000000  1
  Ru  Ru26  1  0.365849  0.488743  0.500000  1
  Ru  Ru27  1  0.511257  0.877105  0.500000  1
  Ru  Ru28  1  0.122895  0.634151  0.500000  1
  Ru  Ru29  1  0.877105  0.511257  0.500000  1
  Ru  Ru30  1  0.634151  0.122895  0.500000  1
  Ru  Ru31  1  0.488743  0.365849  0.500000  1
  Ru  Ru32  1  0.000000  0.000000  0.000000  1
  Rh  Rh33  1  0.556823  0.556823  0.000000  1
  Rh  Rh34  1  0.443177  0.000000  0.000000  1
  Rh  Rh35  1  0.000000  0.443177  0.000000  1
