# generated using pymatgen
data_Th2Al9Tc5
_symmetry_space_group_name_H-M   'P 1'
_cell_length_a   8.19987037
_cell_length_b   8.19986974
_cell_length_c   8.19987075
_cell_angle_alpha   134.90328644
_cell_angle_beta   134.90328207
_cell_angle_gamma   65.68050058
_symmetry_Int_Tables_number   1
_chemical_formula_structural   Th2Al9Tc5
_chemical_formula_sum   'Th2 Al9 Tc5'
_cell_volume   272.46037713
_cell_formula_units_Z   1
loop_
 _symmetry_equiv_pos_site_id
 _symmetry_equiv_pos_as_xyz
  1  'x, y, z'
loop_
 _atom_site_type_symbol
 _atom_site_label
 _atom_site_symmetry_multiplicity
 _atom_site_fract_x
 _atom_site_fract_y
 _atom_site_fract_z
 _atom_site_occupancy
  Th  Th0  1  0.000000  0.500000  0.500000  1
  Th  Th1  1  0.500000  0.000000  0.500000  1
  Al  Al2  1  0.447473  0.865281  0.000000  1
  Al  Al3  1  0.134719  0.134719  0.582191  1
  Al  Al4  1  0.865281  0.447473  0.000000  1
  Al  Al5  1  0.865281  0.865281  0.417809  1
  Al  Al6  1  0.552527  0.134719  0.000000  1
  Al  Al7  1  0.134719  0.552527  0.000000  1
  Al  Al8  1  0.552527  0.552527  0.417809  1
  Al  Al9  1  0.000000  0.000000  0.000000  1
  Al  Al10  1  0.447473  0.447473  0.582191  1
  Tc  Tc11  1  0.180599  0.180599  0.000000  1
  Tc  Tc12  1  0.819401  0.819401  0.000000  1
  Tc  Tc13  1  0.250000  0.750000  0.500000  1
  Tc  Tc14  1  0.750000  0.250000  0.500000  1
  Tc  Tc15  1  0.500000  0.500000  0.000000  1
