# generated using pymatgen
data_PrNd2CI3
_symmetry_space_group_name_H-M   'P 1'
_cell_length_a   4.03783200
_cell_length_b   9.02705283
_cell_length_c   12.22334302
_cell_angle_alpha   92.54990866
_cell_angle_beta   90.00000000
_cell_angle_gamma   90.00000000
_symmetry_Int_Tables_number   1
_chemical_formula_structural   PrNd2CI3
_chemical_formula_sum   'Pr2 Nd4 C2 I6'
_cell_volume   445.09631452
_cell_formula_units_Z   2
loop_
 _symmetry_equiv_pos_site_id
 _symmetry_equiv_pos_as_xyz
  1  'x, y, z'
loop_
 _atom_site_type_symbol
 _atom_site_label
 _atom_site_symmetry_multiplicity
 _atom_site_fract_x
 _atom_site_fract_y
 _atom_site_fract_z
 _atom_site_occupancy
  Pr  Pr0  1  0.250000  0.913934  0.602827  1
  Pr  Pr1  1  0.750000  0.086066  0.397173  1
  Nd  Nd2  1  0.250000  0.886044  0.179646  1
  Nd  Nd3  1  0.750000  0.113956  0.820354  1
  Nd  Nd4  1  0.250000  0.299332  0.616569  1
  Nd  Nd5  1  0.750000  0.700668  0.383431  1
  C  C6  1  0.250000  0.879108  0.383097  1
  C  C7  1  0.750000  0.120892  0.616903  1
  I  I8  1  0.250000  0.856214  0.875953  1
  I  I9  1  0.750000  0.143786  0.124047  1
  I  I10  1  0.250000  0.378420  0.873708  1
  I  I11  1  0.750000  0.621580  0.126292  1
  I  I12  1  0.250000  0.383596  0.365014  1
  I  I13  1  0.750000  0.616404  0.634986  1
