# generated using pymatgen
data_Tb5Dy3Nb12Si15Ge
_symmetry_space_group_name_H-M   'P 1'
_cell_length_a   6.89699465
_cell_length_b   7.09243698
_cell_length_c   13.47434925
_cell_angle_alpha   90.03935284
_cell_angle_beta   89.92975407
_cell_angle_gamma   90.01588477
_symmetry_Int_Tables_number   1
_chemical_formula_structural   Tb5Dy3Nb12Si15Ge
_chemical_formula_sum   'Tb5 Dy3 Nb12 Si15 Ge1'
_cell_volume   659.11732782
_cell_formula_units_Z   1
loop_
 _symmetry_equiv_pos_site_id
 _symmetry_equiv_pos_as_xyz
  1  'x, y, z'
loop_
 _atom_site_type_symbol
 _atom_site_label
 _atom_site_symmetry_multiplicity
 _atom_site_fract_x
 _atom_site_fract_y
 _atom_site_fract_z
 _atom_site_occupancy
  Tb  Tb0  1  0.502952  0.328814  0.095738  1
  Tb  Tb1  1  0.001920  0.170858  0.403931  1
  Tb  Tb2  1  0.500058  0.673106  0.596408  1
  Tb  Tb3  1  0.997040  0.828660  0.904697  1
  Tb  Tb4  1  0.496987  0.671125  0.904523  1
  Dy  Dy5  1  0.996967  0.829332  0.596002  1
  Dy  Dy6  1  0.503372  0.327367  0.403292  1
  Dy  Dy7  1  0.002801  0.171654  0.095617  1
  Nb  Nb8  1  0.664629  0.008828  0.750122  1
  Nb  Nb9  1  0.164367  0.490286  0.751858  1
  Nb  Nb10  1  0.335114  0.991281  0.249765  1
  Nb  Nb11  1  0.835406  0.509092  0.249884  1
  Nb  Nb12  1  0.836451  0.324297  0.625999  1
  Nb  Nb13  1  0.338182  0.174959  0.874581  1
  Nb  Nb14  1  0.161710  0.675285  0.125518  1
  Nb  Nb15  1  0.661383  0.825233  0.373926  1
  Nb  Nb16  1  0.160112  0.677628  0.372843  1
  Nb  Nb17  1  0.661028  0.824738  0.125467  1
  Nb  Nb18  1  0.838296  0.324655  0.874607  1
  Nb  Nb19  1  0.340801  0.171553  0.626813  1
  Si  Si20  1  0.797514  0.625215  0.750077  1
  Si  Si21  1  0.296144  0.873796  0.750467  1
  Si  Si22  1  0.203083  0.374725  0.249723  1
  Si  Si23  1  0.703251  0.125327  0.249587  1
  Si  Si24  1  0.543028  0.375964  0.750402  1
  Si  Si25  1  0.043005  0.124244  0.750009  1
  Si  Si26  1  0.456625  0.624075  0.249943  1
  Si  Si27  1  0.955949  0.876462  0.249010  1
  Si  Si28  1  0.663667  0.037923  0.540135  1
  Si  Si29  1  0.162629  0.462204  0.959599  1
  Si  Si30  1  0.336615  0.962754  0.040653  1
  Si  Si31  1  0.832962  0.538413  0.458618  1
  Si  Si32  1  0.336650  0.962239  0.459517  1
  Si  Si33  1  0.837413  0.537388  0.040811  1
  Si  Si34  1  0.662978  0.037652  0.959524  1
  Ge  Ge35  1  0.168910  0.462869  0.540333  1
