# generated using pymatgen
data_PrNdGePd14
_symmetry_space_group_name_H-M   'P 1'
_cell_length_a   9.00928500
_cell_length_b   9.00860000
_cell_length_c   7.24200500
_cell_angle_alpha   90.00000000
_cell_angle_beta   90.00000000
_cell_angle_gamma   90.00000000
_symmetry_Int_Tables_number   1
_chemical_formula_structural   PrNdGePd14
_chemical_formula_sum   'Pr2 Nd2 Ge2 Pd28'
_cell_volume   587.76869262
_cell_formula_units_Z   2
loop_
 _symmetry_equiv_pos_site_id
 _symmetry_equiv_pos_as_xyz
  1  'x, y, z'
loop_
 _atom_site_type_symbol
 _atom_site_label
 _atom_site_symmetry_multiplicity
 _atom_site_fract_x
 _atom_site_fract_y
 _atom_site_fract_z
 _atom_site_occupancy
  Pr  Pr0  1  0.500000  0.000000  0.936473  1
  Pr  Pr1  1  0.000000  0.000000  0.499818  1
  Nd  Nd2  1  0.000000  0.500000  0.063578  1
  Nd  Nd3  1  0.500000  0.500000  0.500208  1
  Ge  Ge4  1  0.500000  0.000000  0.449511  1
  Ge  Ge5  1  0.000000  0.500000  0.550462  1
  Pd  Pd6  1  0.330727  0.830499  0.621091  1
  Pd  Pd7  1  0.330727  0.169501  0.621091  1
  Pd  Pd8  1  0.669273  0.830499  0.621091  1
  Pd  Pd9  1  0.669273  0.169501  0.621091  1
  Pd  Pd10  1  0.169297  0.669168  0.378681  1
  Pd  Pd11  1  0.169297  0.330832  0.378681  1
  Pd  Pd12  1  0.830703  0.669168  0.378681  1
  Pd  Pd13  1  0.830703  0.330832  0.378681  1
  Pd  Pd14  1  0.500000  0.766412  0.253596  1
  Pd  Pd15  1  0.500000  0.233588  0.253596  1
  Pd  Pd16  1  0.266718  0.000000  0.253244  1
  Pd  Pd17  1  0.733282  0.000000  0.253244  1
  Pd  Pd18  1  0.000000  0.733085  0.746972  1
  Pd  Pd19  1  0.000000  0.266915  0.746972  1
  Pd  Pd20  1  0.233375  0.500000  0.746718  1
  Pd  Pd21  1  0.766625  0.500000  0.746718  1
  Pd  Pd22  1  0.500000  0.349053  0.856901  1
  Pd  Pd23  1  0.500000  0.650947  0.856901  1
  Pd  Pd24  1  0.848927  0.000000  0.857410  1
  Pd  Pd25  1  0.151073  0.000000  0.857410  1
  Pd  Pd26  1  0.000000  0.151331  0.142673  1
  Pd  Pd27  1  0.000000  0.848669  0.142673  1
  Pd  Pd28  1  0.651006  0.500000  0.142919  1
  Pd  Pd29  1  0.348994  0.500000  0.142919  1
  Pd  Pd30  1  0.249899  0.749777  0.999998  1
  Pd  Pd31  1  0.249899  0.250223  0.999998  1
  Pd  Pd32  1  0.750101  0.749777  0.999998  1
  Pd  Pd33  1  0.750101  0.250223  0.999998  1
