# generated using pymatgen
data_Y6ScCo17P12
_symmetry_space_group_name_H-M   'P 1'
_cell_length_a   3.71945100
_cell_length_b   10.59319200
_cell_length_c   12.29627400
_cell_angle_alpha   90.00000000
_cell_angle_beta   90.00000000
_cell_angle_gamma   90.00000000
_symmetry_Int_Tables_number   1
_chemical_formula_structural   Y6ScCo17P12
_chemical_formula_sum   'Y6 Sc1 Co17 P12'
_cell_volume   484.48375291
_cell_formula_units_Z   1
loop_
 _symmetry_equiv_pos_site_id
 _symmetry_equiv_pos_as_xyz
  1  'x, y, z'
loop_
 _atom_site_type_symbol
 _atom_site_label
 _atom_site_symmetry_multiplicity
 _atom_site_fract_x
 _atom_site_fract_y
 _atom_site_fract_z
 _atom_site_occupancy
  Y  Y0  1  0.000000  0.500000  0.527354  1
  Y  Y1  1  0.500000  0.000000  0.478120  1
  Y  Y2  1  0.500000  0.821224  0.207321  1
  Y  Y3  1  0.500000  0.178776  0.207321  1
  Y  Y4  1  0.000000  0.682586  0.795607  1
  Y  Y5  1  0.000000  0.317414  0.795607  1
  Sc  Sc6  1  0.500000  0.500000  0.152467  1
  Co  Co7  1  0.000000  0.000000  0.837413  1
  Co  Co8  1  0.500000  0.500000  0.703549  1
  Co  Co9  1  0.000000  0.000000  0.295878  1
  Co  Co10  1  0.000000  0.500000  0.984524  1
  Co  Co11  1  0.500000  0.000000  0.013100  1
  Co  Co12  1  0.500000  0.326733  0.989786  1
  Co  Co13  1  0.500000  0.673267  0.989786  1
  Co  Co14  1  0.000000  0.162159  0.001599  1
  Co  Co15  1  0.000000  0.837841  0.001599  1
  Co  Co16  1  0.500000  0.294803  0.434188  1
  Co  Co17  1  0.500000  0.705197  0.434188  1
  Co  Co18  1  0.000000  0.201951  0.570572  1
  Co  Co19  1  0.000000  0.798049  0.570572  1
  Co  Co20  1  0.500000  0.880532  0.708039  1
  Co  Co21  1  0.500000  0.119468  0.708039  1
  Co  Co22  1  0.000000  0.622330  0.296484  1
  Co  Co23  1  0.000000  0.377670  0.296484  1
  P  P24  1  0.500000  0.500000  0.883198  1
  P  P25  1  0.000000  0.000000  0.115933  1
  P  P26  1  0.500000  0.500000  0.357396  1
  P  P27  1  0.000000  0.000000  0.655450  1
  P  P28  1  0.500000  0.308865  0.617794  1
  P  P29  1  0.500000  0.691135  0.617794  1
  P  P30  1  0.000000  0.189141  0.386251  1
  P  P31  1  0.000000  0.810859  0.386251  1
  P  P32  1  0.500000  0.851954  0.889175  1
  P  P33  1  0.500000  0.148046  0.889175  1
  P  P34  1  0.000000  0.663188  0.100992  1
  P  P35  1  0.000000  0.336812  0.100992  1
