# generated using pymatgen
data_Yb3Sc(Si4Tc3)2
_symmetry_space_group_name_H-M   'P 1'
_cell_length_a   6.75369300
_cell_length_b   6.77072075
_cell_length_c   12.49711078
_cell_angle_alpha   89.68999315
_cell_angle_beta   90.00000000
_cell_angle_gamma   90.00000000
_symmetry_Int_Tables_number   1
_chemical_formula_structural   Yb3Sc(Si4Tc3)2
_chemical_formula_sum   'Yb6 Sc2 Si16 Tc12'
_cell_volume   571.45163555
_cell_formula_units_Z   2
loop_
 _symmetry_equiv_pos_site_id
 _symmetry_equiv_pos_as_xyz
  1  'x, y, z'
loop_
 _atom_site_type_symbol
 _atom_site_label
 _atom_site_symmetry_multiplicity
 _atom_site_fract_x
 _atom_site_fract_y
 _atom_site_fract_z
 _atom_site_occupancy
  Yb  Yb0  1  0.490296  0.342889  0.088558  1
  Yb  Yb1  1  0.990296  0.157111  0.411442  1
  Yb  Yb2  1  0.508649  0.659114  0.589050  1
  Yb  Yb3  1  0.008649  0.840886  0.910950  1
  Yb  Yb4  1  0.507889  0.659969  0.911702  1
  Yb  Yb5  1  0.007889  0.840031  0.588298  1
  Sc  Sc6  1  0.490762  0.334283  0.403906  1
  Sc  Sc7  1  0.990762  0.165717  0.096094  1
  Si  Si8  1  0.650826  0.051847  0.549590  1
  Si  Si9  1  0.150826  0.448153  0.950410  1
  Si  Si10  1  0.340344  0.953325  0.050932  1
  Si  Si11  1  0.840344  0.546675  0.449068  1
  Si  Si12  1  0.348483  0.951967  0.447746  1
  Si  Si13  1  0.848483  0.548033  0.052254  1
  Si  Si14  1  0.655155  0.048696  0.950865  1
  Si  Si15  1  0.155155  0.451304  0.549135  1
  Si  Si16  1  0.529666  0.355412  0.751952  1
  Si  Si17  1  0.029666  0.144588  0.748048  1
  Si  Si18  1  0.473356  0.644809  0.253151  1
  Si  Si19  1  0.973356  0.855191  0.246849  1
  Si  Si20  1  0.812542  0.638868  0.750370  1
  Si  Si21  1  0.312542  0.861132  0.749630  1
  Si  Si22  1  0.189522  0.358226  0.250411  1
  Si  Si23  1  0.689522  0.141774  0.249589  1
  Tc  Tc24  1  0.823385  0.349117  0.626022  1
  Tc  Tc25  1  0.323385  0.150883  0.873978  1
  Tc  Tc26  1  0.179788  0.649457  0.127194  1
  Tc  Tc27  1  0.679788  0.850543  0.372806  1
  Tc  Tc28  1  0.174026  0.645051  0.373166  1
  Tc  Tc29  1  0.674026  0.854949  0.126834  1
  Tc  Tc30  1  0.827784  0.344963  0.876039  1
  Tc  Tc31  1  0.327784  0.155037  0.623961  1
  Tc  Tc32  1  0.672856  0.997583  0.750482  1
  Tc  Tc33  1  0.172856  0.502417  0.749518  1
  Tc  Tc34  1  0.324671  0.008523  0.250296  1
  Tc  Tc35  1  0.824671  0.491477  0.249704  1
