# generated using pymatgen
data_Dy9LuGa3NiBi2
_symmetry_space_group_name_H-M   'P 1'
_cell_length_a   8.56792455
_cell_length_b   8.56792433
_cell_length_c   8.75507697
_cell_angle_alpha   124.43119714
_cell_angle_beta   124.43946975
_cell_angle_gamma   81.04520071
_symmetry_Int_Tables_number   1
_chemical_formula_structural   Dy9LuGa3NiBi2
_chemical_formula_sum   'Dy9 Lu1 Ga3 Ni1 Bi2'
_cell_volume   424.27801029
_cell_formula_units_Z   1
loop_
 _symmetry_equiv_pos_site_id
 _symmetry_equiv_pos_as_xyz
  1  'x, y, z'
loop_
 _atom_site_type_symbol
 _atom_site_label
 _atom_site_symmetry_multiplicity
 _atom_site_fract_x
 _atom_site_fract_y
 _atom_site_fract_z
 _atom_site_occupancy
  Dy  Dy0  1  0.502752  0.505866  0.008618  1
  Dy  Dy1  1  0.779774  0.295556  0.795484  1
  Dy  Dy2  1  0.203276  0.720957  0.204402  1
  Dy  Dy3  1  0.483444  0.001125  0.204402  1
  Dy  Dy4  1  0.302879  0.458430  0.498807  1
  Dy  Dy5  1  0.040376  0.195927  0.498807  1
  Dy  Dy6  1  0.499930  0.015711  0.795484  1
  Dy  Dy7  1  0.705870  0.516724  0.501137  1
  Dy  Dy8  1  0.984413  0.795267  0.501137  1
  Lu  Lu9  1  0.995501  0.997357  0.992857  1
  Ga  Ga10  1  0.146408  0.646031  0.792439  1
  Ga  Ga11  1  0.855652  0.351917  0.207569  1
  Ga  Ga12  1  0.635549  0.866057  0.501607  1
  Ni  Ni13  1  0.375593  0.122278  0.497871  1
  Bi  Bi14  1  0.243331  0.254437  0.999689  1
  Bi  Bi15  1  0.745252  0.756358  0.999689  1
