# generated using pymatgen
data_Hf6Al16Ir3Pt4
_symmetry_space_group_name_H-M   'P 1'
_cell_length_a   8.74260709
_cell_length_b   8.74466217
_cell_length_c   8.73842728
_cell_angle_alpha   60.00802770
_cell_angle_beta   59.98757485
_cell_angle_gamma   59.96059560
_symmetry_Int_Tables_number   1
_chemical_formula_structural   Hf6Al16Ir3Pt4
_chemical_formula_sum   'Hf6 Al16 Ir3 Pt4'
_cell_volume   472.23516469
_cell_formula_units_Z   1
loop_
 _symmetry_equiv_pos_site_id
 _symmetry_equiv_pos_as_xyz
  1  'x, y, z'
loop_
 _atom_site_type_symbol
 _atom_site_label
 _atom_site_symmetry_multiplicity
 _atom_site_fract_x
 _atom_site_fract_y
 _atom_site_fract_z
 _atom_site_occupancy
  Hf  Hf0  1  0.681640  0.316619  0.318360  1
  Hf  Hf1  1  0.318360  0.683381  0.681640  1
  Hf  Hf2  1  0.318851  0.681149  0.318851  1
  Hf  Hf3  1  0.681149  0.318851  0.681149  1
  Hf  Hf4  1  0.320982  0.319233  0.679018  1
  Hf  Hf5  1  0.679018  0.680767  0.320982  1
  Al  Al6  1  0.337326  0.336873  0.339420  1
  Al  Al7  1  0.662674  0.663127  0.660580  1
  Al  Al8  1  0.339305  0.336595  0.985353  1
  Al  Al9  1  0.339420  0.986381  0.337326  1
  Al  Al10  1  0.660695  0.663405  0.014647  1
  Al  Al11  1  0.660580  0.013619  0.662674  1
  Al  Al12  1  0.985353  0.338746  0.339305  1
  Al  Al13  1  0.014647  0.661254  0.660695  1
  Al  Al14  1  0.126027  0.117222  0.118563  1
  Al  Al15  1  0.873973  0.882778  0.881437  1
  Al  Al16  1  0.124373  0.122971  0.637085  1
  Al  Al17  1  0.118563  0.638189  0.126027  1
  Al  Al18  1  0.875627  0.877029  0.362915  1
  Al  Al19  1  0.881437  0.361811  0.873973  1
  Al  Al20  1  0.637085  0.115571  0.124373  1
  Al  Al21  1  0.362915  0.884429  0.875627  1
  Ir  Ir22  1  0.500000  0.000000  0.000000  1
  Ir  Ir23  1  0.000000  0.500000  0.500000  1
  Ir  Ir24  1  0.500000  0.000000  0.500000  1
  Pt  Pt25  1  0.000000  0.500000  0.000000  1
  Pt  Pt26  1  0.000000  0.000000  0.500000  1
  Pt  Pt27  1  0.500000  0.500000  0.000000  1
  Pt  Pt28  1  0.000000  0.000000  0.000000  1
