# generated using pymatgen
data_Ho3Mn2Co3(Ni2P3)2
_symmetry_space_group_name_H-M   'P 1'
_cell_length_a   3.71954100
_cell_length_b   10.59197900
_cell_length_c   12.28331300
_cell_angle_alpha   90.00000000
_cell_angle_beta   90.00000000
_cell_angle_gamma   90.00000000
_symmetry_Int_Tables_number   1
_chemical_formula_structural   Ho3Mn2Co3(Ni2P3)2
_chemical_formula_sum   'Ho6 Mn4 Co6 Ni8 P12'
_cell_volume   483.92936924
_cell_formula_units_Z   2
loop_
 _symmetry_equiv_pos_site_id
 _symmetry_equiv_pos_as_xyz
  1  'x, y, z'
loop_
 _atom_site_type_symbol
 _atom_site_label
 _atom_site_symmetry_multiplicity
 _atom_site_fract_x
 _atom_site_fract_y
 _atom_site_fract_z
 _atom_site_occupancy
  Ho  Ho0  1  0.000000  0.500000  0.524214  1
  Ho  Ho1  1  0.500000  0.000000  0.478826  1
  Ho  Ho2  1  0.500000  0.818009  0.202264  1
  Ho  Ho3  1  0.500000  0.181991  0.202264  1
  Ho  Ho4  1  0.000000  0.682359  0.796421  1
  Ho  Ho5  1  0.000000  0.317641  0.796421  1
  Mn  Mn6  1  0.500000  0.298645  0.429817  1
  Mn  Mn7  1  0.500000  0.701355  0.429817  1
  Mn  Mn8  1  0.500000  0.500000  0.155143  1
  Mn  Mn9  1  0.000000  0.000000  0.845121  1
  Co  Co10  1  0.000000  0.500000  0.986461  1
  Co  Co11  1  0.500000  0.000000  0.013818  1
  Co  Co12  1  0.500000  0.333169  0.993751  1
  Co  Co13  1  0.500000  0.666831  0.993751  1
  Co  Co14  1  0.000000  0.166506  0.005997  1
  Co  Co15  1  0.000000  0.833494  0.005997  1
  Ni  Ni16  1  0.000000  0.201182  0.569782  1
  Ni  Ni17  1  0.000000  0.798818  0.569782  1
  Ni  Ni18  1  0.500000  0.878274  0.711600  1
  Ni  Ni19  1  0.500000  0.121726  0.711600  1
  Ni  Ni20  1  0.000000  0.622805  0.288102  1
  Ni  Ni21  1  0.000000  0.377195  0.288102  1
  Ni  Ni22  1  0.500000  0.500000  0.704853  1
  Ni  Ni23  1  0.000000  0.000000  0.296706  1
  P  P24  1  0.500000  0.316279  0.615748  1
  P  P25  1  0.500000  0.683721  0.615748  1
  P  P26  1  0.000000  0.185027  0.382771  1
  P  P27  1  0.000000  0.814973  0.382771  1
  P  P28  1  0.500000  0.500000  0.882861  1
  P  P29  1  0.000000  0.000000  0.117038  1
  P  P30  1  0.500000  0.844639  0.895970  1
  P  P31  1  0.500000  0.155361  0.895970  1
  P  P32  1  0.000000  0.654858  0.103751  1
  P  P33  1  0.000000  0.345142  0.103751  1
  P  P34  1  0.500000  0.500000  0.348454  1
  P  P35  1  0.000000  0.000000  0.654559  1
