# generated using pymatgen
data_Y2HoLu7Cd3Ru
_symmetry_space_group_name_H-M   'P 1'
_cell_length_a   9.46482110
_cell_length_b   9.46241048
_cell_length_c   9.68699500
_cell_angle_alpha   90.00000000
_cell_angle_beta   90.00000000
_cell_angle_gamma   119.99157176
_symmetry_Int_Tables_number   1
_chemical_formula_structural   Y2HoLu7Cd3Ru
_chemical_formula_sum   'Y4 Ho2 Lu14 Cd6 Ru2'
_cell_volume   751.39928704
_cell_formula_units_Z   2
loop_
 _symmetry_equiv_pos_site_id
 _symmetry_equiv_pos_as_xyz
  1  'x, y, z'
loop_
 _atom_site_type_symbol
 _atom_site_label
 _atom_site_symmetry_multiplicity
 _atom_site_fract_x
 _atom_site_fract_y
 _atom_site_fract_z
 _atom_site_occupancy
  Y  Y0  1  0.918891  0.459445  0.250000  1
  Y  Y1  1  0.459803  0.540066  0.750000  1
  Y  Y2  1  0.459803  0.919737  0.750000  1
  Y  Y3  1  0.080202  0.540101  0.750000  1
  Ho  Ho4  1  0.539945  0.459732  0.250000  1
  Ho  Ho5  1  0.539945  0.080214  0.250000  1
  Lu  Lu6  1  0.000042  0.000021  0.500049  1
  Lu  Lu7  1  0.000042  0.000021  0.999951  1
  Lu  Lu8  1  0.210529  0.790199  0.440089  1
  Lu  Lu9  1  0.210529  0.420332  0.440089  1
  Lu  Lu10  1  0.579703  0.789852  0.439953  1
  Lu  Lu11  1  0.789523  0.209980  0.559541  1
  Lu  Lu12  1  0.789523  0.579542  0.559541  1
  Lu  Lu13  1  0.420612  0.210305  0.559285  1
  Lu  Lu14  1  0.789523  0.209980  0.940459  1
  Lu  Lu15  1  0.789523  0.579542  0.940459  1
  Lu  Lu16  1  0.420612  0.210305  0.940715  1
  Lu  Lu17  1  0.210529  0.790199  0.059911  1
  Lu  Lu18  1  0.210529  0.420332  0.059911  1
  Lu  Lu19  1  0.579703  0.789852  0.060047  1
  Cd  Cd20  1  0.886274  0.113127  0.250000  1
  Cd  Cd21  1  0.886274  0.773147  0.250000  1
  Cd  Cd22  1  0.227360  0.113680  0.250000  1
  Cd  Cd23  1  0.113271  0.886746  0.750000  1
  Cd  Cd24  1  0.113271  0.226525  0.750000  1
  Cd  Cd25  1  0.773512  0.886756  0.750000  1
  Ru  Ru26  1  0.333804  0.666902  0.250000  1
  Ru  Ru27  1  0.666725  0.333362  0.750000  1
