# generated using pymatgen
data_Cs2Co2RhS4
_symmetry_space_group_name_H-M   'P 1'
_cell_length_a   9.22552430
_cell_length_b   8.31290131
_cell_length_c   5.72301300
_cell_angle_alpha   79.86279311
_cell_angle_beta   62.49986580
_cell_angle_gamma   38.90437477
_symmetry_Int_Tables_number   1
_chemical_formula_structural   Cs2Co2RhS4
_chemical_formula_sum   'Cs2 Co2 Rh1 S4'
_cell_volume   230.87694869
_cell_formula_units_Z   1
loop_
 _symmetry_equiv_pos_site_id
 _symmetry_equiv_pos_as_xyz
  1  'x, y, z'
loop_
 _atom_site_type_symbol
 _atom_site_label
 _atom_site_symmetry_multiplicity
 _atom_site_fract_x
 _atom_site_fract_y
 _atom_site_fract_z
 _atom_site_occupancy
  Cs  Cs0  1  0.661270  0.661278  0.338728  1
  Cs  Cs1  1  0.338722  0.338730  0.661276  1
  Co  Co2  1  0.999995  0.000005  0.000003  1
  Co  Co3  1  0.999997  0.000003  0.500001  1
  Rh  Rh4  1  0.500036  0.499964  0.999987  1
  S  S5  1  0.249359  0.942917  0.077968  1
  S  S6  1  0.057083  0.750641  0.270245  1
  S  S7  1  0.942906  0.249370  0.729761  1
  S  S8  1  0.750630  0.057094  0.922036  1
