# generated using pymatgen
data_Nd16Y3HoSn16
_symmetry_space_group_name_H-M   'P 1'
_cell_length_a   8.24456700
_cell_length_b   8.39745200
_cell_length_c   15.92630500
_cell_angle_alpha   90.00000000
_cell_angle_beta   90.00000000
_cell_angle_gamma   89.99758311
_symmetry_Int_Tables_number   1
_chemical_formula_structural   Nd16Y3HoSn16
_chemical_formula_sum   'Nd16 Y3 Ho1 Sn16'
_cell_volume   1102.63153766
_cell_formula_units_Z   1
loop_
 _symmetry_equiv_pos_site_id
 _symmetry_equiv_pos_as_xyz
  1  'x, y, z'
loop_
 _atom_site_type_symbol
 _atom_site_label
 _atom_site_symmetry_multiplicity
 _atom_site_fract_x
 _atom_site_fract_y
 _atom_site_fract_z
 _atom_site_occupancy
  Nd  Nd0  1  0.017779  0.180939  0.401266  1
  Nd  Nd1  1  0.368114  0.837115  0.120642  1
  Nd  Nd2  1  0.131751  0.337206  0.620685  1
  Nd  Nd3  1  0.482314  0.680897  0.901234  1
  Nd  Nd4  1  0.868110  0.662864  0.120622  1
  Nd  Nd5  1  0.131751  0.337206  0.879315  1
  Nd  Nd6  1  0.482314  0.680897  0.598766  1
  Nd  Nd7  1  0.631969  0.162995  0.620676  1
  Nd  Nd8  1  0.868110  0.662864  0.379378  1
  Nd  Nd9  1  0.017779  0.180939  0.098734  1
  Nd  Nd10  1  0.982179  0.818998  0.901244  1
  Nd  Nd11  1  0.631969  0.162995  0.879324  1
  Nd  Nd12  1  0.517783  0.319063  0.098731  1
  Nd  Nd13  1  0.368114  0.837115  0.379358  1
  Nd  Nd14  1  0.982179  0.818998  0.598756  1
  Nd  Nd15  1  0.517783  0.319063  0.401269  1
  Y  Y16  1  0.199269  0.501921  0.250000  1
  Y  Y17  1  0.699269  0.998079  0.250000  1
  Y  Y18  1  0.300705  0.001915  0.750000  1
  Ho  Ho19  1  0.800600  0.497998  0.750000  1
  Sn  Sn20  1  0.791716  0.464655  0.543549  1
  Sn  Sn21  1  0.708283  0.964644  0.456572  1
  Sn  Sn22  1  0.675831  0.854222  0.750000  1
  Sn  Sn23  1  0.208290  0.535362  0.456570  1
  Sn  Sn24  1  0.291710  0.035365  0.956558  1
  Sn  Sn25  1  0.824263  0.354496  0.250000  1
  Sn  Sn26  1  0.791716  0.464655  0.956451  1
  Sn  Sn27  1  0.565225  0.616426  0.250000  1
  Sn  Sn28  1  0.208290  0.535362  0.043430  1
  Sn  Sn29  1  0.435011  0.383650  0.750000  1
  Sn  Sn30  1  0.175611  0.645470  0.750000  1
  Sn  Sn31  1  0.934725  0.116524  0.750000  1
  Sn  Sn32  1  0.291710  0.035365  0.543442  1
  Sn  Sn33  1  0.708283  0.964644  0.043428  1
  Sn  Sn34  1  0.324270  0.145501  0.250000  1
  Sn  Sn35  1  0.065225  0.883593  0.250000  1
