# generated using pymatgen
data_Ag(AsO3)2
_symmetry_space_group_name_H-M   'P 1'
_cell_length_a   4.95096465
_cell_length_b   10.98910727
_cell_length_c   8.56798800
_cell_angle_alpha   67.05545352
_cell_angle_beta   90.00000000
_cell_angle_gamma   76.89661202
_symmetry_Int_Tables_number   1
_chemical_formula_structural   Ag(AsO3)2
_chemical_formula_sum   'Ag4 As8 O24'
_cell_volume   416.06273719
_cell_formula_units_Z   4
loop_
 _symmetry_equiv_pos_site_id
 _symmetry_equiv_pos_as_xyz
  1  'x, y, z'
loop_
 _atom_site_type_symbol
 _atom_site_label
 _atom_site_symmetry_multiplicity
 _atom_site_fract_x
 _atom_site_fract_y
 _atom_site_fract_z
 _atom_site_occupancy
  Ag  Ag0  1  0.500000  0.000000  0.500000  1
  Ag  Ag1  1  0.250000  0.500000  0.250000  1
  Ag  Ag2  1  0.750000  0.500000  0.750000  1
  Ag  Ag3  1  0.000000  0.000000  0.000000  1
  As  As4  1  0.625000  0.750000  0.291563  1
  As  As5  1  0.375000  0.250000  0.041563  1
  As  As6  1  0.125000  0.750000  0.791563  1
  As  As7  1  0.875000  0.250000  0.541563  1
  As  As8  1  0.125000  0.750000  0.458437  1
  As  As9  1  0.875000  0.250000  0.208437  1
  As  As10  1  0.625000  0.750000  0.958437  1
  As  As11  1  0.375000  0.250000  0.708437  1
  O  O12  1  0.759895  0.855519  0.384364  1
  O  O13  1  0.509895  0.355519  0.134364  1
  O  O14  1  0.259895  0.855519  0.884364  1
  O  O15  1  0.009895  0.355519  0.634364  1
  O  O16  1  0.196304  0.855470  0.572265  1
  O  O17  1  0.946304  0.355470  0.322265  1
  O  O18  1  0.696304  0.855470  0.072265  1
  O  O19  1  0.446304  0.355470  0.822265  1
  O  O20  1  0.259895  0.855519  0.260116  1
  O  O21  1  0.009895  0.355519  0.010116  1
  O  O22  1  0.759895  0.855519  0.760116  1
  O  O23  1  0.509895  0.355519  0.510116  1
  O  O24  1  0.053696  0.644530  0.677735  1
  O  O25  1  0.803696  0.144530  0.427735  1
  O  O26  1  0.553696  0.644530  0.177735  1
  O  O27  1  0.303696  0.144530  0.927735  1
  O  O28  1  0.490105  0.644481  0.489884  1
  O  O29  1  0.240105  0.144481  0.239884  1
  O  O30  1  0.990105  0.644481  0.989884  1
  O  O31  1  0.740105  0.144481  0.739884  1
  O  O32  1  0.990105  0.644481  0.365636  1
  O  O33  1  0.740105  0.144481  0.115636  1
  O  O34  1  0.490105  0.644481  0.865636  1
  O  O35  1  0.240105  0.144481  0.615636  1
