# generated using pymatgen
data_EuPu2O6
_symmetry_space_group_name_H-M   'P 1'
_cell_length_a   6.47726800
_cell_length_b   6.47726750
_cell_length_c   6.47726800
_cell_angle_alpha   146.23365021
_cell_angle_beta   131.23792336
_cell_angle_gamma   60.62666326
_symmetry_Int_Tables_number   1
_chemical_formula_structural   EuPu2O6
_chemical_formula_sum   'Eu1 Pu2 O6'
_cell_volume   112.50128844
_cell_formula_units_Z   1
loop_
 _symmetry_equiv_pos_site_id
 _symmetry_equiv_pos_as_xyz
  1  'x, y, z'
loop_
 _atom_site_type_symbol
 _atom_site_label
 _atom_site_symmetry_multiplicity
 _atom_site_fract_x
 _atom_site_fract_y
 _atom_site_fract_z
 _atom_site_occupancy
  Eu  Eu0  1  0.000000  0.000000  0.000000  1
  Pu  Pu1  1  0.666181  0.666181  0.000000  1
  Pu  Pu2  1  0.333819  0.333819  0.000000  1
  O  O3  1  0.571649  0.828508  0.743141  1
  O  O4  1  0.261894  0.500000  0.761894  1
  O  O5  1  0.914633  0.171492  0.743141  1
  O  O6  1  0.085367  0.828508  0.256859  1
  O  O7  1  0.738106  0.500000  0.238106  1
  O  O8  1  0.428351  0.171492  0.256859  1
