# generated using pymatgen
data_Ho8Be3Si13Mo12
_symmetry_space_group_name_H-M   'P 1'
_cell_length_a   6.70962902
_cell_length_b   6.86773985
_cell_length_c   12.89289600
_cell_angle_alpha   90.00000000
_cell_angle_beta   90.00000000
_cell_angle_gamma   90.09740740
_symmetry_Int_Tables_number   1
_chemical_formula_structural   Ho8Be3Si13Mo12
_chemical_formula_sum   'Ho8 Be3 Si13 Mo12'
_cell_volume   594.10361671
_cell_formula_units_Z   1
loop_
 _symmetry_equiv_pos_site_id
 _symmetry_equiv_pos_as_xyz
  1  'x, y, z'
loop_
 _atom_site_type_symbol
 _atom_site_label
 _atom_site_symmetry_multiplicity
 _atom_site_fract_x
 _atom_site_fract_y
 _atom_site_fract_z
 _atom_site_occupancy
  Ho  Ho0  1  0.499165  0.334485  0.093558  1
  Ho  Ho1  1  0.000849  0.169430  0.405252  1
  Ho  Ho2  1  0.498236  0.667382  0.596919  1
  Ho  Ho3  1  0.998868  0.833231  0.903162  1
  Ho  Ho4  1  0.498236  0.667382  0.903081  1
  Ho  Ho5  1  0.998868  0.833231  0.596838  1
  Ho  Ho6  1  0.499165  0.334485  0.406442  1
  Ho  Ho7  1  0.000849  0.169430  0.094748  1
  Be  Be8  1  0.540594  0.367742  0.750000  1
  Be  Be9  1  0.041589  0.132758  0.750000  1
  Be  Be10  1  0.458300  0.635573  0.250000  1
  Si  Si11  1  0.660703  0.043859  0.544444  1
  Si  Si12  1  0.160175  0.455084  0.954324  1
  Si  Si13  1  0.339536  0.956315  0.044133  1
  Si  Si14  1  0.838691  0.542006  0.456810  1
  Si  Si15  1  0.339536  0.956315  0.455867  1
  Si  Si16  1  0.838691  0.542006  0.043190  1
  Si  Si17  1  0.660703  0.043859  0.955556  1
  Si  Si18  1  0.160175  0.455084  0.545676  1
  Si  Si19  1  0.963993  0.867026  0.250000  1
  Si  Si20  1  0.795050  0.618572  0.750000  1
  Si  Si21  1  0.295158  0.881030  0.750000  1
  Si  Si22  1  0.204609  0.379669  0.250000  1
  Si  Si23  1  0.696843  0.129428  0.250000  1
  Mo  Mo24  1  0.836597  0.328694  0.628291  1
  Mo  Mo25  1  0.337168  0.170157  0.871919  1
  Mo  Mo26  1  0.168037  0.665677  0.125070  1
  Mo  Mo27  1  0.665313  0.829513  0.373131  1
  Mo  Mo28  1  0.168037  0.665677  0.374930  1
  Mo  Mo29  1  0.665313  0.829513  0.126869  1
  Mo  Mo30  1  0.836597  0.328694  0.871709  1
  Mo  Mo31  1  0.337168  0.170157  0.628081  1
  Mo  Mo32  1  0.664893  0.013144  0.750000  1
  Mo  Mo33  1  0.163674  0.486935  0.750000  1
  Mo  Mo34  1  0.335327  0.992936  0.250000  1
  Mo  Mo35  1  0.833293  0.503520  0.250000  1
