# generated using pymatgen
data_Dy2Pa(Co3B2)3
_symmetry_space_group_name_H-M   'P 1'
_cell_length_a   5.84638096
_cell_length_b   5.84638001
_cell_length_c   5.84637940
_cell_angle_alpha   94.93635197
_cell_angle_beta   94.93635049
_cell_angle_gamma   94.93636812
_symmetry_Int_Tables_number   1
_chemical_formula_structural   Dy2Pa(Co3B2)3
_chemical_formula_sum   'Dy2 Pa1 Co9 B6'
_cell_volume   197.46949588
_cell_formula_units_Z   1
loop_
 _symmetry_equiv_pos_site_id
 _symmetry_equiv_pos_as_xyz
  1  'x, y, z'
loop_
 _atom_site_type_symbol
 _atom_site_label
 _atom_site_symmetry_multiplicity
 _atom_site_fract_x
 _atom_site_fract_y
 _atom_site_fract_z
 _atom_site_occupancy
  Dy  Dy0  1  0.664939  0.664939  0.664939  1
  Dy  Dy1  1  0.335061  0.335061  0.335061  1
  Pa  Pa2  1  0.000000  0.000000  0.000000  1
  Co  Co3  1  0.000000  0.000000  0.500000  1
  Co  Co4  1  0.500000  0.000000  0.000000  1
  Co  Co5  1  0.000000  0.500000  0.000000  1
  Co  Co6  1  0.673421  0.169029  0.673421  1
  Co  Co7  1  0.673421  0.673421  0.169029  1
  Co  Co8  1  0.169029  0.673421  0.673421  1
  Co  Co9  1  0.326579  0.830971  0.326579  1
  Co  Co10  1  0.326579  0.326579  0.830971  1
  Co  Co11  1  0.830971  0.326579  0.326579  1
  B  B12  1  0.660820  0.339180  0.000000  1
  B  B13  1  0.000000  0.660820  0.339180  1
  B  B14  1  0.339180  0.000000  0.660820  1
  B  B15  1  0.000000  0.339180  0.660820  1
  B  B16  1  0.660820  0.000000  0.339180  1
  B  B17  1  0.339180  0.660820  0.000000  1
