# generated using pymatgen
data_NdSbHPd
_symmetry_space_group_name_H-M   'P 1'
_cell_length_a   4.38073200
_cell_length_b   4.38073200
_cell_length_c   7.70172200
_cell_angle_alpha   90.00000000
_cell_angle_beta   90.00000000
_cell_angle_gamma   90.00000000
_symmetry_Int_Tables_number   1
_chemical_formula_structural   NdSbHPd
_chemical_formula_sum   'Nd2 Sb2 H2 Pd2'
_cell_volume   147.80230557
_cell_formula_units_Z   2
loop_
 _symmetry_equiv_pos_site_id
 _symmetry_equiv_pos_as_xyz
  1  'x, y, z'
loop_
 _atom_site_type_symbol
 _atom_site_label
 _atom_site_symmetry_multiplicity
 _atom_site_fract_x
 _atom_site_fract_y
 _atom_site_fract_z
 _atom_site_occupancy
  Nd  Nd0  1  0.500000  0.000000  0.347868  1
  Nd  Nd1  1  0.000000  0.500000  0.652132  1
  Sb  Sb2  1  0.500000  0.000000  0.796955  1
  Sb  Sb3  1  0.000000  0.500000  0.203045  1
  H  H4  1  0.000000  0.000000  0.500000  1
  H  H5  1  0.500000  0.500000  0.500000  1
  Pd  Pd6  1  0.000000  0.000000  0.000000  1
  Pd  Pd7  1  0.500000  0.500000  0.000000  1
