# generated using pymatgen
data_TbTm7Hf11Si16Os
_symmetry_space_group_name_H-M   'P 1'
_cell_length_a   7.20554031
_cell_length_b   7.20767401
_cell_length_c   13.17868280
_cell_angle_alpha   89.91411890
_cell_angle_beta   90.03236176
_cell_angle_gamma   90.03940885
_symmetry_Int_Tables_number   1
_chemical_formula_structural   TbTm7Hf11Si16Os
_chemical_formula_sum   'Tb1 Tm7 Hf11 Si16 Os1'
_cell_volume   684.43629772
_cell_formula_units_Z   1
loop_
 _symmetry_equiv_pos_site_id
 _symmetry_equiv_pos_as_xyz
  1  'x, y, z'
loop_
 _atom_site_type_symbol
 _atom_site_label
 _atom_site_symmetry_multiplicity
 _atom_site_fract_x
 _atom_site_fract_y
 _atom_site_fract_z
 _atom_site_occupancy
  Tb  Tb0  1  0.654951  0.005737  0.282482  1
  Tm  Tm1  1  0.999127  0.344452  0.211543  1
  Tm  Tm2  1  0.005147  0.654467  0.717534  1
  Tm  Tm3  1  0.155464  0.495059  0.465333  1
  Tm  Tm4  1  0.501444  0.846434  0.032460  1
  Tm  Tm5  1  0.846732  0.501753  0.967063  1
  Tm  Tm6  1  0.494882  0.155396  0.535121  1
  Tm  Tm7  1  0.344139  0.998772  0.788321  1
  Hf  Hf8  1  0.824848  0.824513  0.500304  1
  Hf  Hf9  1  0.324115  0.674964  0.247748  1
  Hf  Hf10  1  0.675287  0.324335  0.752199  1
  Hf  Hf11  1  0.146535  0.998580  0.372134  1
  Hf  Hf12  1  0.853359  0.003866  0.878266  1
  Hf  Hf13  1  0.501943  0.646329  0.625817  1
  Hf  Hf14  1  0.352595  0.497703  0.876533  1
  Hf  Hf15  1  0.497068  0.352700  0.122988  1
  Hf  Hf16  1  0.646461  0.502228  0.374654  1
  Hf  Hf17  1  0.998816  0.145990  0.628274  1
  Hf  Hf18  1  0.003922  0.852838  0.121263  1
  Si  Si19  1  0.357786  0.296044  0.315783  1
  Si  Si20  1  0.641245  0.704958  0.819132  1
  Si  Si21  1  0.205570  0.859857  0.567656  1
  Si  Si22  1  0.138088  0.794091  0.930369  1
  Si  Si23  1  0.794761  0.138275  0.069032  1
  Si  Si24  1  0.861140  0.206616  0.433399  1
  Si  Si25  1  0.295001  0.358712  0.684093  1
  Si  Si26  1  0.705316  0.639764  0.180567  1
  Si  Si27  1  0.292878  0.054610  0.179506  1
  Si  Si28  1  0.702185  0.950881  0.686141  1
  Si  Si29  1  0.448715  0.797440  0.435296  1
  Si  Si30  1  0.204464  0.547213  0.064072  1
  Si  Si31  1  0.547107  0.204508  0.935631  1
  Si  Si32  1  0.798403  0.449820  0.565452  1
  Si  Si33  1  0.054208  0.294399  0.820027  1
  Si  Si34  1  0.951525  0.701736  0.313893  1
  Os  Os35  1  0.174777  0.174964  0.999911  1
