# generated using pymatgen
data_Tb2YTcB7
_symmetry_space_group_name_H-M   'P 1'
_cell_length_a   8.12354093
_cell_length_b   8.12354056
_cell_length_c   9.37435100
_cell_angle_alpha   90.00000000
_cell_angle_beta   90.00000000
_cell_angle_gamma   154.72886272
_symmetry_Int_Tables_number   1
_chemical_formula_structural   Tb2YTcB7
_chemical_formula_sum   'Tb4 Y2 Tc2 B14'
_cell_volume   264.09520179
_cell_formula_units_Z   2
loop_
 _symmetry_equiv_pos_site_id
 _symmetry_equiv_pos_as_xyz
  1  'x, y, z'
loop_
 _atom_site_type_symbol
 _atom_site_label
 _atom_site_symmetry_multiplicity
 _atom_site_fract_x
 _atom_site_fract_y
 _atom_site_fract_z
 _atom_site_occupancy
  Tb  Tb0  1  0.895170  0.104830  0.939524  1
  Tb  Tb1  1  0.104830  0.895170  0.060476  1
  Tb  Tb2  1  0.895170  0.104830  0.560476  1
  Tb  Tb3  1  0.104830  0.895170  0.439524  1
  Y  Y4  1  0.758494  0.241506  0.250000  1
  Y  Y5  1  0.241506  0.758494  0.750000  1
  Tc  Tc6  1  0.053192  0.946808  0.750000  1
  Tc  Tc7  1  0.946808  0.053192  0.250000  1
  B  B8  1  0.541339  0.458661  0.250000  1
  B  B9  1  0.458661  0.541339  0.750000  1
  B  B10  1  0.521108  0.478892  0.904057  1
  B  B11  1  0.478892  0.521108  0.095943  1
  B  B12  1  0.478892  0.521108  0.404057  1
  B  B13  1  0.521108  0.478892  0.595943  1
  B  B14  1  0.631561  0.368439  0.848732  1
  B  B15  1  0.368439  0.631561  0.151268  1
  B  B16  1  0.727004  0.272996  0.966724  1
  B  B17  1  0.272996  0.727004  0.033276  1
  B  B18  1  0.272996  0.727004  0.466724  1
  B  B19  1  0.727004  0.272996  0.533276  1
  B  B20  1  0.631561  0.368439  0.651268  1
  B  B21  1  0.368439  0.631561  0.348732  1
