# generated using pymatgen
data_YTm19(Hg3Pt)2
_symmetry_space_group_name_H-M   'P 1'
_cell_length_a   9.54573700
_cell_length_b   9.55036837
_cell_length_c   9.72202300
_cell_angle_alpha   90.00000000
_cell_angle_beta   90.00000000
_cell_angle_gamma   120.01605779
_symmetry_Int_Tables_number   1
_chemical_formula_structural   YTm19(Hg3Pt)2
_chemical_formula_sum   'Y1 Tm19 Hg6 Pt2'
_cell_volume   767.44377604
_cell_formula_units_Z   1
loop_
 _symmetry_equiv_pos_site_id
 _symmetry_equiv_pos_as_xyz
  1  'x, y, z'
loop_
 _atom_site_type_symbol
 _atom_site_label
 _atom_site_symmetry_multiplicity
 _atom_site_fract_x
 _atom_site_fract_y
 _atom_site_fract_z
 _atom_site_occupancy
  Y  Y0  1  0.084017  0.542009  0.250000  1
  Tm  Tm1  1  0.208625  0.792917  0.941120  1
  Tm  Tm2  1  0.208625  0.415709  0.941120  1
  Tm  Tm3  1  0.583646  0.791823  0.941786  1
  Tm  Tm4  1  0.790544  0.207457  0.057278  1
  Tm  Tm5  1  0.790544  0.583088  0.057278  1
  Tm  Tm6  1  0.416326  0.208163  0.057595  1
  Tm  Tm7  1  0.790544  0.207457  0.442722  1
  Tm  Tm8  1  0.790544  0.583088  0.442722  1
  Tm  Tm9  1  0.416326  0.208163  0.442405  1
  Tm  Tm10  1  0.208625  0.792917  0.558880  1
  Tm  Tm11  1  0.208625  0.415709  0.558880  1
  Tm  Tm12  1  0.583646  0.791823  0.558214  1
  Tm  Tm13  1  0.542294  0.458229  0.750000  1
  Tm  Tm14  1  0.542294  0.084064  0.750000  1
  Tm  Tm15  1  0.916777  0.458387  0.750000  1
  Tm  Tm16  1  0.459182  0.541718  0.250000  1
  Tm  Tm17  1  0.459182  0.917465  0.250000  1
  Tm  Tm18  1  0.999625  0.999812  0.000109  1
  Tm  Tm19  1  0.999625  0.999812  0.499891  1
  Hg  Hg20  1  0.881778  0.117796  0.750000  1
  Hg  Hg21  1  0.881778  0.763983  0.750000  1
  Hg  Hg22  1  0.236242  0.118122  0.750000  1
  Hg  Hg23  1  0.118734  0.884515  0.250000  1
  Hg  Hg24  1  0.118734  0.234217  0.250000  1
  Hg  Hg25  1  0.764387  0.882193  0.250000  1
  Pt  Pt26  1  0.332700  0.666351  0.750000  1
  Pt  Pt27  1  0.666031  0.333015  0.250000  1
