# generated using pymatgen
data_Tb6NdCo2Sn23Rh4
_symmetry_space_group_name_H-M   'P 1'
_cell_length_a   9.85630372
_cell_length_b   9.85603180
_cell_length_c   10.09546338
_cell_angle_alpha   89.99999780
_cell_angle_beta   90.01859790
_cell_angle_gamma   119.99909332
_symmetry_Int_Tables_number   1
_chemical_formula_structural   Tb6NdCo2Sn23Rh4
_chemical_formula_sum   'Tb6 Nd1 Co2 Sn23 Rh4'
_cell_volume   849.33104815
_cell_formula_units_Z   1
loop_
 _symmetry_equiv_pos_site_id
 _symmetry_equiv_pos_as_xyz
  1  'x, y, z'
loop_
 _atom_site_type_symbol
 _atom_site_label
 _atom_site_symmetry_multiplicity
 _atom_site_fract_x
 _atom_site_fract_y
 _atom_site_fract_z
 _atom_site_occupancy
  Tb  Tb0  1  0.478932  0.521347  0.306819  1
  Tb  Tb1  1  0.521068  0.478653  0.693181  1
  Tb  Tb2  1  0.478932  0.957585  0.306819  1
  Tb  Tb3  1  0.521068  0.042415  0.693181  1
  Tb  Tb4  1  0.043225  0.521612  0.306894  1
  Tb  Tb5  1  0.956775  0.478388  0.693106  1
  Nd  Nd6  1  0.000000  0.000000  0.000000  1
  Co  Co7  1  0.337026  0.168513  0.198684  1
  Co  Co8  1  0.662974  0.831487  0.801316  1
  Sn  Sn9  1  0.351134  0.004656  0.004712  1
  Sn  Sn10  1  0.648866  0.995344  0.995288  1
  Sn  Sn11  1  0.000000  0.351772  0.000000  1
  Sn  Sn12  1  0.000000  0.648228  0.000000  1
  Sn  Sn13  1  0.648866  0.653522  0.995288  1
  Sn  Sn14  1  0.351134  0.346478  0.004712  1
  Sn  Sn15  1  0.338309  0.669155  0.818871  1
  Sn  Sn16  1  0.661691  0.330845  0.181129  1
  Sn  Sn17  1  0.000000  0.000000  0.500000  1
  Sn  Sn18  1  0.778942  0.221277  0.455830  1
  Sn  Sn19  1  0.221058  0.778723  0.544170  1
  Sn  Sn20  1  0.778942  0.557665  0.455830  1
  Sn  Sn21  1  0.221058  0.442335  0.544170  1
  Sn  Sn22  1  0.438590  0.219295  0.450442  1
  Sn  Sn23  1  0.561410  0.780705  0.549558  1
  Sn  Sn24  1  0.333362  0.666682  0.117552  1
  Sn  Sn25  1  0.666638  0.333318  0.882448  1
  Sn  Sn26  1  0.123382  0.887124  0.277002  1
  Sn  Sn27  1  0.876618  0.112876  0.722998  1
  Sn  Sn28  1  0.123382  0.236260  0.277002  1
  Sn  Sn29  1  0.876618  0.763740  0.722998  1
  Sn  Sn30  1  0.759174  0.879587  0.281870  1
  Sn  Sn31  1  0.240826  0.120413  0.718130  1
  Rh  Rh32  1  0.831180  0.167628  0.197797  1
  Rh  Rh33  1  0.168820  0.832372  0.802203  1
  Rh  Rh34  1  0.831180  0.663552  0.197797  1
  Rh  Rh35  1  0.168820  0.336448  0.802203  1
