# generated using pymatgen
data_YbYHoCoSn6
_symmetry_space_group_name_H-M   'P 1'
_cell_length_a   8.41819550
_cell_length_b   8.41819526
_cell_length_c   13.16647400
_cell_angle_alpha   90.00000000
_cell_angle_beta   90.00000000
_cell_angle_gamma   148.10918045
_symmetry_Int_Tables_number   1
_chemical_formula_structural   YbYHoCoSn6
_chemical_formula_sum   'Yb2 Y2 Ho2 Co2 Sn12'
_cell_volume   492.93537717
_cell_formula_units_Z   2
loop_
 _symmetry_equiv_pos_site_id
 _symmetry_equiv_pos_as_xyz
  1  'x, y, z'
loop_
 _atom_site_type_symbol
 _atom_site_label
 _atom_site_symmetry_multiplicity
 _atom_site_fract_x
 _atom_site_fract_y
 _atom_site_fract_z
 _atom_site_occupancy
  Yb  Yb0  1  0.100389  0.899611  0.903313  1
  Yb  Yb1  1  0.899611  0.100389  0.403313  1
  Y  Y2  1  0.898351  0.101649  0.095420  1
  Y  Y3  1  0.101649  0.898351  0.595420  1
  Ho  Ho4  1  0.901236  0.098764  0.751430  1
  Ho  Ho5  1  0.098764  0.901236  0.251430  1
  Co  Co6  1  0.298353  0.701647  0.249516  1
  Co  Co7  1  0.701647  0.298353  0.749516  1
  Sn  Sn8  1  0.759393  0.240607  0.571937  1
  Sn  Sn9  1  0.427265  0.572735  0.576377  1
  Sn  Sn10  1  0.572831  0.427169  0.424882  1
  Sn  Sn11  1  0.733300  0.266700  0.249463  1
  Sn  Sn12  1  0.266700  0.733300  0.749463  1
  Sn  Sn13  1  0.240607  0.759393  0.071937  1
  Sn  Sn14  1  0.243299  0.756701  0.428411  1
  Sn  Sn15  1  0.572735  0.427265  0.076377  1
  Sn  Sn16  1  0.454809  0.545191  0.249252  1
  Sn  Sn17  1  0.545191  0.454809  0.749252  1
  Sn  Sn18  1  0.756701  0.243299  0.928411  1
  Sn  Sn19  1  0.427169  0.572831  0.924882  1
