# generated using pymatgen
data_Rb3HoTe2O9
_symmetry_space_group_name_H-M   'P 1'
_cell_length_a   6.07302200
_cell_length_b   6.07417961
_cell_length_c   14.61787400
_cell_angle_alpha   90.00000000
_cell_angle_beta   90.00000000
_cell_angle_gamma   120.00756138
_symmetry_Int_Tables_number   1
_chemical_formula_structural   Rb3HoTe2O9
_chemical_formula_sum   'Rb6 Ho2 Te4 O18'
_cell_volume   466.95414486
_cell_formula_units_Z   2
loop_
 _symmetry_equiv_pos_site_id
 _symmetry_equiv_pos_as_xyz
  1  'x, y, z'
loop_
 _atom_site_type_symbol
 _atom_site_label
 _atom_site_symmetry_multiplicity
 _atom_site_fract_x
 _atom_site_fract_y
 _atom_site_fract_z
 _atom_site_occupancy
  Rb  Rb0  1  0.333343  0.666705  0.899396  1
  Rb  Rb1  1  0.999948  0.000052  0.750000  1
  Rb  Rb2  1  0.666657  0.333295  0.399396  1
  Rb  Rb3  1  0.666657  0.333295  0.100604  1
  Rb  Rb4  1  0.000052  0.999948  0.250000  1
  Rb  Rb5  1  0.333343  0.666705  0.600604  1
  Ho  Ho6  1  0.000000  0.000000  0.500000  1
  Ho  Ho7  1  0.000000  0.000000  0.000000  1
  Te  Te8  1  0.333298  0.666590  0.348225  1
  Te  Te9  1  0.333298  0.666590  0.151775  1
  Te  Te10  1  0.666702  0.333410  0.651775  1
  Te  Te11  1  0.666702  0.333410  0.848225  1
  O  O12  1  0.177383  0.822530  0.086142  1
  O  O13  1  0.177384  0.354760  0.086151  1
  O  O14  1  0.645219  0.822562  0.086145  1
  O  O15  1  0.354781  0.177438  0.586145  1
  O  O16  1  0.822616  0.645240  0.913849  1
  O  O17  1  0.822617  0.177470  0.586142  1
  O  O18  1  0.822616  0.645240  0.586151  1
  O  O19  1  0.177383  0.822530  0.413858  1
  O  O20  1  0.645219  0.822562  0.413855  1
  O  O21  1  0.354781  0.177438  0.913855  1
  O  O22  1  0.822617  0.177470  0.913858  1
  O  O23  1  0.177384  0.354760  0.413849  1
  O  O24  1  0.472426  0.944754  0.250000  1
  O  O25  1  0.527586  0.472436  0.750000  1
  O  O26  1  0.944879  0.472503  0.750000  1
  O  O27  1  0.055121  0.527497  0.250000  1
  O  O28  1  0.472414  0.527564  0.250000  1
  O  O29  1  0.527574  0.055246  0.750000  1
