# generated using pymatgen
data_Tb3Er5(B6Os)4
_symmetry_space_group_name_H-M   'P 1'
_cell_length_a   3.64247600
_cell_length_b   9.12609700
_cell_length_c   11.51827500
_cell_angle_alpha   90.00191564
_cell_angle_beta   90.00000000
_cell_angle_gamma   90.00000000
_symmetry_Int_Tables_number   1
_chemical_formula_structural   Tb3Er5(B6Os)4
_chemical_formula_sum   'Tb3 Er5 B24 Os4'
_cell_volume   382.88576684
_cell_formula_units_Z   1
loop_
 _symmetry_equiv_pos_site_id
 _symmetry_equiv_pos_as_xyz
  1  'x, y, z'
loop_
 _atom_site_type_symbol
 _atom_site_label
 _atom_site_symmetry_multiplicity
 _atom_site_fract_x
 _atom_site_fract_y
 _atom_site_fract_z
 _atom_site_occupancy
  Tb  Tb0  1  0.000000  0.322334  0.413775  1
  Tb  Tb1  1  0.000000  0.677671  0.586329  1
  Tb  Tb2  1  0.000000  0.822400  0.086139  1
  Er  Er3  1  0.000000  0.177763  0.913929  1
  Er  Er4  1  0.000000  0.944405  0.372915  1
  Er  Er5  1  0.000000  0.055765  0.627139  1
  Er  Er6  1  0.000000  0.444128  0.126612  1
  Er  Er7  1  0.000000  0.555506  0.873168  1
  B  B8  1  0.500000  0.554227  0.432634  1
  B  B9  1  0.500000  0.445571  0.567615  1
  B  B10  1  0.500000  0.054532  0.066626  1
  B  B11  1  0.500000  0.946586  0.932746  1
  B  B12  1  0.500000  0.748808  0.419569  1
  B  B13  1  0.500000  0.251155  0.580749  1
  B  B14  1  0.500000  0.248469  0.079479  1
  B  B15  1  0.500000  0.751586  0.919573  1
  B  B16  1  0.500000  0.791529  0.266579  1
  B  B17  1  0.500000  0.208091  0.734098  1
  B  B18  1  0.500000  0.291411  0.232888  1
  B  B19  1  0.500000  0.708710  0.766842  1
  B  B20  1  0.500000  0.631583  0.185224  1
  B  B21  1  0.500000  0.367609  0.815208  1
  B  B22  1  0.500000  0.131722  0.314462  1
  B  B23  1  0.500000  0.868697  0.685600  1
  B  B24  1  0.500000  0.983812  0.213201  1
  B  B25  1  0.500000  0.017267  0.786995  1
  B  B26  1  0.500000  0.483538  0.286344  1
  B  B27  1  0.500000  0.516042  0.713806  1
  B  B28  1  0.500000  0.606051  0.029333  1
  B  B29  1  0.500000  0.392539  0.970217  1
  B  B30  1  0.500000  0.105681  0.470778  1
  B  B31  1  0.500000  0.894477  0.529334  1
  Os  Os32  1  0.000000  0.638280  0.320926  1
  Os  Os33  1  0.000000  0.361371  0.679393  1
  Os  Os34  1  0.000000  0.138294  0.178495  1
  Os  Os35  1  0.000000  0.862388  0.821281  1
