# generated using pymatgen
data_IrPdBrF18
_symmetry_space_group_name_H-M   'P 1'
_cell_length_a   5.06445466
_cell_length_b   8.78958737
_cell_length_c   8.79396900
_cell_angle_alpha   61.11928847
_cell_angle_beta   85.74338713
_cell_angle_gamma   85.54227541
_symmetry_Int_Tables_number   1
_chemical_formula_structural   IrPdBrF18
_chemical_formula_sum   'Ir1 Pd1 Br1 F18'
_cell_volume   341.43324048
_cell_formula_units_Z   1
loop_
 _symmetry_equiv_pos_site_id
 _symmetry_equiv_pos_as_xyz
  1  'x, y, z'
loop_
 _atom_site_type_symbol
 _atom_site_label
 _atom_site_symmetry_multiplicity
 _atom_site_fract_x
 _atom_site_fract_y
 _atom_site_fract_z
 _atom_site_occupancy
  Ir  Ir0  1  0.409149  0.667873  0.668966  1
  Pd  Pd1  1  0.001150  0.000404  0.000039  1
  Br  Br2  1  0.588926  0.331811  0.330968  1
  F  F3  1  0.135081  0.895359  0.225818  1
  F  F4  1  0.868805  0.105241  0.774280  1
  F  F5  1  0.868489  0.785470  0.048524  1
  F  F6  1  0.134894  0.215239  0.952253  1
  F  F7  1  0.674360  0.059259  0.084773  1
  F  F8  1  0.327614  0.941375  0.914619  1
  F  F9  1  0.211163  0.582448  0.880247  1
  F  F10  1  0.781413  0.415126  0.128027  1
  F  F11  1  0.607673  0.754008  0.457888  1
  F  F12  1  0.396583  0.247492  0.534458  1
  F  F13  1  0.162184  0.585792  0.580452  1
  F  F14  1  0.825940  0.410008  0.417971  1
  F  F15  1  0.656935  0.749231  0.757335  1
  F  F16  1  0.352987  0.254012  0.243073  1
  F  F17  1  0.213977  0.880903  0.586843  1
  F  F18  1  0.777095  0.126472  0.409944  1
  F  F19  1  0.604320  0.454883  0.751567  1
  F  F20  1  0.401257  0.537594  0.251957  1
