# generated using pymatgen
data_Ba2NpCdO6
_symmetry_space_group_name_H-M   'P 1'
_cell_length_a   6.16016219
_cell_length_b   6.16016276
_cell_length_c   6.16016300
_cell_angle_alpha   60.00000409
_cell_angle_beta   60.00000101
_cell_angle_gamma   60.00000065
_symmetry_Int_Tables_number   1
_chemical_formula_structural   Ba2NpCdO6
_chemical_formula_sum   'Ba2 Np1 Cd1 O6'
_cell_volume   165.29570100
_cell_formula_units_Z   1
loop_
 _symmetry_equiv_pos_site_id
 _symmetry_equiv_pos_as_xyz
  1  'x, y, z'
loop_
 _atom_site_type_symbol
 _atom_site_label
 _atom_site_symmetry_multiplicity
 _atom_site_fract_x
 _atom_site_fract_y
 _atom_site_fract_z
 _atom_site_occupancy
  Ba  Ba0  1  0.250000  0.250000  0.250000  1
  Ba  Ba1  1  0.750000  0.750000  0.750000  1
  Np  Np2  1  0.000000  0.000000  0.000000  1
  Cd  Cd3  1  0.500000  0.500000  0.500000  1
  O  O4  1  0.762461  0.237539  0.237539  1
  O  O5  1  0.237539  0.762461  0.762461  1
  O  O6  1  0.237539  0.762461  0.237539  1
  O  O7  1  0.762461  0.237539  0.762461  1
  O  O8  1  0.237539  0.237539  0.762461  1
  O  O9  1  0.762461  0.762461  0.237539  1
