# generated using pymatgen
data_K3Co4(TcP3)2
_symmetry_space_group_name_H-M   'P 1'
_cell_length_a   9.01185961
_cell_length_b   9.01566869
_cell_length_c   9.01566865
_cell_angle_alpha   155.62056810
_cell_angle_beta   84.42700870
_cell_angle_gamma   100.73807346
_symmetry_Int_Tables_number   1
_chemical_formula_structural   K3Co4(TcP3)2
_chemical_formula_sum   'K3 Co4 Tc2 P6'
_cell_volume   292.26905365
_cell_formula_units_Z   1
loop_
 _symmetry_equiv_pos_site_id
 _symmetry_equiv_pos_as_xyz
  1  'x, y, z'
loop_
 _atom_site_type_symbol
 _atom_site_label
 _atom_site_symmetry_multiplicity
 _atom_site_fract_x
 _atom_site_fract_y
 _atom_site_fract_z
 _atom_site_occupancy
  K  K0  1  0.333900  0.334798  0.999102  1
  K  K1  1  0.668816  0.667044  0.001772  1
  K  K2  1  0.997467  0.998210  0.999257  1
  Co  Co3  1  0.757895  0.508087  0.249808  1
  Co  Co4  1  0.075650  0.825191  0.250459  1
  Co  Co5  1  0.414531  0.166662  0.247869  1
  Co  Co6  1  0.923375  0.166581  0.756795  1
  Tc  Tc7  1  0.584211  0.837389  0.746821  1
  Tc  Tc8  1  0.243514  0.496134  0.747379  1
  P  P9  1  0.320982  0.666417  0.654564  1
  P  P10  1  0.675379  0.333077  0.342302  1
  P  P11  1  0.985210  0.323593  0.661617  1
  P  P12  1  0.343415  0.000633  0.342782  1
  P  P13  1  0.004878  0.666439  0.338439  1
  P  P14  1  0.670777  0.009744  0.661035  1
