# generated using pymatgen
data_Nd6Zn4Pd3Pt10
_symmetry_space_group_name_H-M   'P 1'
_cell_length_a   8.39903733
_cell_length_b   8.39903794
_cell_length_c   8.39903829
_cell_angle_alpha   109.45624060
_cell_angle_beta   109.45623738
_cell_angle_gamma   109.45624468
_symmetry_Int_Tables_number   1
_chemical_formula_structural   Nd6Zn4Pd3Pt10
_chemical_formula_sum   'Nd6 Zn4 Pd3 Pt10'
_cell_volume   456.35977319
_cell_formula_units_Z   1
loop_
 _symmetry_equiv_pos_site_id
 _symmetry_equiv_pos_as_xyz
  1  'x, y, z'
loop_
 _atom_site_type_symbol
 _atom_site_label
 _atom_site_symmetry_multiplicity
 _atom_site_fract_x
 _atom_site_fract_y
 _atom_site_fract_z
 _atom_site_occupancy
  Nd  Nd0  1  0.700034  0.700034  0.001509  1
  Nd  Nd1  1  0.300039  0.999732  0.300039  1
  Nd  Nd2  1  0.999732  0.300039  0.300039  1
  Nd  Nd3  1  0.300039  0.300039  0.999732  1
  Nd  Nd4  1  0.700034  0.001509  0.700034  1
  Nd  Nd5  1  0.001509  0.700034  0.700034  1
  Zn  Zn6  1  0.999467  0.999467  0.499558  1
  Zn  Zn7  1  0.999467  0.499558  0.999467  1
  Zn  Zn8  1  0.499558  0.999467  0.999467  1
  Zn  Zn9  1  0.499774  0.499774  0.499774  1
  Pd  Pd10  1  0.668859  0.668859  0.338368  1
  Pd  Pd11  1  0.668859  0.338368  0.668859  1
  Pd  Pd12  1  0.338368  0.668859  0.668859  1
  Pt  Pt13  1  0.330754  0.330754  0.660156  1
  Pt  Pt14  1  0.670234  0.000742  0.330832  1
  Pt  Pt15  1  0.000742  0.670234  0.330832  1
  Pt  Pt16  1  0.670234  0.330832  0.000742  1
  Pt  Pt17  1  0.330754  0.660156  0.330754  1
  Pt  Pt18  1  0.000742  0.330832  0.670234  1
  Pt  Pt19  1  0.330832  0.670234  0.000742  1
  Pt  Pt20  1  0.330832  0.000742  0.670234  1
  Pt  Pt21  1  0.660156  0.330754  0.330754  1
  Pt  Pt22  1  0.998980  0.998980  0.998980  1
