# generated using pymatgen
data_Li2Dy2Ho3P12Ir17
_symmetry_space_group_name_H-M   'P 1'
_cell_length_a   12.66075700
_cell_length_b   12.75942549
_cell_length_c   3.95730600
_cell_angle_alpha   90.00000000
_cell_angle_beta   90.00000000
_cell_angle_gamma   119.74452539
_symmetry_Int_Tables_number   1
_chemical_formula_structural   Li2Dy2Ho3P12Ir17
_chemical_formula_sum   'Li2 Dy2 Ho3 P12 Ir17'
_cell_volume   555.05156334
_cell_formula_units_Z   1
loop_
 _symmetry_equiv_pos_site_id
 _symmetry_equiv_pos_as_xyz
  1  'x, y, z'
loop_
 _atom_site_type_symbol
 _atom_site_label
 _atom_site_symmetry_multiplicity
 _atom_site_fract_x
 _atom_site_fract_y
 _atom_site_fract_z
 _atom_site_occupancy
  Li  Li0  1  0.999642  0.442203  0.500000  1
  Li  Li1  1  0.557439  0.557797  0.500000  1
  Dy  Dy2  1  0.332431  0.662474  0.500000  1
  Dy  Dy3  1  0.669958  0.337526  0.500000  1
  Ho  Ho4  1  0.001678  0.809130  0.000000  1
  Ho  Ho5  1  0.192547  0.190870  0.000000  1
  Ho  Ho6  1  0.811215  0.000000  0.000000  1
  P  P7  1  0.999415  0.630644  0.500000  1
  P  P8  1  0.368771  0.369356  0.500000  1
  P  P9  1  0.639985  0.000000  0.500000  1
  P  P10  1  0.513443  0.683157  0.000000  1
  P  P11  1  0.307377  0.823286  0.000000  1
  P  P12  1  0.166844  0.479970  0.000000  1
  P  P13  1  0.484091  0.176714  0.000000  1
  P  P14  1  0.686874  0.520030  0.000000  1
  P  P15  1  0.830287  0.316843  0.000000  1
  P  P16  1  0.997670  0.177796  0.500000  1
  P  P17  1  0.819874  0.822204  0.500000  1
  P  P18  1  0.178231  0.000000  0.500000  1
  Ir  Ir19  1  0.503705  0.865371  0.000000  1
  Ir  Ir20  1  0.129443  0.638895  0.000000  1
  Ir  Ir21  1  0.356100  0.487695  0.000000  1
  Ir  Ir22  1  0.490549  0.361105  0.000000  1
  Ir  Ir23  1  0.868406  0.512305  0.000000  1
  Ir  Ir24  1  0.638335  0.134629  0.000000  1
  Ir  Ir25  1  0.458966  0.000000  0.500000  1
  Ir  Ir26  1  0.996324  0.277423  0.000000  1
  Ir  Ir27  1  0.718902  0.722577  0.000000  1
  Ir  Ir28  1  0.286646  0.000000  0.000000  1
  Ir  Ir29  1  0.622336  0.807316  0.500000  1
  Ir  Ir30  1  0.199222  0.823459  0.500000  1
  Ir  Ir31  1  0.177045  0.370252  0.500000  1
  Ir  Ir32  1  0.375764  0.176541  0.500000  1
  Ir  Ir33  1  0.806794  0.629748  0.500000  1
  Ir  Ir34  1  0.815021  0.192684  0.500000  1
  Ir  Ir35  1  0.998670  0.000000  0.500000  1
