# generated using pymatgen
data_ErVGa4Mo
_symmetry_space_group_name_H-M   'P 1'
_cell_length_a   5.38614391
_cell_length_b   5.38614350
_cell_length_c   5.38614486
_cell_angle_alpha   104.09041540
_cell_angle_beta   104.09040540
_cell_angle_gamma   120.87018132
_symmetry_Int_Tables_number   1
_chemical_formula_structural   ErVGa4Mo
_chemical_formula_sum   'Er1 V1 Ga4 Mo1'
_cell_volume   116.65605486
_cell_formula_units_Z   1
loop_
 _symmetry_equiv_pos_site_id
 _symmetry_equiv_pos_as_xyz
  1  'x, y, z'
loop_
 _atom_site_type_symbol
 _atom_site_label
 _atom_site_symmetry_multiplicity
 _atom_site_fract_x
 _atom_site_fract_y
 _atom_site_fract_z
 _atom_site_occupancy
  Er  Er0  1  0.000000  0.000000  0.000000  1
  V  V1  1  0.250000  0.750000  0.500000  1
  Ga  Ga2  1  0.304550  0.304550  0.609100  1
  Ga  Ga3  1  0.695450  0.304550  0.000000  1
  Ga  Ga4  1  0.304550  0.695450  0.000000  1
  Ga  Ga5  1  0.695450  0.695450  0.390900  1
  Mo  Mo6  1  0.750000  0.250000  0.500000  1
