# generated using pymatgen
data_V10Ge6HC
_symmetry_space_group_name_H-M   'P 1'
_cell_length_a   7.29481100
_cell_length_b   7.29481019
_cell_length_c   4.92789700
_cell_angle_alpha   90.00000000
_cell_angle_beta   90.00000000
_cell_angle_gamma   119.99999912
_symmetry_Int_Tables_number   1
_chemical_formula_structural   V10Ge6HC
_chemical_formula_sum   'V10 Ge6 H1 C1'
_cell_volume   227.10165445
_cell_formula_units_Z   1
loop_
 _symmetry_equiv_pos_site_id
 _symmetry_equiv_pos_as_xyz
  1  'x, y, z'
loop_
 _atom_site_type_symbol
 _atom_site_label
 _atom_site_symmetry_multiplicity
 _atom_site_fract_x
 _atom_site_fract_y
 _atom_site_fract_z
 _atom_site_occupancy
  V  V0  1  0.233151  0.000000  0.756008  1
  V  V1  1  0.766849  0.000000  0.243992  1
  V  V2  1  0.000000  0.233151  0.756008  1
  V  V3  1  0.000000  0.766849  0.243992  1
  V  V4  1  0.766849  0.766849  0.756008  1
  V  V5  1  0.233151  0.233151  0.243992  1
  V  V6  1  0.333333  0.666667  0.500000  1
  V  V7  1  0.666667  0.333333  0.500000  1
  V  V8  1  0.666667  0.333333  0.000000  1
  V  V9  1  0.333333  0.666667  0.000000  1
  Ge  Ge10  1  0.600193  0.000000  0.746305  1
  Ge  Ge11  1  0.399807  0.000000  0.253695  1
  Ge  Ge12  1  0.000000  0.600193  0.746305  1
  Ge  Ge13  1  0.000000  0.399807  0.253695  1
  Ge  Ge14  1  0.399807  0.399807  0.746305  1
  Ge  Ge15  1  0.600193  0.600193  0.253695  1
  H  H16  1  0.000000  0.000000  0.500000  1
  C  C17  1  0.000000  0.000000  0.000000  1
