# generated using pymatgen
data_Pr19YSi15Te
_symmetry_space_group_name_H-M   'P 1'
_cell_length_a   7.95665725
_cell_length_b   7.89964156
_cell_length_c   15.35284700
_cell_angle_alpha   89.64764176
_cell_angle_beta   89.15746144
_cell_angle_gamma   90.16086478
_symmetry_Int_Tables_number   1
_chemical_formula_structural   Pr19YSi15Te
_chemical_formula_sum   'Pr19 Y1 Si15 Te1'
_cell_volume   964.87257945
_cell_formula_units_Z   1
loop_
 _symmetry_equiv_pos_site_id
 _symmetry_equiv_pos_as_xyz
  1  'x, y, z'
loop_
 _atom_site_type_symbol
 _atom_site_label
 _atom_site_symmetry_multiplicity
 _atom_site_fract_x
 _atom_site_fract_y
 _atom_site_fract_z
 _atom_site_occupancy
  Pr  Pr0  1  0.188617  0.807543  0.249040  1
  Pr  Pr1  1  0.795592  0.189469  0.754138  1
  Pr  Pr2  1  0.686758  0.690161  0.494873  1
  Pr  Pr3  1  0.377697  0.007485  0.444473  1
  Pr  Pr4  1  0.492493  0.873322  0.698820  1
  Pr  Pr5  1  0.509823  0.121499  0.196255  1
  Pr  Pr6  1  0.875323  0.485800  0.299148  1
  Pr  Pr7  1  0.123252  0.517674  0.806150  1
  Pr  Pr8  1  0.630612  0.985864  0.952070  1
  Pr  Pr9  1  0.994895  0.382540  0.544778  1
  Pr  Pr10  1  0.990996  0.622212  0.053732  1
  Pr  Pr11  1  0.134028  0.984805  0.878021  1
  Pr  Pr12  1  0.519265  0.629263  0.125858  1
  Pr  Pr13  1  0.488968  0.379859  0.628863  1
  Pr  Pr14  1  0.634045  0.522462  0.877343  1
  Pr  Pr15  1  0.369612  0.477947  0.372783  1
  Pr  Pr16  1  0.870439  0.019632  0.375973  1
  Pr  Pr17  1  0.982824  0.127233  0.124033  1
  Pr  Pr18  1  0.008588  0.858462  0.619603  1
  Y  Y19  1  0.313926  0.311432  0.000926  1
  Si  Si20  1  0.332115  0.694396  0.953236  1
  Si  Si21  1  0.660647  0.303166  0.452487  1
  Si  Si22  1  0.699630  0.333695  0.049993  1
  Si  Si23  1  0.303301  0.668116  0.547600  1
  Si  Si24  1  0.803535  0.831683  0.202248  1
  Si  Si25  1  0.167007  0.194398  0.296203  1
  Si  Si26  1  0.840244  0.804948  0.797604  1
  Si  Si27  1  0.289892  0.926085  0.058770  1
  Si  Si28  1  0.575938  0.786430  0.307995  1
  Si  Si29  1  0.442525  0.213463  0.827151  1
  Si  Si30  1  0.790066  0.577091  0.690778  1
  Si  Si31  1  0.213640  0.419764  0.187281  1
  Si  Si32  1  0.702343  0.075630  0.560729  1
  Si  Si33  1  0.931364  0.291346  0.941966  1
  Si  Si34  1  0.078281  0.712728  0.438461  1
  Te  Te35  1  0.181715  0.172398  0.690619  1
