# generated using pymatgen
data_CaPr3Sc6Si20IrPt7
_symmetry_space_group_name_H-M   'P 1'
_cell_length_a   12.53399100
_cell_length_b   12.54172789
_cell_length_c   4.22851800
_cell_angle_alpha   90.00000000
_cell_angle_beta   90.00000000
_cell_angle_gamma   90.11182109
_symmetry_Int_Tables_number   1
_chemical_formula_structural   CaPr3Sc6Si20IrPt7
_chemical_formula_sum   'Ca1 Pr3 Sc6 Si20 Ir1 Pt7'
_cell_volume   664.71290256
_cell_formula_units_Z   1
loop_
 _symmetry_equiv_pos_site_id
 _symmetry_equiv_pos_as_xyz
  1  'x, y, z'
loop_
 _atom_site_type_symbol
 _atom_site_label
 _atom_site_symmetry_multiplicity
 _atom_site_fract_x
 _atom_site_fract_y
 _atom_site_fract_z
 _atom_site_occupancy
  Ca  Ca0  1  0.387108  0.113458  0.500000  1
  Pr  Pr1  1  0.113522  0.613329  0.500000  1
  Pr  Pr2  1  0.886361  0.386316  0.500000  1
  Pr  Pr3  1  0.613786  0.886640  0.500000  1
  Sc  Sc4  1  0.674345  0.175888  0.500000  1
  Sc  Sc5  1  0.324295  0.825920  0.500000  1
  Sc  Sc6  1  0.176790  0.325179  0.500000  1
  Sc  Sc7  1  0.823812  0.675778  0.500000  1
  Sc  Sc8  1  0.002016  0.000026  0.000000  1
  Sc  Sc9  1  0.495659  0.498246  0.000000  1
  Si  Si10  1  0.567799  0.067295  0.000000  1
  Si  Si11  1  0.432607  0.932465  0.000000  1
  Si  Si12  1  0.070160  0.432379  0.000000  1
  Si  Si13  1  0.931877  0.567421  0.000000  1
  Si  Si14  1  0.205137  0.166248  0.000000  1
  Si  Si15  1  0.797452  0.835277  0.000000  1
  Si  Si16  1  0.166799  0.796968  0.000000  1
  Si  Si17  1  0.701894  0.335064  0.000000  1
  Si  Si18  1  0.834956  0.203658  0.000000  1
  Si  Si19  1  0.297483  0.662109  0.000000  1
  Si  Si20  1  0.664464  0.703011  0.000000  1
  Si  Si21  1  0.334986  0.299565  0.000000  1
  Si  Si22  1  0.011339  0.147305  0.500000  1
  Si  Si23  1  0.990559  0.853054  0.500000  1
  Si  Si24  1  0.149564  0.991897  0.500000  1
  Si  Si25  1  0.508161  0.350620  0.500000  1
  Si  Si26  1  0.853254  0.009591  0.500000  1
  Si  Si27  1  0.489572  0.647148  0.500000  1
  Si  Si28  1  0.645584  0.508681  0.500000  1
  Si  Si29  1  0.348340  0.489213  0.500000  1
  Ir  Ir30  1  0.260087  0.475421  0.000000  1
  Pt  Pt31  1  0.024812  0.239008  0.000000  1
  Pt  Pt32  1  0.976175  0.761251  0.000000  1
  Pt  Pt33  1  0.240814  0.976926  0.000000  1
  Pt  Pt34  1  0.523546  0.258921  0.000000  1
  Pt  Pt35  1  0.761631  0.024990  0.000000  1
  Pt  Pt36  1  0.475323  0.739264  0.000000  1
  Pt  Pt37  1  0.737933  0.524471  0.000000  1
