# generated using pymatgen
data_Ca2Cd4PdO8
_symmetry_space_group_name_H-M   'P 1'
_cell_length_a   6.70698331
_cell_length_b   6.70207387
_cell_length_c   6.70698380
_cell_angle_alpha   60.02422091
_cell_angle_beta   59.95158730
_cell_angle_gamma   60.02421764
_symmetry_Int_Tables_number   1
_chemical_formula_structural   Ca2Cd4PdO8
_chemical_formula_sum   'Ca2 Cd4 Pd1 O8'
_cell_volume   213.18091174
_cell_formula_units_Z   1
loop_
 _symmetry_equiv_pos_site_id
 _symmetry_equiv_pos_as_xyz
  1  'x, y, z'
loop_
 _atom_site_type_symbol
 _atom_site_label
 _atom_site_symmetry_multiplicity
 _atom_site_fract_x
 _atom_site_fract_y
 _atom_site_fract_z
 _atom_site_occupancy
  Ca  Ca0  1  0.500000  0.000000  0.500000  1
  Ca  Ca1  1  0.000000  0.500000  0.000000  1
  Cd  Cd2  1  0.500000  0.000000  0.000000  1
  Cd  Cd3  1  0.000000  0.000000  0.500000  1
  Cd  Cd4  1  0.500000  0.500000  0.000000  1
  Cd  Cd5  1  0.000000  0.500000  0.500000  1
  Pd  Pd6  1  0.000000  0.000000  0.000000  1
  O  O7  1  0.781781  0.218219  0.218219  1
  O  O8  1  0.250000  0.250000  0.250000  1
  O  O9  1  0.216270  0.783730  0.216270  1
  O  O10  1  0.218219  0.218219  0.781781  1
  O  O11  1  0.783730  0.216270  0.783730  1
  O  O12  1  0.781781  0.781781  0.218219  1
  O  O13  1  0.750000  0.750000  0.750000  1
  O  O14  1  0.218219  0.781781  0.781781  1
