# generated using pymatgen
data_TbSm11(SiBr3)4
_symmetry_space_group_name_H-M   'P 1'
_cell_length_a   10.28292220
_cell_length_b   10.29139597
_cell_length_c   10.27342576
_cell_angle_alpha   109.47686551
_cell_angle_beta   109.44571443
_cell_angle_gamma   109.53752544
_symmetry_Int_Tables_number   1
_chemical_formula_structural   TbSm11(SiBr3)4
_chemical_formula_sum   'Tb1 Sm11 Si4 Br12'
_cell_volume   836.44009236
_cell_formula_units_Z   1
loop_
 _symmetry_equiv_pos_site_id
 _symmetry_equiv_pos_as_xyz
  1  'x, y, z'
loop_
 _atom_site_type_symbol
 _atom_site_label
 _atom_site_symmetry_multiplicity
 _atom_site_fract_x
 _atom_site_fract_y
 _atom_site_fract_z
 _atom_site_occupancy
  Tb  Tb0  1  0.486118  0.236132  0.472248  1
  Sm  Sm1  1  0.262614  0.012646  0.025245  1
  Sm  Sm2  1  0.025542  0.262740  0.013137  1
  Sm  Sm3  1  0.487573  0.750390  0.013150  1
  Sm  Sm4  1  0.750412  0.237796  0.262906  1
  Sm  Sm5  1  0.012515  0.025137  0.262917  1
  Sm  Sm6  1  0.012436  0.487543  0.750186  1
  Sm  Sm7  1  0.237756  0.262623  0.750198  1
  Sm  Sm8  1  0.262367  0.749584  0.237225  1
  Sm  Sm9  1  0.237589  0.475216  0.488018  1
  Sm  Sm10  1  0.474870  0.487626  0.237235  1
  Sm  Sm11  1  0.750443  0.012824  0.488038  1
  Si  Si12  1  0.000107  0.250109  0.500221  1
  Si  Si13  1  0.250052  0.500048  0.000112  1
  Si  Si14  1  0.500109  0.001410  0.251695  1
  Si  Si15  1  0.251578  0.250295  0.251691  1
  Br  Br16  1  0.754990  0.745455  0.250195  1
  Br  Br17  1  0.504645  0.249695  0.995234  1
  Br  Br18  1  0.253541  0.998613  0.504980  1
  Br  Br19  1  0.509461  0.501800  0.752109  1
  Br  Br20  1  0.995297  0.990485  0.745438  1
  Br  Br21  1  0.745255  0.995239  0.990496  1
  Br  Br22  1  0.504698  0.754678  0.509365  1
  Br  Br23  1  0.751433  0.506379  0.504995  1
  Br  Br24  1  0.995213  0.504752  0.250204  1
  Br  Br25  1  0.990598  0.745549  0.995214  1
  Br  Br26  1  0.250132  0.754920  0.745438  1
  Br  Br27  1  0.742656  0.250314  0.752111  1
