# generated using pymatgen
data_La10CuPPb6
_symmetry_space_group_name_H-M   'P 1'
_cell_length_a   9.75081800
_cell_length_b   9.75081842
_cell_length_c   7.13952300
_cell_angle_alpha   90.00000000
_cell_angle_beta   90.00000000
_cell_angle_gamma   120.00000537
_symmetry_Int_Tables_number   1
_chemical_formula_structural   La10CuPPb6
_chemical_formula_sum   'La10 Cu1 P1 Pb6'
_cell_volume   587.87084811
_cell_formula_units_Z   1
loop_
 _symmetry_equiv_pos_site_id
 _symmetry_equiv_pos_as_xyz
  1  'x, y, z'
loop_
 _atom_site_type_symbol
 _atom_site_label
 _atom_site_symmetry_multiplicity
 _atom_site_fract_x
 _atom_site_fract_y
 _atom_site_fract_z
 _atom_site_occupancy
  La  La0  1  0.754356  0.754356  0.239119  1
  La  La1  1  0.245644  0.000000  0.239119  1
  La  La2  1  0.000000  0.245644  0.239119  1
  La  La3  1  0.245644  0.245644  0.760881  1
  La  La4  1  0.754356  0.000000  0.760881  1
  La  La5  1  0.000000  0.754356  0.760881  1
  La  La6  1  0.666667  0.333333  0.500000  1
  La  La7  1  0.333333  0.666667  0.500000  1
  La  La8  1  0.333333  0.666667  0.000000  1
  La  La9  1  0.666667  0.333333  0.000000  1
  Cu  Cu10  1  0.000000  0.000000  0.500000  1
  P  P11  1  0.000000  0.000000  0.000000  1
  Pb  Pb12  1  0.394785  0.394785  0.248935  1
  Pb  Pb13  1  0.605215  0.000000  0.248935  1
  Pb  Pb14  1  0.000000  0.605215  0.248935  1
  Pb  Pb15  1  0.605215  0.605215  0.751065  1
  Pb  Pb16  1  0.394785  0.000000  0.751065  1
  Pb  Pb17  1  0.000000  0.394785  0.751065  1
