# generated using pymatgen
data_K5Ga3F14
_symmetry_space_group_name_H-M   'P 1'
_cell_length_a   7.73896600
_cell_length_b   7.73896600
_cell_length_c   11.52406400
_cell_angle_alpha   90.00000000
_cell_angle_beta   90.00000000
_cell_angle_gamma   90.00000000
_symmetry_Int_Tables_number   1
_chemical_formula_structural   K5Ga3F14
_chemical_formula_sum   'K10 Ga6 F28'
_cell_volume   690.19457095
_cell_formula_units_Z   2
loop_
 _symmetry_equiv_pos_site_id
 _symmetry_equiv_pos_as_xyz
  1  'x, y, z'
loop_
 _atom_site_type_symbol
 _atom_site_label
 _atom_site_symmetry_multiplicity
 _atom_site_fract_x
 _atom_site_fract_y
 _atom_site_fract_z
 _atom_site_occupancy
  K  K0  1  0.273663  0.773663  0.750000  1
  K  K1  1  0.226337  0.273663  0.750000  1
  K  K2  1  0.773663  0.726337  0.750000  1
  K  K3  1  0.726337  0.226337  0.750000  1
  K  K4  1  0.726337  0.226337  0.250000  1
  K  K5  1  0.773663  0.726337  0.250000  1
  K  K6  1  0.226337  0.273663  0.250000  1
  K  K7  1  0.273663  0.773663  0.250000  1
  K  K8  1  0.500000  0.500000  0.000000  1
  K  K9  1  0.000000  0.000000  0.500000  1
  Ga  Ga10  1  0.000000  0.500000  0.500000  1
  Ga  Ga11  1  0.500000  0.000000  0.500000  1
  Ga  Ga12  1  0.500000  0.000000  0.000000  1
  Ga  Ga13  1  0.000000  0.500000  0.000000  1
  Ga  Ga14  1  0.500000  0.500000  0.500000  1
  Ga  Ga15  1  0.000000  0.000000  0.000000  1
  F  F16  1  0.031694  0.673381  0.613822  1
  F  F17  1  0.968306  0.326619  0.613822  1
  F  F18  1  0.173381  0.531694  0.886178  1
  F  F19  1  0.673381  0.968306  0.613822  1
  F  F20  1  0.326619  0.031694  0.613822  1
  F  F21  1  0.468306  0.173381  0.886178  1
  F  F22  1  0.531694  0.826619  0.886178  1
  F  F23  1  0.826619  0.468306  0.886178  1
  F  F24  1  0.968306  0.326619  0.386178  1
  F  F25  1  0.031694  0.673381  0.386178  1
  F  F26  1  0.826619  0.468306  0.113822  1
  F  F27  1  0.326619  0.031694  0.386178  1
  F  F28  1  0.673381  0.968306  0.386178  1
  F  F29  1  0.531694  0.826619  0.113822  1
  F  F30  1  0.468306  0.173381  0.113822  1
  F  F31  1  0.173381  0.531694  0.113822  1
  F  F32  1  0.000000  0.000000  0.164688  1
  F  F33  1  0.500000  0.500000  0.335312  1
  F  F34  1  0.000000  0.000000  0.835312  1
  F  F35  1  0.500000  0.500000  0.664688  1
  F  F36  1  0.061609  0.245498  0.000000  1
  F  F37  1  0.754502  0.061609  0.000000  1
  F  F38  1  0.245498  0.938391  0.000000  1
  F  F39  1  0.561609  0.254502  0.500000  1
  F  F40  1  0.438391  0.745498  0.500000  1
  F  F41  1  0.938391  0.754502  0.000000  1
  F  F42  1  0.745498  0.561609  0.500000  1
  F  F43  1  0.254502  0.438391  0.500000  1
