# generated using pymatgen
data_Li4La2YSn4
_symmetry_space_group_name_H-M   'P 1'
_cell_length_a   4.78636468
_cell_length_b   7.08003613
_cell_length_c   8.88049865
_cell_angle_alpha   113.49244664
_cell_angle_beta   105.63377262
_cell_angle_gamma   90.00000574
_symmetry_Int_Tables_number   1
_chemical_formula_structural   Li4La2YSn4
_chemical_formula_sum   'Li4 La2 Y1 Sn4'
_cell_volume   263.81084750
_cell_formula_units_Z   1
loop_
 _symmetry_equiv_pos_site_id
 _symmetry_equiv_pos_as_xyz
  1  'x, y, z'
loop_
 _atom_site_type_symbol
 _atom_site_label
 _atom_site_symmetry_multiplicity
 _atom_site_fract_x
 _atom_site_fract_y
 _atom_site_fract_z
 _atom_site_occupancy
  Li  Li0  1  0.327504  0.017850  0.655007  1
  Li  Li1  1  0.672496  0.982150  0.344993  1
  Li  Li2  1  0.327504  0.637157  0.655007  1
  Li  Li3  1  0.672496  0.362843  0.344993  1
  La  La4  1  0.869255  0.369255  0.738510  1
  La  La5  1  0.130745  0.630745  0.261490  1
  Y  Y6  1  0.000000  0.000000  0.000000  1
  Sn  Sn7  1  0.209945  0.209945  0.419887  1
  Sn  Sn8  1  0.790055  0.790055  0.580113  1
  Sn  Sn9  1  0.500000  0.294513  0.000000  1
  Sn  Sn10  1  0.500000  0.705487  0.000000  1
