# generated using pymatgen
data_Rb3Nb2Ag3S8
_symmetry_space_group_name_H-M   'P 1'
_cell_length_a   13.04581330
_cell_length_b   13.04581267
_cell_length_c   14.74218658
_cell_angle_alpha   61.64715578
_cell_angle_beta   61.64715654
_cell_angle_gamma   26.59019902
_symmetry_Int_Tables_number   1
_chemical_formula_structural   Rb3Nb2Ag3S8
_chemical_formula_sum   'Rb6 Nb4 Ag6 S16'
_cell_volume   980.26302288
_cell_formula_units_Z   2
loop_
 _symmetry_equiv_pos_site_id
 _symmetry_equiv_pos_as_xyz
  1  'x, y, z'
loop_
 _atom_site_type_symbol
 _atom_site_label
 _atom_site_symmetry_multiplicity
 _atom_site_fract_x
 _atom_site_fract_y
 _atom_site_fract_z
 _atom_site_occupancy
  Rb  Rb0  1  0.631568  0.760714  0.397101  1
  Rb  Rb1  1  0.000000  0.000000  0.000000  1
  Rb  Rb2  1  0.760714  0.631568  0.897101  1
  Rb  Rb3  1  0.000000  0.000000  0.500000  1
  Rb  Rb4  1  0.239286  0.368432  0.102899  1
  Rb  Rb5  1  0.368432  0.239286  0.602899  1
  Nb  Nb6  1  0.582945  0.163182  0.278465  1
  Nb  Nb7  1  0.163182  0.582945  0.778465  1
  Nb  Nb8  1  0.836818  0.417055  0.221535  1
  Nb  Nb9  1  0.417055  0.836818  0.721535  1
  Ag  Ag10  1  0.290752  0.709248  0.750000  1
  Ag  Ag11  1  0.336355  0.917495  0.214288  1
  Ag  Ag12  1  0.917495  0.336355  0.714288  1
  Ag  Ag13  1  0.082505  0.663645  0.285712  1
  Ag  Ag14  1  0.709248  0.290752  0.250000  1
  Ag  Ag15  1  0.663645  0.082505  0.785712  1
  S  S16  1  0.459093  0.445891  0.656582  1
  S  S17  1  0.221861  0.091513  0.815429  1
  S  S18  1  0.445891  0.459093  0.156582  1
  S  S19  1  0.778139  0.908487  0.184571  1
  S  S20  1  0.554109  0.540907  0.843418  1
  S  S21  1  0.295830  0.286727  0.886499  1
  S  S22  1  0.713273  0.704170  0.613501  1
  S  S23  1  0.286727  0.295830  0.386499  1
  S  S24  1  0.908487  0.778139  0.684571  1
  S  S25  1  0.181158  0.014212  0.619168  1
  S  S26  1  0.704170  0.713273  0.113501  1
  S  S27  1  0.540907  0.554109  0.343418  1
  S  S28  1  0.985788  0.818842  0.880832  1
  S  S29  1  0.091513  0.221861  0.315429  1
  S  S30  1  0.818842  0.985788  0.380832  1
  S  S31  1  0.014212  0.181158  0.119168  1
