# generated using pymatgen
data_Yb4SiGePt4
_symmetry_space_group_name_H-M   'P 1'
_cell_length_a   5.57326699
_cell_length_b   5.57326831
_cell_length_c   7.79504308
_cell_angle_alpha   78.96519189
_cell_angle_beta   78.96519015
_cell_angle_gamma   60.16785684
_symmetry_Int_Tables_number   1
_chemical_formula_structural   Yb4SiGePt4
_chemical_formula_sum   'Yb4 Si1 Ge1 Pt4'
_cell_volume   204.83638429
_cell_formula_units_Z   1
loop_
 _symmetry_equiv_pos_site_id
 _symmetry_equiv_pos_as_xyz
  1  'x, y, z'
loop_
 _atom_site_type_symbol
 _atom_site_label
 _atom_site_symmetry_multiplicity
 _atom_site_fract_x
 _atom_site_fract_y
 _atom_site_fract_z
 _atom_site_occupancy
  Yb  Yb0  1  0.789060  0.514941  0.848609  1
  Yb  Yb1  1  0.485059  0.210940  0.651391  1
  Yb  Yb2  1  0.212138  0.489167  0.149552  1
  Yb  Yb3  1  0.510833  0.787862  0.350448  1
  Si  Si4  1  0.876397  0.123603  0.250000  1
  Ge  Ge5  1  0.141525  0.858475  0.750000  1
  Pt  Pt6  1  0.995873  0.740710  0.491765  1
  Pt  Pt7  1  0.259290  0.004127  0.008235  1
  Pt  Pt8  1  0.988574  0.258750  0.493301  1
  Pt  Pt9  1  0.741250  0.011426  0.006699  1
