# generated using pymatgen
data_Dy5Tm15(Cd3Tc)2
_symmetry_space_group_name_H-M   'P 1'
_cell_length_a   9.36288380
_cell_length_b   9.36003159
_cell_length_c   9.71884900
_cell_angle_alpha   90.00000000
_cell_angle_beta   89.95572571
_cell_angle_gamma   119.98992683
_symmetry_Int_Tables_number   1
_chemical_formula_structural   Dy5Tm15(Cd3Tc)2
_chemical_formula_sum   'Dy5 Tm15 Cd6 Tc2'
_cell_volume   737.69410835
_cell_formula_units_Z   1
loop_
 _symmetry_equiv_pos_site_id
 _symmetry_equiv_pos_as_xyz
  1  'x, y, z'
loop_
 _atom_site_type_symbol
 _atom_site_label
 _atom_site_symmetry_multiplicity
 _atom_site_fract_x
 _atom_site_fract_y
 _atom_site_fract_z
 _atom_site_occupancy
  Dy  Dy0  1  0.209138  0.791342  0.442316  1
  Dy  Dy1  1  0.209138  0.417796  0.442316  1
  Dy  Dy2  1  0.581639  0.790820  0.442353  1
  Dy  Dy3  1  0.790166  0.208894  0.557974  1
  Dy  Dy4  1  0.790166  0.581271  0.557974  1
  Tm  Tm5  1  0.000053  0.000027  0.500176  1
  Tm  Tm6  1  0.000028  0.000014  0.000091  1
  Tm  Tm7  1  0.418990  0.209496  0.557430  1
  Tm  Tm8  1  0.790273  0.209449  0.943118  1
  Tm  Tm9  1  0.790273  0.580824  0.943118  1
  Tm  Tm10  1  0.419716  0.209858  0.942746  1
  Tm  Tm11  1  0.209639  0.790439  0.056776  1
  Tm  Tm12  1  0.209639  0.419200  0.056776  1
  Tm  Tm13  1  0.580492  0.790246  0.056736  1
  Tm  Tm14  1  0.539619  0.459799  0.248641  1
  Tm  Tm15  1  0.539619  0.079822  0.248641  1
  Tm  Tm16  1  0.920163  0.460082  0.248266  1
  Tm  Tm17  1  0.460326  0.539243  0.751494  1
  Tm  Tm18  1  0.460326  0.921082  0.751494  1
  Tm  Tm19  1  0.079432  0.539716  0.751486  1
  Cd  Cd20  1  0.885969  0.114631  0.249257  1
  Cd  Cd21  1  0.885969  0.771338  0.249257  1
  Cd  Cd22  1  0.228788  0.114395  0.249575  1
  Cd  Cd23  1  0.114462  0.885823  0.750557  1
  Cd  Cd24  1  0.114462  0.228640  0.750557  1
  Cd  Cd25  1  0.771296  0.885648  0.750926  1
  Tc  Tc26  1  0.333437  0.666719  0.250100  1
  Tc  Tc27  1  0.666781  0.333390  0.749848  1
