# generated using pymatgen
data_DyY4Cr3(P3Ir4)4
_symmetry_space_group_name_H-M   'P 1'
_cell_length_a   12.64375400
_cell_length_b   12.64375472
_cell_length_c   3.96251400
_cell_angle_alpha   90.00000000
_cell_angle_beta   90.00000000
_cell_angle_gamma   119.99999810
_symmetry_Int_Tables_number   1
_chemical_formula_structural   DyY4Cr3(P3Ir4)4
_chemical_formula_sum   'Dy1 Y4 Cr3 P12 Ir16'
_cell_volume   548.59715310
_cell_formula_units_Z   1
loop_
 _symmetry_equiv_pos_site_id
 _symmetry_equiv_pos_as_xyz
  1  'x, y, z'
loop_
 _atom_site_type_symbol
 _atom_site_label
 _atom_site_symmetry_multiplicity
 _atom_site_fract_x
 _atom_site_fract_y
 _atom_site_fract_z
 _atom_site_occupancy
  Dy  Dy0  1  0.666667  0.333333  0.500000  1
  Y  Y1  1  0.333333  0.666667  0.500000  1
  Y  Y2  1  0.999995  0.810640  0.000000  1
  Y  Y3  1  0.189360  0.189354  0.000000  1
  Y  Y4  1  0.810646  0.000005  0.000000  1
  Cr  Cr5  1  0.999928  0.453378  0.500000  1
  Cr  Cr6  1  0.546622  0.546550  0.500000  1
  Cr  Cr7  1  0.453450  0.000072  0.500000  1
  P  P8  1  0.000008  0.632122  0.500000  1
  P  P9  1  0.367878  0.367886  0.500000  1
  P  P10  1  0.632114  0.999992  0.500000  1
  P  P11  1  0.516410  0.684217  0.000000  1
  P  P12  1  0.315783  0.832194  0.000000  1
  P  P13  1  0.167806  0.483590  0.000000  1
  P  P14  1  0.483691  0.167910  0.000000  1
  P  P15  1  0.684219  0.516309  0.000000  1
  P  P16  1  0.832090  0.315781  0.000000  1
  P  P17  1  0.000004  0.177729  0.500000  1
  P  P18  1  0.822271  0.822274  0.500000  1
  P  P19  1  0.177726  0.999996  0.500000  1
  Ir  Ir20  1  0.509417  0.868741  0.000000  1
  Ir  Ir21  1  0.131259  0.640678  0.000000  1
  Ir  Ir22  1  0.359322  0.490583  0.000000  1
  Ir  Ir23  1  0.490714  0.359292  0.000000  1
  Ir  Ir24  1  0.868579  0.509286  0.000000  1
  Ir  Ir25  1  0.640708  0.131421  0.000000  1
  Ir  Ir26  1  0.999989  0.287397  0.000000  1
  Ir  Ir27  1  0.712603  0.712593  0.000000  1
  Ir  Ir28  1  0.287407  0.000011  0.000000  1
  Ir  Ir29  1  0.623670  0.802560  0.500000  1
  Ir  Ir30  1  0.197440  0.821109  0.500000  1
  Ir  Ir31  1  0.178891  0.376330  0.500000  1
  Ir  Ir32  1  0.376424  0.178940  0.500000  1
  Ir  Ir33  1  0.802516  0.623576  0.500000  1
  Ir  Ir34  1  0.821060  0.197484  0.500000  1
  Ir  Ir35  1  0.000000  0.000000  0.500000  1
