# generated using pymatgen
data_Sm2ErAlC3
_symmetry_space_group_name_H-M   'P 1'
_cell_length_a   3.62842600
_cell_length_b   7.25411198
_cell_length_c   10.00172574
_cell_angle_alpha   89.49568312
_cell_angle_beta   90.00000000
_cell_angle_gamma   90.00000000
_symmetry_Int_Tables_number   1
_chemical_formula_structural   Sm2ErAlC3
_chemical_formula_sum   'Sm4 Er2 Al2 C6'
_cell_volume   263.24531044
_cell_formula_units_Z   2
loop_
 _symmetry_equiv_pos_site_id
 _symmetry_equiv_pos_as_xyz
  1  'x, y, z'
loop_
 _atom_site_type_symbol
 _atom_site_label
 _atom_site_symmetry_multiplicity
 _atom_site_fract_x
 _atom_site_fract_y
 _atom_site_fract_z
 _atom_site_occupancy
  Sm  Sm0  1  0.500000  0.512361  0.193757  1
  Sm  Sm1  1  0.500000  0.487639  0.806243  1
  Sm  Sm2  1  0.000000  0.750640  0.461465  1
  Sm  Sm3  1  0.000000  0.249360  0.538535  1
  Er  Er4  1  0.500000  0.986050  0.201969  1
  Er  Er5  1  0.500000  0.013950  0.798031  1
  Al  Al6  1  0.000000  0.772208  0.005355  1
  Al  Al7  1  0.000000  0.227792  0.994645  1
  C  C8  1  0.500000  0.507836  0.565816  1
  C  C9  1  0.500000  0.492164  0.434184  1
  C  C10  1  0.500000  0.991957  0.565912  1
  C  C11  1  0.500000  0.008043  0.434088  1
  C  C12  1  0.000000  0.759623  0.207090  1
  C  C13  1  0.000000  0.240377  0.792910  1
