# generated using pymatgen
data_NdDy4YTa2O14
_symmetry_space_group_name_H-M   'P 1'
_cell_length_a   6.50066326
_cell_length_b   6.51246674
_cell_length_c   7.54593262
_cell_angle_alpha   90.09847617
_cell_angle_beta   89.91689090
_cell_angle_gamma   108.92852089
_symmetry_Int_Tables_number   1
_chemical_formula_structural   NdDy4YTa2O14
_chemical_formula_sum   'Nd1 Dy4 Y1 Ta2 O14'
_cell_volume   302.18403833
_cell_formula_units_Z   1
loop_
 _symmetry_equiv_pos_site_id
 _symmetry_equiv_pos_as_xyz
  1  'x, y, z'
loop_
 _atom_site_type_symbol
 _atom_site_label
 _atom_site_symmetry_multiplicity
 _atom_site_fract_x
 _atom_site_fract_y
 _atom_site_fract_z
 _atom_site_occupancy
  Nd  Nd0  1  0.491221  0.491792  0.999546  1
  Dy  Dy1  1  0.534948  0.536278  0.500158  1
  Dy  Dy2  1  0.000536  0.465533  0.742957  1
  Dy  Dy3  1  0.534279  0.001583  0.752143  1
  Dy  Dy4  1  0.464681  0.000390  0.256727  1
  Y  Y5  1  0.001320  0.532814  0.248020  1
  Ta  Ta6  1  0.003109  0.003378  0.500319  1
  Ta  Ta7  1  0.999053  0.998522  0.999671  1
  O  O8  1  0.932820  0.065179  0.750409  1
  O  O9  1  0.065362  0.935669  0.249683  1
  O  O10  1  0.359529  0.641524  0.258829  1
  O  O11  1  0.640273  0.359267  0.741211  1
  O  O12  1  0.368468  0.633889  0.741006  1
  O  O13  1  0.632117  0.368018  0.258783  1
  O  O14  1  0.322150  0.069869  0.970640  1
  O  O15  1  0.674488  0.920465  0.472337  1
  O  O16  1  0.309076  0.049406  0.539647  1
  O  O17  1  0.683172  0.935594  0.037809  1
  O  O18  1  0.054697  0.310684  0.462765  1
  O  O19  1  0.934058  0.682624  0.962402  1
  O  O20  1  0.919278  0.674491  0.527630  1
  O  O21  1  0.075364  0.323035  0.027310  1
