# generated using pymatgen
data_Sc4CdRh
_symmetry_space_group_name_H-M   'P 1'
_cell_length_a   9.03238760
_cell_length_b   9.03238783
_cell_length_c   9.03238900
_cell_angle_alpha   59.99999937
_cell_angle_beta   59.99999853
_cell_angle_gamma   60.00000409
_symmetry_Int_Tables_number   1
_chemical_formula_structural   Sc4CdRh
_chemical_formula_sum   'Sc16 Cd4 Rh4'
_cell_volume   521.06605815
_cell_formula_units_Z   4
loop_
 _symmetry_equiv_pos_site_id
 _symmetry_equiv_pos_as_xyz
  1  'x, y, z'
loop_
 _atom_site_type_symbol
 _atom_site_label
 _atom_site_symmetry_multiplicity
 _atom_site_fract_x
 _atom_site_fract_y
 _atom_site_fract_z
 _atom_site_occupancy
  Sc  Sc0  1  0.564428  0.564428  0.935572  1
  Sc  Sc1  1  0.147994  0.556018  0.147994  1
  Sc  Sc2  1  0.689656  0.310344  0.310344  1
  Sc  Sc3  1  0.935572  0.564428  0.564428  1
  Sc  Sc4  1  0.935572  0.564428  0.935572  1
  Sc  Sc5  1  0.689656  0.689656  0.310344  1
  Sc  Sc6  1  0.564428  0.935572  0.935572  1
  Sc  Sc7  1  0.147994  0.147994  0.147994  1
  Sc  Sc8  1  0.310344  0.689656  0.310344  1
  Sc  Sc9  1  0.556018  0.147994  0.147994  1
  Sc  Sc10  1  0.310344  0.310344  0.689656  1
  Sc  Sc11  1  0.310344  0.689656  0.689656  1
  Sc  Sc12  1  0.147994  0.147994  0.556018  1
  Sc  Sc13  1  0.689656  0.310344  0.689656  1
  Sc  Sc14  1  0.935572  0.935572  0.564428  1
  Sc  Sc15  1  0.564428  0.935572  0.564428  1
  Cd  Cd16  1  0.916965  0.916965  0.916965  1
  Cd  Cd17  1  0.249104  0.916965  0.916965  1
  Cd  Cd18  1  0.916965  0.916965  0.249104  1
  Cd  Cd19  1  0.916965  0.249104  0.916965  1
  Rh  Rh20  1  0.356897  0.356897  0.929307  1
  Rh  Rh21  1  0.356897  0.356897  0.356897  1
  Rh  Rh22  1  0.929307  0.356897  0.356897  1
  Rh  Rh23  1  0.356897  0.929307  0.356897  1
