# generated using pymatgen
data_YbEr3(B4Ru)4
_symmetry_space_group_name_H-M   'P 1'
_cell_length_a   3.53400800
_cell_length_b   5.94298076
_cell_length_c   11.48565549
_cell_angle_alpha   89.94175511
_cell_angle_beta   90.00000000
_cell_angle_gamma   90.00000000
_symmetry_Int_Tables_number   1
_chemical_formula_structural   YbEr3(B4Ru)4
_chemical_formula_sum   'Yb1 Er3 B16 Ru4'
_cell_volume   241.22783219
_cell_formula_units_Z   1
loop_
 _symmetry_equiv_pos_site_id
 _symmetry_equiv_pos_as_xyz
  1  'x, y, z'
loop_
 _atom_site_type_symbol
 _atom_site_label
 _atom_site_symmetry_multiplicity
 _atom_site_fract_x
 _atom_site_fract_y
 _atom_site_fract_z
 _atom_site_occupancy
  Yb  Yb0  1  0.500000  0.870316  0.649731  1
  Er  Er1  1  0.500000  0.628600  0.150243  1
  Er  Er2  1  0.500000  0.370958  0.848784  1
  Er  Er3  1  0.500000  0.128581  0.350876  1
  B  B4  1  0.000000  0.975610  0.192151  1
  B  B5  1  0.000000  0.025159  0.808031  1
  B  B6  1  0.000000  0.475060  0.308038  1
  B  B7  1  0.000000  0.524184  0.691679  1
  B  B8  1  0.000000  0.789519  0.314732  1
  B  B9  1  0.000000  0.211348  0.685418  1
  B  B10  1  0.000000  0.289238  0.185928  1
  B  B11  1  0.000000  0.711664  0.814136  1
  B  B12  1  0.000000  0.864292  0.469656  1
  B  B13  1  0.000000  0.135392  0.530187  1
  B  B14  1  0.000000  0.364432  0.030310  1
  B  B15  1  0.000000  0.635438  0.970000  1
  B  B16  1  0.000000  0.887309  0.047148  1
  B  B17  1  0.000000  0.112155  0.952929  1
  B  B18  1  0.000000  0.387755  0.453460  1
  B  B19  1  0.000000  0.613389  0.546981  1
  Ru  Ru20  1  0.500000  0.639990  0.407059  1
  Ru  Ru21  1  0.500000  0.360157  0.591181  1
  Ru  Ru22  1  0.500000  0.140792  0.092604  1
  Ru  Ru23  1  0.500000  0.858661  0.908738  1
