# generated using pymatgen
data_Sc3TiCo4
_symmetry_space_group_name_H-M   'P 1'
_cell_length_a   7.55559343
_cell_length_b   7.55559231
_cell_length_c   7.55559303
_cell_angle_alpha   131.74924750
_cell_angle_beta   131.74924083
_cell_angle_gamma   70.62535173
_symmetry_Int_Tables_number   1
_chemical_formula_structural   Sc3TiCo4
_chemical_formula_sum   'Sc6 Ti2 Co8'
_cell_volume   235.20366498
_cell_formula_units_Z   2
loop_
 _symmetry_equiv_pos_site_id
 _symmetry_equiv_pos_as_xyz
  1  'x, y, z'
loop_
 _atom_site_type_symbol
 _atom_site_label
 _atom_site_symmetry_multiplicity
 _atom_site_fract_x
 _atom_site_fract_y
 _atom_site_fract_z
 _atom_site_occupancy
  Sc  Sc0  1  0.250000  0.250000  0.000000  1
  Sc  Sc1  1  0.500001  0.000000  0.500001  1
  Sc  Sc2  1  0.001632  0.001632  0.000000  1
  Sc  Sc3  1  0.498367  0.498367  0.000000  1
  Sc  Sc4  1  0.748369  0.248368  0.500001  1
  Sc  Sc5  1  0.251632  0.751633  0.500001  1
  Ti  Ti6  1  0.750000  0.750000  0.000000  1
  Ti  Ti7  1  0.000000  0.500001  0.500001  1
  Co  Co8  1  0.641088  0.125001  0.016088  1
  Co  Co9  1  0.874999  0.391088  0.016088  1
  Co  Co10  1  0.108912  0.125000  0.483911  1
  Co  Co11  1  0.874999  0.858912  0.483911  1
  Co  Co12  1  0.374999  0.391087  0.516087  1
  Co  Co13  1  0.641088  0.625000  0.516087  1
  Co  Co14  1  0.108912  0.624999  0.983910  1
  Co  Co15  1  0.375001  0.858913  0.983914  1
