# generated using pymatgen
data_Ta6Fe5Si12Rh
_symmetry_space_group_name_H-M   'P 1'
_cell_length_a   9.51701501
_cell_length_b   9.49188377
_cell_length_c   9.49701800
_cell_angle_alpha   148.61136792
_cell_angle_beta   132.94147818
_cell_angle_gamma   57.56516653
_symmetry_Int_Tables_number   1
_chemical_formula_structural   Ta6Fe5Si12Rh
_chemical_formula_sum   'Ta6 Fe5 Si12 Rh1'
_cell_volume   324.79594085
_cell_formula_units_Z   1
loop_
 _symmetry_equiv_pos_site_id
 _symmetry_equiv_pos_as_xyz
  1  'x, y, z'
loop_
 _atom_site_type_symbol
 _atom_site_label
 _atom_site_symmetry_multiplicity
 _atom_site_fract_x
 _atom_site_fract_y
 _atom_site_fract_z
 _atom_site_occupancy
  Ta  Ta0  1  0.849457  0.594326  0.257389  1
  Ta  Ta1  1  0.150543  0.405674  0.742611  1
  Ta  Ta2  1  0.665526  0.407313  0.257750  1
  Ta  Ta3  1  0.334474  0.592687  0.742250  1
  Ta  Ta4  1  0.135841  0.139152  0.997529  1
  Ta  Ta5  1  0.864159  0.860848  0.002471  1
  Fe  Fe6  1  0.750758  0.003329  0.750827  1
  Fe  Fe7  1  0.000000  0.000000  0.500000  1
  Fe  Fe8  1  0.500000  0.000000  0.000000  1
  Fe  Fe9  1  0.249242  0.996671  0.249173  1
  Fe  Fe10  1  0.000000  0.500000  0.000000  1
  Si  Si11  1  0.479678  0.121847  0.334439  1
  Si  Si12  1  0.520322  0.878153  0.665561  1
  Si  Si13  1  0.209231  0.858124  0.344845  1
  Si  Si14  1  0.790769  0.141876  0.655155  1
  Si  Si15  1  0.707339  0.718777  0.022173  1
  Si  Si16  1  0.292661  0.281223  0.977827  1
  Si  Si17  1  0.500348  0.738579  0.239512  1
  Si  Si18  1  0.499652  0.261421  0.760488  1
  Si  Si19  1  0.999714  0.260167  0.260372  1
  Si  Si20  1  0.203597  0.718532  0.503509  1
  Si  Si21  1  0.000286  0.739833  0.739628  1
  Si  Si22  1  0.796403  0.281468  0.496491  1
  Rh  Rh23  1  0.500000  0.500000  0.500000  1
