# generated using pymatgen
data_SmLuHf2(NiP)4
_symmetry_space_group_name_H-M   'P 1'
_cell_length_a   3.85239100
_cell_length_b   3.85239034
_cell_length_c   14.60412300
_cell_angle_alpha   90.00000000
_cell_angle_beta   90.00000000
_cell_angle_gamma   119.99999706
_symmetry_Int_Tables_number   1
_chemical_formula_structural   SmLuHf2(NiP)4
_chemical_formula_sum   'Sm1 Lu1 Hf2 Ni4 P4'
_cell_volume   187.70108003
_cell_formula_units_Z   1
loop_
 _symmetry_equiv_pos_site_id
 _symmetry_equiv_pos_as_xyz
  1  'x, y, z'
loop_
 _atom_site_type_symbol
 _atom_site_label
 _atom_site_symmetry_multiplicity
 _atom_site_fract_x
 _atom_site_fract_y
 _atom_site_fract_z
 _atom_site_occupancy
  Sm  Sm0  1  0.000000  0.000000  0.500000  1
  Lu  Lu1  1  0.000000  0.000000  0.000000  1
  Hf  Hf2  1  0.000000  0.000000  0.245484  1
  Hf  Hf3  1  0.000000  0.000000  0.754516  1
  Ni  Ni4  1  0.333333  0.666667  0.343895  1
  Ni  Ni5  1  0.666667  0.333333  0.656105  1
  Ni  Ni6  1  0.666667  0.333333  0.856241  1
  Ni  Ni7  1  0.333333  0.666667  0.143759  1
  P  P8  1  0.333333  0.666667  0.880091  1
  P  P9  1  0.666667  0.333333  0.119909  1
  P  P10  1  0.666667  0.333333  0.369510  1
  P  P11  1  0.333333  0.666667  0.630490  1
