# generated using pymatgen
data_La9Pr7(AgIr)4
_symmetry_space_group_name_H-M   'P 1'
_cell_length_a   9.89029534
_cell_length_b   9.89029518
_cell_length_c   9.89134000
_cell_angle_alpha   59.99651206
_cell_angle_beta   59.99651258
_cell_angle_gamma   60.32743144
_symmetry_Int_Tables_number   1
_chemical_formula_structural   La9Pr7(AgIr)4
_chemical_formula_sum   'La9 Pr7 Ag4 Ir4'
_cell_volume   685.80210254
_cell_formula_units_Z   1
loop_
 _symmetry_equiv_pos_site_id
 _symmetry_equiv_pos_as_xyz
  1  'x, y, z'
loop_
 _atom_site_type_symbol
 _atom_site_label
 _atom_site_symmetry_multiplicity
 _atom_site_fract_x
 _atom_site_fract_y
 _atom_site_fract_z
 _atom_site_occupancy
  La  La0  1  0.351387  0.351387  0.351417  1
  La  La1  1  0.351387  0.351387  0.945811  1
  La  La2  1  0.352467  0.947739  0.349897  1
  La  La3  1  0.947739  0.352467  0.349897  1
  La  La4  1  0.808907  0.188208  0.191782  1
  La  La5  1  0.188208  0.808907  0.811104  1
  La  La6  1  0.188208  0.808907  0.191782  1
  La  La7  1  0.808907  0.188208  0.811104  1
  La  La8  1  0.190691  0.190691  0.809309  1
  Pr  Pr9  1  0.806500  0.806500  0.193500  1
  Pr  Pr10  1  0.935815  0.563397  0.564182  1
  Pr  Pr11  1  0.563397  0.935815  0.936606  1
  Pr  Pr12  1  0.563397  0.935815  0.564182  1
  Pr  Pr13  1  0.935815  0.563397  0.936606  1
  Pr  Pr14  1  0.562893  0.562893  0.937107  1
  Pr  Pr15  1  0.937023  0.937023  0.562977  1
  Ag  Ag16  1  0.581443  0.581443  0.578937  1
  Ag  Ag17  1  0.581443  0.581443  0.258175  1
  Ag  Ag18  1  0.580824  0.258848  0.580164  1
  Ag  Ag19  1  0.258848  0.580824  0.580164  1
  Ir  Ir20  1  0.141526  0.141526  0.141181  1
  Ir  Ir21  1  0.141526  0.141526  0.575768  1
  Ir  Ir22  1  0.147736  0.573914  0.139175  1
  Ir  Ir23  1  0.573914  0.147736  0.139175  1
