# generated using pymatgen
data_HoPu3(ReC2)2
_symmetry_space_group_name_H-M   'P 1'
_cell_length_a   5.12934500
_cell_length_b   6.42842300
_cell_length_c   9.85092100
_cell_angle_alpha   90.00000000
_cell_angle_beta   90.00000000
_cell_angle_gamma   90.00000000
_symmetry_Int_Tables_number   1
_chemical_formula_structural   HoPu3(ReC2)2
_chemical_formula_sum   'Ho2 Pu6 Re4 C8'
_cell_volume   324.82032251
_cell_formula_units_Z   2
loop_
 _symmetry_equiv_pos_site_id
 _symmetry_equiv_pos_as_xyz
  1  'x, y, z'
loop_
 _atom_site_type_symbol
 _atom_site_label
 _atom_site_symmetry_multiplicity
 _atom_site_fract_x
 _atom_site_fract_y
 _atom_site_fract_z
 _atom_site_occupancy
  Ho  Ho0  1  0.250000  0.315072  0.446161  1
  Ho  Ho1  1  0.750000  0.184928  0.946161  1
  Pu  Pu2  1  0.250000  0.469095  0.782490  1
  Pu  Pu3  1  0.750000  0.030905  0.282490  1
  Pu  Pu4  1  0.250000  0.965987  0.724508  1
  Pu  Pu5  1  0.750000  0.534013  0.224508  1
  Pu  Pu6  1  0.250000  0.814422  0.047908  1
  Pu  Pu7  1  0.750000  0.685578  0.547908  1
  Re  Re8  1  0.250000  0.286390  0.131183  1
  Re  Re9  1  0.750000  0.213610  0.631183  1
  Re  Re10  1  0.250000  0.785662  0.369375  1
  Re  Re11  1  0.750000  0.714338  0.869375  1
  C  C12  1  0.250000  0.175987  0.944750  1
  C  C13  1  0.750000  0.823993  0.058320  1
  C  C14  1  0.250000  0.676007  0.558320  1
  C  C15  1  0.750000  0.324013  0.444750  1
  C  C16  1  0.250000  0.047745  0.254646  1
  C  C17  1  0.750000  0.452255  0.754646  1
  C  C18  1  0.250000  0.552511  0.240659  1
  C  C19  1  0.750000  0.947489  0.740659  1
