# generated using pymatgen
data_Ho2Sc8Zn3Ru
_symmetry_space_group_name_H-M   'P 1'
_cell_length_a   8.89120182
_cell_length_b   8.88471265
_cell_length_c   9.09242100
_cell_angle_alpha   90.00005255
_cell_angle_beta   90.00040919
_cell_angle_gamma   119.97498832
_symmetry_Int_Tables_number   1
_chemical_formula_structural   Ho2Sc8Zn3Ru
_chemical_formula_sum   'Ho4 Sc16 Zn6 Ru2'
_cell_volume   622.19056992
_cell_formula_units_Z   2
loop_
 _symmetry_equiv_pos_site_id
 _symmetry_equiv_pos_as_xyz
  1  'x, y, z'
loop_
 _atom_site_type_symbol
 _atom_site_label
 _atom_site_symmetry_multiplicity
 _atom_site_fract_x
 _atom_site_fract_y
 _atom_site_fract_z
 _atom_site_occupancy
  Ho  Ho0  1  0.916955  0.458473  0.250012  1
  Ho  Ho1  1  0.460626  0.538707  0.749983  1
  Ho  Ho2  1  0.460629  0.921912  0.749981  1
  Ho  Ho3  1  0.077024  0.538512  0.749982  1
  Sc  Sc4  1  0.000952  0.000475  0.499169  1
  Sc  Sc5  1  0.000952  0.000473  0.000834  1
  Sc  Sc6  1  0.209497  0.796243  0.440295  1
  Sc  Sc7  1  0.209499  0.413253  0.440290  1
  Sc  Sc8  1  0.586837  0.793417  0.438453  1
  Sc  Sc9  1  0.790926  0.205445  0.554125  1
  Sc  Sc10  1  0.790918  0.585470  0.554123  1
  Sc  Sc11  1  0.416562  0.208279  0.551517  1
  Sc  Sc12  1  0.790918  0.205459  0.945868  1
  Sc  Sc13  1  0.790917  0.585464  0.945880  1
  Sc  Sc14  1  0.416561  0.208276  0.948461  1
  Sc  Sc15  1  0.209503  0.796236  0.059711  1
  Sc  Sc16  1  0.209503  0.413262  0.059717  1
  Sc  Sc17  1  0.586841  0.793428  0.061558  1
  Sc  Sc18  1  0.538173  0.457969  0.250009  1
  Sc  Sc19  1  0.538169  0.080211  0.250006  1
  Zn  Zn20  1  0.883728  0.107909  0.250007  1
  Zn  Zn21  1  0.883723  0.775818  0.250007  1
  Zn  Zn22  1  0.228275  0.114143  0.250008  1
  Zn  Zn23  1  0.109776  0.891964  0.749995  1
  Zn  Zn24  1  0.109771  0.217809  0.749998  1
  Zn  Zn25  1  0.782398  0.891200  0.750001  1
  Ru  Ru26  1  0.332869  0.666436  0.250001  1
  Ru  Ru27  1  0.667496  0.333757  0.750006  1
