# generated using pymatgen
data_Y6Er2Cd2NiIr
_symmetry_space_group_name_H-M   'P 1'
_cell_length_a   9.60919082
_cell_length_b   9.60919182
_cell_length_c   9.65715300
_cell_angle_alpha   59.83475883
_cell_angle_beta   59.83475536
_cell_angle_gamma   59.60399851
_symmetry_Int_Tables_number   1
_chemical_formula_structural   Y6Er2Cd2NiIr
_chemical_formula_sum   'Y12 Er4 Cd4 Ni2 Ir2'
_cell_volume   627.05901055
_cell_formula_units_Z   2
loop_
 _symmetry_equiv_pos_site_id
 _symmetry_equiv_pos_as_xyz
  1  'x, y, z'
loop_
 _atom_site_type_symbol
 _atom_site_label
 _atom_site_symmetry_multiplicity
 _atom_site_fract_x
 _atom_site_fract_y
 _atom_site_fract_z
 _atom_site_occupancy
  Y  Y0  1  0.058337  0.438315  0.441417  1
  Y  Y1  1  0.438315  0.058337  0.061931  1
  Y  Y2  1  0.438315  0.058337  0.441417  1
  Y  Y3  1  0.058337  0.438315  0.061931  1
  Y  Y4  1  0.439801  0.439801  0.060199  1
  Y  Y5  1  0.060160  0.060160  0.439840  1
  Y  Y6  1  0.187950  0.810496  0.815238  1
  Y  Y7  1  0.810496  0.187950  0.186316  1
  Y  Y8  1  0.810496  0.187950  0.815238  1
  Y  Y9  1  0.187950  0.810496  0.186316  1
  Y  Y10  1  0.815044  0.815044  0.184956  1
  Y  Y11  1  0.189522  0.189522  0.810478  1
  Er  Er12  1  0.599613  0.599613  0.594088  1
  Er  Er13  1  0.599613  0.599613  0.206686  1
  Er  Er14  1  0.602255  0.204538  0.596604  1
  Er  Er15  1  0.204538  0.602255  0.596604  1
  Cd  Cd16  1  0.829686  0.829686  0.832431  1
  Cd  Cd17  1  0.829686  0.829686  0.508195  1
  Cd  Cd18  1  0.830002  0.506532  0.831732  1
  Cd  Cd19  1  0.506532  0.830002  0.831732  1
  Ni  Ni20  1  0.392903  0.822150  0.392474  1
  Ni  Ni21  1  0.822150  0.392903  0.392474  1
  Ir  Ir22  1  0.394149  0.394149  0.392322  1
  Ir  Ir23  1  0.394149  0.394149  0.819381  1
