# generated using pymatgen
data_YSi4PdRh5
_symmetry_space_group_name_H-M   'P 1'
_cell_length_a   7.08144294
_cell_length_b   7.08144350
_cell_length_c   3.79990400
_cell_angle_alpha   90.00000000
_cell_angle_beta   90.00000000
_cell_angle_gamma   120.59960887
_symmetry_Int_Tables_number   1
_chemical_formula_structural   YSi4PdRh5
_chemical_formula_sum   'Y1 Si4 Pd1 Rh5'
_cell_volume   164.01778457
_cell_formula_units_Z   1
loop_
 _symmetry_equiv_pos_site_id
 _symmetry_equiv_pos_as_xyz
  1  'x, y, z'
loop_
 _atom_site_type_symbol
 _atom_site_label
 _atom_site_symmetry_multiplicity
 _atom_site_fract_x
 _atom_site_fract_y
 _atom_site_fract_z
 _atom_site_occupancy
  Y  Y0  1  0.996823  0.003177  0.000000  1
  Si  Si1  1  0.800608  0.199392  0.500000  1
  Si  Si2  1  0.794528  0.596857  0.500000  1
  Si  Si3  1  0.403143  0.205472  0.500000  1
  Si  Si4  1  0.337775  0.662225  0.000000  1
  Pd  Pd5  1  0.196576  0.803424  0.500000  1
  Rh  Rh6  1  0.533884  0.466116  0.000000  1
  Rh  Rh7  1  0.532092  0.064786  0.000000  1
  Rh  Rh8  1  0.935214  0.467908  0.000000  1
  Rh  Rh9  1  0.198299  0.395610  0.500000  1
  Rh  Rh10  1  0.604390  0.801701  0.500000  1
