# generated using pymatgen
data_Li4Dy15HoPb16
_symmetry_space_group_name_H-M   'P 1'
_cell_length_a   7.68412802
_cell_length_b   15.76006400
_cell_length_c   8.30476702
_cell_angle_alpha   90.00161433
_cell_angle_beta   89.99236710
_cell_angle_gamma   90.00139897
_symmetry_Int_Tables_number   1
_chemical_formula_structural   Li4Dy15HoPb16
_chemical_formula_sum   'Li4 Dy15 Ho1 Pb16'
_cell_volume   1005.72678732
_cell_formula_units_Z   1
loop_
 _symmetry_equiv_pos_site_id
 _symmetry_equiv_pos_as_xyz
  1  'x, y, z'
loop_
 _atom_site_type_symbol
 _atom_site_label
 _atom_site_symmetry_multiplicity
 _atom_site_fract_x
 _atom_site_fract_y
 _atom_site_fract_z
 _atom_site_occupancy
  Li  Li0  1  0.833987  0.749988  0.508505  1
  Li  Li1  1  0.333973  0.749990  0.991518  1
  Li  Li2  1  0.166016  0.250001  0.491520  1
  Li  Li3  1  0.666020  0.249988  0.008483  1
  Dy  Dy4  1  0.663999  0.628198  0.159373  1
  Dy  Dy5  1  0.163900  0.871784  0.340545  1
  Dy  Dy6  1  0.336091  0.128194  0.840545  1
  Dy  Dy7  1  0.836135  0.371830  0.659469  1
  Dy  Dy8  1  0.336072  0.371813  0.840522  1
  Dy  Dy9  1  0.836083  0.128196  0.659460  1
  Dy  Dy10  1  0.663917  0.871785  0.159449  1
  Dy  Dy11  1  0.163891  0.628205  0.340610  1
  Dy  Dy12  1  0.494602  0.590141  0.688309  1
  Dy  Dy13  1  0.994607  0.909912  0.811758  1
  Dy  Dy14  1  0.505399  0.090133  0.311746  1
  Dy  Dy15  1  0.005407  0.409885  0.188236  1
  Dy  Dy16  1  0.505389  0.409869  0.311758  1
  Dy  Dy17  1  0.005403  0.090130  0.188238  1
  Dy  Dy18  1  0.494609  0.909854  0.688261  1
  Ho  Ho19  1  0.994594  0.590104  0.811679  1
  Pb  Pb20  1  0.690120  0.458018  0.959591  1
  Pb  Pb21  1  0.190047  0.042001  0.540356  1
  Pb  Pb22  1  0.309971  0.957973  0.040362  1
  Pb  Pb23  1  0.809988  0.542043  0.459721  1
  Pb  Pb24  1  0.309827  0.542061  0.040273  1
  Pb  Pb25  1  0.809948  0.957981  0.459634  1
  Pb  Pb26  1  0.690043  0.042018  0.959649  1
  Pb  Pb27  1  0.190013  0.458005  0.540414  1
  Pb  Pb28  1  0.484154  0.749989  0.405172  1
  Pb  Pb29  1  0.984172  0.749971  0.094796  1
  Pb  Pb30  1  0.515850  0.250006  0.594854  1
  Pb  Pb31  1  0.015848  0.250010  0.905143  1
  Pb  Pb32  1  0.688467  0.749968  0.839759  1
  Pb  Pb33  1  0.188288  0.749946  0.660294  1
  Pb  Pb34  1  0.311580  0.250004  0.160206  1
  Pb  Pb35  1  0.811590  0.250006  0.339790  1
