# generated using pymatgen
data_Ce8Zn3Si12B
_symmetry_space_group_name_H-M   'P 1'
_cell_length_a   8.04708000
_cell_length_b   8.04708025
_cell_length_c   8.47898500
_cell_angle_alpha   90.00000000
_cell_angle_beta   90.00000000
_cell_angle_gamma   119.99999895
_symmetry_Int_Tables_number   1
_chemical_formula_structural   Ce8Zn3Si12B
_chemical_formula_sum   'Ce8 Zn3 Si12 B1'
_cell_volume   475.50069356
_cell_formula_units_Z   1
loop_
 _symmetry_equiv_pos_site_id
 _symmetry_equiv_pos_as_xyz
  1  'x, y, z'
loop_
 _atom_site_type_symbol
 _atom_site_label
 _atom_site_symmetry_multiplicity
 _atom_site_fract_x
 _atom_site_fract_y
 _atom_site_fract_z
 _atom_site_occupancy
  Ce  Ce0  1  0.000000  0.000000  0.247325  1
  Ce  Ce1  1  0.000000  0.000000  0.752788  1
  Ce  Ce2  1  0.497524  0.502476  0.244148  1
  Ce  Ce3  1  0.497524  0.995048  0.244148  1
  Ce  Ce4  1  0.004952  0.502476  0.244148  1
  Ce  Ce5  1  0.495670  0.504330  0.756033  1
  Ce  Ce6  1  0.495670  0.991340  0.756033  1
  Ce  Ce7  1  0.008660  0.504330  0.756033  1
  Zn  Zn8  1  0.333333  0.666667  0.495515  1
  Zn  Zn9  1  0.666667  0.333333  0.507600  1
  Zn  Zn10  1  0.666667  0.333333  0.995545  1
  Si  Si11  1  0.166378  0.833622  0.501256  1
  Si  Si12  1  0.166378  0.332756  0.501256  1
  Si  Si13  1  0.667244  0.833622  0.501256  1
  Si  Si14  1  0.833706  0.166294  0.498373  1
  Si  Si15  1  0.833706  0.667411  0.498373  1
  Si  Si16  1  0.332589  0.166294  0.498373  1
  Si  Si17  1  0.837970  0.162030  0.999830  1
  Si  Si18  1  0.837970  0.675939  0.999830  1
  Si  Si19  1  0.324061  0.162030  0.999830  1
  Si  Si20  1  0.182451  0.817549  0.000848  1
  Si  Si21  1  0.182451  0.364903  0.000848  1
  Si  Si22  1  0.635097  0.817549  0.000848  1
  B  B23  1  0.333333  0.666667  0.999763  1
