# generated using pymatgen
data_Tb4Sc4Ir3Au
_symmetry_space_group_name_H-M   'P 1'
_cell_length_a   4.43757600
_cell_length_b   7.09189640
_cell_length_c   8.66362878
_cell_angle_alpha   91.31758072
_cell_angle_beta   90.00000000
_cell_angle_gamma   90.00000000
_symmetry_Int_Tables_number   1
_chemical_formula_structural   Tb4Sc4Ir3Au
_chemical_formula_sum   'Tb4 Sc4 Ir3 Au1'
_cell_volume   272.57949327
_cell_formula_units_Z   1
loop_
 _symmetry_equiv_pos_site_id
 _symmetry_equiv_pos_as_xyz
  1  'x, y, z'
loop_
 _atom_site_type_symbol
 _atom_site_label
 _atom_site_symmetry_multiplicity
 _atom_site_fract_x
 _atom_site_fract_y
 _atom_site_fract_z
 _atom_site_occupancy
  Tb  Tb0  1  0.250000  0.012523  0.330528  1
  Tb  Tb1  1  0.250000  0.534545  0.182829  1
  Tb  Tb2  1  0.750000  0.983894  0.670089  1
  Tb  Tb3  1  0.750000  0.482864  0.818461  1
  Sc  Sc4  1  0.250000  0.133149  0.921941  1
  Sc  Sc5  1  0.250000  0.641762  0.570130  1
  Sc  Sc6  1  0.750000  0.855277  0.062623  1
  Sc  Sc7  1  0.750000  0.359446  0.435289  1
  Ir  Ir8  1  0.250000  0.260291  0.604169  1
  Ir  Ir9  1  0.250000  0.752661  0.901825  1
  Ir  Ir10  1  0.750000  0.738816  0.394627  1
  Au  Au11  1  0.750000  0.244774  0.107486  1
