# generated using pymatgen
data_Ho16Al4FePd3
_symmetry_space_group_name_H-M   'P 1'
_cell_length_a   9.53000021
_cell_length_b   9.52999903
_cell_length_c   9.53000034
_cell_angle_alpha   59.77727720
_cell_angle_beta   59.77728736
_cell_angle_gamma   59.77728010
_symmetry_Int_Tables_number   1
_chemical_formula_structural   Ho16Al4FePd3
_chemical_formula_sum   'Ho16 Al4 Fe1 Pd3'
_cell_volume   608.92254697
_cell_formula_units_Z   1
loop_
 _symmetry_equiv_pos_site_id
 _symmetry_equiv_pos_as_xyz
  1  'x, y, z'
loop_
 _atom_site_type_symbol
 _atom_site_label
 _atom_site_symmetry_multiplicity
 _atom_site_fract_x
 _atom_site_fract_y
 _atom_site_fract_z
 _atom_site_occupancy
  Ho  Ho0  1  0.356872  0.356872  0.356872  1
  Ho  Ho1  1  0.349578  0.349578  0.940384  1
  Ho  Ho2  1  0.349578  0.940384  0.349578  1
  Ho  Ho3  1  0.940384  0.349578  0.349578  1
  Ho  Ho4  1  0.818647  0.190347  0.190347  1
  Ho  Ho5  1  0.192359  0.806435  0.806435  1
  Ho  Ho6  1  0.190347  0.818647  0.190347  1
  Ho  Ho7  1  0.806435  0.192359  0.806435  1
  Ho  Ho8  1  0.190347  0.190347  0.818647  1
  Ho  Ho9  1  0.806435  0.806435  0.192359  1
  Ho  Ho10  1  0.934419  0.564063  0.564063  1
  Ho  Ho11  1  0.559492  0.936272  0.936272  1
  Ho  Ho12  1  0.564063  0.934419  0.564063  1
  Ho  Ho13  1  0.936272  0.559492  0.936272  1
  Ho  Ho14  1  0.564063  0.564063  0.934419  1
  Ho  Ho15  1  0.936272  0.936272  0.559492  1
  Al  Al16  1  0.577587  0.577587  0.577587  1
  Al  Al17  1  0.578885  0.578885  0.266618  1
  Al  Al18  1  0.578885  0.266618  0.578885  1
  Al  Al19  1  0.266618  0.578885  0.578885  1
  Fe  Fe20  1  0.143161  0.143161  0.143161  1
  Pd  Pd21  1  0.145831  0.145831  0.567639  1
  Pd  Pd22  1  0.145831  0.567639  0.145831  1
  Pd  Pd23  1  0.567639  0.145831  0.145831  1
