# generated using pymatgen
data_Zr4Ti4Re3Mo
_symmetry_space_group_name_H-M   'P 1'
_cell_length_a   5.51705105
_cell_length_b   5.40013827
_cell_length_c   8.46914318
_cell_angle_alpha   89.99999932
_cell_angle_beta   90.84091317
_cell_angle_gamma   119.30144460
_symmetry_Int_Tables_number   1
_chemical_formula_structural   Zr4Ti4Re3Mo
_chemical_formula_sum   'Zr4 Ti4 Re3 Mo1'
_cell_volume   220.00608157
_cell_formula_units_Z   1
loop_
 _symmetry_equiv_pos_site_id
 _symmetry_equiv_pos_as_xyz
  1  'x, y, z'
loop_
 _atom_site_type_symbol
 _atom_site_label
 _atom_site_symmetry_multiplicity
 _atom_site_fract_x
 _atom_site_fract_y
 _atom_site_fract_z
 _atom_site_occupancy
  Zr  Zr0  1  0.330444  0.665635  0.438160  1
  Zr  Zr1  1  0.669208  0.335245  0.939551  1
  Zr  Zr2  1  0.669556  0.335190  0.561840  1
  Zr  Zr3  1  0.330792  0.666038  0.060449  1
  Ti  Ti4  1  0.658504  0.834017  0.752619  1
  Ti  Ti5  1  0.341496  0.175514  0.247381  1
  Ti  Ti6  1  0.832185  0.172732  0.248464  1
  Ti  Ti7  1  0.167815  0.340546  0.751536  1
  Re  Re8  1  0.168264  0.831503  0.750921  1
  Re  Re9  1  0.831736  0.663240  0.249079  1
  Re  Re10  1  0.000000  0.992683  0.000000  1
  Mo  Mo11  1  0.000000  0.987656  0.500000  1
