# generated using pymatgen
data_Tm4Cu5GeRh7
_symmetry_space_group_name_H-M   'P 1'
_cell_length_a   7.05936764
_cell_length_b   7.05936730
_cell_length_c   7.05936700
_cell_angle_alpha   108.43612133
_cell_angle_beta   109.99123410
_cell_angle_gamma   109.99123327
_symmetry_Int_Tables_number   1
_chemical_formula_structural   Tm4Cu5GeRh7
_chemical_formula_sum   'Tm4 Cu5 Ge1 Rh7'
_cell_volume   270.75057636
_cell_formula_units_Z   1
loop_
 _symmetry_equiv_pos_site_id
 _symmetry_equiv_pos_as_xyz
  1  'x, y, z'
loop_
 _atom_site_type_symbol
 _atom_site_label
 _atom_site_symmetry_multiplicity
 _atom_site_fract_x
 _atom_site_fract_y
 _atom_site_fract_z
 _atom_site_occupancy
  Tm  Tm0  1  0.989442  0.994721  0.494721  1
  Tm  Tm1  1  0.010558  0.505279  0.005279  1
  Tm  Tm2  1  0.500000  0.994721  0.005279  1
  Tm  Tm3  1  0.500000  0.505279  0.494721  1
  Cu  Cu4  1  0.750172  0.252489  0.502317  1
  Cu  Cu5  1  0.750172  0.497683  0.247855  1
  Cu  Cu6  1  0.500000  0.250000  0.750000  1
  Cu  Cu7  1  0.249828  0.497683  0.747511  1
  Cu  Cu8  1  0.249828  0.752145  0.502317  1
  Ge  Ge9  1  0.000000  0.000000  0.000000  1
  Rh  Rh10  1  0.500000  0.750000  0.250000  1
  Rh  Rh11  1  0.707482  0.695928  0.988445  1
  Rh  Rh12  1  0.292518  0.011555  0.304072  1
  Rh  Rh13  1  0.000000  0.293777  0.293777  1
  Rh  Rh14  1  0.292518  0.280964  0.988445  1
  Rh  Rh15  1  0.707482  0.011555  0.719036  1
  Rh  Rh16  1  0.000000  0.706223  0.706223  1
