# generated using pymatgen
data_Tb10ZnIrPb6
_symmetry_space_group_name_H-M   'P 1'
_cell_length_a   9.28227900
_cell_length_b   9.28227925
_cell_length_c   6.77941700
_cell_angle_alpha   90.00000000
_cell_angle_beta   90.00000000
_cell_angle_gamma   119.99999553
_symmetry_Int_Tables_number   1
_chemical_formula_structural   Tb10ZnIrPb6
_chemical_formula_sum   'Tb10 Zn1 Ir1 Pb6'
_cell_volume   505.86222176
_cell_formula_units_Z   1
loop_
 _symmetry_equiv_pos_site_id
 _symmetry_equiv_pos_as_xyz
  1  'x, y, z'
loop_
 _atom_site_type_symbol
 _atom_site_label
 _atom_site_symmetry_multiplicity
 _atom_site_fract_x
 _atom_site_fract_y
 _atom_site_fract_z
 _atom_site_occupancy
  Tb  Tb0  1  0.248735  0.248735  0.732563  1
  Tb  Tb1  1  0.000000  0.751265  0.732563  1
  Tb  Tb2  1  0.248735  0.000000  0.267437  1
  Tb  Tb3  1  0.751265  0.000000  0.732563  1
  Tb  Tb4  1  0.333333  0.666667  0.500000  1
  Tb  Tb5  1  0.666667  0.333333  0.500000  1
  Tb  Tb6  1  0.751265  0.751265  0.267437  1
  Tb  Tb7  1  0.000000  0.248735  0.267437  1
  Tb  Tb8  1  0.333333  0.666667  0.000000  1
  Tb  Tb9  1  0.666667  0.333333  0.000000  1
  Zn  Zn10  1  0.000000  0.000000  0.000000  1
  Ir  Ir11  1  0.000000  0.000000  0.500000  1
  Pb  Pb12  1  0.603409  0.000000  0.246958  1
  Pb  Pb13  1  0.000000  0.603409  0.246958  1
  Pb  Pb14  1  0.603409  0.603409  0.753042  1
  Pb  Pb15  1  0.396591  0.396591  0.246958  1
  Pb  Pb16  1  0.000000  0.396591  0.753042  1
  Pb  Pb17  1  0.396591  0.000000  0.753042  1
