# generated using pymatgen
data_Ho8TmLu11Pb16
_symmetry_space_group_name_H-M   'P 1'
_cell_length_a   8.11697495
_cell_length_b   15.40625100
_cell_length_c   8.17743327
_cell_angle_alpha   90.00000000
_cell_angle_beta   89.90468230
_cell_angle_gamma   90.00000000
_symmetry_Int_Tables_number   1
_chemical_formula_structural   Ho8TmLu11Pb16
_chemical_formula_sum   'Ho8 Tm1 Lu11 Pb16'
_cell_volume   1022.60422441
_cell_formula_units_Z   1
loop_
 _symmetry_equiv_pos_site_id
 _symmetry_equiv_pos_as_xyz
  1  'x, y, z'
loop_
 _atom_site_type_symbol
 _atom_site_label
 _atom_site_symmetry_multiplicity
 _atom_site_fract_x
 _atom_site_fract_y
 _atom_site_fract_z
 _atom_site_occupancy
  Ho  Ho0  1  0.462128  0.599183  0.676235  1
  Ho  Ho1  1  0.962246  0.900614  0.823563  1
  Ho  Ho2  1  0.537343  0.099097  0.324222  1
  Ho  Ho3  1  0.037527  0.401073  0.177033  1
  Ho  Ho4  1  0.537343  0.400903  0.324222  1
  Ho  Ho5  1  0.037527  0.098927  0.177033  1
  Ho  Ho6  1  0.462128  0.900817  0.676235  1
  Ho  Ho7  1  0.962246  0.599386  0.823563  1
  Tm  Tm8  1  0.707221  0.250000  0.995085  1
  Lu  Lu9  1  0.624454  0.622714  0.157332  1
  Lu  Lu10  1  0.124955  0.877956  0.342506  1
  Lu  Lu11  1  0.375446  0.122250  0.842081  1
  Lu  Lu12  1  0.875469  0.378253  0.657713  1
  Lu  Lu13  1  0.375446  0.377750  0.842081  1
  Lu  Lu14  1  0.875469  0.121747  0.657713  1
  Lu  Lu15  1  0.624454  0.877286  0.157332  1
  Lu  Lu16  1  0.124955  0.622044  0.342506  1
  Lu  Lu17  1  0.793296  0.750000  0.494241  1
  Lu  Lu18  1  0.293002  0.750000  0.005109  1
  Lu  Lu19  1  0.207153  0.250000  0.505565  1
  Pb  Pb20  1  0.716017  0.457655  0.965080  1
  Pb  Pb21  1  0.216585  0.042815  0.535487  1
  Pb  Pb22  1  0.283727  0.957111  0.034938  1
  Pb  Pb23  1  0.783335  0.542986  0.464221  1
  Pb  Pb24  1  0.283727  0.542889  0.034938  1
  Pb  Pb25  1  0.783335  0.957014  0.464221  1
  Pb  Pb26  1  0.716017  0.042345  0.965080  1
  Pb  Pb27  1  0.216585  0.457185  0.535487  1
  Pb  Pb28  1  0.430621  0.750000  0.373434  1
  Pb  Pb29  1  0.931260  0.750000  0.126737  1
  Pb  Pb30  1  0.569440  0.250000  0.625986  1
  Pb  Pb31  1  0.070138  0.250000  0.872754  1
  Pb  Pb32  1  0.651212  0.750000  0.843239  1
  Pb  Pb33  1  0.151449  0.750000  0.655202  1
  Pb  Pb34  1  0.347841  0.250000  0.155958  1
  Pb  Pb35  1  0.848899  0.250000  0.345864  1
