# generated using pymatgen
data_Tb2Tc5P7Ru3Rh4
_symmetry_space_group_name_H-M   'P 1'
_cell_length_a   3.95582400
_cell_length_b   9.48872902
_cell_length_c   9.44945510
_cell_angle_alpha   119.79109100
_cell_angle_beta   89.99816564
_cell_angle_gamma   90.00127668
_symmetry_Int_Tables_number   1
_chemical_formula_structural   Tb2Tc5P7Ru3Rh4
_chemical_formula_sum   'Tb2 Tc5 P7 Ru3 Rh4'
_cell_volume   307.81713750
_cell_formula_units_Z   1
loop_
 _symmetry_equiv_pos_site_id
 _symmetry_equiv_pos_as_xyz
  1  'x, y, z'
loop_
 _atom_site_type_symbol
 _atom_site_label
 _atom_site_symmetry_multiplicity
 _atom_site_fract_x
 _atom_site_fract_y
 _atom_site_fract_z
 _atom_site_occupancy
  Tb  Tb0  1  0.261920  0.666136  0.332178  1
  Tb  Tb1  1  0.761994  0.334751  0.667668  1
  Tc  Tc2  1  0.761959  0.094179  0.875984  1
  Tc  Tc3  1  0.761871  0.121124  0.214680  1
  Tc  Tc4  1  0.761885  0.786921  0.907704  1
  Tc  Tc5  1  0.261897  0.887568  0.161487  1
  Tc  Tc6  1  0.261890  0.838948  0.724336  1
  P  P7  1  0.261823  0.998581  0.998118  1
  P  P8  1  0.761916  0.882610  0.601294  1
  P  P9  1  0.761877  0.396372  0.287178  1
  P  P10  1  0.761933  0.713726  0.112256  1
  P  P11  1  0.261941  0.122571  0.413237  1
  P  P12  1  0.261938  0.584221  0.704727  1
  P  P13  1  0.261967  0.298911  0.883517  1
  Ru  Ru14  1  0.261869  0.270140  0.111068  1
  Ru  Ru15  1  0.261936  0.370520  0.432435  1
  Ru  Ru16  1  0.261877  0.567878  0.938922  1
  Rh  Rh17  1  0.761889  0.610775  0.556065  1
  Rh  Rh18  1  0.761823  0.442219  0.056560  1
  Rh  Rh19  1  0.761863  0.943462  0.389304  1
  Rh  Rh20  1  0.261932  0.068386  0.631287  1
