# generated using pymatgen
data_HoEr3Ru4F28
_symmetry_space_group_name_H-M   'P 1'
_cell_length_a   5.54183070
_cell_length_b   8.86639997
_cell_length_c   11.86708500
_cell_angle_alpha   63.46985128
_cell_angle_beta   90.02878317
_cell_angle_gamma   89.98486908
_symmetry_Int_Tables_number   1
_chemical_formula_structural   HoEr3Ru4F28
_chemical_formula_sum   'Ho1 Er3 Ru4 F28'
_cell_volume   521.70100953
_cell_formula_units_Z   1
loop_
 _symmetry_equiv_pos_site_id
 _symmetry_equiv_pos_as_xyz
  1  'x, y, z'
loop_
 _atom_site_type_symbol
 _atom_site_label
 _atom_site_symmetry_multiplicity
 _atom_site_fract_x
 _atom_site_fract_y
 _atom_site_fract_z
 _atom_site_occupancy
  Ho  Ho0  1  0.757549  0.810427  0.770621  1
  Er  Er1  1  0.257167  0.190375  0.729256  1
  Er  Er2  1  0.242561  0.189572  0.229517  1
  Er  Er3  1  0.742469  0.810436  0.270500  1
  Ru  Ru4  1  0.754108  0.272561  0.954233  1
  Ru  Ru5  1  0.254202  0.727190  0.545739  1
  Ru  Ru6  1  0.246086  0.727142  0.046085  1
  Ru  Ru7  1  0.745977  0.272891  0.454035  1
  F  F8  1  0.453788  0.703069  0.920994  1
  F  F9  1  0.954521  0.296342  0.579268  1
  F  F10  1  0.545564  0.296261  0.079344  1
  F  F11  1  0.044185  0.703526  0.421209  1
  F  F12  1  0.454485  0.283952  0.546593  1
  F  F13  1  0.954954  0.715148  0.953986  1
  F  F14  1  0.545459  0.715831  0.453337  1
  F  F15  1  0.045961  0.284360  0.046450  1
  F  F16  1  0.764912  0.512563  0.857638  1
  F  F17  1  0.264971  0.487118  0.642505  1
  F  F18  1  0.234678  0.487084  0.142127  1
  F  F19  1  0.734803  0.513046  0.357769  1
  F  F20  1  0.754435  0.034186  0.047538  1
  F  F21  1  0.254768  0.965798  0.452854  1
  F  F22  1  0.245850  0.965588  0.952211  1
  F  F23  1  0.746006  0.034255  0.547089  1
  F  F24  1  0.971184  0.731954  0.643927  1
  F  F25  1  0.469730  0.267627  0.856423  1
  F  F26  1  0.030705  0.267858  0.356410  1
  F  F27  1  0.530793  0.732379  0.143452  1
  F  F28  1  0.041039  0.750831  0.173356  1
  F  F29  1  0.541431  0.249359  0.326360  1
  F  F30  1  0.958466  0.249579  0.826376  1
  F  F31  1  0.458528  0.750702  0.673134  1
  F  F32  1  0.430326  0.974991  0.234508  1
  F  F33  1  0.930644  0.024819  0.265500  1
  F  F34  1  0.567868  0.025227  0.765314  1
  F  F35  1  0.069828  0.975951  0.734341  1
