# generated using pymatgen
data_DyY5(Tm3Ru2)2
_symmetry_space_group_name_H-M   'P 1'
_cell_length_a   6.27575856
_cell_length_b   7.30972147
_cell_length_c   9.07783340
_cell_angle_alpha   89.91790089
_cell_angle_beta   89.50068927
_cell_angle_gamma   89.75457996
_symmetry_Int_Tables_number   1
_chemical_formula_structural   DyY5(Tm3Ru2)2
_chemical_formula_sum   'Dy1 Y5 Tm6 Ru4'
_cell_volume   416.41691791
_cell_formula_units_Z   1
loop_
 _symmetry_equiv_pos_site_id
 _symmetry_equiv_pos_as_xyz
  1  'x, y, z'
loop_
 _atom_site_type_symbol
 _atom_site_label
 _atom_site_symmetry_multiplicity
 _atom_site_fract_x
 _atom_site_fract_y
 _atom_site_fract_z
 _atom_site_occupancy
  Dy  Dy0  1  0.632338  0.040860  0.252644  1
  Y  Y1  1  0.368113  0.959608  0.747345  1
  Y  Y2  1  0.130322  0.459344  0.748145  1
  Y  Y3  1  0.869657  0.540605  0.251856  1
  Y  Y4  1  0.169259  0.177140  0.064684  1
  Y  Y5  1  0.830726  0.822836  0.935446  1
  Tm  Tm6  1  0.667783  0.325064  0.935171  1
  Tm  Tm7  1  0.832171  0.824360  0.562936  1
  Tm  Tm8  1  0.332220  0.674934  0.064996  1
  Tm  Tm9  1  0.167817  0.175641  0.436934  1
  Tm  Tm10  1  0.333437  0.676118  0.435503  1
  Tm  Tm11  1  0.666590  0.323897  0.564325  1
  Ru  Ru12  1  0.459645  0.385930  0.251092  1
  Ru  Ru13  1  0.540854  0.613325  0.748907  1
  Ru  Ru14  1  0.955300  0.115650  0.744675  1
  Ru  Ru15  1  0.043767  0.884688  0.255342  1
