# generated using pymatgen
data_Er8Tm5Th3(CdIr)4
_symmetry_space_group_name_H-M   'P 1'
_cell_length_a   9.64330477
_cell_length_b   9.64336082
_cell_length_c   9.64615100
_cell_angle_alpha   59.99043178
_cell_angle_beta   59.99023943
_cell_angle_gamma   59.99632309
_symmetry_Int_Tables_number   1
_chemical_formula_structural   Er8Tm5Th3(CdIr)4
_chemical_formula_sum   'Er8 Tm5 Th3 Cd4 Ir4'
_cell_volume   634.18774450
_cell_formula_units_Z   1
loop_
 _symmetry_equiv_pos_site_id
 _symmetry_equiv_pos_as_xyz
  1  'x, y, z'
loop_
 _atom_site_type_symbol
 _atom_site_label
 _atom_site_symmetry_multiplicity
 _atom_site_fract_x
 _atom_site_fract_y
 _atom_site_fract_z
 _atom_site_occupancy
  Er  Er0  1  0.437097  0.437293  0.062805  1
  Er  Er1  1  0.062006  0.060096  0.438948  1
  Er  Er2  1  0.186216  0.813881  0.813815  1
  Er  Er3  1  0.815894  0.184566  0.184162  1
  Er  Er4  1  0.815894  0.184566  0.815380  1
  Er  Er5  1  0.186216  0.813881  0.186087  1
  Er  Er6  1  0.815983  0.815481  0.184268  1
  Er  Er7  1  0.186099  0.186394  0.813753  1
  Tm  Tm8  1  0.197570  0.600850  0.600790  1
  Tm  Tm9  1  0.061667  0.439148  0.439303  1
  Tm  Tm10  1  0.437024  0.062746  0.062954  1
  Tm  Tm11  1  0.437024  0.062746  0.437276  1
  Tm  Tm12  1  0.061667  0.439148  0.059881  1
  Th  Th13  1  0.598426  0.600771  0.600042  1
  Th  Th14  1  0.598426  0.600771  0.200760  1
  Th  Th15  1  0.598417  0.200097  0.600742  1
  Cd  Cd16  1  0.835426  0.831135  0.831462  1
  Cd  Cd17  1  0.835426  0.831135  0.501977  1
  Cd  Cd18  1  0.835514  0.501712  0.831387  1
  Cd  Cd19  1  0.499117  0.833434  0.833724  1
  Ir  Ir20  1  0.391917  0.392116  0.392691  1
  Ir  Ir21  1  0.391917  0.392116  0.823276  1
  Ir  Ir22  1  0.392292  0.823399  0.392155  1
  Ir  Ir23  1  0.822767  0.392517  0.392357  1
