# generated using pymatgen
data_Sr4La3Nd(BO4)4
_symmetry_space_group_name_H-M   'P 1'
_cell_length_a   3.87185700
_cell_length_b   10.07296593
_cell_length_c   11.10696982
_cell_angle_alpha   89.87433441
_cell_angle_beta   90.00000000
_cell_angle_gamma   90.00000000
_symmetry_Int_Tables_number   1
_chemical_formula_structural   Sr4La3Nd(BO4)4
_chemical_formula_sum   'Sr4 La3 Nd1 B4 O16'
_cell_volume   433.18281711
_cell_formula_units_Z   1
loop_
 _symmetry_equiv_pos_site_id
 _symmetry_equiv_pos_as_xyz
  1  'x, y, z'
loop_
 _atom_site_type_symbol
 _atom_site_label
 _atom_site_symmetry_multiplicity
 _atom_site_fract_x
 _atom_site_fract_y
 _atom_site_fract_z
 _atom_site_occupancy
  Sr  Sr0  1  0.250000  0.668564  0.078178  1
  Sr  Sr1  1  0.750000  0.332454  0.921200  1
  Sr  Sr2  1  0.750000  0.169917  0.421881  1
  Sr  Sr3  1  0.250000  0.828334  0.579111  1
  La  La4  1  0.250000  0.083068  0.118628  1
  La  La5  1  0.750000  0.917525  0.880537  1
  La  La6  1  0.750000  0.581773  0.383620  1
  Nd  Nd7  1  0.250000  0.414075  0.617469  1
  B  B8  1  0.250000  0.367987  0.201372  1
  B  B9  1  0.750000  0.630882  0.797379  1
  B  B10  1  0.750000  0.867015  0.299444  1
  B  B11  1  0.250000  0.135445  0.700920  1
  O  O12  1  0.250000  0.496453  0.247073  1
  O  O13  1  0.750000  0.502930  0.750112  1
  O  O14  1  0.750000  0.996084  0.254179  1
  O  O15  1  0.250000  0.006029  0.744662  1
  O  O16  1  0.250000  0.257424  0.278296  1
  O  O17  1  0.750000  0.742716  0.721928  1
  O  O18  1  0.750000  0.756999  0.222567  1
  O  O19  1  0.250000  0.245354  0.778199  1
  O  O20  1  0.250000  0.348982  0.075886  1
  O  O21  1  0.750000  0.648360  0.923286  1
  O  O22  1  0.750000  0.847383  0.425093  1
  O  O23  1  0.250000  0.157728  0.575750  1
  O  O24  1  0.250000  0.608422  0.500549  1
  O  O25  1  0.750000  0.387982  0.504081  1
  O  O26  1  0.750000  0.110751  0.001625  1
  O  O27  1  0.250000  0.889367  0.996972  1
