# generated using pymatgen
data_Pr8Nd2Si5Pd
_symmetry_space_group_name_H-M   'P 1'
_cell_length_a   7.74004018
_cell_length_b   7.74004091
_cell_length_c   9.11350600
_cell_angle_alpha   115.12830077
_cell_angle_beta   115.12831258
_cell_angle_gamma   89.99999860
_symmetry_Int_Tables_number   1
_chemical_formula_structural   Pr8Nd2Si5Pd
_chemical_formula_sum   'Pr8 Nd2 Si5 Pd1'
_cell_volume   436.55742539
_cell_formula_units_Z   1
loop_
 _symmetry_equiv_pos_site_id
 _symmetry_equiv_pos_as_xyz
  1  'x, y, z'
loop_
 _atom_site_type_symbol
 _atom_site_label
 _atom_site_symmetry_multiplicity
 _atom_site_fract_x
 _atom_site_fract_y
 _atom_site_fract_z
 _atom_site_occupancy
  Pr  Pr0  1  0.956878  0.812130  0.285781  1
  Pr  Pr1  1  0.328903  0.473651  0.285781  1
  Pr  Pr2  1  0.812130  0.328903  0.285781  1
  Pr  Pr3  1  0.473651  0.956878  0.285781  1
  Pr  Pr4  1  0.026349  0.171097  0.714219  1
  Pr  Pr5  1  0.687870  0.543122  0.714219  1
  Pr  Pr6  1  0.171097  0.687870  0.714219  1
  Pr  Pr7  1  0.543122  0.026349  0.714219  1
  Nd  Nd8  1  0.475124  0.475124  0.950248  1
  Nd  Nd9  1  0.024876  0.024876  0.049752  1
  Si  Si10  1  0.250000  0.250000  0.500000  1
  Si  Si11  1  0.614948  0.885052  0.000000  1
  Si  Si12  1  0.385052  0.114948  0.000000  1
  Si  Si13  1  0.885052  0.385052  0.000000  1
  Si  Si14  1  0.114948  0.614948  0.000000  1
  Pd  Pd15  1  0.750000  0.750000  0.500000  1
