# generated using pymatgen
data_Ho8Lu12Si15Tc
_symmetry_space_group_name_H-M   'P 1'
_cell_length_a   7.25939004
_cell_length_b   7.64798116
_cell_length_c   14.28834800
_cell_angle_alpha   90.00000000
_cell_angle_beta   90.00000000
_cell_angle_gamma   90.17489939
_symmetry_Int_Tables_number   1
_chemical_formula_structural   Ho8Lu12Si15Tc
_chemical_formula_sum   'Ho8 Lu12 Si15 Tc1'
_cell_volume   793.28078766
_cell_formula_units_Z   1
loop_
 _symmetry_equiv_pos_site_id
 _symmetry_equiv_pos_as_xyz
  1  'x, y, z'
loop_
 _atom_site_type_symbol
 _atom_site_label
 _atom_site_symmetry_multiplicity
 _atom_site_fract_x
 _atom_site_fract_y
 _atom_site_fract_z
 _atom_site_occupancy
  Ho  Ho0  1  0.016989  0.182231  0.096443  1
  Ho  Ho1  1  0.986467  0.828408  0.904534  1
  Ho  Ho2  1  0.484372  0.679399  0.904417  1
  Ho  Ho3  1  0.986467  0.828408  0.595466  1
  Ho  Ho4  1  0.515592  0.319763  0.096487  1
  Ho  Ho5  1  0.016989  0.182231  0.403557  1
  Ho  Ho6  1  0.515592  0.319763  0.403513  1
  Ho  Ho7  1  0.484372  0.679399  0.595583  1
  Lu  Lu8  1  0.155708  0.509227  0.750000  1
  Lu  Lu9  1  0.839913  0.488207  0.250000  1
  Lu  Lu10  1  0.340096  0.013083  0.250000  1
  Lu  Lu11  1  0.665268  0.990174  0.750000  1
  Lu  Lu12  1  0.312632  0.173169  0.626824  1
  Lu  Lu13  1  0.675761  0.824742  0.374905  1
  Lu  Lu14  1  0.175033  0.678872  0.374567  1
  Lu  Lu15  1  0.675761  0.824742  0.125095  1
  Lu  Lu16  1  0.836557  0.315312  0.626510  1
  Lu  Lu17  1  0.312632  0.173169  0.873176  1
  Lu  Lu18  1  0.836557  0.315312  0.873490  1
  Lu  Lu19  1  0.175033  0.678872  0.125433  1
  Si  Si20  1  0.970820  0.892580  0.250000  1
  Si  Si21  1  0.473749  0.607369  0.250000  1
  Si  Si22  1  0.527907  0.395222  0.750000  1
  Si  Si23  1  0.281469  0.865203  0.750000  1
  Si  Si24  1  0.716850  0.132407  0.250000  1
  Si  Si25  1  0.219728  0.368160  0.250000  1
  Si  Si26  1  0.772391  0.627206  0.750000  1
  Si  Si27  1  0.158935  0.473234  0.537168  1
  Si  Si28  1  0.845743  0.532626  0.461981  1
  Si  Si29  1  0.345064  0.968385  0.460173  1
  Si  Si30  1  0.845743  0.532626  0.038019  1
  Si  Si31  1  0.651109  0.031518  0.538126  1
  Si  Si32  1  0.158935  0.473234  0.962832  1
  Si  Si33  1  0.651109  0.031518  0.961874  1
  Si  Si34  1  0.345064  0.968385  0.039827  1
  Tc  Tc35  1  0.027593  0.095844  0.750000  1
