# generated using pymatgen
data_Sc6AlCrO12
_symmetry_space_group_name_H-M   'P 1'
_cell_length_a   6.12730319
_cell_length_b   6.12730334
_cell_length_c   6.12730385
_cell_angle_alpha   91.96154037
_cell_angle_beta   91.96154520
_cell_angle_gamma   91.96153394
_symmetry_Int_Tables_number   1
_chemical_formula_structural   Sc6AlCrO12
_chemical_formula_sum   'Sc6 Al1 Cr1 O12'
_cell_volume   229.62867356
_cell_formula_units_Z   1
loop_
 _symmetry_equiv_pos_site_id
 _symmetry_equiv_pos_as_xyz
  1  'x, y, z'
loop_
 _atom_site_type_symbol
 _atom_site_label
 _atom_site_symmetry_multiplicity
 _atom_site_fract_x
 _atom_site_fract_y
 _atom_site_fract_z
 _atom_site_occupancy
  Sc  Sc0  1  0.744965  0.929522  0.437234  1
  Sc  Sc1  1  0.070478  0.562766  0.255035  1
  Sc  Sc2  1  0.562766  0.255035  0.070478  1
  Sc  Sc3  1  0.437234  0.744965  0.929522  1
  Sc  Sc4  1  0.929522  0.437234  0.744965  1
  Sc  Sc5  1  0.255035  0.070478  0.562766  1
  Al  Al6  1  0.500000  0.500000  0.500000  1
  Cr  Cr7  1  0.000000  0.000000  0.000000  1
  O  O8  1  0.689838  0.927310  0.085254  1
  O  O9  1  0.072690  0.914746  0.310162  1
  O  O10  1  0.411091  0.540524  0.200137  1
  O  O11  1  0.914746  0.310162  0.072690  1
  O  O12  1  0.459476  0.799863  0.588909  1
  O  O13  1  0.799863  0.588909  0.459476  1
  O  O14  1  0.200137  0.411091  0.540524  1
  O  O15  1  0.540524  0.200137  0.411091  1
  O  O16  1  0.085254  0.689838  0.927310  1
  O  O17  1  0.588909  0.459476  0.799863  1
  O  O18  1  0.927310  0.085254  0.689838  1
  O  O19  1  0.310162  0.072690  0.914746  1
