# generated using pymatgen
data_NiSb12Ru2Au
_symmetry_space_group_name_H-M   'P 1'
_cell_length_a   8.16186426
_cell_length_b   8.17308832
_cell_length_c   9.43318770
_cell_angle_alpha   54.48607044
_cell_angle_beta   54.87977519
_cell_angle_gamma   70.58836201
_symmetry_Int_Tables_number   1
_chemical_formula_structural   NiSb12Ru2Au
_chemical_formula_sum   'Ni1 Sb12 Ru2 Au1'
_cell_volume   418.95568517
_cell_formula_units_Z   1
loop_
 _symmetry_equiv_pos_site_id
 _symmetry_equiv_pos_as_xyz
  1  'x, y, z'
loop_
 _atom_site_type_symbol
 _atom_site_label
 _atom_site_symmetry_multiplicity
 _atom_site_fract_x
 _atom_site_fract_y
 _atom_site_fract_z
 _atom_site_occupancy
  Ni  Ni0  1  0.500000  0.000000  0.500000  1
  Sb  Sb1  1  0.155980  0.155634  0.178808  1
  Sb  Sb2  1  0.844020  0.844366  0.821192  1
  Sb  Sb3  1  0.833202  0.859057  0.500364  1
  Sb  Sb4  1  0.166798  0.140943  0.499636  1
  Sb  Sb5  1  0.806365  0.503454  0.334989  1
  Sb  Sb6  1  0.193635  0.496546  0.665011  1
  Sb  Sb7  1  0.504988  0.822052  0.337346  1
  Sb  Sb8  1  0.495012  0.177948  0.662654  1
  Sb  Sb9  1  0.645260  0.336214  0.857739  1
  Sb  Sb10  1  0.354740  0.663786  0.142261  1
  Sb  Sb11  1  0.662193  0.334855  0.159704  1
  Sb  Sb12  1  0.337807  0.665145  0.840296  1
  Ru  Ru13  1  0.000000  0.500000  0.000000  1
  Ru  Ru14  1  0.500000  0.000000  0.000000  1
  Au  Au15  1  0.000000  0.500000  0.500000  1
