# generated using pymatgen
data_LaHoZn5Sn
_symmetry_space_group_name_H-M   'P 1'
_cell_length_a   8.51528850
_cell_length_b   8.51528798
_cell_length_c   9.07626600
_cell_angle_alpha   90.00000000
_cell_angle_beta   90.00000000
_cell_angle_gamma   149.66861905
_symmetry_Int_Tables_number   1
_chemical_formula_structural   LaHoZn5Sn
_chemical_formula_sum   'La2 Ho2 Zn10 Sn2'
_cell_volume   332.35152082
_cell_formula_units_Z   2
loop_
 _symmetry_equiv_pos_site_id
 _symmetry_equiv_pos_as_xyz
  1  'x, y, z'
loop_
 _atom_site_type_symbol
 _atom_site_label
 _atom_site_symmetry_multiplicity
 _atom_site_fract_x
 _atom_site_fract_y
 _atom_site_fract_z
 _atom_site_occupancy
  La  La0  1  0.000000  0.000000  0.500000  1
  La  La1  1  0.000000  0.000000  0.000000  1
  Ho  Ho2  1  0.206779  0.793221  0.250000  1
  Ho  Ho3  1  0.793221  0.206779  0.750000  1
  Zn  Zn4  1  0.812560  0.187440  0.390439  1
  Zn  Zn5  1  0.187440  0.812560  0.609561  1
  Zn  Zn6  1  0.812560  0.187440  0.109561  1
  Zn  Zn7  1  0.187440  0.812560  0.890439  1
  Zn  Zn8  1  0.658406  0.341594  0.483397  1
  Zn  Zn9  1  0.341594  0.658406  0.516603  1
  Zn  Zn10  1  0.658406  0.341594  0.016603  1
  Zn  Zn11  1  0.341594  0.658406  0.983397  1
  Zn  Zn12  1  0.395421  0.604579  0.250000  1
  Zn  Zn13  1  0.604579  0.395421  0.750000  1
  Sn  Sn14  1  0.559643  0.440357  0.250000  1
  Sn  Sn15  1  0.440357  0.559643  0.750000  1
