# generated using pymatgen
data_Dy2HoAl12(RuRh)2
_symmetry_space_group_name_H-M   'P 1'
_cell_length_a   8.83058202
_cell_length_b   8.77450616
_cell_length_c   9.54992900
_cell_angle_alpha   90.00000000
_cell_angle_beta   90.00000000
_cell_angle_gamma   119.79016159
_symmetry_Int_Tables_number   1
_chemical_formula_structural   Dy2HoAl12(RuRh)2
_chemical_formula_sum   'Dy4 Ho2 Al24 Ru4 Rh4'
_cell_volume   642.18064460
_cell_formula_units_Z   2
loop_
 _symmetry_equiv_pos_site_id
 _symmetry_equiv_pos_as_xyz
  1  'x, y, z'
loop_
 _atom_site_type_symbol
 _atom_site_label
 _atom_site_symmetry_multiplicity
 _atom_site_fract_x
 _atom_site_fract_y
 _atom_site_fract_z
 _atom_site_occupancy
  Dy  Dy0  1  0.615771  0.807885  0.250000  1
  Dy  Dy1  1  0.810117  0.196062  0.750000  1
  Dy  Dy2  1  0.810117  0.614056  0.750000  1
  Dy  Dy3  1  0.384090  0.192046  0.750000  1
  Ho  Ho4  1  0.190081  0.803423  0.250000  1
  Ho  Ho5  1  0.190081  0.386658  0.250000  1
  Al  Al6  1  0.560551  0.437640  0.250000  1
  Al  Al7  1  0.560551  0.122912  0.250000  1
  Al  Al8  1  0.876374  0.438187  0.250000  1
  Al  Al9  1  0.439175  0.562279  0.750000  1
  Al  Al10  1  0.439175  0.876894  0.750000  1
  Al  Al11  1  0.124030  0.562015  0.750000  1
  Al  Al12  1  0.324459  0.162230  0.422123  1
  Al  Al13  1  0.838049  0.164266  0.422212  1
  Al  Al14  1  0.838049  0.673783  0.422212  1
  Al  Al15  1  0.675364  0.837681  0.577587  1
  Al  Al16  1  0.162107  0.835813  0.577407  1
  Al  Al17  1  0.162107  0.326294  0.577407  1
  Al  Al18  1  0.675364  0.837681  0.922413  1
  Al  Al19  1  0.162107  0.835813  0.922593  1
  Al  Al20  1  0.162107  0.326294  0.922593  1
  Al  Al21  1  0.324459  0.162230  0.077877  1
  Al  Al22  1  0.838049  0.164266  0.077788  1
  Al  Al23  1  0.838049  0.673783  0.077788  1
  Al  Al24  1  0.668905  0.334452  0.522868  1
  Al  Al25  1  0.330957  0.665479  0.476746  1
  Al  Al26  1  0.330957  0.665479  0.023254  1
  Al  Al27  1  0.668905  0.334452  0.977132  1
  Al  Al28  1  0.998234  0.999118  0.250000  1
  Al  Al29  1  0.002094  0.001047  0.750000  1
  Ru  Ru30  1  0.999994  0.999997  0.499984  1
  Ru  Ru31  1  0.999994  0.999997  0.000016  1
  Ru  Ru32  1  0.000146  0.500073  0.499784  1
  Ru  Ru33  1  0.000146  0.500073  0.000216  1
  Rh  Rh34  1  0.499821  0.499968  0.499889  1
  Rh  Rh35  1  0.499821  0.999853  0.499889  1
  Rh  Rh36  1  0.499821  0.499968  0.000111  1
  Rh  Rh37  1  0.499821  0.999853  0.000111  1
