# generated using pymatgen
data_Er7LuHf6O24
_symmetry_space_group_name_H-M   'P 1'
_cell_length_a   6.32190376
_cell_length_b   6.39949512
_cell_length_c   12.74282166
_cell_angle_alpha   99.23600152
_cell_angle_beta   99.39573900
_cell_angle_gamma   99.36199126
_symmetry_Int_Tables_number   1
_chemical_formula_structural   Er7LuHf6O24
_chemical_formula_sum   'Er7 Lu1 Hf6 O24'
_cell_volume   492.49259487
_cell_formula_units_Z   1
loop_
 _symmetry_equiv_pos_site_id
 _symmetry_equiv_pos_as_xyz
  1  'x, y, z'
loop_
 _atom_site_type_symbol
 _atom_site_label
 _atom_site_symmetry_multiplicity
 _atom_site_fract_x
 _atom_site_fract_y
 _atom_site_fract_z
 _atom_site_occupancy
  Er  Er0  1  0.296873  0.610227  0.817768  1
  Er  Er1  1  0.387629  0.864915  0.596312  1
  Er  Er2  1  0.859749  0.693209  0.947437  1
  Er  Er3  1  0.310604  0.612892  0.318086  1
  Er  Er4  1  0.141080  0.306962  0.053043  1
  Er  Er5  1  0.703297  0.388470  0.182253  1
  Er  Er6  1  0.690031  0.388704  0.681856  1
  Lu  Lu7  1  0.611202  0.136073  0.404472  1
  Hf  Hf8  1  0.008476  0.007396  0.254149  1
  Hf  Hf9  1  0.394079  0.855914  0.092610  1
  Hf  Hf10  1  0.992270  0.993276  0.746601  1
  Hf  Hf11  1  0.852419  0.672114  0.446783  1
  Hf  Hf12  1  0.145717  0.326532  0.552095  1
  Hf  Hf13  1  0.607498  0.144217  0.906734  1
  O  O14  1  0.317187  0.965259  0.796608  1
  O  O15  1  0.078090  0.920454  0.096069  1
  O  O16  1  0.321648  0.950693  0.290178  1
  O  O17  1  0.029336  0.886741  0.589202  1
  O  O18  1  0.566895  0.832139  0.962241  1
  O  O19  1  0.591171  0.821059  0.460975  1
  O  O20  1  0.187221  0.593457  0.970051  1
  O  O21  1  0.927108  0.682371  0.778501  1
  O  O22  1  0.428407  0.586223  0.158453  1
  O  O23  1  0.172183  0.575303  0.464922  1
  O  O24  1  0.924477  0.697281  0.293135  1
  O  O25  1  0.571925  0.414502  0.841991  1
  O  O26  1  0.406487  0.566455  0.656903  1
  O  O27  1  0.072826  0.317724  0.221635  1
  O  O28  1  0.813178  0.405837  0.029865  1
  O  O29  1  0.593320  0.430241  0.343365  1
  O  O30  1  0.076023  0.302065  0.706592  1
  O  O31  1  0.826471  0.423009  0.534506  1
  O  O32  1  0.433226  0.167744  0.037183  1
  O  O33  1  0.409730  0.181453  0.536343  1
  O  O34  1  0.923760  0.078492  0.904898  1
  O  O35  1  0.682848  0.033832  0.202600  1
  O  O36  1  0.965534  0.112848  0.410544  1
  O  O37  1  0.680028  0.053917  0.713042  1
