# generated using pymatgen
data_DyMn2(FeP)3
_symmetry_space_group_name_H-M   'P 1'
_cell_length_a   3.64854500
_cell_length_b   10.28085700
_cell_length_c   12.14642600
_cell_angle_alpha   90.00000000
_cell_angle_beta   90.00000000
_cell_angle_gamma   90.00000000
_symmetry_Int_Tables_number   1
_chemical_formula_structural   DyMn2(FeP)3
_chemical_formula_sum   'Dy4 Mn8 Fe12 P12'
_cell_volume   455.61449690
_cell_formula_units_Z   4
loop_
 _symmetry_equiv_pos_site_id
 _symmetry_equiv_pos_as_xyz
  1  'x, y, z'
loop_
 _atom_site_type_symbol
 _atom_site_label
 _atom_site_symmetry_multiplicity
 _atom_site_fract_x
 _atom_site_fract_y
 _atom_site_fract_z
 _atom_site_occupancy
  Dy  Dy0  1  0.250000  0.580540  0.710622  1
  Dy  Dy1  1  0.250000  0.919460  0.210622  1
  Dy  Dy2  1  0.750000  0.419460  0.289378  1
  Dy  Dy3  1  0.750000  0.080540  0.789378  1
  Mn  Mn4  1  0.250000  0.705723  0.992263  1
  Mn  Mn5  1  0.250000  0.794277  0.492263  1
  Mn  Mn6  1  0.750000  0.294277  0.007737  1
  Mn  Mn7  1  0.750000  0.205723  0.507737  1
  Mn  Mn8  1  0.250000  0.408254  0.490355  1
  Mn  Mn9  1  0.250000  0.091746  0.990355  1
  Mn  Mn10  1  0.750000  0.591746  0.509645  1
  Mn  Mn11  1  0.750000  0.908254  0.009645  1
  Fe  Fe12  1  0.250000  0.220291  0.171440  1
  Fe  Fe13  1  0.250000  0.279709  0.671440  1
  Fe  Fe14  1  0.750000  0.779709  0.828560  1
  Fe  Fe15  1  0.750000  0.720291  0.328560  1
  Fe  Fe16  1  0.250000  0.876986  0.695678  1
  Fe  Fe17  1  0.250000  0.623014  0.195678  1
  Fe  Fe18  1  0.750000  0.123014  0.304322  1
  Fe  Fe19  1  0.750000  0.376986  0.804322  1
  Fe  Fe20  1  0.250000  0.462558  0.935989  1
  Fe  Fe21  1  0.250000  0.037442  0.435989  1
  Fe  Fe22  1  0.750000  0.537442  0.064011  1
  Fe  Fe23  1  0.750000  0.962558  0.564011  1
  P  P24  1  0.250000  0.423454  0.112895  1
  P  P25  1  0.250000  0.076546  0.612895  1
  P  P26  1  0.750000  0.576546  0.887105  1
  P  P27  1  0.750000  0.923454  0.387105  1
  P  P28  1  0.250000  0.269289  0.860690  1
  P  P29  1  0.250000  0.230711  0.360690  1
  P  P30  1  0.750000  0.730711  0.139310  1
  P  P31  1  0.750000  0.769289  0.639310  1
  P  P32  1  0.250000  0.603175  0.381178  1
  P  P33  1  0.250000  0.896825  0.881178  1
  P  P34  1  0.750000  0.396825  0.618822  1
  P  P35  1  0.750000  0.103175  0.118822  1
