# generated using pymatgen
data_Nd4Ga20CuPt10
_symmetry_space_group_name_H-M   'P 1'
_cell_length_a   4.23594392
_cell_length_b   11.13716477
_cell_length_c   13.60720473
_cell_angle_alpha   81.19491436
_cell_angle_beta   81.04546107
_cell_angle_gamma   79.03720112
_symmetry_Int_Tables_number   1
_chemical_formula_structural   Nd4Ga20CuPt10
_chemical_formula_sum   'Nd4 Ga20 Cu1 Pt10'
_cell_volume   617.47664247
_cell_formula_units_Z   1
loop_
 _symmetry_equiv_pos_site_id
 _symmetry_equiv_pos_as_xyz
  1  'x, y, z'
loop_
 _atom_site_type_symbol
 _atom_site_label
 _atom_site_symmetry_multiplicity
 _atom_site_fract_x
 _atom_site_fract_y
 _atom_site_fract_z
 _atom_site_occupancy
  Nd  Nd0  1  0.123519  0.090963  0.661998  1
  Nd  Nd1  1  0.876481  0.909037  0.338002  1
  Nd  Nd2  1  0.775447  0.631196  0.817907  1
  Nd  Nd3  1  0.224553  0.368804  0.182093  1
  Ga  Ga4  1  0.007749  0.073206  0.911296  1
  Ga  Ga5  1  0.992251  0.926794  0.088704  1
  Ga  Ga6  1  0.065287  0.670129  0.199298  1
  Ga  Ga7  1  0.934713  0.329871  0.800702  1
  Ga  Ga8  1  0.107668  0.333176  0.451488  1
  Ga  Ga9  1  0.892332  0.666824  0.548512  1
  Ga  Ga10  1  0.202282  0.603675  0.991762  1
  Ga  Ga11  1  0.797718  0.396325  0.008238  1
  Ga  Ga12  1  0.257402  0.784479  0.700716  1
  Ga  Ga13  1  0.742598  0.215521  0.299284  1
  Ga  Ga14  1  0.302133  0.898274  0.497461  1
  Ga  Ga15  1  0.697867  0.101726  0.502539  1
  Ga  Ga16  1  0.389049  0.522763  0.699137  1
  Ga  Ga17  1  0.610951  0.477237  0.300863  1
  Ga  Ga18  1  0.397241  0.203101  0.002418  1
  Ga  Ga19  1  0.602759  0.796899  0.997582  1
  Ga  Ga20  1  0.541905  0.287578  0.628613  1
  Ga  Ga21  1  0.458095  0.712422  0.371387  1
  Ga  Ga22  1  0.633839  0.938271  0.794054  1
  Ga  Ga23  1  0.366161  0.061729  0.205946  1
  Cu  Cu24  1  0.500000  0.500000  0.500000  1
  Pt  Pt25  1  0.024793  0.567240  0.383174  1
  Pt  Pt26  1  0.975207  0.432760  0.616826  1
  Pt  Pt27  1  0.135833  0.838674  0.889661  1
  Pt  Pt28  1  0.864167  0.161326  0.110339  1
  Pt  Pt29  1  0.241582  0.125996  0.390840  1
  Pt  Pt30  1  0.758418  0.874004  0.609160  1
  Pt  Pt31  1  0.345742  0.415556  0.892961  1
  Pt  Pt32  1  0.654258  0.584444  0.107039  1
  Pt  Pt33  1  0.504015  0.172723  0.819249  1
  Pt  Pt34  1  0.495985  0.827277  0.180751  1
