# generated using pymatgen
data_LiYbPr(As3Pd10)2
_symmetry_space_group_name_H-M   'P 1'
_cell_length_a   8.88111457
_cell_length_b   8.88111418
_cell_length_c   8.88111500
_cell_angle_alpha   60.00000066
_cell_angle_beta   60.00000214
_cell_angle_gamma   59.99999349
_symmetry_Int_Tables_number   1
_chemical_formula_structural   LiYbPr(As3Pd10)2
_chemical_formula_sum   'Li1 Yb1 Pr1 As6 Pd20'
_cell_volume   495.32176287
_cell_formula_units_Z   1
loop_
 _symmetry_equiv_pos_site_id
 _symmetry_equiv_pos_as_xyz
  1  'x, y, z'
loop_
 _atom_site_type_symbol
 _atom_site_label
 _atom_site_symmetry_multiplicity
 _atom_site_fract_x
 _atom_site_fract_y
 _atom_site_fract_z
 _atom_site_occupancy
  Li  Li0  1  0.000000  0.000000  0.000000  1
  Yb  Yb1  1  0.250000  0.250000  0.250000  1
  Pr  Pr2  1  0.750000  0.750000  0.750000  1
  As  As3  1  0.738223  0.261777  0.261777  1
  As  As4  1  0.261777  0.738223  0.738223  1
  As  As5  1  0.261777  0.738223  0.261777  1
  As  As6  1  0.738223  0.261777  0.738223  1
  As  As7  1  0.261777  0.261777  0.738223  1
  As  As8  1  0.738223  0.738223  0.261777  1
  Pd  Pd9  1  0.382740  0.382740  0.382740  1
  Pd  Pd10  1  0.614363  0.614363  0.614363  1
  Pd  Pd11  1  0.382740  0.382740  0.851781  1
  Pd  Pd12  1  0.382740  0.851781  0.382740  1
  Pd  Pd13  1  0.614363  0.614363  0.156910  1
  Pd  Pd14  1  0.614363  0.156910  0.614363  1
  Pd  Pd15  1  0.851781  0.382740  0.382740  1
  Pd  Pd16  1  0.156910  0.614363  0.614363  1
  Pd  Pd17  1  0.348490  0.000899  0.000899  1
  Pd  Pd18  1  0.649711  0.000899  0.000899  1
  Pd  Pd19  1  0.000899  0.348490  0.649711  1
  Pd  Pd20  1  0.000899  0.649711  0.348490  1
  Pd  Pd21  1  0.000899  0.348490  0.000899  1
  Pd  Pd22  1  0.649711  0.000899  0.348490  1
  Pd  Pd23  1  0.000899  0.649711  0.000899  1
  Pd  Pd24  1  0.348490  0.000899  0.649711  1
  Pd  Pd25  1  0.000899  0.000899  0.348490  1
  Pd  Pd26  1  0.000899  0.000899  0.649711  1
  Pd  Pd27  1  0.649711  0.348490  0.000899  1
  Pd  Pd28  1  0.348490  0.649711  0.000899  1
