# generated using pymatgen
data_Rb(BIr)2
_symmetry_space_group_name_H-M   'P 1'
_cell_length_a   3.99281704
_cell_length_b   3.99281733
_cell_length_c   6.84193560
_cell_angle_alpha   106.96516137
_cell_angle_beta   106.96516026
_cell_angle_gamma   89.99999031
_symmetry_Int_Tables_number   1
_chemical_formula_structural   Rb(BIr)2
_chemical_formula_sum   'Rb1 B2 Ir2'
_cell_volume   99.35799899
_cell_formula_units_Z   1
loop_
 _symmetry_equiv_pos_site_id
 _symmetry_equiv_pos_as_xyz
  1  'x, y, z'
loop_
 _atom_site_type_symbol
 _atom_site_label
 _atom_site_symmetry_multiplicity
 _atom_site_fract_x
 _atom_site_fract_y
 _atom_site_fract_z
 _atom_site_occupancy
  Rb  Rb0  1  0.000000  0.000000  0.000000  1
  B  B1  1  0.698221  0.698221  0.396440  1
  B  B2  1  0.301780  0.301780  0.603559  1
  Ir  Ir3  1  0.750001  0.250000  0.500000  1
  Ir  Ir4  1  0.250000  0.750001  0.500000  1
