# generated using pymatgen
data_Y4HoTm7Os4
_symmetry_space_group_name_H-M   'P 1'
_cell_length_a   7.38698402
_cell_length_b   8.94366214
_cell_length_c   6.27176706
_cell_angle_alpha   89.86800154
_cell_angle_beta   89.97011426
_cell_angle_gamma   89.96539698
_symmetry_Int_Tables_number   1
_chemical_formula_structural   Y4HoTm7Os4
_chemical_formula_sum   'Y4 Ho1 Tm7 Os4'
_cell_volume   414.35365424
_cell_formula_units_Z   1
loop_
 _symmetry_equiv_pos_site_id
 _symmetry_equiv_pos_as_xyz
  1  'x, y, z'
loop_
 _atom_site_type_symbol
 _atom_site_label
 _atom_site_symmetry_multiplicity
 _atom_site_fract_x
 _atom_site_fract_y
 _atom_site_fract_z
 _atom_site_occupancy
  Y  Y0  1  0.038324  0.250597  0.629224  1
  Y  Y1  1  0.961362  0.749462  0.371357  1
  Y  Y2  1  0.461659  0.749456  0.128454  1
  Y  Y3  1  0.538730  0.250238  0.870912  1
  Ho  Ho4  1  0.174887  0.062863  0.167110  1
  Tm  Tm5  1  0.824991  0.936628  0.832648  1
  Tm  Tm6  1  0.325844  0.936742  0.666864  1
  Tm  Tm7  1  0.825334  0.562985  0.832889  1
  Tm  Tm8  1  0.674430  0.062941  0.333447  1
  Tm  Tm9  1  0.174241  0.437747  0.167111  1
  Tm  Tm10  1  0.674723  0.437043  0.333249  1
  Tm  Tm11  1  0.325594  0.562796  0.666756  1
  Os  Os12  1  0.383928  0.250662  0.456401  1
  Os  Os13  1  0.616656  0.750358  0.544210  1
  Os  Os14  1  0.116262  0.749045  0.955196  1
  Os  Os15  1  0.883035  0.250435  0.044173  1
