# generated using pymatgen
data_Nd19TmSi15Ag
_symmetry_space_group_name_H-M   'P 1'
_cell_length_a   7.78765434
_cell_length_b   7.95122158
_cell_length_c   15.20705359
_cell_angle_alpha   89.77828968
_cell_angle_beta   89.40083999
_cell_angle_gamma   90.11473422
_symmetry_Int_Tables_number   1
_chemical_formula_structural   Nd19TmSi15Ag
_chemical_formula_sum   'Nd19 Tm1 Si15 Ag1'
_cell_volume   941.58101868
_cell_formula_units_Z   1
loop_
 _symmetry_equiv_pos_site_id
 _symmetry_equiv_pos_as_xyz
  1  'x, y, z'
loop_
 _atom_site_type_symbol
 _atom_site_label
 _atom_site_symmetry_multiplicity
 _atom_site_fract_x
 _atom_site_fract_y
 _atom_site_fract_z
 _atom_site_occupancy
  Nd  Nd0  1  0.815848  0.321791  0.623599  1
  Nd  Nd1  1  0.457982  0.686640  0.898349  1
  Nd  Nd2  1  0.958077  0.813135  0.897621  1
  Nd  Nd3  1  0.188116  0.681610  0.120089  1
  Nd  Nd4  1  0.691064  0.819942  0.120681  1
  Nd  Nd5  1  0.308609  0.179015  0.878505  1
  Nd  Nd6  1  0.190335  0.677475  0.380227  1
  Nd  Nd7  1  0.042086  0.186028  0.101064  1
  Nd  Nd8  1  0.312589  0.178707  0.622754  1
  Nd  Nd9  1  0.858217  0.490584  0.248894  1
  Nd  Nd10  1  0.361995  0.009982  0.250078  1
  Nd  Nd11  1  0.530462  0.310637  0.395788  1
  Nd  Nd12  1  0.811239  0.319559  0.878298  1
  Nd  Nd13  1  0.965702  0.820332  0.603376  1
  Nd  Nd14  1  0.462589  0.685867  0.603633  1
  Nd  Nd15  1  0.042377  0.179164  0.396749  1
  Nd  Nd16  1  0.682521  0.825514  0.377092  1
  Nd  Nd17  1  0.636973  0.991693  0.749826  1
  Nd  Nd18  1  0.541424  0.312346  0.100782  1
  Tm  Tm19  1  0.141121  0.513425  0.748512  1
  Si  Si20  1  0.479811  0.600867  0.247635  1
  Si  Si21  1  0.247806  0.379921  0.248095  1
  Si  Si22  1  0.514441  0.401880  0.751406  1
  Si  Si23  1  0.633446  0.025210  0.958421  1
  Si  Si24  1  0.017118  0.101404  0.751319  1
  Si  Si25  1  0.754241  0.621415  0.750591  1
  Si  Si26  1  0.752183  0.121594  0.248612  1
  Si  Si27  1  0.363432  0.972070  0.461075  1
  Si  Si28  1  0.982192  0.897717  0.248929  1
  Si  Si29  1  0.366267  0.973780  0.040755  1
  Si  Si30  1  0.637390  0.026735  0.541319  1
  Si  Si31  1  0.135019  0.475270  0.956287  1
  Si  Si32  1  0.149416  0.476308  0.547669  1
  Si  Si33  1  0.867553  0.525534  0.039321  1
  Si  Si34  1  0.246926  0.871488  0.751423  1
  Ag  Ag35  1  0.853435  0.525363  0.461222  1
