# generated using pymatgen
data_Y2PaAlIn2Pt3
_symmetry_space_group_name_H-M   'P 1'
_cell_length_a   7.46788600
_cell_length_b   7.58179371
_cell_length_c   3.92748700
_cell_angle_alpha   90.00000000
_cell_angle_beta   90.00000000
_cell_angle_gamma   119.50425591
_symmetry_Int_Tables_number   1
_chemical_formula_structural   Y2PaAlIn2Pt3
_chemical_formula_sum   'Y2 Pa1 Al1 In2 Pt3'
_cell_volume   193.53651757
_cell_formula_units_Z   1
loop_
 _symmetry_equiv_pos_site_id
 _symmetry_equiv_pos_as_xyz
  1  'x, y, z'
loop_
 _atom_site_type_symbol
 _atom_site_label
 _atom_site_symmetry_multiplicity
 _atom_site_fract_x
 _atom_site_fract_y
 _atom_site_fract_z
 _atom_site_occupancy
  Y  Y0  1  0.991691  0.400155  0.500000  1
  Y  Y1  1  0.591536  0.599845  0.500000  1
  Pa  Pa2  1  0.418952  0.000000  0.500000  1
  Al  Al3  1  0.761365  0.000000  0.000000  1
  In  In4  1  0.253772  0.265301  0.000000  1
  In  In5  1  0.988473  0.734699  0.000000  1
  Pt  Pt6  1  0.985237  0.000000  0.500000  1
  Pt  Pt7  1  0.654258  0.299541  0.000000  1
  Pt  Pt8  1  0.354717  0.700459  0.000000  1
