# generated using pymatgen
data_K14Fe7CoSe16
_symmetry_space_group_name_H-M   'P 1'
_cell_length_a   11.55247300
_cell_length_b   11.62942437
_cell_length_c   8.26474632
_cell_angle_alpha   89.46249899
_cell_angle_beta   90.00000000
_cell_angle_gamma   90.00000000
_symmetry_Int_Tables_number   1
_chemical_formula_structural   K14Fe7CoSe16
_chemical_formula_sum   'K14 Fe7 Co1 Se16'
_cell_volume   1110.30832976
_cell_formula_units_Z   1
loop_
 _symmetry_equiv_pos_site_id
 _symmetry_equiv_pos_as_xyz
  1  'x, y, z'
loop_
 _atom_site_type_symbol
 _atom_site_label
 _atom_site_symmetry_multiplicity
 _atom_site_fract_x
 _atom_site_fract_y
 _atom_site_fract_z
 _atom_site_occupancy
  K  K0  1  0.000000  0.000318  0.000109  1
  K  K1  1  0.500000  0.502164  0.498578  1
  K  K2  1  0.500000  0.998044  0.965252  1
  K  K3  1  0.500000  0.999610  0.463793  1
  K  K4  1  0.000000  0.500942  0.536344  1
  K  K5  1  0.000000  0.498801  0.036478  1
  K  K6  1  0.761352  0.238843  0.001028  1
  K  K7  1  0.760190  0.761984  0.001610  1
  K  K8  1  0.238648  0.238843  0.001028  1
  K  K9  1  0.239810  0.761984  0.001610  1
  K  K10  1  0.742257  0.259410  0.499590  1
  K  K11  1  0.739995  0.740997  0.498097  1
  K  K12  1  0.257743  0.259410  0.499590  1
  K  K13  1  0.260005  0.740997  0.498097  1
  Fe  Fe14  1  0.500000  0.615267  0.890881  1
  Fe  Fe15  1  0.887984  0.000746  0.388935  1
  Fe  Fe16  1  0.112016  0.000746  0.388935  1
  Fe  Fe17  1  0.000000  0.110664  0.610594  1
  Fe  Fe18  1  0.000000  0.888199  0.613224  1
  Fe  Fe19  1  0.613262  0.503057  0.115317  1
  Fe  Fe20  1  0.386738  0.503057  0.115317  1
  Co  Co21  1  0.500000  0.378138  0.878248  1
  Se  Se22  1  0.500000  0.327322  0.158067  1
  Se  Se23  1  0.500000  0.679535  0.172030  1
  Se  Se24  1  0.825741  0.999525  0.669682  1
  Se  Se25  1  0.174259  0.999525  0.669682  1
  Se  Se26  1  0.000000  0.173463  0.328621  1
  Se  Se27  1  0.000000  0.828496  0.332212  1
  Se  Se28  1  0.667125  0.495620  0.832117  1
  Se  Se29  1  0.332875  0.495620  0.832117  1
  Se  Se30  1  0.500000  0.777179  0.717545  1
  Se  Se31  1  0.500000  0.220725  0.710952  1
  Se  Se32  1  0.274483  0.000085  0.216919  1
  Se  Se33  1  0.725517  0.000085  0.216919  1
  Se  Se34  1  0.000000  0.724222  0.783473  1
  Se  Se35  1  0.000000  0.273253  0.780570  1
  Se  Se36  1  0.223240  0.501563  0.288221  1
  Se  Se37  1  0.776760  0.501563  0.288221  1
