# generated using pymatgen
data_Tb2Y3Er3(CdIr)2
_symmetry_space_group_name_H-M   'P 1'
_cell_length_a   9.63423589
_cell_length_b   9.63423609
_cell_length_c   9.63423700
_cell_angle_alpha   60.00000032
_cell_angle_beta   59.99999964
_cell_angle_gamma   60.00000242
_symmetry_Int_Tables_number   1
_chemical_formula_structural   Tb2Y3Er3(CdIr)2
_chemical_formula_sum   'Tb4 Y6 Er6 Cd4 Ir4'
_cell_volume   632.31996744
_cell_formula_units_Z   2
loop_
 _symmetry_equiv_pos_site_id
 _symmetry_equiv_pos_as_xyz
  1  'x, y, z'
loop_
 _atom_site_type_symbol
 _atom_site_label
 _atom_site_symmetry_multiplicity
 _atom_site_fract_x
 _atom_site_fract_y
 _atom_site_fract_z
 _atom_site_occupancy
  Tb  Tb0  1  0.349310  0.349310  0.349310  1
  Tb  Tb1  1  0.349310  0.349310  0.952071  1
  Tb  Tb2  1  0.349310  0.952071  0.349310  1
  Tb  Tb3  1  0.952071  0.349310  0.349310  1
  Y  Y4  1  0.938085  0.561915  0.561915  1
  Y  Y5  1  0.561915  0.938085  0.938085  1
  Y  Y6  1  0.561915  0.938085  0.561915  1
  Y  Y7  1  0.938085  0.561915  0.938085  1
  Y  Y8  1  0.561915  0.561915  0.938085  1
  Y  Y9  1  0.938085  0.938085  0.561915  1
  Er  Er10  1  0.811669  0.188331  0.188331  1
  Er  Er11  1  0.188331  0.811669  0.811669  1
  Er  Er12  1  0.188331  0.811669  0.188331  1
  Er  Er13  1  0.811669  0.188331  0.811669  1
  Er  Er14  1  0.188331  0.188331  0.811669  1
  Er  Er15  1  0.811669  0.811669  0.188331  1
  Cd  Cd16  1  0.580394  0.580394  0.580394  1
  Cd  Cd17  1  0.580394  0.580394  0.258819  1
  Cd  Cd18  1  0.580394  0.258819  0.580394  1
  Cd  Cd19  1  0.258819  0.580394  0.580394  1
  Ir  Ir20  1  0.141087  0.141087  0.141087  1
  Ir  Ir21  1  0.141087  0.141087  0.576739  1
  Ir  Ir22  1  0.141087  0.576739  0.141087  1
  Ir  Ir23  1  0.576739  0.141087  0.141087  1
