# generated using pymatgen
data_Sr2Nd3Si12Ir19
_symmetry_space_group_name_H-M   'P 1'
_cell_length_a   12.94138700
_cell_length_b   12.93449438
_cell_length_c   4.04584000
_cell_angle_alpha   90.00000000
_cell_angle_beta   90.00000000
_cell_angle_gamma   120.01763186
_symmetry_Int_Tables_number   1
_chemical_formula_structural   Sr2Nd3Si12Ir19
_chemical_formula_sum   'Sr2 Nd3 Si12 Ir19'
_cell_volume   586.39792929
_cell_formula_units_Z   1
loop_
 _symmetry_equiv_pos_site_id
 _symmetry_equiv_pos_as_xyz
  1  'x, y, z'
loop_
 _atom_site_type_symbol
 _atom_site_label
 _atom_site_symmetry_multiplicity
 _atom_site_fract_x
 _atom_site_fract_y
 _atom_site_fract_z
 _atom_site_occupancy
  Sr  Sr0  1  0.000140  0.815443  0.500000  1
  Sr  Sr1  1  0.184696  0.184557  0.500000  1
  Nd  Nd2  1  0.815941  0.000000  0.500000  1
  Nd  Nd3  1  0.333769  0.667103  0.000000  1
  Nd  Nd4  1  0.666667  0.332897  0.000000  1
  Si  Si5  1  0.999785  0.185176  0.000000  1
  Si  Si6  1  0.814609  0.814824  0.000000  1
  Si  Si7  1  0.185415  0.000000  0.000000  1
  Si  Si8  1  0.520745  0.688983  0.500000  1
  Si  Si9  1  0.310754  0.831749  0.500000  1
  Si  Si10  1  0.168394  0.478603  0.500000  1
  Si  Si11  1  0.479004  0.168251  0.500000  1
  Si  Si12  1  0.689791  0.521397  0.500000  1
  Si  Si13  1  0.831762  0.311017  0.500000  1
  Si  Si14  1  0.000033  0.629376  0.000000  1
  Si  Si15  1  0.370657  0.370624  0.000000  1
  Si  Si16  1  0.630122  0.000000  0.000000  1
  Ir  Ir17  1  0.998974  0.284628  0.500000  1
  Ir  Ir18  1  0.714346  0.715372  0.500000  1
  Ir  Ir19  1  0.285396  0.000000  0.500000  1
  Ir  Ir20  1  0.621774  0.805166  0.000000  1
  Ir  Ir21  1  0.196740  0.815891  0.000000  1
  Ir  Ir22  1  0.183280  0.380323  0.000000  1
  Ir  Ir23  1  0.380849  0.184109  0.000000  1
  Ir  Ir24  1  0.802958  0.619677  0.000000  1
  Ir  Ir25  1  0.816608  0.194834  0.000000  1
  Ir  Ir26  1  0.511915  0.874283  0.500000  1
  Ir  Ir27  1  0.125404  0.636363  0.500000  1
  Ir  Ir28  1  0.362787  0.488159  0.500000  1
  Ir  Ir29  1  0.489042  0.363637  0.500000  1
  Ir  Ir30  1  0.874629  0.511841  0.500000  1
  Ir  Ir31  1  0.637633  0.125717  0.500000  1
  Ir  Ir32  1  0.997125  0.000000  0.000000  1
  Ir  Ir33  1  0.998184  0.446203  0.000000  1
  Ir  Ir34  1  0.551981  0.553797  0.000000  1
  Ir  Ir35  1  0.448092  0.000000  0.000000  1
