# generated using pymatgen
data_YHo2Er6ScCd3Ru
_symmetry_space_group_name_H-M   'P 1'
_cell_length_a   9.46025800
_cell_length_b   9.46025613
_cell_length_c   9.70309200
_cell_angle_alpha   90.00000000
_cell_angle_beta   90.00000000
_cell_angle_gamma   119.99608290
_symmetry_Int_Tables_number   1
_chemical_formula_structural   YHo2Er6ScCd3Ru
_chemical_formula_sum   'Y2 Ho4 Er12 Sc2 Cd6 Ru2'
_cell_volume   752.07957967
_cell_formula_units_Z   2
loop_
 _symmetry_equiv_pos_site_id
 _symmetry_equiv_pos_as_xyz
  1  'x, y, z'
loop_
 _atom_site_type_symbol
 _atom_site_label
 _atom_site_symmetry_multiplicity
 _atom_site_fract_x
 _atom_site_fract_y
 _atom_site_fract_z
 _atom_site_occupancy
  Y  Y0  1  0.459250  0.918366  0.750000  1
  Y  Y1  1  0.081634  0.540750  0.750000  1
  Ho  Ho2  1  0.540826  0.459174  0.250000  1
  Ho  Ho3  1  0.540821  0.081543  0.250000  1
  Ho  Ho4  1  0.918457  0.459179  0.250000  1
  Ho  Ho5  1  0.459407  0.540593  0.750000  1
  Er  Er6  1  0.208503  0.791497  0.440738  1
  Er  Er7  1  0.208656  0.417050  0.440801  1
  Er  Er8  1  0.582950  0.791344  0.440801  1
  Er  Er9  1  0.791396  0.208604  0.559026  1
  Er  Er10  1  0.791267  0.582859  0.559100  1
  Er  Er11  1  0.417141  0.208733  0.559100  1
  Er  Er12  1  0.791396  0.208604  0.940974  1
  Er  Er13  1  0.791267  0.582859  0.940900  1
  Er  Er14  1  0.417141  0.208733  0.940900  1
  Er  Er15  1  0.208503  0.791497  0.059262  1
  Er  Er16  1  0.208656  0.417050  0.059199  1
  Er  Er17  1  0.582950  0.791344  0.059199  1
  Sc  Sc18  1  0.999937  0.000063  0.499980  1
  Sc  Sc19  1  0.999937  0.000063  0.000020  1
  Cd  Cd20  1  0.889195  0.110805  0.250000  1
  Cd  Cd21  1  0.888881  0.778185  0.250000  1
  Cd  Cd22  1  0.221815  0.111119  0.250000  1
  Cd  Cd23  1  0.110802  0.889198  0.750000  1
  Cd  Cd24  1  0.111187  0.221878  0.750000  1
  Cd  Cd25  1  0.778122  0.888813  0.750000  1
  Ru  Ru26  1  0.333250  0.666750  0.250000  1
  Ru  Ru27  1  0.666655  0.333345  0.750000  1
