# generated using pymatgen
data_LiAc(AgAs)2
_symmetry_space_group_name_H-M   'P 1'
_cell_length_a   4.50965200
_cell_length_b   4.50965133
_cell_length_c   7.36542000
_cell_angle_alpha   90.00000000
_cell_angle_beta   90.00000000
_cell_angle_gamma   119.99999023
_symmetry_Int_Tables_number   1
_chemical_formula_structural   LiAc(AgAs)2
_chemical_formula_sum   'Li1 Ac1 Ag2 As2'
_cell_volume   129.72216436
_cell_formula_units_Z   1
loop_
 _symmetry_equiv_pos_site_id
 _symmetry_equiv_pos_as_xyz
  1  'x, y, z'
loop_
 _atom_site_type_symbol
 _atom_site_label
 _atom_site_symmetry_multiplicity
 _atom_site_fract_x
 _atom_site_fract_y
 _atom_site_fract_z
 _atom_site_occupancy
  Li  Li0  1  0.000000  0.000000  0.500000  1
  Ac  Ac1  1  0.000000  0.000000  0.000000  1
  Ag  Ag2  1  0.666667  0.333333  0.648167  1
  Ag  Ag3  1  0.333333  0.666667  0.351833  1
  As  As4  1  0.666667  0.333333  0.251572  1
  As  As5  1  0.333333  0.666667  0.748428  1
