# generated using pymatgen
data_Ti3BeGe2Ru3
_symmetry_space_group_name_H-M   'P 1'
_cell_length_a   6.74700376
_cell_length_b   6.36780610
_cell_length_c   7.45994452
_cell_angle_alpha   115.26463562
_cell_angle_beta   116.88590863
_cell_angle_gamma   89.99999377
_symmetry_Int_Tables_number   1
_chemical_formula_structural   Ti3BeGe2Ru3
_chemical_formula_sum   'Ti6 Be2 Ge4 Ru6'
_cell_volume   251.00835784
_cell_formula_units_Z   2
loop_
 _symmetry_equiv_pos_site_id
 _symmetry_equiv_pos_as_xyz
  1  'x, y, z'
loop_
 _atom_site_type_symbol
 _atom_site_label
 _atom_site_symmetry_multiplicity
 _atom_site_fract_x
 _atom_site_fract_y
 _atom_site_fract_z
 _atom_site_occupancy
  Ti  Ti0  1  0.246697  0.444919  0.389837  1
  Ti  Ti1  1  0.856859  0.555081  0.610163  1
  Ti  Ti2  1  0.635165  0.749501  0.999001  1
  Ti  Ti3  1  0.636163  0.250499  0.000999  1
  Ti  Ti4  1  0.858628  0.055992  0.611984  1
  Ti  Ti5  1  0.246645  0.944008  0.388016  1
  Be  Be6  1  0.247257  0.250497  0.000996  1
  Be  Be7  1  0.246261  0.749503  0.999004  1
  Ge  Ge8  1  0.580036  0.834169  0.666722  1
  Ge  Ge9  1  0.913313  0.165831  0.333278  1
  Ge  Ge10  1  0.913313  0.667447  0.333278  1
  Ge  Ge11  1  0.580036  0.332553  0.666722  1
  Ru  Ru12  1  0.000894  0.000000  0.000000  1
  Ru  Ru13  1  0.000894  0.500000  0.000000  1
  Ru  Ru14  1  0.492464  0.623291  0.245810  1
  Ru  Ru15  1  0.246654  0.376709  0.754190  1
  Ru  Ru16  1  0.246654  0.877480  0.754190  1
  Ru  Ru17  1  0.492464  0.122520  0.245810  1
