# generated using pymatgen
data_Ba6Sr2UAsSe12
_symmetry_space_group_name_H-M   'P 1'
_cell_length_a   8.92323734
_cell_length_b   8.92323832
_cell_length_c   8.92323781
_cell_angle_alpha   90.91733215
_cell_angle_beta   90.91734283
_cell_angle_gamma   90.91734923
_symmetry_Int_Tables_number   1
_chemical_formula_structural   Ba6Sr2UAsSe12
_chemical_formula_sum   'Ba6 Sr2 U1 As1 Se12'
_cell_volume   710.22929151
_cell_formula_units_Z   1
loop_
 _symmetry_equiv_pos_site_id
 _symmetry_equiv_pos_as_xyz
  1  'x, y, z'
loop_
 _atom_site_type_symbol
 _atom_site_label
 _atom_site_symmetry_multiplicity
 _atom_site_fract_x
 _atom_site_fract_y
 _atom_site_fract_z
 _atom_site_occupancy
  Ba  Ba0  1  0.868181  0.622228  0.259454  1
  Ba  Ba1  1  0.259454  0.868181  0.622228  1
  Ba  Ba2  1  0.622228  0.259454  0.868181  1
  Ba  Ba3  1  0.740546  0.131819  0.377772  1
  Ba  Ba4  1  0.377772  0.740546  0.131819  1
  Ba  Ba5  1  0.131819  0.377772  0.740546  1
  Sr  Sr6  1  0.257521  0.257521  0.257521  1
  Sr  Sr7  1  0.742479  0.742479  0.742479  1
  U  U8  1  0.000000  0.000000  0.000000  1
  As  As9  1  0.500000  0.500000  0.500000  1
  Se  Se10  1  0.204054  0.555668  0.418136  1
  Se  Se11  1  0.418136  0.204054  0.555668  1
  Se  Se12  1  0.555668  0.418136  0.204054  1
  Se  Se13  1  0.922722  0.050584  0.704185  1
  Se  Se14  1  0.704185  0.922722  0.050584  1
  Se  Se15  1  0.050584  0.704185  0.922722  1
  Se  Se16  1  0.795946  0.444332  0.581864  1
  Se  Se17  1  0.581864  0.795946  0.444332  1
  Se  Se18  1  0.444332  0.581864  0.795946  1
  Se  Se19  1  0.077278  0.949416  0.295815  1
  Se  Se20  1  0.295815  0.077278  0.949416  1
  Se  Se21  1  0.949416  0.295815  0.077278  1
