# generated using pymatgen
data_ErCo4ReSiP2
_symmetry_space_group_name_H-M   'P 1'
_cell_length_a   3.72637700
_cell_length_b   10.37049500
_cell_length_c   11.82673300
_cell_angle_alpha   90.00000000
_cell_angle_beta   90.00000000
_cell_angle_gamma   90.00000000
_symmetry_Int_Tables_number   1
_chemical_formula_structural   ErCo4ReSiP2
_chemical_formula_sum   'Er4 Co16 Re4 Si4 P8'
_cell_volume   457.03669380
_cell_formula_units_Z   4
loop_
 _symmetry_equiv_pos_site_id
 _symmetry_equiv_pos_as_xyz
  1  'x, y, z'
loop_
 _atom_site_type_symbol
 _atom_site_label
 _atom_site_symmetry_multiplicity
 _atom_site_fract_x
 _atom_site_fract_y
 _atom_site_fract_z
 _atom_site_occupancy
  Er  Er0  1  0.250000  0.583441  0.701648  1
  Er  Er1  1  0.250000  0.916559  0.201648  1
  Er  Er2  1  0.750000  0.416559  0.298352  1
  Er  Er3  1  0.750000  0.083441  0.798352  1
  Co  Co4  1  0.250000  0.406130  0.488199  1
  Co  Co5  1  0.250000  0.093870  0.988199  1
  Co  Co6  1  0.750000  0.593870  0.511801  1
  Co  Co7  1  0.750000  0.906130  0.011801  1
  Co  Co8  1  0.250000  0.215058  0.177285  1
  Co  Co9  1  0.250000  0.284942  0.677285  1
  Co  Co10  1  0.750000  0.784942  0.822715  1
  Co  Co11  1  0.750000  0.715058  0.322715  1
  Co  Co12  1  0.250000  0.885005  0.701474  1
  Co  Co13  1  0.250000  0.614995  0.201474  1
  Co  Co14  1  0.750000  0.114995  0.298526  1
  Co  Co15  1  0.750000  0.385005  0.798526  1
  Co  Co16  1  0.250000  0.465154  0.931431  1
  Co  Co17  1  0.250000  0.034846  0.431431  1
  Co  Co18  1  0.750000  0.534846  0.068569  1
  Co  Co19  1  0.750000  0.965154  0.568569  1
  Re  Re20  1  0.250000  0.708604  0.988748  1
  Re  Re21  1  0.250000  0.791396  0.488748  1
  Re  Re22  1  0.750000  0.291396  0.011252  1
  Re  Re23  1  0.750000  0.208604  0.511252  1
  Si  Si24  1  0.250000  0.417237  0.115475  1
  Si  Si25  1  0.250000  0.082763  0.615475  1
  Si  Si26  1  0.750000  0.582763  0.884525  1
  Si  Si27  1  0.750000  0.917237  0.384525  1
  P  P28  1  0.250000  0.269996  0.865144  1
  P  P29  1  0.250000  0.230004  0.365144  1
  P  P30  1  0.750000  0.730004  0.134856  1
  P  P31  1  0.750000  0.769996  0.634856  1
  P  P32  1  0.250000  0.596406  0.390665  1
  P  P33  1  0.250000  0.903594  0.890665  1
  P  P34  1  0.750000  0.403594  0.609335  1
  P  P35  1  0.750000  0.096406  0.109335  1
