# generated using pymatgen
data_Li2(HfS2)5
_symmetry_space_group_name_H-M   'P 1'
_cell_length_a   6.22063907
_cell_length_b   9.60893169
_cell_length_c   7.31438215
_cell_angle_alpha   66.82752427
_cell_angle_beta   64.84705672
_cell_angle_gamma   90.02383659
_symmetry_Int_Tables_number   1
_chemical_formula_structural   Li2(HfS2)5
_chemical_formula_sum   'Li2 Hf5 S10'
_cell_volume   356.36112926
_cell_formula_units_Z   1
loop_
 _symmetry_equiv_pos_site_id
 _symmetry_equiv_pos_as_xyz
  1  'x, y, z'
loop_
 _atom_site_type_symbol
 _atom_site_label
 _atom_site_symmetry_multiplicity
 _atom_site_fract_x
 _atom_site_fract_y
 _atom_site_fract_z
 _atom_site_occupancy
  Li  Li0  1  0.794550  0.090790  0.409436  1
  Li  Li1  1  0.005450  0.509210  0.990564  1
  Hf  Hf2  1  0.400000  0.800000  0.200000  1
  Hf  Hf3  1  0.796836  0.602598  0.408019  1
  Hf  Hf4  1  0.202019  0.398705  0.589819  1
  Hf  Hf5  1  0.597981  0.201295  0.810181  1
  Hf  Hf6  1  0.003164  0.997402  0.991981  1
  S  S7  1  0.973928  0.850957  0.384765  1
  S  S8  1  0.575905  0.045693  0.191289  1
  S  S9  1  0.167427  0.247868  0.987144  1
  S  S10  1  0.776268  0.448394  0.791047  1
  S  S11  1  0.367512  0.644622  0.589874  1
  S  S12  1  0.432488  0.955378  0.810126  1
  S  S13  1  0.023732  0.151606  0.608953  1
  S  S14  1  0.632573  0.352132  0.412856  1
  S  S15  1  0.224095  0.554307  0.208711  1
  S  S16  1  0.826072  0.749043  0.015235  1
