# generated using pymatgen
data_Pr11InHg8Ir3Pt
_symmetry_space_group_name_H-M   'P 1'
_cell_length_a   13.46687379
_cell_length_b   13.47300822
_cell_length_c   3.89633500
_cell_angle_alpha   90.00000000
_cell_angle_beta   90.00000000
_cell_angle_gamma   113.83447710
_symmetry_Int_Tables_number   1
_chemical_formula_structural   Pr11InHg8Ir3Pt
_chemical_formula_sum   'Pr11 In1 Hg8 Ir3 Pt1'
_cell_volume   646.65739703
_cell_formula_units_Z   1
loop_
 _symmetry_equiv_pos_site_id
 _symmetry_equiv_pos_as_xyz
  1  'x, y, z'
loop_
 _atom_site_type_symbol
 _atom_site_label
 _atom_site_symmetry_multiplicity
 _atom_site_fract_x
 _atom_site_fract_y
 _atom_site_fract_z
 _atom_site_occupancy
  Pr  Pr0  1  0.499905  0.499037  0.500000  1
  Pr  Pr1  1  0.801133  0.795317  0.500000  1
  Pr  Pr2  1  0.199924  0.200076  0.500000  1
  Pr  Pr3  1  0.580437  0.918081  0.500000  1
  Pr  Pr4  1  0.414097  0.080414  0.500000  1
  Pr  Pr5  1  0.920093  0.585281  0.500000  1
  Pr  Pr6  1  0.082012  0.416050  0.500000  1
  Pr  Pr7  1  0.126413  0.874288  0.500000  1
  Pr  Pr8  1  0.876312  0.130904  0.500000  1
  Pr  Pr9  1  0.332550  0.667496  0.500000  1
  Pr  Pr10  1  0.667714  0.331774  0.500000  1
  In  In11  1  0.001276  0.000435  0.000000  1
  Hg  Hg12  1  0.347210  0.865852  0.000000  1
  Hg  Hg13  1  0.653011  0.133759  0.000000  1
  Hg  Hg14  1  0.867218  0.346573  0.000000  1
  Hg  Hg15  1  0.133995  0.652643  0.000000  1
  Hg  Hg16  1  0.559067  0.710711  0.000000  1
  Hg  Hg17  1  0.439385  0.287779  0.000000  1
  Hg  Hg18  1  0.711906  0.560057  0.000000  1
  Hg  Hg19  1  0.288593  0.440596  0.000000  1
  Ir  Ir20  1  0.243448  0.052479  0.000000  1
  Ir  Ir21  1  0.948002  0.756645  0.000000  1
  Ir  Ir22  1  0.050351  0.243788  0.000000  1
  Pt  Pt23  1  0.755949  0.949967  0.000000  1
