# generated using pymatgen
data_LiNd2Zn2Ga5
_symmetry_space_group_name_H-M   'P 1'
_cell_length_a   4.21570500
_cell_length_b   4.21570500
_cell_length_c   10.83297600
_cell_angle_alpha   90.00000000
_cell_angle_beta   90.00000000
_cell_angle_gamma   90.00000000
_symmetry_Int_Tables_number   1
_chemical_formula_structural   LiNd2Zn2Ga5
_chemical_formula_sum   'Li1 Nd2 Zn2 Ga5'
_cell_volume   192.52547642
_cell_formula_units_Z   1
loop_
 _symmetry_equiv_pos_site_id
 _symmetry_equiv_pos_as_xyz
  1  'x, y, z'
loop_
 _atom_site_type_symbol
 _atom_site_label
 _atom_site_symmetry_multiplicity
 _atom_site_fract_x
 _atom_site_fract_y
 _atom_site_fract_z
 _atom_site_occupancy
  Li  Li0  1  0.500000  0.500000  0.000000  1
  Nd  Nd1  1  0.500000  0.000000  0.746811  1
  Nd  Nd2  1  0.000000  0.500000  0.253189  1
  Zn  Zn3  1  0.000000  0.000000  0.500000  1
  Zn  Zn4  1  0.500000  0.500000  0.500000  1
  Ga  Ga5  1  0.000000  0.500000  0.863398  1
  Ga  Ga6  1  0.500000  0.000000  0.365527  1
  Ga  Ga7  1  0.500000  0.000000  0.136602  1
  Ga  Ga8  1  0.000000  0.500000  0.634473  1
  Ga  Ga9  1  0.000000  0.000000  0.000000  1
