# generated using pymatgen
data_Pr12Os3Pd
_symmetry_space_group_name_H-M   'P 1'
_cell_length_a   6.58932985
_cell_length_b   7.53823711
_cell_length_c   9.88091700
_cell_angle_alpha   90.00000000
_cell_angle_beta   90.00000000
_cell_angle_gamma   90.37092443
_symmetry_Int_Tables_number   1
_chemical_formula_structural   Pr12Os3Pd
_chemical_formula_sum   'Pr12 Os3 Pd1'
_cell_volume   490.79394098
_cell_formula_units_Z   1
loop_
 _symmetry_equiv_pos_site_id
 _symmetry_equiv_pos_as_xyz
  1  'x, y, z'
loop_
 _atom_site_type_symbol
 _atom_site_label
 _atom_site_symmetry_multiplicity
 _atom_site_fract_x
 _atom_site_fract_y
 _atom_site_fract_z
 _atom_site_occupancy
  Pr  Pr0  1  0.337261  0.669930  0.062920  1
  Pr  Pr1  1  0.169390  0.183371  0.437609  1
  Pr  Pr2  1  0.673413  0.323023  0.567630  1
  Pr  Pr3  1  0.825909  0.825236  0.929423  1
  Pr  Pr4  1  0.673413  0.323023  0.932370  1
  Pr  Pr5  1  0.825909  0.825236  0.570577  1
  Pr  Pr6  1  0.337261  0.669930  0.437080  1
  Pr  Pr7  1  0.169390  0.183371  0.062391  1
  Pr  Pr8  1  0.852737  0.530098  0.250000  1
  Pr  Pr9  1  0.633902  0.044957  0.250000  1
  Pr  Pr10  1  0.141790  0.462832  0.750000  1
  Pr  Pr11  1  0.354285  0.960833  0.750000  1
  Os  Os12  1  0.441273  0.383626  0.250000  1
  Os  Os13  1  0.946742  0.114409  0.750000  1
  Os  Os14  1  0.554317  0.615402  0.750000  1
  Pd  Pd15  1  0.063009  0.884721  0.250000  1
