# generated using pymatgen
data_LaEr2P4Pd7
_symmetry_space_group_name_H-M   'P 1'
_cell_length_a   7.96235161
_cell_length_b   7.96235205
_cell_length_c   9.53452413
_cell_angle_alpha   55.98751030
_cell_angle_beta   55.98751016
_cell_angle_gamma   29.27388029
_symmetry_Int_Tables_number   1
_chemical_formula_structural   LaEr2P4Pd7
_chemical_formula_sum   'La1 Er2 P4 Pd7'
_cell_volume   241.17680030
_cell_formula_units_Z   1
loop_
 _symmetry_equiv_pos_site_id
 _symmetry_equiv_pos_as_xyz
  1  'x, y, z'
loop_
 _atom_site_type_symbol
 _atom_site_label
 _atom_site_symmetry_multiplicity
 _atom_site_fract_x
 _atom_site_fract_y
 _atom_site_fract_z
 _atom_site_occupancy
  La  La0  1  0.500000  0.500000  0.500000  1
  Er  Er1  1  0.821248  0.821248  0.174989  1
  Er  Er2  1  0.178752  0.178752  0.825011  1
  P  P3  1  0.392570  0.392570  0.315049  1
  P  P4  1  0.607430  0.607430  0.684951  1
  P  P5  1  0.835474  0.835474  0.760838  1
  P  P6  1  0.164526  0.164526  0.239162  1
  Pd  Pd7  1  0.670670  0.670670  0.072415  1
  Pd  Pd8  1  0.009717  0.009717  0.210200  1
  Pd  Pd9  1  0.990283  0.990283  0.789800  1
  Pd  Pd10  1  0.500000  0.500000  0.000000  1
  Pd  Pd11  1  0.196088  0.196088  0.469011  1
  Pd  Pd12  1  0.803912  0.803912  0.530989  1
  Pd  Pd13  1  0.329330  0.329330  0.927585  1
