# generated using pymatgen
data_KMn3GaO8
_symmetry_space_group_name_H-M   'P 1'
_cell_length_a   2.95992091
_cell_length_b   7.15982459
_cell_length_c   7.23464926
_cell_angle_alpha   92.29032025
_cell_angle_beta   101.80447526
_cell_angle_gamma   78.06868173
_symmetry_Int_Tables_number   1
_chemical_formula_structural   KMn3GaO8
_chemical_formula_sum   'K1 Mn3 Ga1 O8'
_cell_volume   146.83520080
_cell_formula_units_Z   1
loop_
 _symmetry_equiv_pos_site_id
 _symmetry_equiv_pos_as_xyz
  1  'x, y, z'
loop_
 _atom_site_type_symbol
 _atom_site_label
 _atom_site_symmetry_multiplicity
 _atom_site_fract_x
 _atom_site_fract_y
 _atom_site_fract_z
 _atom_site_occupancy
  K  K0  1  0.021412  0.005572  0.999576  1
  Mn  Mn1  1  0.352086  0.513835  0.180432  1
  Mn  Mn2  1  0.870032  0.813522  0.516027  1
  Mn  Mn3  1  0.169688  0.180135  0.481735  1
  Ga  Ga4  1  0.681910  0.486413  0.813018  1
  O  O5  1  0.977109  0.373159  0.289760  1
  O  O6  1  0.056569  0.631549  0.707443  1
  O  O7  1  0.685808  0.284296  0.618201  1
  O  O8  1  0.354693  0.708143  0.379983  1
  O  O9  1  0.725111  0.648414  0.061008  1
  O  O10  1  0.319869  0.356635  0.958682  1
  O  O11  1  0.672735  0.046238  0.353821  1
  O  O12  1  0.362978  0.952090  0.640312  1
