# generated using pymatgen
data_Tm6Lu4Si5As
_symmetry_space_group_name_H-M   'P 1'
_cell_length_a   8.28690700
_cell_length_b   8.29871399
_cell_length_c   6.16190500
_cell_angle_alpha   90.00000000
_cell_angle_beta   90.00000000
_cell_angle_gamma   119.95295096
_symmetry_Int_Tables_number   1
_chemical_formula_structural   Tm6Lu4Si5As
_chemical_formula_sum   'Tm6 Lu4 Si5 As1'
_cell_volume   367.15935221
_cell_formula_units_Z   1
loop_
 _symmetry_equiv_pos_site_id
 _symmetry_equiv_pos_as_xyz
  1  'x, y, z'
loop_
 _atom_site_type_symbol
 _atom_site_label
 _atom_site_symmetry_multiplicity
 _atom_site_fract_x
 _atom_site_fract_y
 _atom_site_fract_z
 _atom_site_occupancy
  Tm  Tm0  1  0.758663  0.000000  0.750000  1
  Tm  Tm1  1  0.756881  0.756473  0.250000  1
  Tm  Tm2  1  0.000408  0.243527  0.250000  1
  Tm  Tm3  1  0.996862  0.754485  0.750000  1
  Tm  Tm4  1  0.242377  0.245515  0.750000  1
  Tm  Tm5  1  0.242620  0.000000  0.250000  1
  Lu  Lu6  1  0.668602  0.335644  0.001239  1
  Lu  Lu7  1  0.332957  0.664356  0.498761  1
  Lu  Lu8  1  0.332957  0.664356  0.001239  1
  Lu  Lu9  1  0.668602  0.335644  0.498761  1
  Si  Si10  1  0.395016  0.394070  0.250000  1
  Si  Si11  1  0.000946  0.605930  0.250000  1
  Si  Si12  1  0.999743  0.394867  0.750000  1
  Si  Si13  1  0.604876  0.605133  0.750000  1
  Si  Si14  1  0.605947  0.000000  0.250000  1
  As  As15  1  0.392544  0.000000  0.750000  1
