# generated using pymatgen
data_Tb4Cd2Cu3Rh
_symmetry_space_group_name_H-M   'P 1'
_cell_length_a   7.59850297
_cell_length_b   7.59850297
_cell_length_c   3.73256100
_cell_angle_alpha   90.00000000
_cell_angle_beta   90.00000000
_cell_angle_gamma   90.15521172
_symmetry_Int_Tables_number   1
_chemical_formula_structural   Tb4Cd2Cu3Rh
_chemical_formula_sum   'Tb4 Cd2 Cu3 Rh1'
_cell_volume   215.50700710
_cell_formula_units_Z   1
loop_
 _symmetry_equiv_pos_site_id
 _symmetry_equiv_pos_as_xyz
  1  'x, y, z'
loop_
 _atom_site_type_symbol
 _atom_site_label
 _atom_site_symmetry_multiplicity
 _atom_site_fract_x
 _atom_site_fract_y
 _atom_site_fract_z
 _atom_site_occupancy
  Tb  Tb0  1  0.672421  0.172421  0.500000  1
  Tb  Tb1  1  0.316376  0.816376  0.500000  1
  Tb  Tb2  1  0.180436  0.335998  0.500000  1
  Tb  Tb3  1  0.835998  0.680436  0.500000  1
  Cd  Cd4  1  0.999438  0.006332  0.000000  1
  Cd  Cd5  1  0.506332  0.499438  0.000000  1
  Cu  Cu6  1  0.875585  0.375585  0.000000  1
  Cu  Cu7  1  0.615485  0.879454  0.000000  1
  Cu  Cu8  1  0.379454  0.115485  0.000000  1
  Rh  Rh9  1  0.118475  0.618475  0.000000  1
