# generated using pymatgen
data_Pr2Ga5Rh3
_symmetry_space_group_name_H-M   'P 1'
_cell_length_a   8.69446921
_cell_length_b   8.69446933
_cell_length_c   8.69446825
_cell_angle_alpha   141.12954759
_cell_angle_beta   108.03505982
_cell_angle_gamma   84.94190630
_symmetry_Int_Tables_number   1
_chemical_formula_structural   Pr2Ga5Rh3
_chemical_formula_sum   'Pr4 Ga10 Rh6'
_cell_volume   379.10867923
_cell_formula_units_Z   2
loop_
 _symmetry_equiv_pos_site_id
 _symmetry_equiv_pos_as_xyz
  1  'x, y, z'
loop_
 _atom_site_type_symbol
 _atom_site_label
 _atom_site_symmetry_multiplicity
 _atom_site_fract_x
 _atom_site_fract_y
 _atom_site_fract_z
 _atom_site_occupancy
  Pr  Pr0  1  0.863941  0.634876  0.229066  1
  Pr  Pr1  1  0.136059  0.365124  0.770934  1
  Pr  Pr2  1  0.594190  0.865124  0.729066  1
  Pr  Pr3  1  0.405810  0.134876  0.270934  1
  Ga  Ga4  1  0.500000  0.750000  0.250000  1
  Ga  Ga5  1  0.500000  0.250000  0.750000  1
  Ga  Ga6  1  0.208791  0.958791  0.750000  1
  Ga  Ga7  1  0.791209  0.541209  0.750000  1
  Ga  Ga8  1  0.791209  0.041209  0.250000  1
  Ga  Ga9  1  0.208791  0.458791  0.250000  1
  Ga  Ga10  1  0.074555  0.905967  0.168589  1
  Ga  Ga11  1  0.925445  0.094033  0.831411  1
  Ga  Ga12  1  0.262622  0.594033  0.668589  1
  Ga  Ga13  1  0.737378  0.405967  0.331411  1
  Rh  Rh14  1  0.259888  0.854308  0.405580  1
  Rh  Rh15  1  0.740112  0.145692  0.594420  1
  Rh  Rh16  1  0.551273  0.645692  0.905580  1
  Rh  Rh17  1  0.448727  0.354308  0.094420  1
  Rh  Rh18  1  0.000000  0.750000  0.750000  1
  Rh  Rh19  1  0.000000  0.250000  0.250000  1
