# generated using pymatgen
data_Li11CaPr12TaW7O48
_symmetry_space_group_name_H-M   'P 1'
_cell_length_a   10.99043635
_cell_length_b   10.99043688
_cell_length_c   10.99043800
_cell_angle_alpha   109.42840073
_cell_angle_beta   109.42841274
_cell_angle_gamma   109.42840200
_symmetry_Int_Tables_number   1
_chemical_formula_structural   Li11CaPr12TaW7O48
_chemical_formula_sum   'Li11 Ca1 Pr12 Ta1 W7 O48'
_cell_volume   1023.55112719
_cell_formula_units_Z   1
loop_
 _symmetry_equiv_pos_site_id
 _symmetry_equiv_pos_as_xyz
  1  'x, y, z'
loop_
 _atom_site_type_symbol
 _atom_site_label
 _atom_site_symmetry_multiplicity
 _atom_site_fract_x
 _atom_site_fract_y
 _atom_site_fract_z
 _atom_site_occupancy
  Li  Li0  1  0.375485  0.250092  0.126129  1
  Li  Li1  1  0.121882  0.376230  0.252013  1
  Li  Li2  1  0.625077  0.874468  0.249128  1
  Li  Li3  1  0.124949  0.751086  0.376900  1
  Li  Li4  1  0.749523  0.623284  0.374694  1
  Li  Li5  1  0.250619  0.376678  0.625358  1
  Li  Li6  1  0.875551  0.247053  0.621891  1
  Li  Li7  1  0.375721  0.128428  0.753104  1
  Li  Li8  1  0.877277  0.624608  0.749734  1
  Li  Li9  1  0.624047  0.748012  0.871110  1
  Li  Li10  1  0.749607  0.125322  0.874972  1
  Ca  Ca11  1  0.251568  0.875124  0.125707  1
  Pr  Pr12  1  0.752637  0.377908  0.131340  1
  Pr  Pr13  1  0.871928  0.751162  0.126624  1
  Pr  Pr14  1  0.375473  0.621440  0.248811  1
  Pr  Pr15  1  0.874209  0.129689  0.254591  1
  Pr  Pr16  1  0.249887  0.136397  0.385564  1
  Pr  Pr17  1  0.631501  0.256402  0.379331  1
  Pr  Pr18  1  0.749995  0.872872  0.623579  1
  Pr  Pr19  1  0.369359  0.745372  0.620416  1
  Pr  Pr20  1  0.123748  0.868765  0.742832  1
  Pr  Pr21  1  0.626651  0.377917  0.752271  1
  Pr  Pr22  1  0.246573  0.613281  0.859361  1
  Pr  Pr23  1  0.126756  0.247773  0.874413  1
  Ta  Ta24  1  0.998400  0.499543  0.498407  1
  W  W25  1  0.993346  0.003981  0.999475  1
  W  W26  1  0.504874  0.000725  0.993627  1
  W  W27  1  0.501138  0.500114  0.000827  1
  W  W28  1  0.995363  0.489211  0.996114  1
  W  W29  1  0.999022  0.999034  0.500410  1
  W  W30  1  0.506669  0.006118  0.510743  1
  W  W31  1  0.501070  0.501295  0.500057  1
  O  O32  1  0.822290  0.908347  0.018664  1
  O  O33  1  0.697125  0.116088  0.021713  1
  O  O34  1  0.198719  0.653127  0.073021  1
  O  O35  1  0.385606  0.407766  0.080092  1
  O  O36  1  0.479191  0.671289  0.091137  1
  O  O37  1  0.110753  0.412988  0.090788  1
  O  O38  1  0.519699  0.189518  0.112406  1
  O  O39  1  0.080789  0.926077  0.125711  1
  O  O40  1  0.980384  0.593679  0.169956  1
  O  O41  1  0.694780  0.580614  0.172466  1
  O  O42  1  0.075263  0.173804  0.194752  1
  O  O43  1  0.607068  0.015864  0.187115  1
  O  O44  1  0.828597  0.920692  0.306411  1
  O  O45  1  0.970464  0.381293  0.297760  1
  O  O46  1  0.419536  0.046343  0.347035  1
  O  O47  1  0.418922  0.308013  0.329096  1
  O  O48  1  0.080826  0.910086  0.387568  1
  O  O49  1  0.798768  0.474691  0.381804  1
  O  O50  1  0.328807  0.523259  0.407004  1
  O  O51  1  0.577732  0.887409  0.407410  1
  O  O52  1  0.593057  0.615276  0.420146  1
  O  O53  1  0.329135  0.811938  0.418652  1
  O  O54  1  0.091232  0.173827  0.481129  1
  O  O55  1  0.880055  0.298528  0.472465  1
  O  O56  1  0.118471  0.700676  0.526136  1
  O  O57  1  0.905766  0.826658  0.520647  1
  O  O58  1  0.409988  0.389287  0.583289  1
  O  O59  1  0.677520  0.197182  0.587946  1
  O  O60  1  0.671819  0.478010  0.593072  1
  O  O61  1  0.424855  0.119178  0.600007  1
  O  O62  1  0.199810  0.523335  0.613186  1
  O  O63  1  0.919198  0.089380  0.615426  1
  O  O64  1  0.580820  0.694972  0.670087  1
  O  O65  1  0.594359  0.977745  0.674832  1
  O  O66  1  0.170737  0.078690  0.694277  1
  O  O67  1  0.025921  0.615571  0.699442  1
  O  O68  1  0.390510  0.981637  0.803388  1
  O  O69  1  0.922202  0.830833  0.809502  1
  O  O70  1  0.306278  0.416433  0.827135  1
  O  O71  1  0.019025  0.399193  0.825464  1
  O  O72  1  0.480924  0.806406  0.880566  1
  O  O73  1  0.905978  0.081475  0.883899  1
  O  O74  1  0.524386  0.329710  0.909831  1
  O  O75  1  0.891273  0.579644  0.908930  1
  O  O76  1  0.615516  0.592210  0.920394  1
  O  O77  1  0.803108  0.325272  0.919418  1
  O  O78  1  0.301595  0.874678  0.954973  1
  O  O79  1  0.171238  0.091933  0.984317  1
