# generated using pymatgen
data_Sr(AsPd4)2
_symmetry_space_group_name_H-M   'P 1'
_cell_length_a   6.50221468
_cell_length_b   6.50221356
_cell_length_c   9.63864100
_cell_angle_alpha   54.49595871
_cell_angle_beta   54.49596574
_cell_angle_gamma   37.97060006
_symmetry_Int_Tables_number   1
_chemical_formula_structural   Sr(AsPd4)2
_chemical_formula_sum   'Sr1 As2 Pd8'
_cell_volume   197.86437675
_cell_formula_units_Z   1
loop_
 _symmetry_equiv_pos_site_id
 _symmetry_equiv_pos_as_xyz
  1  'x, y, z'
loop_
 _atom_site_type_symbol
 _atom_site_label
 _atom_site_symmetry_multiplicity
 _atom_site_fract_x
 _atom_site_fract_y
 _atom_site_fract_z
 _atom_site_occupancy
  Sr  Sr0  1  0.500000  0.500000  0.500000  1
  As  As1  1  0.066665  0.066665  0.706800  1
  As  As2  1  0.933335  0.933335  0.293200  1
  Pd  Pd3  1  0.252490  0.252490  0.390775  1
  Pd  Pd4  1  0.817475  0.817475  0.854783  1
  Pd  Pd5  1  0.182525  0.182525  0.145217  1
  Pd  Pd6  1  0.161330  0.161330  0.863692  1
  Pd  Pd7  1  0.464467  0.464467  0.885698  1
  Pd  Pd8  1  0.535533  0.535533  0.114302  1
  Pd  Pd9  1  0.747510  0.747510  0.609225  1
  Pd  Pd10  1  0.838670  0.838670  0.136308  1
