# generated using pymatgen
data_La4HoSn4
_symmetry_space_group_name_H-M   'P 1'
_cell_length_a   8.41270400
_cell_length_b   8.51122500
_cell_length_c   16.27871000
_cell_angle_alpha   90.00000000
_cell_angle_beta   90.00000000
_cell_angle_gamma   90.00000000
_symmetry_Int_Tables_number   1
_chemical_formula_structural   La4HoSn4
_chemical_formula_sum   'La16 Ho4 Sn16'
_cell_volume   1165.59497517
_cell_formula_units_Z   4
loop_
 _symmetry_equiv_pos_site_id
 _symmetry_equiv_pos_as_xyz
  1  'x, y, z'
loop_
 _atom_site_type_symbol
 _atom_site_label
 _atom_site_symmetry_multiplicity
 _atom_site_fract_x
 _atom_site_fract_y
 _atom_site_fract_z
 _atom_site_occupancy
  La  La0  1  0.971233  0.819306  0.899974  1
  La  La1  1  0.471233  0.680694  0.600026  1
  La  La2  1  0.528767  0.319306  0.100026  1
  La  La3  1  0.028767  0.180694  0.399974  1
  La  La4  1  0.971233  0.819306  0.600026  1
  La  La5  1  0.471233  0.680694  0.899974  1
  La  La6  1  0.528767  0.319306  0.399974  1
  La  La7  1  0.028767  0.180694  0.100026  1
  La  La8  1  0.876613  0.658580  0.382082  1
  La  La9  1  0.376613  0.841420  0.117918  1
  La  La10  1  0.623387  0.158580  0.617918  1
  La  La11  1  0.123387  0.341420  0.882082  1
  La  La12  1  0.123387  0.341420  0.617918  1
  La  La13  1  0.623387  0.158580  0.882082  1
  La  La14  1  0.376613  0.841420  0.382082  1
  La  La15  1  0.876613  0.658580  0.117918  1
  Ho  Ho16  1  0.289278  0.003067  0.750000  1
  Ho  Ho17  1  0.789278  0.496933  0.750000  1
  Ho  Ho18  1  0.210722  0.503067  0.250000  1
  Ho  Ho19  1  0.710722  0.996933  0.250000  1
  Sn  Sn20  1  0.782585  0.470539  0.547337  1
  Sn  Sn21  1  0.282585  0.029461  0.952663  1
  Sn  Sn22  1  0.717415  0.970539  0.452663  1
  Sn  Sn23  1  0.217415  0.529461  0.047337  1
  Sn  Sn24  1  0.217415  0.529461  0.452663  1
  Sn  Sn25  1  0.717415  0.970539  0.047337  1
  Sn  Sn26  1  0.282585  0.029461  0.547337  1
  Sn  Sn27  1  0.782585  0.470539  0.952663  1
  Sn  Sn28  1  0.167451  0.647170  0.750000  1
  Sn  Sn29  1  0.667451  0.852830  0.750000  1
  Sn  Sn30  1  0.332549  0.147170  0.250000  1
  Sn  Sn31  1  0.832549  0.352830  0.250000  1
  Sn  Sn32  1  0.926275  0.118507  0.750000  1
  Sn  Sn33  1  0.426275  0.381493  0.750000  1
  Sn  Sn34  1  0.573725  0.618507  0.250000  1
  Sn  Sn35  1  0.073725  0.881493  0.250000  1
