# generated using pymatgen
data_La11Nd5(CdTc)4
_symmetry_space_group_name_H-M   'P 1'
_cell_length_a   10.03216051
_cell_length_b   10.03156075
_cell_length_c   10.03156027
_cell_angle_alpha   60.21035605
_cell_angle_beta   59.99802618
_cell_angle_gamma   59.99802274
_symmetry_Int_Tables_number   1
_chemical_formula_structural   La11Nd5(CdTc)4
_chemical_formula_sum   'La11 Nd5 Cd4 Tc4'
_cell_volume   714.97215962
_cell_formula_units_Z   1
loop_
 _symmetry_equiv_pos_site_id
 _symmetry_equiv_pos_as_xyz
  1  'x, y, z'
loop_
 _atom_site_type_symbol
 _atom_site_label
 _atom_site_symmetry_multiplicity
 _atom_site_fract_x
 _atom_site_fract_y
 _atom_site_fract_z
 _atom_site_occupancy
  La  La0  1  0.595619  0.594995  0.594995  1
  La  La1  1  0.594690  0.594704  0.215916  1
  La  La2  1  0.594690  0.215916  0.594704  1
  La  La3  1  0.214391  0.594995  0.594995  1
  La  La4  1  0.059883  0.440117  0.440117  1
  La  La5  1  0.438679  0.061321  0.061321  1
  La  La6  1  0.440188  0.061015  0.437977  1
  La  La7  1  0.060820  0.437977  0.061015  1
  La  La8  1  0.440188  0.437977  0.061015  1
  La  La9  1  0.060820  0.061015  0.437977  1
  La  La10  1  0.189487  0.810513  0.810513  1
  Nd  Nd11  1  0.810569  0.189431  0.189431  1
  Nd  Nd12  1  0.810435  0.188523  0.810262  1
  Nd  Nd13  1  0.190780  0.810262  0.188523  1
  Nd  Nd14  1  0.810435  0.810262  0.188523  1
  Nd  Nd15  1  0.190780  0.188523  0.810262  1
  Cd  Cd16  1  0.828153  0.828981  0.828981  1
  Cd  Cd17  1  0.828536  0.828711  0.514216  1
  Cd  Cd18  1  0.828536  0.514216  0.828711  1
  Cd  Cd19  1  0.513885  0.828981  0.828981  1
  Tc  Tc20  1  0.382274  0.383121  0.383121  1
  Tc  Tc21  1  0.382339  0.383573  0.851750  1
  Tc  Tc22  1  0.382339  0.851750  0.383573  1
  Tc  Tc23  1  0.851484  0.383121  0.383121  1
