# generated using pymatgen
data_TbYb12Dy7Ge16
_symmetry_space_group_name_H-M   'P 1'
_cell_length_a   7.44876142
_cell_length_b   7.87679926
_cell_length_c   15.17710504
_cell_angle_alpha   89.94639394
_cell_angle_beta   89.95003030
_cell_angle_gamma   89.97227658
_symmetry_Int_Tables_number   1
_chemical_formula_structural   TbYb12Dy7Ge16
_chemical_formula_sum   'Tb1 Yb12 Dy7 Ge16'
_cell_volume   890.47632225
_cell_formula_units_Z   1
loop_
 _symmetry_equiv_pos_site_id
 _symmetry_equiv_pos_as_xyz
  1  'x, y, z'
loop_
 _atom_site_type_symbol
 _atom_site_label
 _atom_site_symmetry_multiplicity
 _atom_site_fract_x
 _atom_site_fract_y
 _atom_site_fract_z
 _atom_site_occupancy
  Tb  Tb0  1  0.682085  0.827467  0.878821  1
  Yb  Yb1  1  0.978534  0.814383  0.404624  1
  Yb  Yb2  1  0.478715  0.685915  0.095475  1
  Yb  Yb3  1  0.521656  0.314033  0.595503  1
  Yb  Yb4  1  0.021154  0.185317  0.904077  1
  Yb  Yb5  1  0.022099  0.186189  0.595691  1
  Yb  Yb6  1  0.520960  0.314210  0.904714  1
  Yb  Yb7  1  0.478461  0.685715  0.404703  1
  Yb  Yb8  1  0.979090  0.814541  0.095354  1
  Yb  Yb9  1  0.347824  0.018856  0.750295  1
  Yb  Yb10  1  0.846337  0.481558  0.750168  1
  Yb  Yb11  1  0.153467  0.519328  0.249985  1
  Yb  Yb12  1  0.653290  0.980536  0.250187  1
  Dy  Dy13  1  0.317945  0.172643  0.121754  1
  Dy  Dy14  1  0.818150  0.327289  0.378877  1
  Dy  Dy15  1  0.181957  0.672178  0.878323  1
  Dy  Dy16  1  0.681615  0.827290  0.620975  1
  Dy  Dy17  1  0.318094  0.172738  0.378893  1
  Dy  Dy18  1  0.818300  0.327602  0.121471  1
  Dy  Dy19  1  0.181351  0.672725  0.621075  1
  Ge  Ge20  1  0.846329  0.533901  0.539967  1
  Ge  Ge21  1  0.345041  0.966109  0.960321  1
  Ge  Ge22  1  0.653242  0.033413  0.459798  1
  Ge  Ge23  1  0.154411  0.465967  0.040013  1
  Ge  Ge24  1  0.153261  0.466430  0.459878  1
  Ge  Ge25  1  0.652447  0.034076  0.040532  1
  Ge  Ge26  1  0.346463  0.966588  0.540221  1
  Ge  Ge27  1  0.847928  0.532943  0.959821  1
  Ge  Ge28  1  0.978446  0.883091  0.749282  1
  Ge  Ge29  1  0.477260  0.616956  0.749558  1
  Ge  Ge30  1  0.522251  0.382052  0.250320  1
  Ge  Ge31  1  0.022011  0.118028  0.250217  1
  Ge  Ge32  1  0.235287  0.383727  0.749578  1
  Ge  Ge33  1  0.736864  0.116236  0.749160  1
  Ge  Ge34  1  0.263641  0.884521  0.250287  1
  Ge  Ge35  1  0.764034  0.615447  0.250081  1
