# generated using pymatgen
data_Y2LuAl3GeAu2
_symmetry_space_group_name_H-M   'P 1'
_cell_length_a   7.00685495
_cell_length_b   7.06741782
_cell_length_c   4.30778000
_cell_angle_alpha   90.00000000
_cell_angle_beta   90.00000000
_cell_angle_gamma   120.00867670
_symmetry_Int_Tables_number   1
_chemical_formula_structural   Y2LuAl3GeAu2
_chemical_formula_sum   'Y2 Lu1 Al3 Ge1 Au2'
_cell_volume   184.72686673
_cell_formula_units_Z   1
loop_
 _symmetry_equiv_pos_site_id
 _symmetry_equiv_pos_as_xyz
  1  'x, y, z'
loop_
 _atom_site_type_symbol
 _atom_site_label
 _atom_site_symmetry_multiplicity
 _atom_site_fract_x
 _atom_site_fract_y
 _atom_site_fract_z
 _atom_site_occupancy
  Y  Y0  1  0.423596  0.422395  0.500000  1
  Y  Y1  1  0.578825  0.003988  0.500000  1
  Lu  Lu2  1  0.003118  0.580278  0.500000  1
  Al  Al3  1  0.750290  0.765041  0.000000  1
  Al  Al4  1  0.234688  0.985994  0.000000  1
  Al  Al5  1  0.011477  0.247793  0.000000  1
  Ge  Ge6  1  0.671606  0.336636  0.000000  1
  Au  Au7  1  0.326174  0.664576  0.000000  1
  Au  Au8  1  0.000225  0.993299  0.500000  1
