# generated using pymatgen
data_Y4Ho2Tm6Co5Pb
_symmetry_space_group_name_H-M   'P 1'
_cell_length_a   8.25870557
_cell_length_b   8.26059840
_cell_length_c   8.26059631
_cell_angle_alpha   110.63794198
_cell_angle_beta   110.89551621
_cell_angle_gamma   106.91880367
_symmetry_Int_Tables_number   1
_chemical_formula_structural   Y4Ho2Tm6Co5Pb
_chemical_formula_sum   'Y4 Ho2 Tm6 Co5 Pb1'
_cell_volume   433.13121546
_cell_formula_units_Z   1
loop_
 _symmetry_equiv_pos_site_id
 _symmetry_equiv_pos_as_xyz
  1  'x, y, z'
loop_
 _atom_site_type_symbol
 _atom_site_label
 _atom_site_symmetry_multiplicity
 _atom_site_fract_x
 _atom_site_fract_y
 _atom_site_fract_z
 _atom_site_occupancy
  Y  Y0  1  0.812723  0.710343  0.523881  1
  Y  Y1  1  0.187277  0.289657  0.476119  1
  Y  Y2  1  0.187276  0.711156  0.897623  1
  Y  Y3  1  0.812724  0.288844  0.102377  1
  Ho  Ho4  1  0.984337  0.791441  0.192898  1
  Ho  Ho5  1  0.015663  0.208559  0.807102  1
  Tm  Tm6  1  0.686518  0.378172  0.690327  1
  Tm  Tm7  1  0.313482  0.621828  0.309673  1
  Tm  Tm8  1  0.686519  0.996189  0.308347  1
  Tm  Tm9  1  0.313481  0.003811  0.691653  1
  Tm  Tm10  1  0.598072  0.791460  0.806612  1
  Tm  Tm11  1  0.401928  0.208540  0.193388  1
  Co  Co12  1  0.621927  0.999495  0.622433  1
  Co  Co13  1  0.378073  0.000505  0.377567  1
  Co  Co14  1  0.113076  0.612611  0.500468  1
  Co  Co15  1  0.886924  0.387389  0.499532  1
  Co  Co16  1  0.000000  0.000000  0.000000  1
  Pb  Pb17  1  0.500000  0.500000  0.000000  1
