# generated using pymatgen
data_Nb9CuSe16
_symmetry_space_group_name_H-M   'P 1'
_cell_length_a   7.00580600
_cell_length_b   7.00580516
_cell_length_c   13.06211800
_cell_angle_alpha   90.00000000
_cell_angle_beta   90.00000000
_cell_angle_gamma   120.00000397
_symmetry_Int_Tables_number   1
_chemical_formula_structural   Nb9CuSe16
_chemical_formula_sum   'Nb9 Cu1 Se16'
_cell_volume   555.21396216
_cell_formula_units_Z   1
loop_
 _symmetry_equiv_pos_site_id
 _symmetry_equiv_pos_as_xyz
  1  'x, y, z'
loop_
 _atom_site_type_symbol
 _atom_site_label
 _atom_site_symmetry_multiplicity
 _atom_site_fract_x
 _atom_site_fract_y
 _atom_site_fract_z
 _atom_site_occupancy
  Nb  Nb0  1  0.000000  0.000000  0.000000  1
  Nb  Nb1  1  0.000000  0.000000  0.251430  1
  Nb  Nb2  1  0.000000  0.000000  0.748570  1
  Nb  Nb3  1  0.507513  0.492487  0.250973  1
  Nb  Nb4  1  0.507513  0.015027  0.250973  1
  Nb  Nb5  1  0.984973  0.492487  0.250973  1
  Nb  Nb6  1  0.492487  0.507513  0.749027  1
  Nb  Nb7  1  0.492487  0.984973  0.749027  1
  Nb  Nb8  1  0.015027  0.507513  0.749027  1
  Cu  Cu9  1  0.000000  0.000000  0.500000  1
  Se  Se10  1  0.333333  0.666667  0.882355  1
  Se  Se11  1  0.666667  0.333333  0.117645  1
  Se  Se12  1  0.666667  0.333333  0.382698  1
  Se  Se13  1  0.333333  0.666667  0.617302  1
  Se  Se14  1  0.169342  0.830658  0.377911  1
  Se  Se15  1  0.169342  0.338686  0.377911  1
  Se  Se16  1  0.661314  0.830658  0.377911  1
  Se  Se17  1  0.830658  0.169342  0.622089  1
  Se  Se18  1  0.830658  0.661314  0.622089  1
  Se  Se19  1  0.338686  0.169342  0.622089  1
  Se  Se20  1  0.831403  0.168597  0.876320  1
  Se  Se21  1  0.831403  0.662805  0.876320  1
  Se  Se22  1  0.337195  0.168597  0.876320  1
  Se  Se23  1  0.168597  0.831403  0.123680  1
  Se  Se24  1  0.168597  0.337195  0.123680  1
  Se  Se25  1  0.662805  0.831403  0.123680  1
