# generated using pymatgen
data_Tb4In2HgAu3
_symmetry_space_group_name_H-M   'P 1'
_cell_length_a   8.06210618
_cell_length_b   8.06210618
_cell_length_c   3.78292500
_cell_angle_alpha   90.00000000
_cell_angle_beta   90.00000000
_cell_angle_gamma   89.66630682
_symmetry_Int_Tables_number   1
_chemical_formula_structural   Tb4In2HgAu3
_chemical_formula_sum   'Tb4 In2 Hg1 Au3'
_cell_volume   245.87670985
_cell_formula_units_Z   1
loop_
 _symmetry_equiv_pos_site_id
 _symmetry_equiv_pos_as_xyz
  1  'x, y, z'
loop_
 _atom_site_type_symbol
 _atom_site_label
 _atom_site_symmetry_multiplicity
 _atom_site_fract_x
 _atom_site_fract_y
 _atom_site_fract_z
 _atom_site_occupancy
  Tb  Tb0  1  0.670814  0.170814  0.500000  1
  Tb  Tb1  1  0.338391  0.838391  0.500000  1
  Tb  Tb2  1  0.167499  0.319571  0.500000  1
  Tb  Tb3  1  0.819571  0.667499  0.500000  1
  In  In4  1  0.502450  0.498134  0.000000  1
  In  In5  1  0.998134  0.002450  0.000000  1
  Hg  Hg6  1  0.129340  0.629340  0.000000  1
  Au  Au7  1  0.871198  0.371198  0.000000  1
  Au  Au8  1  0.629724  0.872878  0.000000  1
  Au  Au9  1  0.372878  0.129724  0.000000  1
