# generated using pymatgen
data_La2Ta2Bi2O11
_symmetry_space_group_name_H-M   'P 1'
_cell_length_a   6.74979591
_cell_length_b   7.79723426
_cell_length_c   10.00496123
_cell_angle_alpha   101.18431747
_cell_angle_beta   90.88252705
_cell_angle_gamma   89.98666260
_symmetry_Int_Tables_number   1
_chemical_formula_structural   La2Ta2Bi2O11
_chemical_formula_sum   'La4 Ta4 Bi4 O22'
_cell_volume   516.49494411
_cell_formula_units_Z   2
loop_
 _symmetry_equiv_pos_site_id
 _symmetry_equiv_pos_as_xyz
  1  'x, y, z'
loop_
 _atom_site_type_symbol
 _atom_site_label
 _atom_site_symmetry_multiplicity
 _atom_site_fract_x
 _atom_site_fract_y
 _atom_site_fract_z
 _atom_site_occupancy
  La  La0  1  0.750248  0.370902  0.484916  1
  La  La1  1  0.249752  0.629098  0.515084  1
  La  La2  1  0.758702  0.873352  0.490019  1
  La  La3  1  0.241298  0.126648  0.509981  1
  Ta  Ta4  1  0.916173  0.701973  0.808794  1
  Ta  Ta5  1  0.083827  0.298027  0.191206  1
  Ta  Ta6  1  0.916872  0.201874  0.810874  1
  Ta  Ta7  1  0.083128  0.798126  0.189126  1
  Bi  Bi8  1  0.426499  0.953903  0.816725  1
  Bi  Bi9  1  0.573501  0.046097  0.183275  1
  Bi  Bi10  1  0.400367  0.455077  0.826986  1
  Bi  Bi11  1  0.599633  0.544923  0.173014  1
  O  O12  1  0.217050  0.727542  0.766061  1
  O  O13  1  0.782950  0.272458  0.233939  1
  O  O14  1  0.637230  0.661896  0.837653  1
  O  O15  1  0.362770  0.338104  0.162347  1
  O  O16  1  0.637518  0.255505  0.842078  1
  O  O17  1  0.362482  0.744495  0.157922  1
  O  O18  1  0.895609  0.156791  0.598499  1
  O  O19  1  0.104391  0.843209  0.401501  1
  O  O20  1  0.215633  0.152286  0.764720  1
  O  O21  1  0.784367  0.847714  0.235280  1
  O  O22  1  0.900275  0.643091  0.598707  1
  O  O23  1  0.099725  0.356909  0.401293  1
  O  O24  1  0.024477  0.549680  0.195698  1
  O  O25  1  0.975523  0.450320  0.804302  1
  O  O26  1  0.998522  0.778731  0.999724  1
  O  O27  1  0.001478  0.221269  0.000276  1
  O  O28  1  0.573604  0.598490  0.388632  1
  O  O29  1  0.426396  0.401510  0.611368  1
  O  O30  1  0.153744  0.053942  0.214329  1
  O  O31  1  0.846256  0.946058  0.785671  1
  O  O32  1  0.547928  0.100612  0.396815  1
  O  O33  1  0.452072  0.899388  0.603185  1
