# generated using pymatgen
data_Cs4Nd3Sm(SiSe4)4
_symmetry_space_group_name_H-M   'P 1'
_cell_length_a   7.13835423
_cell_length_b   9.96343174
_cell_length_c   13.60225913
_cell_angle_alpha   71.36923093
_cell_angle_beta   89.98024052
_cell_angle_gamma   89.97311169
_symmetry_Int_Tables_number   1
_chemical_formula_structural   Cs4Nd3Sm(SiSe4)4
_chemical_formula_sum   'Cs4 Nd3 Sm1 Si4 Se16'
_cell_volume   916.73054673
_cell_formula_units_Z   1
loop_
 _symmetry_equiv_pos_site_id
 _symmetry_equiv_pos_as_xyz
  1  'x, y, z'
loop_
 _atom_site_type_symbol
 _atom_site_label
 _atom_site_symmetry_multiplicity
 _atom_site_fract_x
 _atom_site_fract_y
 _atom_site_fract_z
 _atom_site_occupancy
  Cs  Cs0  1  0.254484  0.434516  0.386591  1
  Cs  Cs1  1  0.754578  0.565444  0.113458  1
  Cs  Cs2  1  0.745503  0.565518  0.613351  1
  Cs  Cs3  1  0.245497  0.434504  0.886630  1
  Nd  Nd4  1  0.696016  0.046401  0.134755  1
  Nd  Nd5  1  0.803886  0.046452  0.634491  1
  Nd  Nd6  1  0.303904  0.953528  0.865472  1
  Sm  Sm7  1  0.194607  0.953319  0.365666  1
  Si  Si8  1  0.743667  0.165826  0.354507  1
  Si  Si9  1  0.243808  0.834134  0.145695  1
  Si  Si10  1  0.256240  0.834082  0.645315  1
  Si  Si11  1  0.756236  0.166067  0.854437  1
  Se  Se12  1  0.028068  0.196946  0.758727  1
  Se  Se13  1  0.778033  0.933721  0.453762  1
  Se  Se14  1  0.525280  0.207832  0.730606  1
  Se  Se15  1  0.723701  0.933822  0.953967  1
  Se  Se16  1  0.758784  0.312291  0.452324  1
  Se  Se17  1  0.973039  0.803828  0.242098  1
  Se  Se18  1  0.258840  0.687764  0.047716  1
  Se  Se19  1  0.223703  0.065680  0.544678  1
  Se  Se20  1  0.741175  0.312319  0.952360  1
  Se  Se21  1  0.473422  0.793082  0.270047  1
  Se  Se22  1  0.025423  0.792237  0.769326  1
  Se  Se23  1  0.240928  0.689505  0.546159  1
  Se  Se24  1  0.471007  0.195573  0.259442  1
  Se  Se25  1  0.975883  0.206378  0.231361  1
  Se  Se26  1  0.527920  0.803020  0.741186  1
  Se  Se27  1  0.276368  0.066211  0.045874  1
