# generated using pymatgen
data_TbHo5Sc2(Co4P3)4
_symmetry_space_group_name_H-M   'P 1'
_cell_length_a   3.71512600
_cell_length_b   10.64501500
_cell_length_c   12.33444200
_cell_angle_alpha   90.00000000
_cell_angle_beta   90.00000000
_cell_angle_gamma   90.00000000
_symmetry_Int_Tables_number   1
_chemical_formula_structural   TbHo5Sc2(Co4P3)4
_chemical_formula_sum   'Tb1 Ho5 Sc2 Co16 P12'
_cell_volume   487.79723304
_cell_formula_units_Z   1
loop_
 _symmetry_equiv_pos_site_id
 _symmetry_equiv_pos_as_xyz
  1  'x, y, z'
loop_
 _atom_site_type_symbol
 _atom_site_label
 _atom_site_symmetry_multiplicity
 _atom_site_fract_x
 _atom_site_fract_y
 _atom_site_fract_z
 _atom_site_occupancy
  Tb  Tb0  1  0.000000  0.500000  0.527974  1
  Ho  Ho1  1  0.500000  0.000000  0.471981  1
  Ho  Ho2  1  0.500000  0.822606  0.205752  1
  Ho  Ho3  1  0.500000  0.177394  0.205752  1
  Ho  Ho4  1  0.000000  0.677430  0.794483  1
  Ho  Ho5  1  0.000000  0.322570  0.794483  1
  Sc  Sc6  1  0.500000  0.500000  0.157106  1
  Sc  Sc7  1  0.000000  0.000000  0.842530  1
  Co  Co8  1  0.000000  0.500000  0.987843  1
  Co  Co9  1  0.500000  0.000000  0.012221  1
  Co  Co10  1  0.500000  0.294991  0.432829  1
  Co  Co11  1  0.500000  0.705009  0.432829  1
  Co  Co12  1  0.000000  0.204133  0.566995  1
  Co  Co13  1  0.000000  0.795867  0.566995  1
  Co  Co14  1  0.500000  0.877846  0.702681  1
  Co  Co15  1  0.500000  0.122154  0.702681  1
  Co  Co16  1  0.000000  0.622431  0.297138  1
  Co  Co17  1  0.000000  0.377569  0.297138  1
  Co  Co18  1  0.500000  0.331142  0.994829  1
  Co  Co19  1  0.500000  0.668858  0.994829  1
  Co  Co20  1  0.000000  0.168723  0.005205  1
  Co  Co21  1  0.000000  0.831277  0.005205  1
  Co  Co22  1  0.500000  0.500000  0.706103  1
  Co  Co23  1  0.000000  0.000000  0.294650  1
  P  P24  1  0.500000  0.309424  0.615896  1
  P  P25  1  0.500000  0.690576  0.615896  1
  P  P26  1  0.000000  0.189892  0.384267  1
  P  P27  1  0.000000  0.810108  0.384267  1
  P  P28  1  0.500000  0.500000  0.885847  1
  P  P29  1  0.000000  0.000000  0.114385  1
  P  P30  1  0.500000  0.839267  0.892266  1
  P  P31  1  0.500000  0.160733  0.892266  1
  P  P32  1  0.000000  0.660852  0.107733  1
  P  P33  1  0.000000  0.339148  0.107733  1
  P  P34  1  0.500000  0.500000  0.359912  1
  P  P35  1  0.000000  0.000000  0.639299  1
