# generated using pymatgen
data_Yb4MnB16Ru3
_symmetry_space_group_name_H-M   'P 1'
_cell_length_a   3.49054200
_cell_length_b   5.93235301
_cell_length_c   11.49032604
_cell_angle_alpha   89.81020302
_cell_angle_beta   90.00000000
_cell_angle_gamma   90.00000000
_symmetry_Int_Tables_number   1
_chemical_formula_structural   Yb4MnB16Ru3
_chemical_formula_sum   'Yb4 Mn1 B16 Ru3'
_cell_volume   237.93033881
_cell_formula_units_Z   1
loop_
 _symmetry_equiv_pos_site_id
 _symmetry_equiv_pos_as_xyz
  1  'x, y, z'
loop_
 _atom_site_type_symbol
 _atom_site_label
 _atom_site_symmetry_multiplicity
 _atom_site_fract_x
 _atom_site_fract_y
 _atom_site_fract_z
 _atom_site_occupancy
  Yb  Yb0  1  0.000000  0.372239  0.649890  1
  Yb  Yb1  1  0.000000  0.627190  0.350172  1
  Yb  Yb2  1  0.000000  0.870913  0.848735  1
  Yb  Yb3  1  0.000000  0.129103  0.151605  1
  Mn  Mn4  1  0.000000  0.131013  0.415379  1
  B  B5  1  0.500000  0.023818  0.691543  1
  B  B6  1  0.500000  0.977620  0.308765  1
  B  B7  1  0.500000  0.525028  0.807572  1
  B  B8  1  0.500000  0.474826  0.192989  1
  B  B9  1  0.500000  0.386852  0.047559  1
  B  B10  1  0.500000  0.612832  0.952953  1
  B  B11  1  0.500000  0.887529  0.452253  1
  B  B12  1  0.500000  0.113795  0.546292  1
  B  B13  1  0.500000  0.283192  0.316820  1
  B  B14  1  0.500000  0.715003  0.683919  1
  B  B15  1  0.500000  0.786098  0.185829  1
  B  B16  1  0.500000  0.214232  0.814422  1
  B  B17  1  0.500000  0.362722  0.467514  1
  B  B18  1  0.500000  0.635466  0.531171  1
  B  B19  1  0.500000  0.864673  0.031522  1
  B  B20  1  0.500000  0.135182  0.968992  1
  Ru  Ru21  1  0.000000  0.365676  0.912451  1
  Ru  Ru22  1  0.000000  0.634314  0.087744  1
  Ru  Ru23  1  0.000000  0.870683  0.583910  1
