# generated using pymatgen
data_Yb8Re11Si16Os
_symmetry_space_group_name_H-M   'P 1'
_cell_length_a   6.72799370
_cell_length_b   6.72799381
_cell_length_c   12.70247552
_cell_angle_alpha   89.91392884
_cell_angle_beta   90.08606870
_cell_angle_gamma   89.90059768
_symmetry_Int_Tables_number   1
_chemical_formula_structural   Yb8Re11Si16Os
_chemical_formula_sum   'Yb8 Re11 Si16 Os1'
_cell_volume   574.98682089
_cell_formula_units_Z   1
loop_
 _symmetry_equiv_pos_site_id
 _symmetry_equiv_pos_as_xyz
  1  'x, y, z'
loop_
 _atom_site_type_symbol
 _atom_site_label
 _atom_site_symmetry_multiplicity
 _atom_site_fract_x
 _atom_site_fract_y
 _atom_site_fract_z
 _atom_site_occupancy
  Yb  Yb0  1  0.996783  0.670877  0.028246  1
  Yb  Yb1  1  0.000979  0.331047  0.528181  1
  Yb  Yb2  1  0.331047  0.000979  0.471819  1
  Yb  Yb3  1  0.171587  0.501332  0.778446  1
  Yb  Yb4  1  0.828715  0.498516  0.279092  1
  Yb  Yb5  1  0.501332  0.171587  0.221554  1
  Yb  Yb6  1  0.498516  0.828715  0.720908  1
  Yb  Yb7  1  0.670877  0.996783  0.971754  1
  Re  Re8  1  0.165247  0.837317  0.248483  1
  Re  Re9  1  0.333887  0.333887  0.000000  1
  Re  Re10  1  0.009940  0.821978  0.627944  1
  Re  Re11  1  0.993349  0.178207  0.128219  1
  Re  Re12  1  0.821978  0.009940  0.372056  1
  Re  Re13  1  0.320717  0.494865  0.377706  1
  Re  Re14  1  0.676531  0.506067  0.877372  1
  Re  Re15  1  0.494865  0.320717  0.622294  1
  Re  Re16  1  0.506067  0.676531  0.122628  1
  Re  Re17  1  0.178207  0.993349  0.871781  1
  Re  Re18  1  0.837317  0.165247  0.751517  1
  Si  Si19  1  0.021188  0.716411  0.435650  1
  Si  Si20  1  0.617109  0.303096  0.437427  1
  Si  Si21  1  0.379365  0.697639  0.937104  1
  Si  Si22  1  0.198279  0.120117  0.686827  1
  Si  Si23  1  0.303096  0.617109  0.562573  1
  Si  Si24  1  0.697639  0.379365  0.062896  1
  Si  Si25  1  0.800763  0.879904  0.187589  1
  Si  Si26  1  0.120117  0.198279  0.313173  1
  Si  Si27  1  0.976919  0.286376  0.934902  1
  Si  Si28  1  0.716411  0.021188  0.564350  1
  Si  Si29  1  0.211257  0.478416  0.185046  1
  Si  Si30  1  0.787942  0.522706  0.684878  1
  Si  Si31  1  0.478416  0.211257  0.814954  1
  Si  Si32  1  0.522706  0.787942  0.315122  1
  Si  Si33  1  0.286376  0.976919  0.065098  1
  Si  Si34  1  0.879904  0.800763  0.812411  1
  Os  Os35  1  0.664571  0.664571  0.500000  1
