# generated using pymatgen
data_Y2Er2Ga18(PdRu)3
_symmetry_space_group_name_H-M   'P 1'
_cell_length_a   7.61861141
_cell_length_b   7.61844342
_cell_length_c   9.57209429
_cell_angle_alpha   89.94538119
_cell_angle_beta   89.92068842
_cell_angle_gamma   120.07621498
_symmetry_Int_Tables_number   1
_chemical_formula_structural   Y2Er2Ga18(PdRu)3
_chemical_formula_sum   'Y2 Er2 Ga18 Pd3 Ru3'
_cell_volume   480.77781417
_cell_formula_units_Z   1
loop_
 _symmetry_equiv_pos_site_id
 _symmetry_equiv_pos_as_xyz
  1  'x, y, z'
loop_
 _atom_site_type_symbol
 _atom_site_label
 _atom_site_symmetry_multiplicity
 _atom_site_fract_x
 _atom_site_fract_y
 _atom_site_fract_z
 _atom_site_occupancy
  Y  Y0  1  0.997099  0.668564  0.251430  1
  Y  Y1  1  0.002686  0.331692  0.748378  1
  Er  Er2  1  0.668139  0.997312  0.251736  1
  Er  Er3  1  0.331527  0.002691  0.748485  1
  Ga  Ga4  1  0.129336  0.127569  0.249977  1
  Ga  Ga5  1  0.872641  0.870464  0.750020  1
  Ga  Ga6  1  0.004534  0.337468  0.081227  1
  Ga  Ga7  1  0.003143  0.665926  0.918782  1
  Ga  Ga8  1  0.999820  0.661849  0.578853  1
  Ga  Ga9  1  0.338746  0.000423  0.421331  1
  Ga  Ga10  1  0.000988  0.338311  0.419976  1
  Ga  Ga11  1  0.661048  0.998745  0.579798  1
  Ga  Ga12  1  0.661890  0.995167  0.919000  1
  Ga  Ga13  1  0.334771  0.997253  0.081016  1
  Ga  Ga14  1  0.339970  0.339248  0.564160  1
  Ga  Ga15  1  0.660509  0.660326  0.435802  1
  Ga  Ga16  1  0.660305  0.665682  0.067574  1
  Ga  Ga17  1  0.334641  0.339456  0.932466  1
  Ga  Ga18  1  0.337285  0.550718  0.250750  1
  Ga  Ga19  1  0.664235  0.453010  0.746531  1
  Ga  Ga20  1  0.546717  0.335259  0.253477  1
  Ga  Ga21  1  0.449602  0.663202  0.749227  1
  Pd  Pd22  1  0.671944  0.327872  0.999994  1
  Pd  Pd23  1  0.000613  0.999370  0.999994  1
  Pd  Pd24  1  0.999681  0.000328  0.499997  1
  Ru  Ru25  1  0.327607  0.672681  0.999992  1
  Ru  Ru26  1  0.327335  0.672996  0.500018  1
  Ru  Ru27  1  0.673189  0.326417  0.500009  1
