# generated using pymatgen
data_Ca3Yb13(CN4)4
_symmetry_space_group_name_H-M   'P 1'
_cell_length_a   11.32934371
_cell_length_b   3.51630900
_cell_length_c   13.82102095
_cell_angle_alpha   90.00000000
_cell_angle_beta   89.95845831
_cell_angle_gamma   90.00000000
_symmetry_Int_Tables_number   1
_chemical_formula_structural   Ca3Yb13(CN4)4
_chemical_formula_sum   'Ca3 Yb13 C4 N16'
_cell_volume   550.59440773
_cell_formula_units_Z   1
loop_
 _symmetry_equiv_pos_site_id
 _symmetry_equiv_pos_as_xyz
  1  'x, y, z'
loop_
 _atom_site_type_symbol
 _atom_site_label
 _atom_site_symmetry_multiplicity
 _atom_site_fract_x
 _atom_site_fract_y
 _atom_site_fract_z
 _atom_site_occupancy
  Ca  Ca0  1  0.115700  0.250000  0.171082  1
  Ca  Ca1  1  0.614830  0.250000  0.328820  1
  Ca  Ca2  1  0.885426  0.750000  0.828075  1
  Yb  Yb3  1  0.383452  0.750000  0.669905  1
  Yb  Yb4  1  0.880273  0.250000  0.040385  1
  Yb  Yb5  1  0.379140  0.250000  0.459747  1
  Yb  Yb6  1  0.121351  0.750000  0.958582  1
  Yb  Yb7  1  0.619608  0.750000  0.541560  1
  Yb  Yb8  1  0.375621  0.250000  0.883955  1
  Yb  Yb9  1  0.874467  0.250000  0.614591  1
  Yb  Yb10  1  0.625116  0.750000  0.114433  1
  Yb  Yb11  1  0.124434  0.750000  0.385790  1
  Yb  Yb12  1  0.139417  0.250000  0.759088  1
  Yb  Yb13  1  0.637637  0.250000  0.740786  1
  Yb  Yb14  1  0.861628  0.750000  0.240296  1
  Yb  Yb15  1  0.361532  0.750000  0.260069  1
  C  C16  1  0.362738  0.250000  0.087059  1
  C  C17  1  0.861710  0.250000  0.413268  1
  C  C18  1  0.638056  0.750000  0.912597  1
  C  C19  1  0.138041  0.750000  0.587478  1
  N  N20  1  0.735147  0.250000  0.184497  1
  N  N21  1  0.234936  0.250000  0.316184  1
  N  N22  1  0.265431  0.750000  0.814863  1
  N  N23  1  0.764546  0.750000  0.684057  1
  N  N24  1  0.003406  0.250000  0.883622  1
  N  N25  1  0.501090  0.250000  0.617643  1
  N  N26  1  0.997614  0.750000  0.115893  1
  N  N27  1  0.496707  0.750000  0.385099  1
  N  N28  1  0.269599  0.250000  0.039558  1
  N  N29  1  0.767902  0.250000  0.460084  1
  N  N30  1  0.731566  0.750000  0.959666  1
  N  N31  1  0.232194  0.750000  0.541057  1
  N  N32  1  0.456318  0.250000  0.134043  1
  N  N33  1  0.955912  0.250000  0.367040  1
  N  N34  1  0.544054  0.750000  0.866191  1
  N  N35  1  0.043400  0.750000  0.632939  1
