# generated using pymatgen
data_TbY2Mg3Ag2Ir
_symmetry_space_group_name_H-M   'P 1'
_cell_length_a   7.80416183
_cell_length_b   7.81451266
_cell_length_c   3.92558100
_cell_angle_alpha   90.00000000
_cell_angle_beta   90.00000000
_cell_angle_gamma   119.82879581
_symmetry_Int_Tables_number   1
_chemical_formula_structural   TbY2Mg3Ag2Ir
_chemical_formula_sum   'Tb1 Y2 Mg3 Ag2 Ir1'
_cell_volume   207.68703619
_cell_formula_units_Z   1
loop_
 _symmetry_equiv_pos_site_id
 _symmetry_equiv_pos_as_xyz
  1  'x, y, z'
loop_
 _atom_site_type_symbol
 _atom_site_label
 _atom_site_symmetry_multiplicity
 _atom_site_fract_x
 _atom_site_fract_y
 _atom_site_fract_z
 _atom_site_occupancy
  Tb  Tb0  1  0.431237  0.399498  0.500000  1
  Y  Y1  1  0.969591  0.570074  0.500000  1
  Y  Y2  1  0.600575  0.030222  0.500000  1
  Mg  Mg3  1  0.746546  0.745275  0.000000  1
  Mg  Mg4  1  0.255156  0.000893  0.000000  1
  Mg  Mg5  1  0.998369  0.253847  0.000000  1
  Ag  Ag6  1  0.333394  0.666658  0.000000  1
  Ag  Ag7  1  0.999964  0.999902  0.500000  1
  Ir  Ir8  1  0.665165  0.333631  0.000000  1
