# generated using pymatgen
data_Ce4Sn11Hg
_symmetry_space_group_name_H-M   'P 1'
_cell_length_a   9.52025100
_cell_length_b   6.64623811
_cell_length_c   6.65188238
_cell_angle_alpha   89.93217471
_cell_angle_beta   90.00000000
_cell_angle_gamma   90.00000000
_symmetry_Int_Tables_number   1
_chemical_formula_structural   Ce4Sn11Hg
_chemical_formula_sum   'Ce4 Sn11 Hg1'
_cell_volume   420.88994694
_cell_formula_units_Z   1
loop_
 _symmetry_equiv_pos_site_id
 _symmetry_equiv_pos_as_xyz
  1  'x, y, z'
loop_
 _atom_site_type_symbol
 _atom_site_label
 _atom_site_symmetry_multiplicity
 _atom_site_fract_x
 _atom_site_fract_y
 _atom_site_fract_z
 _atom_site_occupancy
  Ce  Ce0  1  0.250000  0.003925  0.000937  1
  Ce  Ce1  1  0.250000  0.497959  0.502366  1
  Ce  Ce2  1  0.750000  0.997690  0.999635  1
  Ce  Ce3  1  0.750000  0.502753  0.498951  1
  Sn  Sn4  1  0.997490  0.247160  0.747166  1
  Sn  Sn5  1  0.502685  0.253735  0.246826  1
  Sn  Sn6  1  0.500683  0.751161  0.251119  1
  Sn  Sn7  1  0.998464  0.746554  0.753707  1
  Sn  Sn8  1  0.999317  0.751161  0.251119  1
  Sn  Sn9  1  0.501536  0.746554  0.753707  1
  Sn  Sn10  1  0.502510  0.247160  0.747166  1
  Sn  Sn11  1  0.997315  0.253735  0.246826  1
  Sn  Sn12  1  0.250000  0.998719  0.500822  1
  Sn  Sn13  1  0.250000  0.503280  0.002237  1
  Sn  Sn14  1  0.750000  0.001775  0.499355  1
  Hg  Hg15  1  0.750000  0.496682  0.998060  1
