# generated using pymatgen
data_Nd2Dy2PCl6
_symmetry_space_group_name_H-M   'P 1'
_cell_length_a   3.91469900
_cell_length_b   12.85067100
_cell_length_c   13.54251100
_cell_angle_alpha   90.00000000
_cell_angle_beta   90.00000000
_cell_angle_gamma   90.00000000
_symmetry_Int_Tables_number   1
_chemical_formula_structural   Nd2Dy2PCl6
_chemical_formula_sum   'Nd4 Dy4 P2 Cl12'
_cell_volume   681.27645033
_cell_formula_units_Z   2
loop_
 _symmetry_equiv_pos_site_id
 _symmetry_equiv_pos_as_xyz
  1  'x, y, z'
loop_
 _atom_site_type_symbol
 _atom_site_label
 _atom_site_symmetry_multiplicity
 _atom_site_fract_x
 _atom_site_fract_y
 _atom_site_fract_z
 _atom_site_occupancy
  Nd  Nd0  1  0.000000  0.123802  0.582819  1
  Nd  Nd1  1  0.000000  0.876198  0.417181  1
  Nd  Nd2  1  0.000000  0.623802  0.917181  1
  Nd  Nd3  1  0.000000  0.376198  0.082819  1
  Dy  Dy4  1  0.500000  0.119034  0.339945  1
  Dy  Dy5  1  0.500000  0.880966  0.660055  1
  Dy  Dy6  1  0.500000  0.619034  0.160055  1
  Dy  Dy7  1  0.500000  0.380966  0.839945  1
  P  P8  1  0.500000  0.000000  0.500000  1
  P  P9  1  0.500000  0.500000  0.000000  1
  Cl  Cl10  1  0.500000  0.234860  0.169877  1
  Cl  Cl11  1  0.500000  0.765140  0.830123  1
  Cl  Cl12  1  0.500000  0.734860  0.330123  1
  Cl  Cl13  1  0.500000  0.265140  0.669877  1
  Cl  Cl14  1  0.000000  0.250824  0.405314  1
  Cl  Cl15  1  0.000000  0.749176  0.594686  1
  Cl  Cl16  1  0.000000  0.750824  0.094686  1
  Cl  Cl17  1  0.000000  0.249176  0.905314  1
  Cl  Cl18  1  0.000000  0.009055  0.244964  1
  Cl  Cl19  1  0.000000  0.990945  0.755036  1
  Cl  Cl20  1  0.000000  0.509055  0.255036  1
  Cl  Cl21  1  0.000000  0.490945  0.744964  1
