# generated using pymatgen
data_Er2Co2P7Ru10
_symmetry_space_group_name_H-M   'P 1'
_cell_length_a   9.34797575
_cell_length_b   9.31670247
_cell_length_c   3.86392600
_cell_angle_alpha   90.00000000
_cell_angle_beta   90.00000000
_cell_angle_gamma   119.52841838
_symmetry_Int_Tables_number   1
_chemical_formula_structural   Er2Co2P7Ru10
_chemical_formula_sum   'Er2 Co2 P7 Ru10'
_cell_volume   292.80833664
_cell_formula_units_Z   1
loop_
 _symmetry_equiv_pos_site_id
 _symmetry_equiv_pos_as_xyz
  1  'x, y, z'
loop_
 _atom_site_type_symbol
 _atom_site_label
 _atom_site_symmetry_multiplicity
 _atom_site_fract_x
 _atom_site_fract_y
 _atom_site_fract_z
 _atom_site_occupancy
  Er  Er0  1  0.670002  0.334393  0.500000  1
  Er  Er1  1  0.333008  0.665228  0.000000  1
  Co  Co2  1  0.110596  0.838973  0.000000  1
  Co  Co3  1  0.729355  0.890921  0.000000  1
  P  P4  1  0.993721  0.991572  0.000000  1
  P  P5  1  0.423587  0.308753  0.000000  1
  P  P6  1  0.890447  0.588384  0.000000  1
  P  P7  1  0.694838  0.110578  0.000000  1
  P  P8  1  0.116267  0.401662  0.500000  1
  P  P9  1  0.284400  0.882795  0.500000  1
  P  P10  1  0.600614  0.716145  0.500000  1
  Ru  Ru11  1  0.424133  0.062153  0.000000  1
  Ru  Ru12  1  0.641477  0.579111  0.000000  1
  Ru  Ru13  1  0.932436  0.363690  0.000000  1
  Ru  Ru14  1  0.158721  0.268355  0.000000  1
  Ru  Ru15  1  0.390976  0.439991  0.500000  1
  Ru  Ru16  1  0.054706  0.616405  0.500000  1
  Ru  Ru17  1  0.560837  0.945687  0.500000  1
  Ru  Ru18  1  0.200833  0.079297  0.500000  1
  Ru  Ru19  1  0.880570  0.795092  0.500000  1
  Ru  Ru20  1  0.908476  0.120815  0.500000  1
