# generated using pymatgen
data_Y2GaCuI2
_symmetry_space_group_name_H-M   'P 1'
_cell_length_a   4.19136500
_cell_length_b   4.19136426
_cell_length_c   11.82991200
_cell_angle_alpha   90.00000000
_cell_angle_beta   90.00000000
_cell_angle_gamma   119.99999795
_symmetry_Int_Tables_number   1
_chemical_formula_structural   Y2GaCuI2
_chemical_formula_sum   'Y2 Ga1 Cu1 I2'
_cell_volume   179.97950081
_cell_formula_units_Z   1
loop_
 _symmetry_equiv_pos_site_id
 _symmetry_equiv_pos_as_xyz
  1  'x, y, z'
loop_
 _atom_site_type_symbol
 _atom_site_label
 _atom_site_symmetry_multiplicity
 _atom_site_fract_x
 _atom_site_fract_y
 _atom_site_fract_z
 _atom_site_occupancy
  Y  Y0  1  0.000000  0.000000  0.839815  1
  Y  Y1  1  0.000000  0.000000  0.161528  1
  Ga  Ga2  1  0.666667  0.333333  0.007373  1
  Cu  Cu3  1  0.333333  0.666667  0.990701  1
  I  I4  1  0.666667  0.333333  0.666185  1
  I  I5  1  0.333333  0.666667  0.334397  1
