# generated using pymatgen
data_Ca4Pr16Si15Hg
_symmetry_space_group_name_H-M   'P 1'
_cell_length_a   7.97452482
_cell_length_b   7.94290647
_cell_length_c   15.15717700
_cell_angle_alpha   89.92461940
_cell_angle_beta   89.65232288
_cell_angle_gamma   89.95322585
_symmetry_Int_Tables_number   1
_chemical_formula_structural   Ca4Pr16Si15Hg
_chemical_formula_sum   'Ca4 Pr16 Si15 Hg1'
_cell_volume   960.05048462
_cell_formula_units_Z   1
loop_
 _symmetry_equiv_pos_site_id
 _symmetry_equiv_pos_as_xyz
  1  'x, y, z'
loop_
 _atom_site_type_symbol
 _atom_site_label
 _atom_site_symmetry_multiplicity
 _atom_site_fract_x
 _atom_site_fract_y
 _atom_site_fract_z
 _atom_site_occupancy
  Ca  Ca0  1  0.309795  0.308781  0.000227  1
  Ca  Ca1  1  0.192885  0.809117  0.250073  1
  Ca  Ca2  1  0.803705  0.190413  0.751035  1
  Ca  Ca3  1  0.687425  0.691767  0.498351  1
  Pr  Pr4  1  0.375713  0.010977  0.448712  1
  Pr  Pr5  1  0.494249  0.873194  0.700302  1
  Pr  Pr6  1  0.508891  0.123209  0.198592  1
  Pr  Pr7  1  0.878554  0.490976  0.299937  1
  Pr  Pr8  1  0.119350  0.516037  0.802977  1
  Pr  Pr9  1  0.625815  0.990878  0.951539  1
  Pr  Pr10  1  0.999191  0.381325  0.546356  1
  Pr  Pr11  1  0.991315  0.623092  0.052454  1
  Pr  Pr12  1  0.129263  0.984550  0.877782  1
  Pr  Pr13  1  0.517057  0.626528  0.125852  1
  Pr  Pr14  1  0.487251  0.376632  0.626286  1
  Pr  Pr15  1  0.627014  0.515494  0.876816  1
  Pr  Pr16  1  0.375795  0.485058  0.373249  1
  Pr  Pr17  1  0.874772  0.015566  0.374941  1
  Pr  Pr18  1  0.986202  0.125678  0.125192  1
  Pr  Pr19  1  0.008996  0.864302  0.621339  1
  Si  Si20  1  0.332904  0.699559  0.950512  1
  Si  Si21  1  0.662910  0.296904  0.448474  1
  Si  Si22  1  0.703836  0.333691  0.052468  1
  Si  Si23  1  0.301068  0.667512  0.548141  1
  Si  Si24  1  0.801261  0.833113  0.200164  1
  Si  Si25  1  0.167067  0.201979  0.300453  1
  Si  Si26  1  0.832899  0.801109  0.801231  1
  Si  Si27  1  0.288637  0.919155  0.060580  1
  Si  Si28  1  0.581405  0.787516  0.309369  1
  Si  Si29  1  0.433184  0.208034  0.815129  1
  Si  Si30  1  0.785133  0.580778  0.691671  1
  Si  Si31  1  0.213064  0.420035  0.190380  1
  Si  Si32  1  0.709216  0.080050  0.558717  1
  Si  Si33  1  0.920916  0.288834  0.941080  1
  Si  Si34  1  0.082883  0.712488  0.438411  1
  Hg  Hg35  1  0.190375  0.165668  0.691207  1
