# generated using pymatgen
data_CeTh6ScH30
_symmetry_space_group_name_H-M   'P 1'
_cell_length_a   7.81983856
_cell_length_b   7.82072076
_cell_length_c   7.82785000
_cell_angle_alpha   109.65907167
_cell_angle_beta   109.72588219
_cell_angle_gamma   109.57755282
_symmetry_Int_Tables_number   1
_chemical_formula_structural   CeTh6ScH30
_chemical_formula_sum   'Ce1 Th6 Sc1 H30'
_cell_volume   366.00556309
_cell_formula_units_Z   1
loop_
 _symmetry_equiv_pos_site_id
 _symmetry_equiv_pos_as_xyz
  1  'x, y, z'
loop_
 _atom_site_type_symbol
 _atom_site_label
 _atom_site_symmetry_multiplicity
 _atom_site_fract_x
 _atom_site_fract_y
 _atom_site_fract_z
 _atom_site_occupancy
  Ce  Ce0  1  0.498055  0.999439  0.080231  1
  Th  Th1  1  0.997895  0.080996  0.497615  1
  Th  Th2  1  0.082465  0.500668  0.000118  1
  Th  Th3  1  0.997760  0.585779  0.508351  1
  Th  Th4  1  0.585599  0.508086  0.998176  1
  Th  Th5  1  0.508228  0.997445  0.586701  1
  Th  Th6  1  0.411115  0.409321  0.409993  1
  Sc  Sc7  1  0.905489  0.904135  0.905643  1
  H  H8  1  0.653351  0.961413  0.371531  1
  H  H9  1  0.221172  0.318189  0.848446  1
  H  H10  1  0.187281  0.406343  0.537423  1
  H  H11  1  0.091908  0.270825  0.117695  1
  H  H12  1  0.262659  0.114383  0.091027  1
  H  H13  1  0.116614  0.092831  0.269703  1
  H  H14  1  0.468409  0.156896  0.866219  1
  H  H15  1  0.718104  0.350157  0.813129  1
  H  H16  1  0.622755  0.382769  0.250214  1
  H  H17  1  0.247060  0.621609  0.374939  1
  H  H18  1  0.753907  0.876424  0.129513  1
  H  H19  1  0.120585  0.742725  0.873466  1
  H  H20  1  0.376670  0.250002  0.622528  1
  H  H21  1  0.878279  0.129397  0.746425  1
  H  H22  1  0.782559  0.603036  0.638517  1
  H  H23  1  0.316715  0.846258  0.224082  1
  H  H24  1  0.367320  0.649468  0.964028  1
  H  H25  1  0.964653  0.368951  0.651904  1
  H  H26  1  0.538187  0.188990  0.410696  1
  H  H27  1  0.405193  0.536676  0.185906  1
  H  H28  1  0.850189  0.223700  0.322238  1
  H  H29  1  0.906624  0.698778  0.024716  1
  H  H30  1  0.814178  0.719256  0.349550  1
  H  H31  1  0.154813  0.869434  0.469753  1
  H  H32  1  0.705293  0.025577  0.904379  1
  H  H33  1  0.348604  0.810205  0.714022  1
  H  H34  1  0.870525  0.471587  0.155604  1
  H  H35  1  0.640632  0.782803  0.602906  1
  H  H36  1  0.605438  0.639337  0.783176  1
  H  H37  1  0.023718  0.906116  0.699437  1
