# generated using pymatgen
data_La5Ge2Ru
_symmetry_space_group_name_H-M   'P 1'
_cell_length_a   12.42839400
_cell_length_b   9.03799300
_cell_length_c   8.20388900
_cell_angle_alpha   90.00000000
_cell_angle_beta   90.00000000
_cell_angle_gamma   90.00000000
_symmetry_Int_Tables_number   1
_chemical_formula_structural   La5Ge2Ru
_chemical_formula_sum   'La20 Ge8 Ru4'
_cell_volume   921.52429395
_cell_formula_units_Z   4
loop_
 _symmetry_equiv_pos_site_id
 _symmetry_equiv_pos_as_xyz
  1  'x, y, z'
loop_
 _atom_site_type_symbol
 _atom_site_label
 _atom_site_symmetry_multiplicity
 _atom_site_fract_x
 _atom_site_fract_y
 _atom_site_fract_z
 _atom_site_occupancy
  La  La0  1  0.289156  0.250000  0.164659  1
  La  La1  1  0.210844  0.750000  0.664659  1
  La  La2  1  0.789156  0.250000  0.335341  1
  La  La3  1  0.710843  0.750000  0.835341  1
  La  La4  1  0.202189  0.250000  0.638759  1
  La  La5  1  0.297812  0.750000  0.138759  1
  La  La6  1  0.702189  0.250000  0.861241  1
  La  La7  1  0.797811  0.750000  0.361242  1
  La  La8  1  0.000809  0.250000  0.038839  1
  La  La9  1  0.499192  0.750000  0.538838  1
  La  La10  1  0.500809  0.250000  0.461161  1
  La  La11  1  0.999191  0.750000  0.961161  1
  La  La12  1  0.072866  0.531135  0.318613  1
  La  La13  1  0.427133  0.468865  0.818613  1
  La  La14  1  0.572867  0.968865  0.181387  1
  La  La15  1  0.927134  0.031136  0.681388  1
  La  La16  1  0.927134  0.468865  0.681388  1
  La  La17  1  0.572867  0.531135  0.181387  1
  La  La18  1  0.427133  0.031136  0.818613  1
  La  La19  1  0.072866  0.968865  0.318613  1
  Ge  Ge20  1  0.328747  0.506064  0.433985  1
  Ge  Ge21  1  0.171254  0.493935  0.933985  1
  Ge  Ge22  1  0.828747  0.993935  0.066015  1
  Ge  Ge23  1  0.671253  0.006064  0.566016  1
  Ge  Ge24  1  0.671253  0.493935  0.566016  1
  Ge  Ge25  1  0.828747  0.506064  0.066015  1
  Ge  Ge26  1  0.171254  0.006064  0.933985  1
  Ge  Ge27  1  0.328747  0.993935  0.433985  1
  Ru  Ru28  1  0.019849  0.250000  0.419651  1
  Ru  Ru29  1  0.480152  0.750000  0.919651  1
  Ru  Ru30  1  0.519848  0.250000  0.080349  1
  Ru  Ru31  1  0.980152  0.750000  0.580349  1
