# generated using pymatgen
data_La3Sn2Pt3Pb
_symmetry_space_group_name_H-M   'P 1'
_cell_length_a   7.76333275
_cell_length_b   7.83882697
_cell_length_c   4.22209300
_cell_angle_alpha   90.00000000
_cell_angle_beta   90.00000000
_cell_angle_gamma   120.32220809
_symmetry_Int_Tables_number   1
_chemical_formula_structural   La3Sn2Pt3Pb
_chemical_formula_sum   'La3 Sn2 Pt3 Pb1'
_cell_volume   221.78821767
_cell_formula_units_Z   1
loop_
 _symmetry_equiv_pos_site_id
 _symmetry_equiv_pos_as_xyz
  1  'x, y, z'
loop_
 _atom_site_type_symbol
 _atom_site_label
 _atom_site_symmetry_multiplicity
 _atom_site_fract_x
 _atom_site_fract_y
 _atom_site_fract_z
 _atom_site_occupancy
  La  La0  1  0.414027  0.410178  0.000000  1
  La  La1  1  0.585973  0.996151  0.000000  1
  La  La2  1  0.000000  0.588716  0.000000  1
  Sn  Sn3  1  0.749747  0.749036  0.500000  1
  Sn  Sn4  1  0.250253  0.999289  0.500000  1
  Pt  Pt5  1  0.343530  0.682326  0.500000  1
  Pt  Pt6  1  0.000000  0.983459  0.000000  1
  Pt  Pt7  1  0.656470  0.338795  0.500000  1
  Pb  Pb8  1  0.000000  0.252050  0.500000  1
