# generated using pymatgen
data_Tb8Re3Si16Tc9
_symmetry_space_group_name_H-M   'P 1'
_cell_length_a   6.79306509
_cell_length_b   6.79306561
_cell_length_c   12.73113889
_cell_angle_alpha   90.06455034
_cell_angle_beta   89.93544718
_cell_angle_gamma   90.03921247
_symmetry_Int_Tables_number   1
_chemical_formula_structural   Tb8Re3Si16Tc9
_chemical_formula_sum   'Tb8 Re3 Si16 Tc9'
_cell_volume   587.48690259
_cell_formula_units_Z   1
loop_
 _symmetry_equiv_pos_site_id
 _symmetry_equiv_pos_as_xyz
  1  'x, y, z'
loop_
 _atom_site_type_symbol
 _atom_site_label
 _atom_site_symmetry_multiplicity
 _atom_site_fract_x
 _atom_site_fract_y
 _atom_site_fract_z
 _atom_site_occupancy
  Tb  Tb0  1  0.337119  0.996607  0.469887  1
  Tb  Tb1  1  0.506983  0.834661  0.719095  1
  Tb  Tb2  1  0.493593  0.165430  0.219198  1
  Tb  Tb3  1  0.834661  0.506983  0.280905  1
  Tb  Tb4  1  0.165430  0.493593  0.780802  1
  Tb  Tb5  1  0.662671  0.003530  0.969641  1
  Tb  Tb6  1  0.996607  0.337119  0.530113  1
  Tb  Tb7  1  0.003530  0.662671  0.030359  1
  Re  Re8  1  0.162548  0.837067  0.250290  1
  Re  Re9  1  0.837067  0.162548  0.749710  1
  Re  Re10  1  0.665928  0.665928  0.500000  1
  Si  Si11  1  0.195552  0.112552  0.687006  1
  Si  Si12  1  0.387124  0.690985  0.937983  1
  Si  Si13  1  0.612227  0.308936  0.437604  1
  Si  Si14  1  0.690985  0.387124  0.062017  1
  Si  Si15  1  0.308936  0.612227  0.562396  1
  Si  Si16  1  0.804290  0.887146  0.186849  1
  Si  Si17  1  0.112552  0.195552  0.312994  1
  Si  Si18  1  0.887146  0.804290  0.813151  1
  Si  Si19  1  0.273770  0.978633  0.063874  1
  Si  Si20  1  0.520566  0.779197  0.313778  1
  Si  Si21  1  0.479610  0.221108  0.813717  1
  Si  Si22  1  0.779197  0.520566  0.686222  1
  Si  Si23  1  0.221108  0.479610  0.186283  1
  Si  Si24  1  0.728167  0.020582  0.563569  1
  Si  Si25  1  0.978633  0.273770  0.936126  1
  Si  Si26  1  0.020582  0.728167  0.436431  1
  Tc  Tc27  1  0.334130  0.334130  0.000000  1
  Tc  Tc28  1  0.184222  0.979135  0.872431  1
  Tc  Tc29  1  0.515503  0.684113  0.123426  1
  Tc  Tc30  1  0.485054  0.315547  0.623934  1
  Tc  Tc31  1  0.684113  0.515503  0.876574  1
  Tc  Tc32  1  0.315547  0.485054  0.376066  1
  Tc  Tc33  1  0.813525  0.022193  0.371370  1
  Tc  Tc34  1  0.979135  0.184222  0.127569  1
  Tc  Tc35  1  0.022193  0.813525  0.628630  1
