# generated using pymatgen
data_La2Pr4OsBr10
_symmetry_space_group_name_H-M   'P 1'
_cell_length_a   7.79986340
_cell_length_b   9.50717744
_cell_length_c   9.83985919
_cell_angle_alpha   108.55171703
_cell_angle_beta   97.30620229
_cell_angle_gamma   105.29134882
_symmetry_Int_Tables_number   1
_chemical_formula_structural   La2Pr4OsBr10
_chemical_formula_sum   'La2 Pr4 Os1 Br10'
_cell_volume   649.24691390
_cell_formula_units_Z   1
loop_
 _symmetry_equiv_pos_site_id
 _symmetry_equiv_pos_as_xyz
  1  'x, y, z'
loop_
 _atom_site_type_symbol
 _atom_site_label
 _atom_site_symmetry_multiplicity
 _atom_site_fract_x
 _atom_site_fract_y
 _atom_site_fract_z
 _atom_site_occupancy
  La  La0  1  0.533484  0.215506  0.414246  1
  La  La1  1  0.466516  0.784494  0.585754  1
  Pr  Pr2  1  0.128766  0.356700  0.312706  1
  Pr  Pr3  1  0.871234  0.643300  0.687294  1
  Pr  Pr4  1  0.627984  0.549772  0.248063  1
  Pr  Pr5  1  0.372016  0.450228  0.751937  1
  Os  Os6  1  0.500000  0.500000  0.500000  1
  Br  Br7  1  0.150079  0.043463  0.228081  1
  Br  Br8  1  0.849921  0.956537  0.771919  1
  Br  Br9  1  0.250150  0.415677  0.049708  1
  Br  Br10  1  0.749850  0.584323  0.950292  1
  Br  Br11  1  0.704309  0.245387  0.154556  1
  Br  Br12  1  0.295691  0.754613  0.845444  1
  Br  Br13  1  0.045119  0.673944  0.418600  1
  Br  Br14  1  0.954881  0.326056  0.581400  1
  Br  Br15  1  0.414020  0.132527  0.673272  1
  Br  Br16  1  0.585980  0.867473  0.326728  1
