# generated using pymatgen
data_PrNd(AgO2)4
_symmetry_space_group_name_H-M   'P 1'
_cell_length_a   6.76070595
_cell_length_b   6.76070660
_cell_length_c   6.76070564
_cell_angle_alpha   126.08760603
_cell_angle_beta   126.08759126
_cell_angle_gamma   79.74421238
_symmetry_Int_Tables_number   1
_chemical_formula_structural   PrNd(AgO2)4
_chemical_formula_sum   'Pr1 Nd1 Ag4 O8'
_cell_volume   194.93547005
_cell_formula_units_Z   1
loop_
 _symmetry_equiv_pos_site_id
 _symmetry_equiv_pos_as_xyz
  1  'x, y, z'
loop_
 _atom_site_type_symbol
 _atom_site_label
 _atom_site_symmetry_multiplicity
 _atom_site_fract_x
 _atom_site_fract_y
 _atom_site_fract_z
 _atom_site_occupancy
  Pr  Pr0  1  0.000000  0.000000  0.000000  1
  Nd  Nd1  1  0.750000  0.250000  0.500000  1
  Ag  Ag2  1  0.374326  0.125279  0.749286  1
  Ag  Ag3  1  0.375993  0.625040  0.250714  1
  Ag  Ag4  1  0.874721  0.624007  0.249047  1
  Ag  Ag5  1  0.374960  0.625674  0.750953  1
  O  O6  1  0.041055  0.001608  0.650857  1
  O  O7  1  0.609801  0.958945  0.960552  1
  O  O8  1  0.998392  0.649248  0.039448  1
  O  O9  1  0.403420  0.861872  0.155367  1
  O  O10  1  0.751948  0.596580  0.458452  1
  O  O11  1  0.138128  0.293496  0.541548  1
  O  O12  1  0.350752  0.390199  0.349143  1
  O  O13  1  0.706504  0.248052  0.844633  1
