# generated using pymatgen
data_BaNi(P4Os)3
_symmetry_space_group_name_H-M   'P 1'
_cell_length_a   7.04474427
_cell_length_b   7.05813638
_cell_length_c   7.04474393
_cell_angle_alpha   109.50972657
_cell_angle_beta   109.43266958
_cell_angle_gamma   109.50973153
_symmetry_Int_Tables_number   1
_chemical_formula_structural   BaNi(P4Os)3
_chemical_formula_sum   'Ba1 Ni1 P12 Os3'
_cell_volume   269.52066072
_cell_formula_units_Z   1
loop_
 _symmetry_equiv_pos_site_id
 _symmetry_equiv_pos_as_xyz
  1  'x, y, z'
loop_
 _atom_site_type_symbol
 _atom_site_label
 _atom_site_symmetry_multiplicity
 _atom_site_fract_x
 _atom_site_fract_y
 _atom_site_fract_z
 _atom_site_occupancy
  Ba  Ba0  1  0.000000  0.000000  0.000000  1
  Ni  Ni1  1  0.000000  0.500000  0.000000  1
  P  P2  1  0.855794  0.641925  0.496893  1
  P  P3  1  0.144206  0.358075  0.503107  1
  P  P4  1  0.144486  0.641715  0.787477  1
  P  P5  1  0.855514  0.358285  0.212523  1
  P  P6  1  0.642991  0.497230  0.855514  1
  P  P7  1  0.357009  0.502770  0.144486  1
  P  P8  1  0.641099  0.786133  0.144206  1
  P  P9  1  0.358901  0.213867  0.855794  1
  P  P10  1  0.496893  0.854967  0.641099  1
  P  P11  1  0.503107  0.145033  0.358901  1
  P  P12  1  0.787477  0.145761  0.642991  1
  P  P13  1  0.212523  0.854239  0.357009  1
  Os  Os14  1  0.500000  0.500000  0.500000  1
  Os  Os15  1  0.500000  0.000000  0.000000  1
  Os  Os16  1  0.000000  0.000000  0.500000  1
