# generated using pymatgen
data_HoCo2Si2Ir
_symmetry_space_group_name_H-M   'P 1'
_cell_length_a   6.42659018
_cell_length_b   6.42658829
_cell_length_c   6.42658863
_cell_angle_alpha   132.10251102
_cell_angle_beta   113.82720854
_cell_angle_gamma   85.73101598
_symmetry_Int_Tables_number   1
_chemical_formula_structural   HoCo2Si2Ir
_chemical_formula_sum   'Ho2 Co4 Si4 Ir2'
_cell_volume   172.43784797
_cell_formula_units_Z   2
loop_
 _symmetry_equiv_pos_site_id
 _symmetry_equiv_pos_as_xyz
  1  'x, y, z'
loop_
 _atom_site_type_symbol
 _atom_site_label
 _atom_site_symmetry_multiplicity
 _atom_site_fract_x
 _atom_site_fract_y
 _atom_site_fract_z
 _atom_site_occupancy
  Ho  Ho0  1  0.250000  0.525709  0.275709  1
  Ho  Ho1  1  0.750000  0.474291  0.724291  1
  Co  Co2  1  0.725291  0.000000  0.725291  1
  Co  Co3  1  0.225291  0.500000  0.725291  1
  Co  Co4  1  0.274709  0.000000  0.274709  1
  Co  Co5  1  0.774709  0.500000  0.274709  1
  Si  Si6  1  0.069781  0.860723  0.790942  1
  Si  Si7  1  0.930219  0.139277  0.209058  1
  Si  Si8  1  0.569781  0.778840  0.209058  1
  Si  Si9  1  0.430219  0.221160  0.790942  1
  Ir  Ir10  1  0.000000  0.000000  0.500000  1
  Ir  Ir11  1  0.500000  0.000000  0.000000  1
