# generated using pymatgen
data_EuSb12PdRu3
_symmetry_space_group_name_H-M   'P 1'
_cell_length_a   8.16080328
_cell_length_b   8.16080326
_cell_length_c   8.16080230
_cell_angle_alpha   109.45579382
_cell_angle_beta   109.45579505
_cell_angle_gamma   109.45579711
_symmetry_Int_Tables_number   1
_chemical_formula_structural   EuSb12PdRu3
_chemical_formula_sum   'Eu1 Sb12 Pd1 Ru3'
_cell_volume   418.62442492
_cell_formula_units_Z   1
loop_
 _symmetry_equiv_pos_site_id
 _symmetry_equiv_pos_as_xyz
  1  'x, y, z'
loop_
 _atom_site_type_symbol
 _atom_site_label
 _atom_site_symmetry_multiplicity
 _atom_site_fract_x
 _atom_site_fract_y
 _atom_site_fract_z
 _atom_site_occupancy
  Eu  Eu0  1  0.000000  0.000000  0.000000  1
  Sb  Sb1  1  0.661316  0.849335  0.502061  1
  Sb  Sb2  1  0.338684  0.150665  0.497939  1
  Sb  Sb3  1  0.841093  0.179930  0.338027  1
  Sb  Sb4  1  0.820070  0.661973  0.158907  1
  Sb  Sb5  1  0.849335  0.502061  0.661316  1
  Sb  Sb6  1  0.179930  0.338027  0.841093  1
  Sb  Sb7  1  0.158907  0.820070  0.661973  1
  Sb  Sb8  1  0.502061  0.661316  0.849335  1
  Sb  Sb9  1  0.497939  0.338684  0.150665  1
  Sb  Sb10  1  0.150665  0.497939  0.338684  1
  Sb  Sb11  1  0.338027  0.841093  0.179930  1
  Sb  Sb12  1  0.661973  0.158907  0.820070  1
  Pd  Pd13  1  0.500000  0.500000  0.500000  1
  Ru  Ru14  1  0.000000  0.000000  0.500000  1
  Ru  Ru15  1  0.500000  0.000000  0.000000  1
  Ru  Ru16  1  0.000000  0.500000  0.000000  1
