# generated using pymatgen
data_Pr2Si4(IrRh)3
_symmetry_space_group_name_H-M   'P 1'
_cell_length_a   6.72223550
_cell_length_b   6.71911805
_cell_length_c   6.72223617
_cell_angle_alpha   130.30203441
_cell_angle_beta   114.77657980
_cell_angle_gamma   86.23707106
_symmetry_Int_Tables_number   1
_chemical_formula_structural   Pr2Si4(IrRh)3
_chemical_formula_sum   'Pr2 Si4 Ir3 Rh3'
_cell_volume   200.77765294
_cell_formula_units_Z   1
loop_
 _symmetry_equiv_pos_site_id
 _symmetry_equiv_pos_as_xyz
  1  'x, y, z'
loop_
 _atom_site_type_symbol
 _atom_site_label
 _atom_site_symmetry_multiplicity
 _atom_site_fract_x
 _atom_site_fract_y
 _atom_site_fract_z
 _atom_site_occupancy
  Pr  Pr0  1  0.249484  0.969794  0.719024  1
  Pr  Pr1  1  0.749231  0.030206  0.279690  1
  Si  Si2  1  0.080185  0.279567  0.201374  1
  Si  Si3  1  0.921807  0.720433  0.800618  1
  Si  Si4  1  0.421650  0.621927  0.200067  1
  Si  Si5  1  0.578140  0.378073  0.799723  1
  Ir  Ir6  1  0.718555  0.000000  0.718555  1
  Ir  Ir7  1  0.218988  0.500000  0.718988  1
  Ir  Ir8  1  0.782150  0.500000  0.282150  1
  Rh  Rh9  1  0.498627  0.499890  0.499565  1
  Rh  Rh10  1  0.999675  0.500110  0.998737  1
  Rh  Rh11  1  0.281507  0.000000  0.281507  1
