# generated using pymatgen
data_NiBi4Rh5S4
_symmetry_space_group_name_H-M   'P 1'
_cell_length_a   7.16901963
_cell_length_b   7.16901828
_cell_length_c   8.34427194
_cell_angle_alpha   54.43086254
_cell_angle_beta   54.43086822
_cell_angle_gamma   71.23513863
_symmetry_Int_Tables_number   1
_chemical_formula_structural   NiBi4Rh5S4
_chemical_formula_sum   'Ni1 Bi4 Rh5 S4'
_cell_volume   283.65701002
_cell_formula_units_Z   1
loop_
 _symmetry_equiv_pos_site_id
 _symmetry_equiv_pos_as_xyz
  1  'x, y, z'
loop_
 _atom_site_type_symbol
 _atom_site_label
 _atom_site_symmetry_multiplicity
 _atom_site_fract_x
 _atom_site_fract_y
 _atom_site_fract_z
 _atom_site_occupancy
  Ni  Ni0  1  0.764241  0.764242  0.268455  1
  Bi  Bi1  1  0.014158  0.014158  0.237832  1
  Bi  Bi2  1  0.494295  0.494295  0.237784  1
  Bi  Bi3  1  0.490033  0.490033  0.764809  1
  Bi  Bi4  1  0.001115  0.001115  0.740566  1
  Rh  Rh5  1  0.980515  0.511468  0.006923  1
  Rh  Rh6  1  0.237310  0.762303  0.000730  1
  Rh  Rh7  1  0.762303  0.237310  0.000730  1
  Rh  Rh8  1  0.511468  0.980515  0.006923  1
  Rh  Rh9  1  0.248520  0.248520  0.722280  1
  S  S10  1  0.971254  0.463594  0.310674  1
  S  S11  1  0.463594  0.971254  0.310674  1
  S  S12  1  0.007030  0.554162  0.695809  1
  S  S13  1  0.554162  0.007030  0.695809  1
