# generated using pymatgen
data_LaNd7(HgRh)2
_symmetry_space_group_name_H-M   'P 1'
_cell_length_a   9.93946933
_cell_length_b   9.93946935
_cell_length_c   9.94397800
_cell_angle_alpha   59.98499353
_cell_angle_beta   59.98499346
_cell_angle_gamma   59.99047299
_symmetry_Int_Tables_number   1
_chemical_formula_structural   LaNd7(HgRh)2
_chemical_formula_sum   'La2 Nd14 Hg4 Rh4'
_cell_volume   694.45121667
_cell_formula_units_Z   2
loop_
 _symmetry_equiv_pos_site_id
 _symmetry_equiv_pos_as_xyz
  1  'x, y, z'
loop_
 _atom_site_type_symbol
 _atom_site_label
 _atom_site_symmetry_multiplicity
 _atom_site_fract_x
 _atom_site_fract_y
 _atom_site_fract_z
 _atom_site_occupancy
  La  La0  1  0.599100  0.599100  0.599794  1
  La  La1  1  0.599100  0.599100  0.202007  1
  Nd  Nd2  1  0.600481  0.196709  0.601405  1
  Nd  Nd3  1  0.196709  0.600481  0.601405  1
  Nd  Nd4  1  0.060454  0.439784  0.440484  1
  Nd  Nd5  1  0.439784  0.060454  0.059279  1
  Nd  Nd6  1  0.439784  0.060454  0.440484  1
  Nd  Nd7  1  0.060454  0.439784  0.059279  1
  Nd  Nd8  1  0.439817  0.439817  0.060183  1
  Nd  Nd9  1  0.059432  0.059432  0.440568  1
  Nd  Nd10  1  0.187316  0.812672  0.812922  1
  Nd  Nd11  1  0.812672  0.187316  0.187091  1
  Nd  Nd12  1  0.812672  0.187316  0.812922  1
  Nd  Nd13  1  0.187316  0.812672  0.187091  1
  Nd  Nd14  1  0.813589  0.813589  0.186411  1
  Nd  Nd15  1  0.187959  0.187959  0.812041  1
  Hg  Hg16  1  0.834574  0.834574  0.832808  1
  Hg  Hg17  1  0.834574  0.834574  0.498044  1
  Hg  Hg18  1  0.835401  0.497357  0.833621  1
  Hg  Hg19  1  0.497357  0.835401  0.833621  1
  Rh  Rh20  1  0.392692  0.392692  0.391340  1
  Rh  Rh21  1  0.392692  0.392692  0.823276  1
  Rh  Rh22  1  0.393154  0.822919  0.391964  1
  Rh  Rh23  1  0.822919  0.393154  0.391964  1
