# generated using pymatgen
data_La2P2RuRh3Au2
_symmetry_space_group_name_H-M   'P 1'
_cell_length_a   4.05917500
_cell_length_b   4.05917500
_cell_length_c   11.11995000
_cell_angle_alpha   90.00000000
_cell_angle_beta   90.00000000
_cell_angle_gamma   90.00000000
_symmetry_Int_Tables_number   1
_chemical_formula_structural   La2P2RuRh3Au2
_chemical_formula_sum   'La2 P2 Ru1 Rh3 Au2'
_cell_volume   183.22232284
_cell_formula_units_Z   1
loop_
 _symmetry_equiv_pos_site_id
 _symmetry_equiv_pos_as_xyz
  1  'x, y, z'
loop_
 _atom_site_type_symbol
 _atom_site_label
 _atom_site_symmetry_multiplicity
 _atom_site_fract_x
 _atom_site_fract_y
 _atom_site_fract_z
 _atom_site_occupancy
  La  La0  1  0.000000  0.500000  0.249620  1
  La  La1  1  0.500000  0.000000  0.750380  1
  P  P2  1  0.000000  0.500000  0.887224  1
  P  P3  1  0.500000  0.000000  0.112776  1
  Ru  Ru4  1  0.000000  0.000000  0.000000  1
  Rh  Rh5  1  0.500000  0.500000  0.000000  1
  Rh  Rh6  1  0.000000  0.500000  0.681750  1
  Rh  Rh7  1  0.500000  0.000000  0.318250  1
  Au  Au8  1  0.000000  0.000000  0.500000  1
  Au  Au9  1  0.500000  0.500000  0.500000  1
