# generated using pymatgen
data_Tm2Lu2B12RhW
_symmetry_space_group_name_H-M   'P 1'
_cell_length_a   3.59302200
_cell_length_b   9.11823643
_cell_length_c   11.52432840
_cell_angle_alpha   90.41894802
_cell_angle_beta   90.00000000
_cell_angle_gamma   90.00000000
_symmetry_Int_Tables_number   1
_chemical_formula_structural   Tm2Lu2B12RhW
_chemical_formula_sum   'Tm4 Lu4 B24 Rh2 W2'
_cell_volume   377.55023154
_cell_formula_units_Z   2
loop_
 _symmetry_equiv_pos_site_id
 _symmetry_equiv_pos_as_xyz
  1  'x, y, z'
loop_
 _atom_site_type_symbol
 _atom_site_label
 _atom_site_symmetry_multiplicity
 _atom_site_fract_x
 _atom_site_fract_y
 _atom_site_fract_z
 _atom_site_occupancy
  Tm  Tm0  1  0.500000  0.319298  0.412184  1
  Tm  Tm1  1  0.500000  0.680702  0.587816  1
  Tm  Tm2  1  0.500000  0.175835  0.916439  1
  Tm  Tm3  1  0.500000  0.824165  0.083561  1
  Lu  Lu4  1  0.500000  0.444700  0.126621  1
  Lu  Lu5  1  0.500000  0.555300  0.873379  1
  Lu  Lu6  1  0.500000  0.055096  0.627363  1
  Lu  Lu7  1  0.500000  0.944904  0.372637  1
  B  B8  1  0.000000  0.105690  0.472563  1
  B  B9  1  0.000000  0.894310  0.527437  1
  B  B10  1  0.000000  0.397109  0.970657  1
  B  B11  1  0.000000  0.602891  0.029343  1
  B  B12  1  0.000000  0.132800  0.318844  1
  B  B13  1  0.000000  0.867200  0.681156  1
  B  B14  1  0.000000  0.367843  0.816420  1
  B  B15  1  0.000000  0.632157  0.183580  1
  B  B16  1  0.000000  0.051510  0.065336  1
  B  B17  1  0.000000  0.948490  0.934664  1
  B  B18  1  0.000000  0.446271  0.565183  1
  B  B19  1  0.000000  0.553729  0.434817  1
  B  B20  1  0.000000  0.483605  0.288577  1
  B  B21  1  0.000000  0.516395  0.711423  1
  B  B22  1  0.000000  0.021424  0.785348  1
  B  B23  1  0.000000  0.978576  0.214652  1
  B  B24  1  0.000000  0.252511  0.078626  1
  B  B25  1  0.000000  0.747489  0.921374  1
  B  B26  1  0.000000  0.250312  0.578937  1
  B  B27  1  0.000000  0.749688  0.421063  1
  B  B28  1  0.000000  0.297973  0.237314  1
  B  B29  1  0.000000  0.702027  0.762686  1
  B  B30  1  0.000000  0.208277  0.734663  1
  B  B31  1  0.000000  0.791723  0.265337  1
  Rh  Rh32  1  0.500000  0.360875  0.678957  1
  Rh  Rh33  1  0.500000  0.639125  0.321043  1
  W  W34  1  0.500000  0.139741  0.181008  1
  W  W35  1  0.500000  0.860259  0.818992  1
