# generated using pymatgen
data_Dy3YSi6IrRh
_symmetry_space_group_name_H-M   'P 1'
_cell_length_a   8.17702300
_cell_length_b   8.17702392
_cell_length_c   7.94051600
_cell_angle_alpha   90.00000000
_cell_angle_beta   90.00000000
_cell_angle_gamma   119.99999222
_symmetry_Int_Tables_number   1
_chemical_formula_structural   Dy3YSi6IrRh
_chemical_formula_sum   'Dy6 Y2 Si12 Ir2 Rh2'
_cell_volume   459.80096520
_cell_formula_units_Z   2
loop_
 _symmetry_equiv_pos_site_id
 _symmetry_equiv_pos_as_xyz
  1  'x, y, z'
loop_
 _atom_site_type_symbol
 _atom_site_label
 _atom_site_symmetry_multiplicity
 _atom_site_fract_x
 _atom_site_fract_y
 _atom_site_fract_z
 _atom_site_occupancy
  Dy  Dy0  1  0.509080  0.490920  0.250362  1
  Dy  Dy1  1  0.509080  0.018162  0.250362  1
  Dy  Dy2  1  0.981838  0.490920  0.250362  1
  Dy  Dy3  1  0.490920  0.509080  0.749638  1
  Dy  Dy4  1  0.490920  0.981838  0.749638  1
  Dy  Dy5  1  0.018162  0.509080  0.749638  1
  Y  Y6  1  0.000000  0.000000  0.248350  1
  Y  Y7  1  0.000000  0.000000  0.751650  1
  Si  Si8  1  0.166752  0.833248  0.499020  1
  Si  Si9  1  0.166752  0.333505  0.499020  1
  Si  Si10  1  0.666495  0.833248  0.499020  1
  Si  Si11  1  0.833248  0.166752  0.500980  1
  Si  Si12  1  0.833248  0.666495  0.500980  1
  Si  Si13  1  0.333505  0.166752  0.500980  1
  Si  Si14  1  0.832978  0.167022  0.000468  1
  Si  Si15  1  0.832978  0.665957  0.000468  1
  Si  Si16  1  0.334043  0.167022  0.000468  1
  Si  Si17  1  0.167022  0.832978  0.999532  1
  Si  Si18  1  0.167022  0.334043  0.999532  1
  Si  Si19  1  0.665957  0.832978  0.999532  1
  Ir  Ir20  1  0.333333  0.666667  0.469752  1
  Ir  Ir21  1  0.666667  0.333333  0.530248  1
  Rh  Rh22  1  0.666667  0.333333  0.962389  1
  Rh  Rh23  1  0.333333  0.666667  0.037611  1
