# generated using pymatgen
data_TbHo4Cr3(Co4P3)4
_symmetry_space_group_name_H-M   'P 1'
_cell_length_a   11.98756100
_cell_length_b   11.98756231
_cell_length_c   3.66582700
_cell_angle_alpha   90.00000000
_cell_angle_beta   90.00000000
_cell_angle_gamma   120.00000467
_symmetry_Int_Tables_number   1
_chemical_formula_structural   TbHo4Cr3(Co4P3)4
_chemical_formula_sum   'Tb1 Ho4 Cr3 Co16 P12'
_cell_volume   456.20945784
_cell_formula_units_Z   1
loop_
 _symmetry_equiv_pos_site_id
 _symmetry_equiv_pos_as_xyz
  1  'x, y, z'
loop_
 _atom_site_type_symbol
 _atom_site_label
 _atom_site_symmetry_multiplicity
 _atom_site_fract_x
 _atom_site_fract_y
 _atom_site_fract_z
 _atom_site_occupancy
  Tb  Tb0  1  0.666667  0.333333  0.000000  1
  Ho  Ho1  1  0.333333  0.666667  0.000000  1
  Ho  Ho2  1  0.812688  0.812714  0.500000  1
  Ho  Ho3  1  0.187286  0.999974  0.500000  1
  Ho  Ho4  1  0.000026  0.187312  0.500000  1
  Cr  Cr5  1  0.445332  0.445467  0.000000  1
  Cr  Cr6  1  0.554533  0.999865  0.000000  1
  Cr  Cr7  1  0.000135  0.554668  0.000000  1
  Co  Co8  1  0.874673  0.356028  0.500000  1
  Co  Co9  1  0.643972  0.518645  0.500000  1
  Co  Co10  1  0.481355  0.125327  0.500000  1
  Co  Co11  1  0.355951  0.873756  0.500000  1
  Co  Co12  1  0.517806  0.644049  0.500000  1
  Co  Co13  1  0.126244  0.482194  0.500000  1
  Co  Co14  1  0.800177  0.176686  0.000000  1
  Co  Co15  1  0.823314  0.623490  0.000000  1
  Co  Co16  1  0.376510  0.199823  0.000000  1
  Co  Co17  1  0.177023  0.799934  0.000000  1
  Co  Co18  1  0.622910  0.822977  0.000000  1
  Co  Co19  1  0.200066  0.377090  0.000000  1
  Co  Co20  1  0.282206  0.282504  0.500000  1
  Co  Co21  1  0.717496  0.999702  0.500000  1
  Co  Co22  1  0.000298  0.717794  0.500000  1
  Co  Co23  1  0.000000  0.000000  0.000000  1
  P  P24  1  0.682720  0.161862  0.500000  1
  P  P25  1  0.838138  0.520858  0.500000  1
  P  P26  1  0.479142  0.317280  0.500000  1
  P  P27  1  0.162899  0.682732  0.500000  1
  P  P28  1  0.519834  0.837101  0.500000  1
  P  P29  1  0.317268  0.480166  0.500000  1
  P  P30  1  0.179139  0.179226  0.000000  1
  P  P31  1  0.820774  0.999914  0.000000  1
  P  P32  1  0.000086  0.820861  0.000000  1
  P  P33  1  0.633304  0.633254  0.000000  1
  P  P34  1  0.366746  0.000050  0.000000  1
  P  P35  1  0.999950  0.366696  0.000000  1
