# generated using pymatgen
data_LiHoEr2In4Co
_symmetry_space_group_name_H-M   'P 1'
_cell_length_a   8.03910690
_cell_length_b   8.03748607
_cell_length_c   3.59164700
_cell_angle_alpha   90.00000000
_cell_angle_beta   90.00000000
_cell_angle_gamma   119.95263879
_symmetry_Int_Tables_number   1
_chemical_formula_structural   LiHoEr2In4Co
_chemical_formula_sum   'Li1 Ho1 Er2 In4 Co1'
_cell_volume   201.07560363
_cell_formula_units_Z   1
loop_
 _symmetry_equiv_pos_site_id
 _symmetry_equiv_pos_as_xyz
  1  'x, y, z'
loop_
 _atom_site_type_symbol
 _atom_site_label
 _atom_site_symmetry_multiplicity
 _atom_site_fract_x
 _atom_site_fract_y
 _atom_site_fract_z
 _atom_site_occupancy
  Li  Li0  1  0.666776  0.333363  0.500000  1
  Ho  Ho1  1  0.714075  0.954693  0.500000  1
  Er  Er2  1  0.240136  0.285009  0.500000  1
  Er  Er3  1  0.045412  0.760332  0.500000  1
  In  In4  1  0.933684  0.335737  0.000000  1
  In  In5  1  0.401517  0.066656  0.000000  1
  In  In6  1  0.664855  0.597952  0.000000  1
  In  In7  1  0.332701  0.666067  0.000000  1
  Co  Co8  1  0.000845  0.000190  0.000000  1
