# generated using pymatgen
data_Nd8Y11CdSn16
_symmetry_space_group_name_H-M   'P 1'
_cell_length_a   8.08681100
_cell_length_b   8.30557172
_cell_length_c   15.73444200
_cell_angle_alpha   90.00000000
_cell_angle_beta   90.00000000
_cell_angle_gamma   89.86599700
_symmetry_Int_Tables_number   1
_chemical_formula_structural   Nd8Y11CdSn16
_chemical_formula_sum   'Nd8 Y11 Cd1 Sn16'
_cell_volume   1056.81016960
_cell_formula_units_Z   1
loop_
 _symmetry_equiv_pos_site_id
 _symmetry_equiv_pos_as_xyz
  1  'x, y, z'
loop_
 _atom_site_type_symbol
 _atom_site_label
 _atom_site_symmetry_multiplicity
 _atom_site_fract_x
 _atom_site_fract_y
 _atom_site_fract_z
 _atom_site_occupancy
  Nd  Nd0  1  0.506371  0.324845  0.903335  1
  Nd  Nd1  1  0.014473  0.185470  0.597731  1
  Nd  Nd2  1  0.489892  0.678100  0.403417  1
  Nd  Nd3  1  0.988021  0.822608  0.095983  1
  Nd  Nd4  1  0.489892  0.678100  0.096583  1
  Nd  Nd5  1  0.988021  0.822608  0.404017  1
  Nd  Nd6  1  0.506371  0.324845  0.596665  1
  Nd  Nd7  1  0.014473  0.185470  0.902269  1
  Y  Y8  1  0.352693  0.829079  0.876303  1
  Y  Y9  1  0.865052  0.664268  0.625725  1
  Y  Y10  1  0.645841  0.163797  0.378072  1
  Y  Y11  1  0.144335  0.330697  0.124371  1
  Y  Y12  1  0.645841  0.163797  0.121928  1
  Y  Y13  1  0.144335  0.330697  0.375629  1
  Y  Y14  1  0.352693  0.829079  0.623697  1
  Y  Y15  1  0.865052  0.664268  0.874275  1
  Y  Y16  1  0.685109  0.997207  0.750000  1
  Y  Y17  1  0.810839  0.497554  0.250000  1
  Y  Y18  1  0.310594  0.999535  0.250000  1
  Cd  Cd19  1  0.186452  0.498925  0.750000  1
  Sn  Sn20  1  0.307206  0.037533  0.040721  1
  Sn  Sn21  1  0.808661  0.460016  0.460259  1
  Sn  Sn22  1  0.694080  0.962420  0.544131  1
  Sn  Sn23  1  0.193141  0.544109  0.964987  1
  Sn  Sn24  1  0.694080  0.962420  0.955869  1
  Sn  Sn25  1  0.193141  0.544109  0.535013  1
  Sn  Sn26  1  0.307206  0.037533  0.459279  1
  Sn  Sn27  1  0.808661  0.460016  0.039741  1
  Sn  Sn28  1  0.555515  0.620259  0.750000  1
  Sn  Sn29  1  0.053754  0.893119  0.750000  1
  Sn  Sn30  1  0.446175  0.377471  0.250000  1
  Sn  Sn31  1  0.944800  0.120094  0.250000  1
  Sn  Sn32  1  0.321429  0.138810  0.750000  1
  Sn  Sn33  1  0.803938  0.353726  0.750000  1
  Sn  Sn34  1  0.681072  0.856416  0.250000  1
  Sn  Sn35  1  0.180786  0.641004  0.250000  1
