# generated using pymatgen
data_La2Th2Mg2Si3Ge
_symmetry_space_group_name_H-M   'P 1'
_cell_length_a   7.44505533
_cell_length_b   7.44505600
_cell_length_c   4.42471700
_cell_angle_alpha   90.00000000
_cell_angle_beta   90.00000000
_cell_angle_gamma   90.65431267
_symmetry_Int_Tables_number   1
_chemical_formula_structural   La2Th2Mg2Si3Ge
_chemical_formula_sum   'La2 Th2 Mg2 Si3 Ge1'
_cell_volume   245.24099986
_cell_formula_units_Z   1
loop_
 _symmetry_equiv_pos_site_id
 _symmetry_equiv_pos_as_xyz
  1  'x, y, z'
loop_
 _atom_site_type_symbol
 _atom_site_label
 _atom_site_symmetry_multiplicity
 _atom_site_fract_x
 _atom_site_fract_y
 _atom_site_fract_z
 _atom_site_occupancy
  La  La0  1  0.179122  0.318688  0.500000  1
  La  La1  1  0.818688  0.679122  0.500000  1
  Th  Th2  1  0.677687  0.177687  0.500000  1
  Th  Th3  1  0.324420  0.824420  0.500000  1
  Mg  Mg4  1  0.999263  0.001765  0.000000  1
  Mg  Mg5  1  0.501765  0.499263  0.000000  1
  Si  Si6  1  0.879215  0.379215  0.000000  1
  Si  Si7  1  0.614099  0.885808  0.000000  1
  Si  Si8  1  0.385808  0.114099  0.000000  1
  Ge  Ge9  1  0.119935  0.619935  0.000000  1
