# generated using pymatgen
data_Ho6Al24IrOs3Ru4
_symmetry_space_group_name_H-M   'P 1'
_cell_length_a   8.79697933
_cell_length_b   8.80809991
_cell_length_c   9.57289467
_cell_angle_alpha   90.19448077
_cell_angle_beta   89.76843460
_cell_angle_gamma   119.93920148
_symmetry_Int_Tables_number   1
_chemical_formula_structural   Ho6Al24IrOs3Ru4
_chemical_formula_sum   'Ho6 Al24 Ir1 Os3 Ru4'
_cell_volume   642.76373129
_cell_formula_units_Z   1
loop_
 _symmetry_equiv_pos_site_id
 _symmetry_equiv_pos_as_xyz
  1  'x, y, z'
loop_
 _atom_site_type_symbol
 _atom_site_label
 _atom_site_symmetry_multiplicity
 _atom_site_fract_x
 _atom_site_fract_y
 _atom_site_fract_z
 _atom_site_occupancy
  Ho  Ho0  1  0.192511  0.387047  0.248763  1
  Ho  Ho1  1  0.807489  0.612953  0.751237  1
  Ho  Ho2  1  0.611411  0.807070  0.248520  1
  Ho  Ho3  1  0.388589  0.192930  0.751480  1
  Ho  Ho4  1  0.197186  0.807414  0.249931  1
  Ho  Ho5  1  0.802814  0.192586  0.750069  1
  Al  Al6  1  0.332550  0.665994  0.018083  1
  Al  Al7  1  0.667450  0.334006  0.981917  1
  Al  Al8  1  0.667955  0.333562  0.519095  1
  Al  Al9  1  0.332045  0.666438  0.480905  1
  Al  Al10  1  0.161865  0.324916  0.577367  1
  Al  Al11  1  0.838135  0.675084  0.422633  1
  Al  Al12  1  0.674266  0.837414  0.575989  1
  Al  Al13  1  0.836525  0.674407  0.077791  1
  Al  Al14  1  0.325734  0.162586  0.424011  1
  Al  Al15  1  0.163475  0.325593  0.922209  1
  Al  Al16  1  0.162540  0.836920  0.576444  1
  Al  Al17  1  0.326341  0.164015  0.076373  1
  Al  Al18  1  0.837460  0.163080  0.423556  1
  Al  Al19  1  0.673659  0.835985  0.923627  1
  Al  Al20  1  0.836933  0.163466  0.076106  1
  Al  Al21  1  0.163067  0.836534  0.923894  1
  Al  Al22  1  0.562398  0.124549  0.250512  1
  Al  Al23  1  0.437602  0.875451  0.749488  1
  Al  Al24  1  0.879113  0.439730  0.250459  1
  Al  Al25  1  0.120887  0.560270  0.749541  1
  Al  Al26  1  0.562005  0.438747  0.249478  1
  Al  Al27  1  0.437995  0.561253  0.750522  1
  Al  Al28  1  0.000048  0.000029  0.249955  1
  Al  Al29  1  0.999952  0.999971  0.750045  1
  Ir  Ir30  1  0.500000  0.500000  0.500000  1
  Os  Os31  1  0.500000  0.000000  0.000000  1
  Os  Os32  1  0.500000  0.000000  0.500000  1
  Os  Os33  1  0.500000  0.500000  0.000000  1
  Ru  Ru34  1  0.000000  0.500000  0.000000  1
  Ru  Ru35  1  0.000000  0.500000  0.500000  1
  Ru  Ru36  1  0.000000  0.000000  0.000000  1
  Ru  Ru37  1  0.000000  0.000000  0.500000  1
