# generated using pymatgen
data_Pr11NdB2(AsBr6)2
_symmetry_space_group_name_H-M   'P 1'
_cell_length_a   10.46715890
_cell_length_b   10.46708494
_cell_length_c   10.26531706
_cell_angle_alpha   109.45740721
_cell_angle_beta   109.45318548
_cell_angle_gamma   110.28822361
_symmetry_Int_Tables_number   1
_chemical_formula_structural   Pr11NdB2(AsBr6)2
_chemical_formula_sum   'Pr11 Nd1 B2 As2 Br12'
_cell_volume   857.23792386
_cell_formula_units_Z   1
loop_
 _symmetry_equiv_pos_site_id
 _symmetry_equiv_pos_as_xyz
  1  'x, y, z'
loop_
 _atom_site_type_symbol
 _atom_site_label
 _atom_site_symmetry_multiplicity
 _atom_site_fract_x
 _atom_site_fract_y
 _atom_site_fract_z
 _atom_site_occupancy
  Pr  Pr0  1  0.773865  0.244848  0.278357  1
  Pr  Pr1  1  0.769844  0.026237  0.497865  1
  Pr  Pr2  1  0.228032  0.471612  0.497873  1
  Pr  Pr3  1  0.255354  0.726081  0.221715  1
  Pr  Pr4  1  0.028517  0.272011  0.002253  1
  Pr  Pr5  1  0.004653  0.033709  0.278336  1
  Pr  Pr6  1  0.473857  0.730107  0.002252  1
  Pr  Pr7  1  0.491750  0.241800  0.483427  1
  Pr  Pr8  1  0.019981  0.480132  0.750094  1
  Pr  Pr9  1  0.258387  0.008399  0.016660  1
  Pr  Pr10  1  0.230208  0.269879  0.750045  1
  Nd  Nd11  1  0.464982  0.495181  0.220602  1
  B  B12  1  0.999547  0.249468  0.499011  1
  B  B13  1  0.251290  0.500541  0.001799  1
  As  As14  1  0.250849  0.250953  0.250038  1
  As  As15  1  0.500023  0.999922  0.250001  1
  Br  Br16  1  0.248042  0.755555  0.741821  1
  Br  Br17  1  0.513784  0.506216  0.758250  1
  Br  Br18  1  0.992185  0.745210  0.995384  1
  Br  Br19  1  0.744503  0.252001  0.758249  1
  Br  Br20  1  0.993883  0.986295  0.741866  1
  Br  Br21  1  0.249854  0.996753  0.504675  1
  Br  Br22  1  0.754205  0.507843  0.504048  1
  Br  Br23  1  0.503238  0.251401  0.996481  1
  Br  Br24  1  0.754959  0.743057  0.250036  1
  Br  Br25  1  0.745591  0.995562  0.991139  1
  Br  Br26  1  0.994062  0.505999  0.250009  1
  Br  Br27  1  0.504558  0.753229  0.507714  1
