# generated using pymatgen
data_Cs4Bi2Au7
_symmetry_space_group_name_H-M   'P 1'
_cell_length_a   11.51817531
_cell_length_b   11.51817494
_cell_length_c   11.51817498
_cell_angle_alpha   35.87166387
_cell_angle_beta   35.87166850
_cell_angle_gamma   35.87166226
_symmetry_Int_Tables_number   1
_chemical_formula_structural   Cs4Bi2Au7
_chemical_formula_sum   'Cs4 Bi2 Au7'
_cell_volume   469.19326351
_cell_formula_units_Z   1
loop_
 _symmetry_equiv_pos_site_id
 _symmetry_equiv_pos_as_xyz
  1  'x, y, z'
loop_
 _atom_site_type_symbol
 _atom_site_label
 _atom_site_symmetry_multiplicity
 _atom_site_fract_x
 _atom_site_fract_y
 _atom_site_fract_z
 _atom_site_occupancy
  Cs  Cs0  1  0.812507  0.812507  0.812507  1
  Cs  Cs1  1  0.685984  0.685984  0.685984  1
  Cs  Cs2  1  0.314016  0.314016  0.314016  1
  Cs  Cs3  1  0.187493  0.187493  0.187493  1
  Bi  Bi4  1  0.443358  0.443358  0.443358  1
  Bi  Bi5  1  0.556642  0.556642  0.556642  1
  Au  Au6  1  0.794795  0.794795  0.187827  1
  Au  Au7  1  0.205205  0.812173  0.205205  1
  Au  Au8  1  0.794795  0.187827  0.794795  1
  Au  Au9  1  0.812173  0.205205  0.205205  1
  Au  Au10  1  0.187827  0.794795  0.794795  1
  Au  Au11  1  0.000000  0.000000  0.000000  1
  Au  Au12  1  0.205205  0.205205  0.812173  1
