# generated using pymatgen
data_Tb12Co2Ni2SnPd
_symmetry_space_group_name_H-M   'P 1'
_cell_length_a   8.38260130
_cell_length_b   8.38280877
_cell_length_c   8.38259970
_cell_angle_alpha   111.37738425
_cell_angle_beta   109.08140400
_cell_angle_gamma   107.97264406
_symmetry_Int_Tables_number   1
_chemical_formula_structural   Tb12Co2Ni2SnPd
_chemical_formula_sum   'Tb12 Co2 Ni2 Sn1 Pd1'
_cell_volume   453.03237971
_cell_formula_units_Z   1
loop_
 _symmetry_equiv_pos_site_id
 _symmetry_equiv_pos_as_xyz
  1  'x, y, z'
loop_
 _atom_site_type_symbol
 _atom_site_label
 _atom_site_symmetry_multiplicity
 _atom_site_fract_x
 _atom_site_fract_y
 _atom_site_fract_z
 _atom_site_occupancy
  Tb  Tb0  1  0.413254  0.218401  0.194877  1
  Tb  Tb1  1  0.586746  0.781599  0.805123  1
  Tb  Tb2  1  0.023524  0.218401  0.805148  1
  Tb  Tb3  1  0.976476  0.781599  0.194852  1
  Tb  Tb4  1  0.182266  0.291728  0.474013  1
  Tb  Tb5  1  0.817734  0.708272  0.525987  1
  Tb  Tb6  1  0.182285  0.708272  0.890538  1
  Tb  Tb7  1  0.817715  0.291728  0.109462  1
  Tb  Tb8  1  0.318549  0.628011  0.309462  1
  Tb  Tb9  1  0.681451  0.371989  0.690538  1
  Tb  Tb10  1  0.318538  0.009072  0.690534  1
  Tb  Tb11  1  0.681462  0.990928  0.309466  1
  Co  Co12  1  0.113915  0.613928  0.500013  1
  Co  Co13  1  0.886085  0.386072  0.499987  1
  Ni  Ni14  1  0.362709  0.000000  0.362709  1
  Ni  Ni15  1  0.637291  0.000000  0.637291  1
  Sn  Sn16  1  0.500000  0.500000  0.000000  1
  Pd  Pd17  1  0.000000  0.000000  0.000000  1
