# generated using pymatgen
data_Np8PdSe17
_symmetry_space_group_name_H-M   'P 1'
_cell_length_a   8.19958244
_cell_length_b   8.19958252
_cell_length_c   10.85048432
_cell_angle_alpha   79.91581136
_cell_angle_beta   79.91581151
_cell_angle_gamma   65.23704538
_symmetry_Int_Tables_number   1
_chemical_formula_structural   Np8PdSe17
_chemical_formula_sum   'Np8 Pd1 Se17'
_cell_volume   647.96086286
_cell_formula_units_Z   1
loop_
 _symmetry_equiv_pos_site_id
 _symmetry_equiv_pos_as_xyz
  1  'x, y, z'
loop_
 _atom_site_type_symbol
 _atom_site_label
 _atom_site_symmetry_multiplicity
 _atom_site_fract_x
 _atom_site_fract_y
 _atom_site_fract_z
 _atom_site_occupancy
  Np  Np0  1  0.820538  0.304923  0.299245  1
  Np  Np1  1  0.304923  0.820538  0.299245  1
  Np  Np2  1  0.179462  0.695077  0.700755  1
  Np  Np3  1  0.695077  0.179462  0.700755  1
  Np  Np4  1  0.205109  0.205109  0.545031  1
  Np  Np5  1  0.794891  0.794891  0.454969  1
  Np  Np6  1  0.675234  0.675234  0.981719  1
  Np  Np7  1  0.324766  0.324766  0.018281  1
  Pd  Pd8  1  0.000000  0.000000  0.000000  1
  Se  Se9  1  0.821983  0.432287  0.536436  1
  Se  Se10  1  0.432287  0.821983  0.536436  1
  Se  Se11  1  0.178017  0.567713  0.463564  1
  Se  Se12  1  0.567713  0.178017  0.463564  1
  Se  Se13  1  0.953948  0.329864  0.026839  1
  Se  Se14  1  0.329864  0.953948  0.026839  1
  Se  Se15  1  0.046052  0.670136  0.973161  1
  Se  Se16  1  0.670136  0.046052  0.973161  1
  Se  Se17  1  0.213516  0.213516  0.279830  1
  Se  Se18  1  0.786484  0.786484  0.720170  1
  Se  Se19  1  0.051808  0.051808  0.769408  1
  Se  Se20  1  0.948192  0.948192  0.230592  1
  Se  Se21  1  0.299679  0.299679  0.756897  1
  Se  Se22  1  0.700321  0.700321  0.243103  1
  Se  Se23  1  0.519782  0.519782  0.828715  1
  Se  Se24  1  0.480218  0.480218  0.171285  1
  Se  Se25  1  0.000000  0.000000  0.500000  1
