# generated using pymatgen
data_DyHo9In8(NiAu)2
_symmetry_space_group_name_H-M   'P 1'
_cell_length_a   8.11158839
_cell_length_b   18.21992702
_cell_length_c   3.58881000
_cell_angle_alpha   90.00000000
_cell_angle_beta   90.00000000
_cell_angle_gamma   89.95890345
_symmetry_Int_Tables_number   1
_chemical_formula_structural   DyHo9In8(NiAu)2
_chemical_formula_sum   'Dy1 Ho9 In8 Ni2 Au2'
_cell_volume   530.39923931
_cell_formula_units_Z   1
loop_
 _symmetry_equiv_pos_site_id
 _symmetry_equiv_pos_as_xyz
  1  'x, y, z'
loop_
 _atom_site_type_symbol
 _atom_site_label
 _atom_site_symmetry_multiplicity
 _atom_site_fract_x
 _atom_site_fract_y
 _atom_site_fract_z
 _atom_site_occupancy
  Dy  Dy0  1  0.500000  0.500000  0.000000  1
  Ho  Ho1  1  0.000000  0.000000  0.000000  1
  Ho  Ho2  1  0.767472  0.284252  0.000000  1
  Ho  Ho3  1  0.232528  0.715748  0.000000  1
  Ho  Ho4  1  0.768039  0.775050  0.000000  1
  Ho  Ho5  1  0.231961  0.224950  0.000000  1
  Ho  Ho6  1  0.623563  0.080474  0.000000  1
  Ho  Ho7  1  0.376437  0.919526  0.000000  1
  Ho  Ho8  1  0.881378  0.586059  0.000000  1
  Ho  Ho9  1  0.118622  0.413941  0.000000  1
  In  In10  1  0.708103  0.931255  0.500000  1
  In  In11  1  0.291897  0.068745  0.500000  1
  In  In12  1  0.797389  0.433709  0.500000  1
  In  In13  1  0.202611  0.566291  0.500000  1
  In  In14  1  0.572948  0.647429  0.500000  1
  In  In15  1  0.427052  0.352571  0.500000  1
  In  In16  1  0.930937  0.151154  0.500000  1
  In  In17  1  0.069063  0.848846  0.500000  1
  Ni  Ni18  1  0.967187  0.694499  0.500000  1
  Ni  Ni19  1  0.032813  0.305501  0.500000  1
  Au  Au20  1  0.535468  0.199444  0.500000  1
  Au  Au21  1  0.464532  0.800556  0.500000  1
