# generated using pymatgen
data_BaP2PtO8
_symmetry_space_group_name_H-M   'P 1'
_cell_length_a   4.86385561
_cell_length_b   4.86385624
_cell_length_c   7.95208348
_cell_angle_alpha   93.61419975
_cell_angle_beta   93.61420146
_cell_angle_gamma   65.33980485
_symmetry_Int_Tables_number   1
_chemical_formula_structural   BaP2PtO8
_chemical_formula_sum   'Ba1 P2 Pt1 O8'
_cell_volume   170.48598402
_cell_formula_units_Z   1
loop_
 _symmetry_equiv_pos_site_id
 _symmetry_equiv_pos_as_xyz
  1  'x, y, z'
loop_
 _atom_site_type_symbol
 _atom_site_label
 _atom_site_symmetry_multiplicity
 _atom_site_fract_x
 _atom_site_fract_y
 _atom_site_fract_z
 _atom_site_occupancy
  Ba  Ba0  1  0.000000  0.000000  0.000000  1
  P  P1  1  0.631837  0.631837  0.300769  1
  P  P2  1  0.368164  0.368164  0.699231  1
  Pt  Pt3  1  0.000000  0.000000  0.500000  1
  O  O4  1  0.688630  0.688630  0.122306  1
  O  O5  1  0.761910  0.275304  0.310908  1
  O  O6  1  0.275304  0.761910  0.310908  1
  O  O7  1  0.756430  0.756430  0.454794  1
  O  O8  1  0.243571  0.243571  0.545206  1
  O  O9  1  0.724697  0.238090  0.689092  1
  O  O10  1  0.238090  0.724697  0.689092  1
  O  O11  1  0.311370  0.311370  0.877694  1
