# generated using pymatgen
data_Nd10Sn6PCl
_symmetry_space_group_name_H-M   'P 1'
_cell_length_a   9.42091800
_cell_length_b   9.42091823
_cell_length_c   6.92288300
_cell_angle_alpha   90.00000000
_cell_angle_beta   90.00000000
_cell_angle_gamma   120.00000622
_symmetry_Int_Tables_number   1
_chemical_formula_structural   Nd10Sn6PCl
_chemical_formula_sum   'Nd10 Sn6 P1 Cl1'
_cell_volume   532.11322661
_cell_formula_units_Z   1
loop_
 _symmetry_equiv_pos_site_id
 _symmetry_equiv_pos_as_xyz
  1  'x, y, z'
loop_
 _atom_site_type_symbol
 _atom_site_label
 _atom_site_symmetry_multiplicity
 _atom_site_fract_x
 _atom_site_fract_y
 _atom_site_fract_z
 _atom_site_occupancy
  Nd  Nd0  1  0.248390  0.248390  0.761298  1
  Nd  Nd1  1  0.000000  0.751610  0.761298  1
  Nd  Nd2  1  0.751610  0.000000  0.761298  1
  Nd  Nd3  1  0.000000  0.248390  0.238702  1
  Nd  Nd4  1  0.333333  0.666667  0.500000  1
  Nd  Nd5  1  0.751610  0.751610  0.238702  1
  Nd  Nd6  1  0.666667  0.333333  0.500000  1
  Nd  Nd7  1  0.248390  0.000000  0.238702  1
  Nd  Nd8  1  0.333333  0.666667  0.000000  1
  Nd  Nd9  1  0.666667  0.333333  0.000000  1
  Sn  Sn10  1  0.604658  0.000000  0.249590  1
  Sn  Sn11  1  0.000000  0.395342  0.750410  1
  Sn  Sn12  1  0.395342  0.000000  0.750410  1
  Sn  Sn13  1  0.604658  0.604658  0.750410  1
  Sn  Sn14  1  0.000000  0.604658  0.249590  1
  Sn  Sn15  1  0.395342  0.395342  0.249590  1
  P  P16  1  0.000000  0.000000  0.000000  1
  Cl  Cl17  1  0.000000  0.000000  0.500000  1
