# generated using pymatgen
data_TbY7(Lu3Si4)4
_symmetry_space_group_name_H-M   'P 1'
_cell_length_a   7.57326301
_cell_length_b   7.57423603
_cell_length_c   13.82240006
_cell_angle_alpha   90.00171912
_cell_angle_beta   89.99300972
_cell_angle_gamma   89.99534027
_symmetry_Int_Tables_number   1
_chemical_formula_structural   TbY7(Lu3Si4)4
_chemical_formula_sum   'Tb1 Y7 Lu12 Si16'
_cell_volume   792.87610163
_cell_formula_units_Z   1
loop_
 _symmetry_equiv_pos_site_id
 _symmetry_equiv_pos_as_xyz
  1  'x, y, z'
loop_
 _atom_site_type_symbol
 _atom_site_label
 _atom_site_symmetry_multiplicity
 _atom_site_fract_x
 _atom_site_fract_y
 _atom_site_fract_z
 _atom_site_occupancy
  Tb  Tb0  1  0.997196  0.649267  0.038198  1
  Y  Y1  1  0.351546  0.003228  0.461917  1
  Y  Y2  1  0.496814  0.851395  0.711789  1
  Y  Y3  1  0.503308  0.148450  0.211956  1
  Y  Y4  1  0.851234  0.496683  0.288147  1
  Y  Y5  1  0.148590  0.503270  0.788048  1
  Y  Y6  1  0.648346  0.996559  0.961721  1
  Y  Y7  1  0.003328  0.351684  0.538178  1
  Lu  Lu8  1  0.322632  0.322544  0.000067  1
  Lu  Lu9  1  0.177435  0.822659  0.250028  1
  Lu  Lu10  1  0.822506  0.177322  0.749970  1
  Lu  Lu11  1  0.677511  0.677412  0.499915  1
  Lu  Lu12  1  0.145572  0.995875  0.873744  1
  Lu  Lu13  1  0.503761  0.645405  0.123876  1
  Lu  Lu14  1  0.496019  0.354424  0.623738  1
  Lu  Lu15  1  0.645724  0.503918  0.876154  1
  Lu  Lu16  1  0.354517  0.495978  0.376242  1
  Lu  Lu17  1  0.854472  0.004315  0.373834  1
  Lu  Lu18  1  0.995805  0.145524  0.126314  1
  Lu  Lu19  1  0.003985  0.854454  0.626160  1
  Si  Si20  1  0.206614  0.144664  0.681633  1
  Si  Si21  1  0.355497  0.706549  0.931567  1
  Si  Si22  1  0.644600  0.293402  0.431629  1
  Si  Si23  1  0.706760  0.355328  0.068333  1
  Si  Si24  1  0.293404  0.644584  0.568425  1
  Si  Si25  1  0.792994  0.855367  0.181847  1
  Si  Si26  1  0.144802  0.206629  0.318320  1
  Si  Si27  1  0.855416  0.793372  0.818259  1
  Si  Si28  1  0.295644  0.946810  0.062839  1
  Si  Si29  1  0.553260  0.795811  0.312855  1
  Si  Si30  1  0.446645  0.204160  0.812821  1
  Si  Si31  1  0.795795  0.553213  0.687095  1
  Si  Si32  1  0.204242  0.446557  0.187233  1
  Si  Si33  1  0.704189  0.053151  0.562827  1
  Si  Si34  1  0.946558  0.295696  0.937197  1
  Si  Si35  1  0.053280  0.704339  0.437126  1
