# generated using pymatgen
data_TbY7(GeI6)2
_symmetry_space_group_name_H-M   'P 1'
_cell_length_a   4.22913100
_cell_length_b   14.03473048
_cell_length_c   14.81343951
_cell_angle_alpha   90.02994283
_cell_angle_beta   90.00000000
_cell_angle_gamma   90.00000000
_symmetry_Int_Tables_number   1
_chemical_formula_structural   TbY7(GeI6)2
_chemical_formula_sum   'Tb1 Y7 Ge2 I12'
_cell_volume   879.24734139
_cell_formula_units_Z   1
loop_
 _symmetry_equiv_pos_site_id
 _symmetry_equiv_pos_as_xyz
  1  'x, y, z'
loop_
 _atom_site_type_symbol
 _atom_site_label
 _atom_site_symmetry_multiplicity
 _atom_site_fract_x
 _atom_site_fract_y
 _atom_site_fract_z
 _atom_site_occupancy
  Tb  Tb0  1  0.000000  0.387704  0.075095  1
  Y  Y1  1  0.500000  0.114785  0.346622  1
  Y  Y2  1  0.500000  0.885230  0.653340  1
  Y  Y3  1  0.500000  0.614794  0.153283  1
  Y  Y4  1  0.500000  0.385293  0.846653  1
  Y  Y5  1  0.000000  0.112124  0.574980  1
  Y  Y6  1  0.000000  0.887888  0.425014  1
  Y  Y7  1  0.000000  0.612207  0.924974  1
  Ge  Ge8  1  0.500000  0.000010  0.499994  1
  Ge  Ge9  1  0.500000  0.500135  0.999910  1
  I  I10  1  0.500000  0.244531  0.161606  1
  I  I11  1  0.500000  0.755225  0.838563  1
  I  I12  1  0.500000  0.744772  0.338555  1
  I  I13  1  0.500000  0.255232  0.661440  1
  I  I14  1  0.000000  0.258269  0.413886  1
  I  I15  1  0.000000  0.741747  0.586108  1
  I  I16  1  0.000000  0.758258  0.086131  1
  I  I17  1  0.000000  0.241695  0.913763  1
  I  I18  1  0.000000  0.999328  0.240818  1
  I  I19  1  0.000000  0.000677  0.759178  1
  I  I20  1  0.000000  0.499439  0.259268  1
  I  I21  1  0.000000  0.500657  0.740819  1
