# generated using pymatgen
data_Tb9Ho5(Lu3Pb8)2
_symmetry_space_group_name_H-M   'P 1'
_cell_length_a   8.16486300
_cell_length_b   8.25228306
_cell_length_c   15.60850000
_cell_angle_alpha   89.99562590
_cell_angle_beta   89.99908774
_cell_angle_gamma   90.00502668
_symmetry_Int_Tables_number   1
_chemical_formula_structural   Tb9Ho5(Lu3Pb8)2
_chemical_formula_sum   'Tb9 Ho5 Lu6 Pb16'
_cell_volume   1051.68137752
_cell_formula_units_Z   1
loop_
 _symmetry_equiv_pos_site_id
 _symmetry_equiv_pos_as_xyz
  1  'x, y, z'
loop_
 _atom_site_type_symbol
 _atom_site_label
 _atom_site_symmetry_multiplicity
 _atom_site_fract_x
 _atom_site_fract_y
 _atom_site_fract_z
 _atom_site_occupancy
  Tb  Tb0  1  0.875064  0.657440  0.878595  1
  Tb  Tb1  1  0.533660  0.323219  0.901200  1
  Tb  Tb2  1  0.033801  0.176658  0.598763  1
  Tb  Tb3  1  0.466016  0.676926  0.401730  1
  Tb  Tb4  1  0.966028  0.823158  0.098459  1
  Tb  Tb5  1  0.468618  0.678632  0.096917  1
  Tb  Tb6  1  0.968466  0.821309  0.403046  1
  Tb  Tb7  1  0.532964  0.324783  0.599595  1
  Tb  Tb8  1  0.033004  0.175101  0.900320  1
  Ho  Ho9  1  0.627062  0.157097  0.379925  1
  Ho  Ho10  1  0.126980  0.342918  0.120083  1
  Ho  Ho11  1  0.625116  0.158633  0.121829  1
  Ho  Ho12  1  0.125137  0.341222  0.378233  1
  Ho  Ho13  1  0.374877  0.842752  0.621366  1
  Lu  Lu14  1  0.372252  0.843828  0.876326  1
  Lu  Lu15  1  0.872322  0.656058  0.623741  1
  Lu  Lu16  1  0.206210  0.505550  0.749897  1
  Lu  Lu17  1  0.706005  0.994416  0.750008  1
  Lu  Lu18  1  0.793965  0.494939  0.250724  1
  Lu  Lu19  1  0.294006  0.005033  0.249260  1
  Pb  Pb20  1  0.284520  0.033975  0.041929  1
  Pb  Pb21  1  0.784605  0.465989  0.458020  1
  Pb  Pb22  1  0.717991  0.961977  0.544406  1
  Pb  Pb23  1  0.218862  0.537569  0.955743  1
  Pb  Pb24  1  0.711489  0.964691  0.956292  1
  Pb  Pb25  1  0.211820  0.536325  0.543867  1
  Pb  Pb26  1  0.284760  0.035013  0.456050  1
  Pb  Pb27  1  0.784588  0.464605  0.044560  1
  Pb  Pb28  1  0.567467  0.626546  0.750055  1
  Pb  Pb29  1  0.068830  0.873904  0.749067  1
  Pb  Pb30  1  0.431596  0.374620  0.250653  1
  Pb  Pb31  1  0.931324  0.125638  0.249547  1
  Pb  Pb32  1  0.345938  0.156013  0.750119  1
  Pb  Pb33  1  0.845846  0.343584  0.749610  1
  Pb  Pb34  1  0.654353  0.844398  0.250227  1
  Pb  Pb35  1  0.154457  0.655480  0.249842  1
