# generated using pymatgen
data_Ho3Al3ZnSiRh
_symmetry_space_group_name_H-M   'P 1'
_cell_length_a   6.92116600
_cell_length_b   6.92116550
_cell_length_c   4.21782400
_cell_angle_alpha   90.00000000
_cell_angle_beta   90.00000000
_cell_angle_gamma   120.00000240
_symmetry_Int_Tables_number   1
_chemical_formula_structural   Ho3Al3ZnSiRh
_chemical_formula_sum   'Ho3 Al3 Zn1 Si1 Rh1'
_cell_volume   174.97563355
_cell_formula_units_Z   1
loop_
 _symmetry_equiv_pos_site_id
 _symmetry_equiv_pos_as_xyz
  1  'x, y, z'
loop_
 _atom_site_type_symbol
 _atom_site_label
 _atom_site_symmetry_multiplicity
 _atom_site_fract_x
 _atom_site_fract_y
 _atom_site_fract_z
 _atom_site_occupancy
  Ho  Ho0  1  0.415401  0.997827  0.000000  1
  Ho  Ho1  1  0.002173  0.417575  0.000000  1
  Ho  Ho2  1  0.582426  0.584599  0.000000  1
  Al  Al3  1  0.765800  0.000897  0.500000  1
  Al  Al4  1  0.235098  0.234200  0.500000  1
  Al  Al5  1  0.999103  0.764903  0.500000  1
  Zn  Zn6  1  0.666668  0.333334  0.500000  1
  Si  Si7  1  0.333333  0.666666  0.500000  1
  Rh  Rh8  1  0.000000  0.000000  0.000000  1
