# generated using pymatgen
data_Zr10InGa2Bi5
_symmetry_space_group_name_H-M   'P 1'
_cell_length_a   8.87178527
_cell_length_b   8.87178593
_cell_length_c   5.94095100
_cell_angle_alpha   90.00000000
_cell_angle_beta   90.00000000
_cell_angle_gamma   120.15425238
_symmetry_Int_Tables_number   1
_chemical_formula_structural   Zr10InGa2Bi5
_chemical_formula_sum   'Zr10 In1 Ga2 Bi5'
_cell_volume   404.32587213
_cell_formula_units_Z   1
loop_
 _symmetry_equiv_pos_site_id
 _symmetry_equiv_pos_as_xyz
  1  'x, y, z'
loop_
 _atom_site_type_symbol
 _atom_site_label
 _atom_site_symmetry_multiplicity
 _atom_site_fract_x
 _atom_site_fract_y
 _atom_site_fract_z
 _atom_site_occupancy
  Zr  Zr0  1  0.665979  0.334132  0.997556  1
  Zr  Zr1  1  0.334132  0.665979  0.997556  1
  Zr  Zr2  1  0.334132  0.665979  0.502444  1
  Zr  Zr3  1  0.665979  0.334132  0.502444  1
  Zr  Zr4  1  0.731095  0.731095  0.750000  1
  Zr  Zr5  1  0.266845  0.001942  0.750000  1
  Zr  Zr6  1  0.001942  0.266845  0.750000  1
  Zr  Zr7  1  0.262751  0.262751  0.250000  1
  Zr  Zr8  1  0.737393  0.001271  0.250000  1
  Zr  Zr9  1  0.001271  0.737393  0.250000  1
  In  In10  1  0.385759  0.385759  0.750000  1
  Ga  Ga11  1  0.000110  0.000110  0.997031  1
  Ga  Ga12  1  0.000110  0.000110  0.502969  1
  Bi  Bi13  1  0.612735  0.000592  0.750000  1
  Bi  Bi14  1  0.000592  0.612735  0.750000  1
  Bi  Bi15  1  0.607813  0.607813  0.250000  1
  Bi  Bi16  1  0.390513  0.000850  0.250000  1
  Bi  Bi17  1  0.000850  0.390513  0.250000  1
