# generated using pymatgen
data_Lu12Fe4NiSn
_symmetry_space_group_name_H-M   'P 1'
_cell_length_a   8.10383250
_cell_length_b   8.10374444
_cell_length_c   8.10383348
_cell_angle_alpha   110.57671356
_cell_angle_beta   111.12284547
_cell_angle_gamma   106.74884577
_symmetry_Int_Tables_number   1
_chemical_formula_structural   Lu12Fe4NiSn
_chemical_formula_sum   'Lu12 Fe4 Ni1 Sn1'
_cell_volume   408.97854961
_cell_formula_units_Z   1
loop_
 _symmetry_equiv_pos_site_id
 _symmetry_equiv_pos_as_xyz
  1  'x, y, z'
loop_
 _atom_site_type_symbol
 _atom_site_label
 _atom_site_symmetry_multiplicity
 _atom_site_fract_x
 _atom_site_fract_y
 _atom_site_fract_z
 _atom_site_occupancy
  Lu  Lu0  1  0.687189  0.885913  0.198724  1
  Lu  Lu1  1  0.312863  0.511666  0.198802  1
  Lu  Lu2  1  0.813544  0.787615  0.601110  1
  Lu  Lu3  1  0.186506  0.787615  0.974070  1
  Lu  Lu4  1  0.813494  0.212385  0.025930  1
  Lu  Lu5  1  0.186456  0.212385  0.398890  1
  Lu  Lu6  1  0.687137  0.488334  0.801198  1
  Lu  Lu7  1  0.312811  0.114087  0.801276  1
  Lu  Lu8  1  0.586833  0.285158  0.301691  1
  Lu  Lu9  1  0.413167  0.714842  0.698309  1
  Lu  Lu10  1  0.016534  0.714842  0.301674  1
  Lu  Lu11  1  0.983466  0.285158  0.698326  1
  Fe  Fe12  1  0.381792  0.500000  0.881792  1
  Fe  Fe13  1  0.618208  0.500000  0.118208  1
  Fe  Fe14  1  0.890010  0.889863  0.999853  1
  Fe  Fe15  1  0.109990  0.110137  0.000147  1
  Ni  Ni16  1  0.000000  0.500000  0.500000  1
  Sn  Sn17  1  0.500000  0.000000  0.500000  1
