# generated using pymatgen
data_AcPa3(Re2Si)8
_symmetry_space_group_name_H-M   'P 1'
_cell_length_a   4.18651000
_cell_length_b   7.39713119
_cell_length_c   15.63170800
_cell_angle_alpha   90.19804958
_cell_angle_beta   90.00000000
_cell_angle_gamma   90.00000000
_symmetry_Int_Tables_number   1
_chemical_formula_structural   AcPa3(Re2Si)8
_chemical_formula_sum   'Ac1 Pa3 Re16 Si8'
_cell_volume   484.08240033
_cell_formula_units_Z   1
loop_
 _symmetry_equiv_pos_site_id
 _symmetry_equiv_pos_as_xyz
  1  'x, y, z'
loop_
 _atom_site_type_symbol
 _atom_site_label
 _atom_site_symmetry_multiplicity
 _atom_site_fract_x
 _atom_site_fract_y
 _atom_site_fract_z
 _atom_site_occupancy
  Ac  Ac0  1  0.500000  0.917314  0.619160  1
  Pa  Pa1  1  0.000000  0.593090  0.118887  1
  Pa  Pa2  1  0.000000  0.409662  0.884170  1
  Pa  Pa3  1  0.500000  0.097058  0.379938  1
  Re  Re4  1  0.000000  0.145242  0.050059  1
  Re  Re5  1  0.000000  0.849863  0.952678  1
  Re  Re6  1  0.500000  0.648074  0.443117  1
  Re  Re7  1  0.500000  0.367954  0.546490  1
  Re  Re8  1  0.000000  0.734958  0.317781  1
  Re  Re9  1  0.000000  0.272861  0.682652  1
  Re  Re10  1  0.500000  0.234480  0.177380  1
  Re  Re11  1  0.500000  0.751685  0.825939  1
  Re  Re12  1  0.000000  0.426495  0.414828  1
  Re  Re13  1  0.000000  0.567952  0.577614  1
  Re  Re14  1  0.500000  0.924541  0.081722  1
  Re  Re15  1  0.500000  0.068171  0.921833  1
  Re  Re16  1  0.000000  0.995332  0.204531  1
  Re  Re17  1  0.000000  0.005763  0.798722  1
  Re  Re18  1  0.500000  0.493721  0.291551  1
  Re  Re19  1  0.500000  0.493838  0.708753  1
  Si  Si20  1  0.000000  0.831025  0.469875  1
  Si  Si21  1  0.000000  0.181207  0.523348  1
  Si  Si22  1  0.500000  0.331937  0.025586  1
  Si  Si23  1  0.500000  0.661989  0.977777  1
  Si  Si24  1  0.000000  0.301896  0.268153  1
  Si  Si25  1  0.000000  0.693552  0.730687  1
  Si  Si26  1  0.500000  0.802566  0.228973  1
  Si  Si27  1  0.500000  0.197773  0.777794  1
