# generated using pymatgen
data_Ce4TmHf3(B6Os)4
_symmetry_space_group_name_H-M   'P 1'
_cell_length_a   3.60802200
_cell_length_b   9.09048572
_cell_length_c   11.48908491
_cell_angle_alpha   90.04558705
_cell_angle_beta   90.00000000
_cell_angle_gamma   90.00000000
_symmetry_Int_Tables_number   1
_chemical_formula_structural   Ce4TmHf3(B6Os)4
_chemical_formula_sum   'Ce4 Tm1 Hf3 B24 Os4'
_cell_volume   376.82661360
_cell_formula_units_Z   1
loop_
 _symmetry_equiv_pos_site_id
 _symmetry_equiv_pos_as_xyz
  1  'x, y, z'
loop_
 _atom_site_type_symbol
 _atom_site_label
 _atom_site_symmetry_multiplicity
 _atom_site_fract_x
 _atom_site_fract_y
 _atom_site_fract_z
 _atom_site_occupancy
  Ce  Ce0  1  0.000000  0.322893  0.413540  1
  Ce  Ce1  1  0.000000  0.676957  0.585083  1
  Ce  Ce2  1  0.000000  0.823481  0.086737  1
  Ce  Ce3  1  0.000000  0.176584  0.914565  1
  Tm  Tm4  1  0.000000  0.554807  0.874246  1
  Hf  Hf5  1  0.000000  0.945617  0.374682  1
  Hf  Hf6  1  0.000000  0.054217  0.624107  1
  Hf  Hf7  1  0.000000  0.444884  0.127225  1
  B  B8  1  0.500000  0.554522  0.432621  1
  B  B9  1  0.500000  0.444466  0.566803  1
  B  B10  1  0.500000  0.055127  0.067930  1
  B  B11  1  0.500000  0.946124  0.932576  1
  B  B12  1  0.500000  0.754041  0.418211  1
  B  B13  1  0.500000  0.245735  0.581143  1
  B  B14  1  0.500000  0.253229  0.082369  1
  B  B15  1  0.500000  0.750253  0.917621  1
  B  B16  1  0.500000  0.796211  0.264958  1
  B  B17  1  0.500000  0.203385  0.734406  1
  B  B18  1  0.500000  0.295769  0.235709  1
  B  B19  1  0.500000  0.706732  0.764220  1
  B  B20  1  0.500000  0.630632  0.183154  1
  B  B21  1  0.500000  0.367354  0.815572  1
  B  B22  1  0.500000  0.130303  0.317716  1
  B  B23  1  0.500000  0.870374  0.681959  1
  B  B24  1  0.500000  0.981957  0.214962  1
  B  B25  1  0.500000  0.018225  0.784619  1
  B  B26  1  0.500000  0.482572  0.285524  1
  B  B27  1  0.500000  0.515220  0.713559  1
  B  B28  1  0.500000  0.600871  0.030494  1
  B  B29  1  0.500000  0.396523  0.975819  1
  B  B30  1  0.500000  0.100155  0.472602  1
  B  B31  1  0.500000  0.899880  0.526425  1
  Os  Os32  1  0.000000  0.643287  0.319861  1
  Os  Os33  1  0.000000  0.355177  0.679885  1
  Os  Os34  1  0.000000  0.141588  0.181841  1
  Os  Os35  1  0.000000  0.860847  0.817254  1
