# generated using pymatgen
data_DyTh3(B10Rh)2
_symmetry_space_group_name_H-M   'P 1'
_cell_length_a   4.18879100
_cell_length_b   5.71617108
_cell_length_c   11.41973717
_cell_angle_alpha   90.01965178
_cell_angle_beta   90.00000000
_cell_angle_gamma   90.00000000
_symmetry_Int_Tables_number   1
_chemical_formula_structural   DyTh3(B10Rh)2
_chemical_formula_sum   'Dy1 Th3 B20 Rh2'
_cell_volume   273.43241193
_cell_formula_units_Z   1
loop_
 _symmetry_equiv_pos_site_id
 _symmetry_equiv_pos_as_xyz
  1  'x, y, z'
loop_
 _atom_site_type_symbol
 _atom_site_label
 _atom_site_symmetry_multiplicity
 _atom_site_fract_x
 _atom_site_fract_y
 _atom_site_fract_z
 _atom_site_occupancy
  Dy  Dy0  1  0.500000  0.300778  0.862318  1
  Th  Th1  1  0.500000  0.703663  0.134890  1
  Th  Th2  1  0.500000  0.798020  0.637299  1
  Th  Th3  1  0.500000  0.201982  0.363223  1
  B  B4  1  0.000000  0.118560  0.543497  1
  B  B5  1  0.000000  0.882136  0.457283  1
  B  B6  1  0.000000  0.618175  0.956740  1
  B  B7  1  0.000000  0.381614  0.042320  1
  B  B8  1  0.000000  0.136384  0.698117  1
  B  B9  1  0.000000  0.863488  0.302228  1
  B  B10  1  0.301250  0.217330  0.118416  1
  B  B11  1  0.301905  0.778468  0.881584  1
  B  B12  1  0.698221  0.718085  0.381026  1
  B  B13  1  0.697947  0.281797  0.620838  1
  B  B14  1  0.698095  0.778468  0.881584  1
  B  B15  1  0.698750  0.217330  0.118416  1
  B  B16  1  0.302053  0.281797  0.620838  1
  B  B17  1  0.301779  0.718085  0.381026  1
  B  B18  1  0.000000  0.054264  0.192078  1
  B  B19  1  0.000000  0.945822  0.807877  1
  B  B20  1  0.000000  0.554387  0.306951  1
  B  B21  1  0.000000  0.445807  0.693191  1
  B  B22  1  0.000000  0.363938  0.196661  1
  B  B23  1  0.000000  0.637343  0.802499  1
  Rh  Rh24  1  0.000000  0.500367  0.500764  1
  Rh  Rh25  1  0.000000  0.001913  0.998336  1
