# generated using pymatgen
data_AlSi3(NiW)4
_symmetry_space_group_name_H-M   'P 1'
_cell_length_a   4.72895330
_cell_length_b   4.72895420
_cell_length_c   7.78637600
_cell_angle_alpha   90.00000000
_cell_angle_beta   90.00000000
_cell_angle_gamma   119.74522580
_symmetry_Int_Tables_number   1
_chemical_formula_structural   AlSi3(NiW)4
_chemical_formula_sum   'Al1 Si3 Ni4 W4'
_cell_volume   151.18384096
_cell_formula_units_Z   1
loop_
 _symmetry_equiv_pos_site_id
 _symmetry_equiv_pos_as_xyz
  1  'x, y, z'
loop_
 _atom_site_type_symbol
 _atom_site_label
 _atom_site_symmetry_multiplicity
 _atom_site_fract_x
 _atom_site_fract_y
 _atom_site_fract_z
 _atom_site_occupancy
  Al  Al0  1  0.813461  0.186539  0.000000  1
  Si  Si1  1  0.000467  0.999533  0.249685  1
  Si  Si2  1  0.000467  0.999533  0.750315  1
  Si  Si3  1  0.188047  0.811953  0.500000  1
  Ni  Ni4  1  0.677635  0.823364  0.500000  1
  Ni  Ni5  1  0.176636  0.322365  0.500000  1
  Ni  Ni6  1  0.322253  0.177989  0.000000  1
  Ni  Ni7  1  0.822011  0.677747  0.000000  1
  W  W8  1  0.330328  0.669672  0.809669  1
  W  W9  1  0.669196  0.330804  0.685040  1
  W  W10  1  0.669196  0.330804  0.314960  1
  W  W11  1  0.330328  0.669672  0.190331  1
