# generated using pymatgen
data_Li2Nd3MgPd2Ru
_symmetry_space_group_name_H-M   'P 1'
_cell_length_a   7.41944004
_cell_length_b   7.41774870
_cell_length_c   4.13994100
_cell_angle_alpha   90.00000000
_cell_angle_beta   90.00000000
_cell_angle_gamma   119.99585048
_symmetry_Int_Tables_number   1
_chemical_formula_structural   Li2Nd3MgPd2Ru
_chemical_formula_sum   'Li2 Nd3 Mg1 Pd2 Ru1'
_cell_volume   197.32685156
_cell_formula_units_Z   1
loop_
 _symmetry_equiv_pos_site_id
 _symmetry_equiv_pos_as_xyz
  1  'x, y, z'
loop_
 _atom_site_type_symbol
 _atom_site_label
 _atom_site_symmetry_multiplicity
 _atom_site_fract_x
 _atom_site_fract_y
 _atom_site_fract_z
 _atom_site_occupancy
  Li  Li0  1  0.236581  0.000520  0.500000  1
  Li  Li1  1  0.998593  0.235595  0.500000  1
  Nd  Nd2  1  0.573584  0.986874  0.000000  1
  Nd  Nd3  1  0.016664  0.589636  0.000000  1
  Nd  Nd4  1  0.401418  0.417033  0.000000  1
  Mg  Mg5  1  0.764226  0.763582  0.500000  1
  Pd  Pd6  1  0.669002  0.339653  0.500000  1
  Pd  Pd7  1  0.998721  0.998007  0.000000  1
  Ru  Ru8  1  0.341210  0.669101  0.500000  1
