# generated using pymatgen
data_Tb3DyLu4(ReB6)4
_symmetry_space_group_name_H-M   'P 1'
_cell_length_a   3.65233600
_cell_length_b   9.11417100
_cell_length_c   11.50874900
_cell_angle_alpha   89.99686646
_cell_angle_beta   90.00000000
_cell_angle_gamma   90.00000000
_symmetry_Int_Tables_number   1
_chemical_formula_structural   Tb3DyLu4(ReB6)4
_chemical_formula_sum   'Tb3 Dy1 Lu4 Re4 B24'
_cell_volume   383.10340737
_cell_formula_units_Z   1
loop_
 _symmetry_equiv_pos_site_id
 _symmetry_equiv_pos_as_xyz
  1  'x, y, z'
loop_
 _atom_site_type_symbol
 _atom_site_label
 _atom_site_symmetry_multiplicity
 _atom_site_fract_x
 _atom_site_fract_y
 _atom_site_fract_z
 _atom_site_occupancy
  Tb  Tb0  1  0.000000  0.323126  0.413874  1
  Tb  Tb1  1  0.000000  0.676854  0.586118  1
  Tb  Tb2  1  0.000000  0.823149  0.086097  1
  Dy  Dy3  1  0.000000  0.176754  0.913921  1
  Lu  Lu4  1  0.000000  0.943713  0.370221  1
  Lu  Lu5  1  0.000000  0.056307  0.629797  1
  Lu  Lu6  1  0.000000  0.443681  0.129693  1
  Lu  Lu7  1  0.000000  0.556254  0.870293  1
  Re  Re8  1  0.000000  0.639731  0.319856  1
  Re  Re9  1  0.000000  0.360199  0.680280  1
  Re  Re10  1  0.000000  0.139744  0.179973  1
  Re  Re11  1  0.000000  0.860425  0.819910  1
  B  B12  1  0.500000  0.553876  0.432299  1
  B  B13  1  0.500000  0.446061  0.567751  1
  B  B14  1  0.500000  0.053984  0.067425  1
  B  B15  1  0.500000  0.946421  0.932341  1
  B  B16  1  0.500000  0.751166  0.418044  1
  B  B17  1  0.500000  0.248850  0.582049  1
  B  B18  1  0.500000  0.251115  0.081602  1
  B  B19  1  0.500000  0.748914  0.918035  1
  B  B20  1  0.500000  0.793341  0.265485  1
  B  B21  1  0.500000  0.206552  0.734770  1
  B  B22  1  0.500000  0.293304  0.234397  1
  B  B23  1  0.500000  0.706699  0.765520  1
  B  B24  1  0.500000  0.630078  0.184793  1
  B  B25  1  0.500000  0.369670  0.815415  1
  B  B26  1  0.500000  0.130120  0.315124  1
  B  B27  1  0.500000  0.869977  0.684869  1
  B  B28  1  0.500000  0.982093  0.212824  1
  B  B29  1  0.500000  0.018270  0.787275  1
  B  B30  1  0.500000  0.482023  0.287064  1
  B  B31  1  0.500000  0.517892  0.712971  1
  B  B32  1  0.500000  0.597527  0.027033  1
  B  B33  1  0.500000  0.402106  0.972857  1
  B  B34  1  0.500000  0.097500  0.472972  1
  B  B35  1  0.500000  0.902525  0.527051  1
