# generated using pymatgen
data_Ho3ErGa2(SiRu2)2
_symmetry_space_group_name_H-M   'P 1'
_cell_length_a   4.38520100
_cell_length_b   7.01767192
_cell_length_c   7.19109482
_cell_angle_alpha   90.57494007
_cell_angle_beta   90.00000000
_cell_angle_gamma   90.00000000
_symmetry_Int_Tables_number   1
_chemical_formula_structural   Ho3ErGa2(SiRu2)2
_chemical_formula_sum   'Ho3 Er1 Ga2 Si2 Ru4'
_cell_volume   221.28690504
_cell_formula_units_Z   1
loop_
 _symmetry_equiv_pos_site_id
 _symmetry_equiv_pos_as_xyz
  1  'x, y, z'
loop_
 _atom_site_type_symbol
 _atom_site_label
 _atom_site_symmetry_multiplicity
 _atom_site_fract_x
 _atom_site_fract_y
 _atom_site_fract_z
 _atom_site_occupancy
  Ho  Ho0  1  0.250000  0.987162  0.807054  1
  Ho  Ho1  1  0.750000  0.013038  0.192930  1
  Ho  Ho2  1  0.250000  0.483055  0.689347  1
  Er  Er3  1  0.750000  0.517318  0.309441  1
  Ga  Ga4  1  0.250000  0.307653  0.108255  1
  Ga  Ga5  1  0.750000  0.692427  0.892339  1
  Si  Si6  1  0.250000  0.802331  0.401908  1
  Si  Si7  1  0.750000  0.197534  0.598014  1
  Ru  Ru8  1  0.750000  0.849790  0.555037  1
  Ru  Ru9  1  0.250000  0.149807  0.444830  1
  Ru  Ru10  1  0.750000  0.324987  0.917800  1
  Ru  Ru11  1  0.250000  0.674899  0.083046  1
