# generated using pymatgen
data_Cu9Sb3AsSe12
_symmetry_space_group_name_H-M   'P 1'
_cell_length_a   8.89006110
_cell_length_b   8.88390738
_cell_length_c   8.86650007
_cell_angle_alpha   107.06962815
_cell_angle_beta   107.30429111
_cell_angle_gamma   107.39966393
_symmetry_Int_Tables_number   1
_chemical_formula_structural   Cu9Sb3AsSe12
_chemical_formula_sum   'Cu9 Sb3 As1 Se12'
_cell_volume   579.03035516
_cell_formula_units_Z   1
loop_
 _symmetry_equiv_pos_site_id
 _symmetry_equiv_pos_as_xyz
  1  'x, y, z'
loop_
 _atom_site_type_symbol
 _atom_site_label
 _atom_site_symmetry_multiplicity
 _atom_site_fract_x
 _atom_site_fract_y
 _atom_site_fract_z
 _atom_site_occupancy
  Cu  Cu0  1  0.395675  0.169564  0.459567  1
  Cu  Cu1  1  0.071417  0.221830  0.699733  1
  Cu  Cu2  1  0.216131  0.696224  0.068758  1
  Cu  Cu3  1  0.165784  0.461333  0.394794  1
  Cu  Cu4  1  0.461307  0.392459  0.170895  1
  Cu  Cu5  1  0.698404  0.077002  0.220399  1
  Cu  Cu6  1  0.302108  0.914781  0.764057  1
  Cu  Cu7  1  0.917589  0.764588  0.308159  1
  Cu  Cu8  1  0.766031  0.306729  0.914946  1
  Sb  Sb9  1  0.971613  0.970048  0.971120  1
  Sb  Sb10  1  0.562500  0.627682  0.836005  1
  Sb  Sb11  1  0.627779  0.834470  0.559789  1
  As  As12  1  0.840956  0.551808  0.621661  1
  Se  Se13  1  0.228959  0.143350  0.912591  1
  Se  Se14  1  0.143579  0.911726  0.230583  1
  Se  Se15  1  0.912049  0.228782  0.139561  1
  Se  Se16  1  0.277582  0.351166  0.596407  1
  Se  Se17  1  0.348926  0.595022  0.275978  1
  Se  Se18  1  0.607796  0.288074  0.362762  1
  Se  Se19  1  0.438630  0.833931  0.988125  1
  Se  Se20  1  0.833972  0.988435  0.436850  1
  Se  Se21  1  0.981234  0.441054  0.823182  1
  Se  Se22  1  0.509780  0.064429  0.672299  1
  Se  Se23  1  0.058219  0.666745  0.515353  1
  Se  Se24  1  0.673580  0.510367  0.068025  1
