# generated using pymatgen
data_CaGd4Sn3O
_symmetry_space_group_name_H-M   'P 1'
_cell_length_a   9.36156325
_cell_length_b   9.36156312
_cell_length_c   9.35895800
_cell_angle_alpha   128.28195168
_cell_angle_beta   128.28195108
_cell_angle_gamma   76.14053566
_symmetry_Int_Tables_number   1
_chemical_formula_structural   CaGd4Sn3O
_chemical_formula_sum   'Ca2 Gd8 Sn6 O2'
_cell_volume   491.34661123
_cell_formula_units_Z   2
loop_
 _symmetry_equiv_pos_site_id
 _symmetry_equiv_pos_as_xyz
  1  'x, y, z'
loop_
 _atom_site_type_symbol
 _atom_site_label
 _atom_site_symmetry_multiplicity
 _atom_site_fract_x
 _atom_site_fract_y
 _atom_site_fract_z
 _atom_site_occupancy
  Ca  Ca0  1  0.500000  0.500000  0.000000  1
  Ca  Ca1  1  0.000000  0.000000  0.000000  1
  Gd  Gd2  1  0.500798  0.000798  0.807719  1
  Gd  Gd3  1  0.193080  0.693080  0.192212  1
  Gd  Gd4  1  0.000834  0.193084  0.499994  1
  Gd  Gd5  1  0.693084  0.500834  0.499994  1
  Gd  Gd6  1  0.499202  0.999202  0.192281  1
  Gd  Gd7  1  0.806920  0.306920  0.807788  1
  Gd  Gd8  1  0.999166  0.806916  0.500006  1
  Gd  Gd9  1  0.306916  0.499166  0.500006  1
  Sn  Sn10  1  0.250072  0.249928  0.000000  1
  Sn  Sn11  1  0.749928  0.750072  0.000000  1
  Sn  Sn12  1  0.866181  0.366181  0.232341  1
  Sn  Sn13  1  0.133819  0.633819  0.767659  1
  Sn  Sn14  1  0.366191  0.133809  0.500000  1
  Sn  Sn15  1  0.633809  0.866191  0.500000  1
  O  O16  1  0.250030  0.750030  0.500081  1
  O  O17  1  0.749970  0.249970  0.499919  1
