# generated using pymatgen
data_Ac3Sm(ZnGe)4
_symmetry_space_group_name_H-M   'P 1'
_cell_length_a   4.36170900
_cell_length_b   4.36170893
_cell_length_c   17.88184300
_cell_angle_alpha   90.00000000
_cell_angle_beta   90.00000000
_cell_angle_gamma   119.99999298
_symmetry_Int_Tables_number   1
_chemical_formula_structural   Ac3Sm(ZnGe)4
_chemical_formula_sum   'Ac3 Sm1 Zn4 Ge4'
_cell_volume   294.61598538
_cell_formula_units_Z   1
loop_
 _symmetry_equiv_pos_site_id
 _symmetry_equiv_pos_as_xyz
  1  'x, y, z'
loop_
 _atom_site_type_symbol
 _atom_site_label
 _atom_site_symmetry_multiplicity
 _atom_site_fract_x
 _atom_site_fract_y
 _atom_site_fract_z
 _atom_site_occupancy
  Ac  Ac0  1  0.000000  0.000000  0.258535  1
  Ac  Ac1  1  0.000000  0.000000  0.741465  1
  Ac  Ac2  1  0.000000  0.000000  0.000000  1
  Sm  Sm3  1  0.000000  0.000000  0.500000  1
  Zn  Zn4  1  0.333333  0.666667  0.137927  1
  Zn  Zn5  1  0.666667  0.333333  0.862073  1
  Zn  Zn6  1  0.666667  0.333333  0.625589  1
  Zn  Zn7  1  0.333333  0.666667  0.374411  1
  Ge  Ge8  1  0.333333  0.666667  0.604764  1
  Ge  Ge9  1  0.666667  0.333333  0.395236  1
  Ge  Ge10  1  0.666667  0.333333  0.122965  1
  Ge  Ge11  1  0.333333  0.666667  0.877035  1
