# generated using pymatgen
data_SrTbSc2(NiAs2)2
_symmetry_space_group_name_H-M   'P 1'
_cell_length_a   4.13392100
_cell_length_b   4.13392073
_cell_length_c   13.76693300
_cell_angle_alpha   90.00000000
_cell_angle_beta   90.00000000
_cell_angle_gamma   120.00001018
_symmetry_Int_Tables_number   1
_chemical_formula_structural   SrTbSc2(NiAs2)2
_chemical_formula_sum   'Sr1 Tb1 Sc2 Ni2 As4'
_cell_volume   203.74741301
_cell_formula_units_Z   1
loop_
 _symmetry_equiv_pos_site_id
 _symmetry_equiv_pos_as_xyz
  1  'x, y, z'
loop_
 _atom_site_type_symbol
 _atom_site_label
 _atom_site_symmetry_multiplicity
 _atom_site_fract_x
 _atom_site_fract_y
 _atom_site_fract_z
 _atom_site_occupancy
  Sr  Sr0  1  0.666667  0.333333  0.346117  1
  Tb  Tb1  1  0.333333  0.666667  0.848397  1
  Sc  Sc2  1  0.666667  0.333333  0.623502  1
  Sc  Sc3  1  0.333333  0.666667  0.108176  1
  Ni  Ni4  1  0.000000  0.000000  0.013483  1
  Ni  Ni5  1  0.000000  0.000000  0.538620  1
  As  As6  1  0.666667  0.333333  0.973069  1
  As  As7  1  0.333333  0.666667  0.497972  1
  As  As8  1  0.000000  0.000000  0.721566  1
  As  As9  1  0.000000  0.000000  0.197759  1
