# generated using pymatgen
data_Ho3Sc(NiAs)4
_symmetry_space_group_name_H-M   'P 1'
_cell_length_a   4.01408400
_cell_length_b   4.01408425
_cell_length_c   15.19018900
_cell_angle_alpha   90.00000000
_cell_angle_beta   90.00000000
_cell_angle_gamma   119.99999798
_symmetry_Int_Tables_number   1
_chemical_formula_structural   Ho3Sc(NiAs)4
_chemical_formula_sum   'Ho3 Sc1 Ni4 As4'
_cell_volume   211.96626994
_cell_formula_units_Z   1
loop_
 _symmetry_equiv_pos_site_id
 _symmetry_equiv_pos_as_xyz
  1  'x, y, z'
loop_
 _atom_site_type_symbol
 _atom_site_label
 _atom_site_symmetry_multiplicity
 _atom_site_fract_x
 _atom_site_fract_y
 _atom_site_fract_z
 _atom_site_occupancy
  Ho  Ho0  1  0.000000  0.000000  0.750000  1
  Ho  Ho1  1  0.000000  0.000000  0.006461  1
  Ho  Ho2  1  0.000000  0.000000  0.493539  1
  Sc  Sc3  1  0.000000  0.000000  0.250000  1
  Ni  Ni4  1  0.333333  0.666667  0.149470  1
  Ni  Ni5  1  0.666667  0.333333  0.870766  1
  Ni  Ni6  1  0.666667  0.333333  0.629234  1
  Ni  Ni7  1  0.333333  0.666667  0.350530  1
  As  As8  1  0.333333  0.666667  0.618674  1
  As  As9  1  0.666667  0.333333  0.374068  1
  As  As10  1  0.666667  0.333333  0.125932  1
  As  As11  1  0.333333  0.666667  0.881326  1
