# generated using pymatgen
data_Lu2Zr7(In2Rh)7
_symmetry_space_group_name_H-M   'P 1'
_cell_length_a   9.71776940
_cell_length_b   9.68663006
_cell_length_c   9.71776900
_cell_angle_alpha   59.89360036
_cell_angle_beta   59.99999797
_cell_angle_gamma   59.89360301
_symmetry_Int_Tables_number   1
_chemical_formula_structural   Lu2Zr7(In2Rh)7
_chemical_formula_sum   'Lu2 Zr7 In14 Rh7'
_cell_volume   645.78887375
_cell_formula_units_Z   1
loop_
 _symmetry_equiv_pos_site_id
 _symmetry_equiv_pos_as_xyz
  1  'x, y, z'
loop_
 _atom_site_type_symbol
 _atom_site_label
 _atom_site_symmetry_multiplicity
 _atom_site_fract_x
 _atom_site_fract_y
 _atom_site_fract_z
 _atom_site_occupancy
  Lu  Lu0  1  0.125575  0.623276  0.125575  1
  Lu  Lu1  1  0.497747  0.506760  0.497747  1
  Zr  Zr2  1  0.368917  0.874539  0.878271  1
  Zr  Zr3  1  0.878271  0.874539  0.878271  1
  Zr  Zr4  1  0.629722  0.123726  0.123276  1
  Zr  Zr5  1  0.878271  0.874539  0.368917  1
  Zr  Zr6  1  0.123276  0.123726  0.123276  1
  Zr  Zr7  1  0.876422  0.370733  0.876422  1
  Zr  Zr8  1  0.123276  0.123726  0.629722  1
  In  In9  1  0.499996  0.849516  0.150490  1
  In  In10  1  0.499996  0.849516  0.499996  1
  In  In11  1  0.499826  0.156380  0.499826  1
  In  In12  1  0.501863  0.500231  0.844518  1
  In  In13  1  0.153388  0.500231  0.501863  1
  In  In14  1  0.843969  0.156380  0.499826  1
  In  In15  1  0.150490  0.849516  0.499996  1
  In  In16  1  0.499826  0.156380  0.843969  1
  In  In17  1  0.153388  0.500231  0.844518  1
  In  In18  1  0.501863  0.500231  0.153388  1
  In  In19  1  0.844518  0.500231  0.501863  1
  In  In20  1  0.844518  0.500231  0.153388  1
  In  In21  1  0.254707  0.235877  0.254707  1
  In  In22  1  0.749174  0.752480  0.749174  1
  Rh  Rh23  1  0.772189  0.780341  0.223735  1
  Rh  Rh24  1  0.000307  0.999079  0.000307  1
  Rh  Rh25  1  0.223735  0.780341  0.223735  1
  Rh  Rh26  1  0.223735  0.780341  0.772189  1
  Rh  Rh27  1  0.219429  0.218969  0.780802  1
  Rh  Rh28  1  0.780802  0.218969  0.780802  1
  Rh  Rh29  1  0.780802  0.218969  0.219429  1
