# generated using pymatgen
data_CoIrBr18
_symmetry_space_group_name_H-M   'P 1'
_cell_length_a   9.07094968
_cell_length_b   9.07094779
_cell_length_c   9.07094853
_cell_angle_alpha   92.64343372
_cell_angle_beta   92.64343500
_cell_angle_gamma   92.64343010
_symmetry_Int_Tables_number   1
_chemical_formula_structural   CoIrBr18
_chemical_formula_sum   'Co1 Ir1 Br18'
_cell_volume   743.91812191
_cell_formula_units_Z   1
loop_
 _symmetry_equiv_pos_site_id
 _symmetry_equiv_pos_as_xyz
  1  'x, y, z'
loop_
 _atom_site_type_symbol
 _atom_site_label
 _atom_site_symmetry_multiplicity
 _atom_site_fract_x
 _atom_site_fract_y
 _atom_site_fract_z
 _atom_site_occupancy
  Co  Co0  1  0.500000  0.500000  0.500000  1
  Ir  Ir1  1  0.000000  0.000000  0.000000  1
  Br  Br2  1  0.275174  0.995291  0.023507  1
  Br  Br3  1  0.023507  0.275174  0.995291  1
  Br  Br4  1  0.995291  0.023507  0.275174  1
  Br  Br5  1  0.724826  0.004709  0.976493  1
  Br  Br6  1  0.976493  0.724826  0.004709  1
  Br  Br7  1  0.004709  0.976493  0.724826  1
  Br  Br8  1  0.631446  0.229372  0.129248  1
  Br  Br9  1  0.129248  0.631446  0.229372  1
  Br  Br10  1  0.229372  0.129248  0.631446  1
  Br  Br11  1  0.368554  0.770628  0.870752  1
  Br  Br12  1  0.870752  0.368554  0.770628  1
  Br  Br13  1  0.770628  0.870752  0.368554  1
  Br  Br14  1  0.466289  0.236569  0.524053  1
  Br  Br15  1  0.524053  0.466289  0.236569  1
  Br  Br16  1  0.236569  0.524053  0.466289  1
  Br  Br17  1  0.533711  0.763431  0.475947  1
  Br  Br18  1  0.475947  0.533711  0.763431  1
  Br  Br19  1  0.763431  0.475947  0.533711  1
