# generated using pymatgen
data_Dy3LuPu6(SiB4)4
_symmetry_space_group_name_H-M   'P 1'
_cell_length_a   7.21120700
_cell_length_b   7.21684113
_cell_length_c   8.08880500
_cell_angle_alpha   90.00000000
_cell_angle_beta   90.00000000
_cell_angle_gamma   89.93033263
_symmetry_Int_Tables_number   1
_chemical_formula_structural   Dy3LuPu6(SiB4)4
_chemical_formula_sum   'Dy3 Lu1 Pu6 Si4 B16'
_cell_volume   420.95837275
_cell_formula_units_Z   1
loop_
 _symmetry_equiv_pos_site_id
 _symmetry_equiv_pos_as_xyz
  1  'x, y, z'
loop_
 _atom_site_type_symbol
 _atom_site_label
 _atom_site_symmetry_multiplicity
 _atom_site_fract_x
 _atom_site_fract_y
 _atom_site_fract_z
 _atom_site_occupancy
  Dy  Dy0  1  0.181636  0.317999  0.777253  1
  Dy  Dy1  1  0.181636  0.317999  0.222747  1
  Dy  Dy2  1  0.502169  0.500909  0.500000  1
  Lu  Lu3  1  0.998998  0.998637  0.500000  1
  Pu  Pu4  1  0.683375  0.182751  0.229177  1
  Pu  Pu5  1  0.316952  0.817014  0.770801  1
  Pu  Pu6  1  0.316952  0.817014  0.229199  1
  Pu  Pu7  1  0.816598  0.683726  0.229374  1
  Pu  Pu8  1  0.816598  0.683726  0.770626  1
  Pu  Pu9  1  0.683375  0.182751  0.770823  1
  Si  Si10  1  0.114695  0.616450  0.500000  1
  Si  Si11  1  0.887705  0.380948  0.500000  1
  Si  Si12  1  0.380299  0.114954  0.500000  1
  Si  Si13  1  0.615649  0.889091  0.500000  1
  B  B14  1  0.173256  0.037944  0.000000  1
  B  B15  1  0.826101  0.959835  0.000000  1
  B  B16  1  0.958355  0.172013  0.000000  1
  B  B17  1  0.327929  0.541729  0.000000  1
  B  B18  1  0.040012  0.825470  0.000000  1
  B  B19  1  0.674524  0.459965  0.000000  1
  B  B20  1  0.540313  0.674096  0.000000  1
  B  B21  1  0.461935  0.326583  0.000000  1
  B  B22  1  0.090459  0.589317  0.000000  1
  B  B23  1  0.910522  0.409598  0.000000  1
  B  B24  1  0.409601  0.090230  0.000000  1
  B  B25  1  0.588908  0.911111  0.000000  1
  B  B26  1  0.999341  0.998503  0.162016  1
  B  B27  1  0.999341  0.998503  0.837984  1
  B  B28  1  0.501382  0.500567  0.839128  1
  B  B29  1  0.501382  0.500567  0.160872  1
