# generated using pymatgen
data_Sr2TcNiN4
_symmetry_space_group_name_H-M   'P 1'
_cell_length_a   5.79607200
_cell_length_b   6.27249102
_cell_length_c   7.35700024
_cell_angle_alpha   68.28439723
_cell_angle_beta   90.00000000
_cell_angle_gamma   90.00000000
_symmetry_Int_Tables_number   1
_chemical_formula_structural   Sr2TcNiN4
_chemical_formula_sum   'Sr4 Tc2 Ni2 N8'
_cell_volume   248.48786933
_cell_formula_units_Z   2
loop_
 _symmetry_equiv_pos_site_id
 _symmetry_equiv_pos_as_xyz
  1  'x, y, z'
loop_
 _atom_site_type_symbol
 _atom_site_label
 _atom_site_symmetry_multiplicity
 _atom_site_fract_x
 _atom_site_fract_y
 _atom_site_fract_z
 _atom_site_occupancy
  Sr  Sr0  1  0.250000  0.265764  0.055417  1
  Sr  Sr1  1  0.750000  0.734236  0.944583  1
  Sr  Sr2  1  0.750000  0.826725  0.413780  1
  Sr  Sr3  1  0.250000  0.173275  0.586220  1
  Tc  Tc4  1  0.250000  0.706393  0.208790  1
  Tc  Tc5  1  0.750000  0.293607  0.791210  1
  Ni  Ni6  1  0.750000  0.346505  0.385724  1
  Ni  Ni7  1  0.250000  0.653495  0.614276  1
  N  N8  1  0.499361  0.486514  0.744137  1
  N  N9  1  0.999361  0.513486  0.255863  1
  N  N10  1  0.500639  0.513486  0.255863  1
  N  N11  1  0.000639  0.486514  0.744137  1
  N  N12  1  0.750000  0.112842  0.627525  1
  N  N13  1  0.250000  0.887158  0.372475  1
  N  N14  1  0.750000  0.100205  0.044005  1
  N  N15  1  0.250000  0.899795  0.955995  1
