# generated using pymatgen
data_KSe6
_symmetry_space_group_name_H-M   'P 1'
_cell_length_a   11.28557123
_cell_length_b   11.28557123
_cell_length_c   11.28557054
_cell_angle_alpha   130.07111591
_cell_angle_beta   120.28664063
_cell_angle_gamma   81.48523371
_symmetry_Int_Tables_number   1
_chemical_formula_structural   KSe6
_chemical_formula_sum   'K4 Se24'
_cell_volume   915.27467467
_cell_formula_units_Z   4
loop_
 _symmetry_equiv_pos_site_id
 _symmetry_equiv_pos_as_xyz
  1  'x, y, z'
loop_
 _atom_site_type_symbol
 _atom_site_label
 _atom_site_symmetry_multiplicity
 _atom_site_fract_x
 _atom_site_fract_y
 _atom_site_fract_z
 _atom_site_occupancy
  K  K0  1  0.500000  0.500000  0.000000  1
  K  K1  1  0.000000  0.000000  0.000000  1
  K  K2  1  0.750000  0.250000  0.500000  1
  K  K3  1  0.250000  0.750000  0.500000  1
  Se  Se4  1  0.645873  0.750000  0.895873  1
  Se  Se5  1  0.854127  0.750000  0.104127  1
  Se  Se6  1  0.354127  0.250000  0.104127  1
  Se  Se7  1  0.145873  0.250000  0.895873  1
  Se  Se8  1  0.244484  0.139741  0.675769  1
  Se  Se9  1  0.255516  0.931285  0.895257  1
  Se  Se10  1  0.036028  0.360259  0.104743  1
  Se  Se11  1  0.463972  0.568715  0.324231  1
  Se  Se12  1  0.755516  0.860259  0.324231  1
  Se  Se13  1  0.744484  0.068715  0.104743  1
  Se  Se14  1  0.963972  0.639741  0.895257  1
  Se  Se15  1  0.536028  0.431285  0.675769  1
  Se  Se16  1  0.924501  0.826837  0.529680  1
  Se  Se17  1  0.575499  0.105180  0.902337  1
  Se  Se18  1  0.202844  0.673163  0.097663  1
  Se  Se19  1  0.297156  0.394820  0.470320  1
  Se  Se20  1  0.075499  0.173163  0.470320  1
  Se  Se21  1  0.424501  0.894820  0.097663  1
  Se  Se22  1  0.797157  0.326837  0.902337  1
  Se  Se23  1  0.702844  0.605180  0.529680  1
  Se  Se24  1  0.665847  0.065742  0.731589  1
  Se  Se25  1  0.834153  0.565742  0.399895  1
  Se  Se26  1  0.165847  0.434258  0.600105  1
  Se  Se27  1  0.334153  0.934258  0.268411  1
