# generated using pymatgen
data_Er3Tm(Ga10Ru3)2
_symmetry_space_group_name_H-M   'P 1'
_cell_length_a   8.90244904
_cell_length_b   8.90244904
_cell_length_c   6.38720200
_cell_angle_alpha   90.00000000
_cell_angle_beta   90.00000000
_cell_angle_gamma   89.98885292
_symmetry_Int_Tables_number   1
_chemical_formula_structural   Er3Tm(Ga10Ru3)2
_chemical_formula_sum   'Er3 Tm1 Ga20 Ru6'
_cell_volume   506.20873612
_cell_formula_units_Z   1
loop_
 _symmetry_equiv_pos_site_id
 _symmetry_equiv_pos_as_xyz
  1  'x, y, z'
loop_
 _atom_site_type_symbol
 _atom_site_label
 _atom_site_symmetry_multiplicity
 _atom_site_fract_x
 _atom_site_fract_y
 _atom_site_fract_z
 _atom_site_occupancy
  Er  Er0  1  0.317074  0.817074  0.000000  1
  Er  Er1  1  0.817085  0.682920  0.000000  1
  Er  Er2  1  0.182920  0.317085  0.000000  1
  Tm  Tm3  1  0.682926  0.182926  0.000000  1
  Ga  Ga4  1  0.938630  0.206728  0.292709  1
  Ga  Ga5  1  0.706728  0.438630  0.292709  1
  Ga  Ga6  1  0.500064  0.000064  0.285105  1
  Ga  Ga7  1  0.561269  0.706732  0.707169  1
  Ga  Ga8  1  0.293274  0.561286  0.707162  1
  Ga  Ga9  1  0.793246  0.938787  0.292744  1
  Ga  Ga10  1  0.938630  0.206728  0.707291  1
  Ga  Ga11  1  0.293274  0.561286  0.292838  1
  Ga  Ga12  1  0.061286  0.793274  0.292838  1
  Ga  Ga13  1  0.706728  0.438630  0.707291  1
  Ga  Ga14  1  0.438787  0.293246  0.707256  1
  Ga  Ga15  1  0.061286  0.793274  0.707162  1
  Ga  Ga16  1  0.206732  0.061269  0.707169  1
  Ga  Ga17  1  0.793246  0.938787  0.707256  1
  Ga  Ga18  1  0.206732  0.061269  0.292831  1
  Ga  Ga19  1  0.000002  0.500002  0.714769  1
  Ga  Ga20  1  0.000002  0.500002  0.285231  1
  Ga  Ga21  1  0.561269  0.706732  0.292831  1
  Ga  Ga22  1  0.438787  0.293246  0.292744  1
  Ga  Ga23  1  0.500064  0.000064  0.714895  1
  Ru  Ru24  1  0.678238  0.178238  0.500000  1
  Ru  Ru25  1  0.821753  0.678246  0.500000  1
  Ru  Ru26  1  0.178246  0.321753  0.500000  1
  Ru  Ru27  1  0.999895  0.000059  0.000000  1
  Ru  Ru28  1  0.321771  0.821771  0.500000  1
  Ru  Ru29  1  0.500059  0.499895  0.000000  1
