# generated using pymatgen
data_Ce3Al12(CoOs)2
_symmetry_space_group_name_H-M   'P 1'
_cell_length_a   8.81856243
_cell_length_b   8.89403221
_cell_length_c   9.41941400
_cell_angle_alpha   90.00000000
_cell_angle_beta   90.00000000
_cell_angle_gamma   120.28350562
_symmetry_Int_Tables_number   1
_chemical_formula_structural   Ce3Al12(CoOs)2
_chemical_formula_sum   'Ce6 Al24 Co4 Os4'
_cell_volume   637.97435006
_cell_formula_units_Z   2
loop_
 _symmetry_equiv_pos_site_id
 _symmetry_equiv_pos_as_xyz
  1  'x, y, z'
loop_
 _atom_site_type_symbol
 _atom_site_label
 _atom_site_symmetry_multiplicity
 _atom_site_fract_x
 _atom_site_fract_y
 _atom_site_fract_z
 _atom_site_occupancy
  Ce  Ce0  1  0.200829  0.388423  0.250000  1
  Ce  Ce1  1  0.799171  0.611577  0.750000  1
  Ce  Ce2  1  0.606737  0.803368  0.250000  1
  Ce  Ce3  1  0.393263  0.196632  0.750000  1
  Ce  Ce4  1  0.200829  0.812406  0.250000  1
  Ce  Ce5  1  0.799171  0.187594  0.750000  1
  Al  Al6  1  0.325812  0.662907  0.017242  1
  Al  Al7  1  0.674188  0.337093  0.982758  1
  Al  Al8  1  0.674188  0.337093  0.517242  1
  Al  Al9  1  0.325812  0.662907  0.482758  1
  Al  Al10  1  0.158256  0.321546  0.577024  1
  Al  Al11  1  0.841744  0.678454  0.422976  1
  Al  Al12  1  0.676684  0.838341  0.575810  1
  Al  Al13  1  0.841744  0.678454  0.077024  1
  Al  Al14  1  0.323316  0.161659  0.424190  1
  Al  Al15  1  0.158256  0.321546  0.922976  1
  Al  Al16  1  0.158256  0.836711  0.577024  1
  Al  Al17  1  0.323316  0.161659  0.075810  1
  Al  Al18  1  0.841744  0.163289  0.422976  1
  Al  Al19  1  0.676684  0.838341  0.924190  1
  Al  Al20  1  0.841744  0.163289  0.077024  1
  Al  Al21  1  0.158256  0.836711  0.922976  1
  Al  Al22  1  0.566799  0.128930  0.250000  1
  Al  Al23  1  0.433201  0.871070  0.750000  1
  Al  Al24  1  0.886654  0.443328  0.250000  1
  Al  Al25  1  0.113346  0.556672  0.750000  1
  Al  Al26  1  0.566799  0.437870  0.250000  1
  Al  Al27  1  0.433201  0.562130  0.750000  1
  Al  Al28  1  0.001158  0.000579  0.250000  1
  Al  Al29  1  0.998842  0.999421  0.750000  1
  Co  Co30  1  0.000000  0.500000  0.000000  1
  Co  Co31  1  0.000000  0.500000  0.500000  1
  Co  Co32  1  0.000000  0.000000  0.000000  1
  Co  Co33  1  0.000000  0.000000  0.500000  1
  Os  Os34  1  0.500000  0.000000  0.000000  1
  Os  Os35  1  0.500000  0.000000  0.500000  1
  Os  Os36  1  0.500000  0.500000  0.000000  1
  Os  Os37  1  0.500000  0.500000  0.500000  1
