# generated using pymatgen
data_Ca2TbHoSb6Rh7
_symmetry_space_group_name_H-M   'P 1'
_cell_length_a   7.60625194
_cell_length_b   7.66813849
_cell_length_c   7.65032482
_cell_angle_alpha   109.74455388
_cell_angle_beta   109.42723098
_cell_angle_gamma   109.52242927
_symmetry_Int_Tables_number   1
_chemical_formula_structural   Ca2TbHoSb6Rh7
_chemical_formula_sum   'Ca2 Tb1 Ho1 Sb6 Rh7'
_cell_volume   342.29704460
_cell_formula_units_Z   1
loop_
 _symmetry_equiv_pos_site_id
 _symmetry_equiv_pos_as_xyz
  1  'x, y, z'
loop_
 _atom_site_type_symbol
 _atom_site_label
 _atom_site_symmetry_multiplicity
 _atom_site_fract_x
 _atom_site_fract_y
 _atom_site_fract_z
 _atom_site_occupancy
  Ca  Ca0  1  0.500000  0.000000  0.000000  1
  Ca  Ca1  1  0.500000  0.500000  0.500000  1
  Tb  Tb2  1  0.000000  0.000000  0.500000  1
  Ho  Ho3  1  0.000000  0.500000  0.000000  1
  Sb  Sb4  1  0.000000  0.319725  0.318774  1
  Sb  Sb5  1  0.678566  0.997780  0.681683  1
  Sb  Sb6  1  0.678566  0.680785  0.996882  1
  Sb  Sb7  1  0.000000  0.680275  0.681226  1
  Sb  Sb8  1  0.321434  0.002220  0.318317  1
  Sb  Sb9  1  0.321434  0.319215  0.003118  1
  Rh  Rh10  1  0.000000  0.000000  0.000000  1
  Rh  Rh11  1  0.498953  0.749476  0.249476  1
  Rh  Rh12  1  0.755532  0.505223  0.249183  1
  Rh  Rh13  1  0.244468  0.749691  0.493650  1
  Rh  Rh14  1  0.244468  0.494777  0.750817  1
  Rh  Rh15  1  0.501047  0.250524  0.750524  1
  Rh  Rh16  1  0.755532  0.250309  0.506350  1
