# generated using pymatgen
data_Tb12InGa(CoOs)2
_symmetry_space_group_name_H-M   'P 1'
_cell_length_a   8.42937504
_cell_length_b   8.42928325
_cell_length_c   8.42937555
_cell_angle_alpha   112.74573628
_cell_angle_beta   110.29388836
_cell_angle_gamma   105.45784536
_symmetry_Int_Tables_number   1
_chemical_formula_structural   Tb12InGa(CoOs)2
_chemical_formula_sum   'Tb12 In1 Ga1 Co2 Os2'
_cell_volume   459.15144203
_cell_formula_units_Z   1
loop_
 _symmetry_equiv_pos_site_id
 _symmetry_equiv_pos_as_xyz
  1  'x, y, z'
loop_
 _atom_site_type_symbol
 _atom_site_label
 _atom_site_symmetry_multiplicity
 _atom_site_fract_x
 _atom_site_fract_y
 _atom_site_fract_z
 _atom_site_occupancy
  Tb  Tb0  1  0.045708  0.740279  0.305411  1
  Tb  Tb1  1  0.954292  0.259721  0.694589  1
  Tb  Tb2  1  0.565131  0.259721  0.305430  1
  Tb  Tb3  1  0.434869  0.740279  0.694570  1
  Tb  Tb4  1  0.674849  0.857274  0.182426  1
  Tb  Tb5  1  0.325152  0.507567  0.182415  1
  Tb  Tb6  1  0.325151  0.142726  0.817574  1
  Tb  Tb7  1  0.674848  0.492433  0.817585  1
  Tb  Tb8  1  0.179556  0.220872  0.400441  1
  Tb  Tb9  1  0.820430  0.220872  0.041316  1
  Tb  Tb10  1  0.179570  0.779128  0.958684  1
  Tb  Tb11  1  0.820444  0.779128  0.599559  1
  In  In12  1  0.500000  0.000000  0.500000  1
  Ga  Ga13  1  0.000000  0.500000  0.500000  1
  Co  Co14  1  0.889289  0.889295  0.000006  1
  Co  Co15  1  0.110711  0.110705  0.999994  1
  Os  Os16  1  0.671935  0.500000  0.171935  1
  Os  Os17  1  0.328065  0.500000  0.828065  1
