# generated using pymatgen
data_Ti2MnIr4Rh
_symmetry_space_group_name_H-M   'P 1'
_cell_length_a   3.96579200
_cell_length_b   5.43628900
_cell_length_c   10.74703800
_cell_angle_alpha   90.00000000
_cell_angle_beta   90.00000000
_cell_angle_gamma   90.00000000
_symmetry_Int_Tables_number   1
_chemical_formula_structural   Ti2MnIr4Rh
_chemical_formula_sum   'Ti4 Mn2 Ir8 Rh2'
_cell_volume   231.69744950
_cell_formula_units_Z   2
loop_
 _symmetry_equiv_pos_site_id
 _symmetry_equiv_pos_as_xyz
  1  'x, y, z'
loop_
 _atom_site_type_symbol
 _atom_site_label
 _atom_site_symmetry_multiplicity
 _atom_site_fract_x
 _atom_site_fract_y
 _atom_site_fract_z
 _atom_site_occupancy
  Ti  Ti0  1  0.500000  0.300685  0.136345  1
  Ti  Ti1  1  0.500000  0.699315  0.863655  1
  Ti  Ti2  1  0.500000  0.800685  0.363655  1
  Ti  Ti3  1  0.500000  0.199315  0.636345  1
  Mn  Mn4  1  0.000000  0.000000  0.000000  1
  Mn  Mn5  1  0.000000  0.500000  0.500000  1
  Ir  Ir6  1  0.000000  0.047523  0.245453  1
  Ir  Ir7  1  0.000000  0.952477  0.754547  1
  Ir  Ir8  1  0.000000  0.547523  0.254547  1
  Ir  Ir9  1  0.000000  0.452477  0.745453  1
  Ir  Ir10  1  0.500000  0.291417  0.384676  1
  Ir  Ir11  1  0.500000  0.708583  0.615324  1
  Ir  Ir12  1  0.500000  0.791417  0.115324  1
  Ir  Ir13  1  0.500000  0.208583  0.884676  1
  Rh  Rh14  1  0.000000  0.000000  0.500000  1
  Rh  Rh15  1  0.000000  0.500000  0.000000  1
