# generated using pymatgen
data_Dy4Si4OsRu2Rh
_symmetry_space_group_name_H-M   'P 1'
_cell_length_a   4.27935300
_cell_length_b   6.97584952
_cell_length_c   7.24447141
_cell_angle_alpha   90.22956535
_cell_angle_beta   90.00000000
_cell_angle_gamma   90.00000000
_symmetry_Int_Tables_number   1
_chemical_formula_structural   Dy4Si4OsRu2Rh
_chemical_formula_sum   'Dy4 Si4 Os1 Ru2 Rh1'
_cell_volume   216.26111249
_cell_formula_units_Z   1
loop_
 _symmetry_equiv_pos_site_id
 _symmetry_equiv_pos_as_xyz
  1  'x, y, z'
loop_
 _atom_site_type_symbol
 _atom_site_label
 _atom_site_symmetry_multiplicity
 _atom_site_fract_x
 _atom_site_fract_y
 _atom_site_fract_z
 _atom_site_occupancy
  Dy  Dy0  1  0.250000  0.492486  0.185394  1
  Dy  Dy1  1  0.750000  0.503908  0.814994  1
  Dy  Dy2  1  0.750000  0.011213  0.688214  1
  Dy  Dy3  1  0.250000  0.989588  0.312199  1
  Si  Si4  1  0.250000  0.801387  0.885505  1
  Si  Si5  1  0.750000  0.199107  0.107250  1
  Si  Si6  1  0.750000  0.698171  0.401789  1
  Si  Si7  1  0.250000  0.304177  0.603638  1
  Os  Os8  1  0.250000  0.655984  0.568149  1
  Ru  Ru9  1  0.750000  0.346101  0.431561  1
  Ru  Ru10  1  0.250000  0.152462  0.934510  1
  Rh  Rh11  1  0.750000  0.845417  0.066798  1
