# generated using pymatgen
data_Tb4FeOs6W
_symmetry_space_group_name_H-M   'P 1'
_cell_length_a   5.26121035
_cell_length_b   5.26121116
_cell_length_c   8.91937600
_cell_angle_alpha   90.00000000
_cell_angle_beta   90.00000000
_cell_angle_gamma   117.43300077
_symmetry_Int_Tables_number   1
_chemical_formula_structural   Tb4FeOs6W
_chemical_formula_sum   'Tb4 Fe1 Os6 W1'
_cell_volume   219.12845892
_cell_formula_units_Z   1
loop_
 _symmetry_equiv_pos_site_id
 _symmetry_equiv_pos_as_xyz
  1  'x, y, z'
loop_
 _atom_site_type_symbol
 _atom_site_label
 _atom_site_symmetry_multiplicity
 _atom_site_fract_x
 _atom_site_fract_y
 _atom_site_fract_z
 _atom_site_occupancy
  Tb  Tb0  1  0.327432  0.672568  0.439832  1
  Tb  Tb1  1  0.667431  0.332569  0.566776  1
  Tb  Tb2  1  0.667431  0.332569  0.933224  1
  Tb  Tb3  1  0.327432  0.672568  0.060168  1
  Fe  Fe4  1  0.169140  0.830860  0.750000  1
  Os  Os5  1  0.994645  0.005355  0.504908  1
  Os  Os6  1  0.994645  0.005355  0.995092  1
  Os  Os7  1  0.824275  0.648276  0.250000  1
  Os  Os8  1  0.351724  0.175725  0.250000  1
  Os  Os9  1  0.178519  0.343313  0.750000  1
  Os  Os10  1  0.656687  0.821481  0.750000  1
  W  W11  1  0.840641  0.159359  0.250000  1
