# generated using pymatgen
data_PrNp5O12
_symmetry_space_group_name_H-M   'P 1'
_cell_length_a   6.64017026
_cell_length_b   6.64017010
_cell_length_c   6.65213734
_cell_angle_alpha   80.43022380
_cell_angle_beta   80.43021255
_cell_angle_gamma   120.02747040
_symmetry_Int_Tables_number   1
_chemical_formula_structural   PrNp5O12
_chemical_formula_sum   'Pr1 Np5 O12'
_cell_volume   239.47887535
_cell_formula_units_Z   1
loop_
 _symmetry_equiv_pos_site_id
 _symmetry_equiv_pos_as_xyz
  1  'x, y, z'
loop_
 _atom_site_type_symbol
 _atom_site_label
 _atom_site_symmetry_multiplicity
 _atom_site_fract_x
 _atom_site_fract_y
 _atom_site_fract_z
 _atom_site_occupancy
  Pr  Pr0  1  0.500000  0.500000  0.500000  1
  Np  Np1  1  0.833165  0.166835  0.500000  1
  Np  Np2  1  0.166835  0.833165  0.500000  1
  Np  Np3  1  0.667384  0.332616  0.000000  1
  Np  Np4  1  0.000000  0.000000  0.000000  1
  Np  Np5  1  0.332616  0.667384  0.000000  1
  O  O6  1  0.108624  0.108624  0.633283  1
  O  O7  1  0.707183  0.042862  0.878376  1
  O  O8  1  0.957138  0.292817  0.121624  1
  O  O9  1  0.367022  0.367022  0.890936  1
  O  O10  1  0.042862  0.707183  0.878376  1
  O  O11  1  0.543348  0.197433  0.367097  1
  O  O12  1  0.891376  0.891376  0.366717  1
  O  O13  1  0.456652  0.802567  0.632903  1
  O  O14  1  0.632978  0.632978  0.109064  1
  O  O15  1  0.292817  0.957138  0.121624  1
  O  O16  1  0.802567  0.456652  0.632903  1
  O  O17  1  0.197433  0.543348  0.367097  1
