# generated using pymatgen
data_Cs14Fe3Co5S16
_symmetry_space_group_name_H-M   'P 1'
_cell_length_a   10.50142475
_cell_length_b   10.50806913
_cell_length_c   16.93774569
_cell_angle_alpha   64.59822731
_cell_angle_beta   64.69633413
_cell_angle_gamma   48.68842552
_symmetry_Int_Tables_number   1
_chemical_formula_structural   Cs14Fe3Co5S16
_chemical_formula_sum   'Cs14 Fe3 Co5 S16'
_cell_volume   1239.20715200
_cell_formula_units_Z   1
loop_
 _symmetry_equiv_pos_site_id
 _symmetry_equiv_pos_as_xyz
  1  'x, y, z'
loop_
 _atom_site_type_symbol
 _atom_site_label
 _atom_site_symmetry_multiplicity
 _atom_site_fract_x
 _atom_site_fract_y
 _atom_site_fract_z
 _atom_site_occupancy
  Cs  Cs0  1  0.231228  0.769462  0.750866  1
  Cs  Cs1  1  0.770929  0.229779  0.249439  1
  Cs  Cs2  1  0.245961  0.745405  0.987513  1
  Cs  Cs3  1  0.252999  0.754658  0.512070  1
  Cs  Cs4  1  0.754822  0.254615  0.010238  1
  Cs  Cs5  1  0.745328  0.244899  0.489180  1
  Cs  Cs6  1  0.000703  0.524065  0.610538  1
  Cs  Cs7  1  0.473180  0.001027  0.890238  1
  Cs  Cs8  1  0.996280  0.477334  0.391169  1
  Cs  Cs9  1  0.526258  0.001567  0.108294  1
  Cs  Cs10  1  0.008006  0.506942  0.863043  1
  Cs  Cs11  1  0.491545  0.990187  0.638472  1
  Cs  Cs12  1  0.990961  0.493467  0.137148  1
  Cs  Cs13  1  0.509342  0.006626  0.363339  1
  Fe  Fe14  1  0.785921  0.102178  0.722716  1
  Fe  Fe15  1  0.099633  0.786510  0.223444  1
  Fe  Fe16  1  0.211892  0.899757  0.278607  1
  Co  Co17  1  0.680767  0.431972  0.667126  1
  Co  Co18  1  0.566797  0.321843  0.833900  1
  Co  Co19  1  0.324226  0.560619  0.335633  1
  Co  Co20  1  0.437610  0.678871  0.163173  1
  Co  Co21  1  0.893586  0.217170  0.776643  1
  S  S22  1  0.659895  0.488839  0.786345  1
  S  S23  1  0.507871  0.344952  0.711646  1
  S  S24  1  0.348819  0.511108  0.208625  1
  S  S25  1  0.494432  0.656530  0.283142  1
  S  S26  1  0.954928  0.200697  0.634821  1
  S  S27  1  0.802758  0.044057  0.867068  1
  S  S28  1  0.036094  0.803531  0.371048  1
  S  S29  1  0.206476  0.949817  0.132131  1
  S  S30  1  0.663560  0.610649  0.051072  1
  S  S31  1  0.387308  0.336386  0.449889  1
  S  S32  1  0.338184  0.388661  0.947517  1
  S  S33  1  0.611329  0.658838  0.554003  1
  S  S34  1  0.862041  0.877158  0.685624  1
  S  S35  1  0.119124  0.138318  0.814066  1
  S  S36  1  0.136160  0.126964  0.315365  1
  S  S37  1  0.873046  0.864543  0.184848  1
