# generated using pymatgen
data_HoEr7Tm8(Ga3Co)2
_symmetry_space_group_name_H-M   'P 1'
_cell_length_a   9.87956100
_cell_length_b   9.87956005
_cell_length_c   6.87396200
_cell_angle_alpha   90.00000000
_cell_angle_beta   90.00000000
_cell_angle_gamma   119.99999982
_symmetry_Int_Tables_number   1
_chemical_formula_structural   HoEr7Tm8(Ga3Co)2
_chemical_formula_sum   'Ho1 Er7 Tm8 Ga6 Co2'
_cell_volume   581.04933969
_cell_formula_units_Z   1
loop_
 _symmetry_equiv_pos_site_id
 _symmetry_equiv_pos_as_xyz
  1  'x, y, z'
loop_
 _atom_site_type_symbol
 _atom_site_label
 _atom_site_symmetry_multiplicity
 _atom_site_fract_x
 _atom_site_fract_y
 _atom_site_fract_z
 _atom_site_occupancy
  Ho  Ho0  1  0.000000  0.000000  0.731240  1
  Er  Er1  1  0.463736  0.536264  0.207961  1
  Er  Er2  1  0.072527  0.536264  0.207961  1
  Er  Er3  1  0.463736  0.927473  0.207961  1
  Er  Er4  1  0.536250  0.463750  0.707961  1
  Er  Er5  1  0.927501  0.463750  0.707961  1
  Er  Er6  1  0.536250  0.072499  0.707961  1
  Er  Er7  1  0.000000  0.000000  0.231492  1
  Tm  Tm8  1  0.173489  0.826511  0.511046  1
  Tm  Tm9  1  0.653020  0.826511  0.511046  1
  Tm  Tm10  1  0.173489  0.346980  0.511046  1
  Tm  Tm11  1  0.826525  0.173475  0.011294  1
  Tm  Tm12  1  0.346951  0.173475  0.011294  1
  Tm  Tm13  1  0.826525  0.653049  0.011294  1
  Tm  Tm14  1  0.333333  0.666667  0.827257  1
  Tm  Tm15  1  0.666667  0.333333  0.327222  1
  Ga  Ga16  1  0.163518  0.836482  0.958868  1
  Ga  Ga17  1  0.672963  0.836482  0.958868  1
  Ga  Ga18  1  0.163518  0.327037  0.958868  1
  Ga  Ga19  1  0.836498  0.163502  0.458544  1
  Ga  Ga20  1  0.327005  0.163502  0.458544  1
  Ga  Ga21  1  0.836498  0.672995  0.458544  1
  Co  Co22  1  0.333333  0.666667  0.445002  1
  Co  Co23  1  0.666667  0.333333  0.944811  1
