# generated using pymatgen
data_Ho8Ta11Si16Tc
_symmetry_space_group_name_H-M   'P 1'
_cell_length_a   7.00911823
_cell_length_b   6.99925195
_cell_length_c   12.96620289
_cell_angle_alpha   90.02832298
_cell_angle_beta   89.83823682
_cell_angle_gamma   89.90886334
_symmetry_Int_Tables_number   1
_chemical_formula_structural   Ho8Ta11Si16Tc
_chemical_formula_sum   'Ho8 Ta11 Si16 Tc1'
_cell_volume   636.10014071
_cell_formula_units_Z   1
loop_
 _symmetry_equiv_pos_site_id
 _symmetry_equiv_pos_as_xyz
  1  'x, y, z'
loop_
 _atom_site_type_symbol
 _atom_site_label
 _atom_site_symmetry_multiplicity
 _atom_site_fract_x
 _atom_site_fract_y
 _atom_site_fract_z
 _atom_site_occupancy
  Ho  Ho0  1  0.341597  0.002191  0.470064  1
  Ho  Ho1  1  0.499776  0.841013  0.717649  1
  Ho  Ho2  1  0.502416  0.159076  0.218012  1
  Ho  Ho3  1  0.841623  0.498169  0.282875  1
  Ho  Ho4  1  0.157863  0.502874  0.780720  1
  Ho  Ho5  1  0.659258  0.997065  0.967159  1
  Ho  Ho6  1  0.002328  0.341509  0.532258  1
  Ho  Ho7  1  0.998250  0.658959  0.031221  1
  Ta  Ta8  1  0.329269  0.329491  0.000347  1
  Ta  Ta9  1  0.171459  0.828435  0.250768  1
  Ta  Ta10  1  0.828795  0.173381  0.750219  1
  Ta  Ta11  1  0.669100  0.671618  0.499583  1
  Ta  Ta12  1  0.153284  0.005867  0.873647  1
  Ta  Ta13  1  0.493204  0.653877  0.123678  1
  Ta  Ta14  1  0.506885  0.345919  0.624121  1
  Ta  Ta15  1  0.655294  0.494612  0.874742  1
  Ta  Ta16  1  0.343649  0.510025  0.377133  1
  Ta  Ta17  1  0.846173  0.993508  0.373682  1
  Ta  Ta18  1  0.007031  0.153933  0.125467  1
  Si  Si19  1  0.198716  0.127767  0.682082  1
  Si  Si20  1  0.365743  0.702979  0.931349  1
  Si  Si21  1  0.632411  0.295469  0.433121  1
  Si  Si22  1  0.705111  0.366480  0.067694  1
  Si  Si23  1  0.293171  0.634259  0.569143  1
  Si  Si24  1  0.797134  0.865499  0.182156  1
  Si  Si25  1  0.134646  0.202845  0.318501  1
  Si  Si26  1  0.867282  0.798476  0.815710  1
  Si  Si27  1  0.294976  0.955233  0.063626  1
  Si  Si28  1  0.544739  0.794561  0.313504  1
  Si  Si29  1  0.453944  0.206699  0.813297  1
  Si  Si30  1  0.794983  0.547856  0.684825  1
  Si  Si31  1  0.204840  0.455855  0.186342  1
  Si  Si32  1  0.712900  0.041238  0.563795  1
  Si  Si33  1  0.955207  0.294176  0.936392  1
  Si  Si34  1  0.041761  0.707475  0.439036  1
  Tc  Tc35  1  0.995185  0.841613  0.626079  1
