# generated using pymatgen
data_Y8Sn(PdPt5)4
_symmetry_space_group_name_H-M   'P 1'
_cell_length_a   8.42501400
_cell_length_b   8.43559500
_cell_length_c   8.44635500
_cell_angle_alpha   90.00362469
_cell_angle_beta   90.00000000
_cell_angle_gamma   90.00000000
_symmetry_Int_Tables_number   1
_chemical_formula_structural   Y8Sn(PdPt5)4
_chemical_formula_sum   'Y8 Sn1 Pd4 Pt20'
_cell_volume   600.28249970
_cell_formula_units_Z   1
loop_
 _symmetry_equiv_pos_site_id
 _symmetry_equiv_pos_as_xyz
  1  'x, y, z'
loop_
 _atom_site_type_symbol
 _atom_site_label
 _atom_site_symmetry_multiplicity
 _atom_site_fract_x
 _atom_site_fract_y
 _atom_site_fract_z
 _atom_site_occupancy
  Y  Y0  1  0.250499  0.250570  0.250853  1
  Y  Y1  1  0.749169  0.749436  0.749112  1
  Y  Y2  1  0.749753  0.749501  0.250818  1
  Y  Y3  1  0.748933  0.250625  0.749096  1
  Y  Y4  1  0.251067  0.250625  0.749096  1
  Y  Y5  1  0.250247  0.749501  0.250818  1
  Y  Y6  1  0.250831  0.749436  0.749112  1
  Y  Y7  1  0.749501  0.250570  0.250853  1
  Sn  Sn8  1  0.000000  0.000370  0.000499  1
  Pd  Pd9  1  0.000000  0.499981  0.733135  1
  Pd  Pd10  1  0.500000  0.743763  0.500009  1
  Pd  Pd11  1  0.500000  0.499933  0.255755  1
  Pd  Pd12  1  0.500000  0.499935  0.743927  1
  Pt  Pt13  1  0.267291  0.500045  0.999846  1
  Pt  Pt14  1  0.732709  0.500045  0.999846  1
  Pt  Pt15  1  0.000000  0.267311  0.500183  1
  Pt  Pt16  1  0.500000  0.267903  0.000012  1
  Pt  Pt17  1  0.000000  0.732131  0.500239  1
  Pt  Pt18  1  0.500000  0.731901  0.000044  1
  Pt  Pt19  1  0.500000  0.000098  0.267300  1
  Pt  Pt20  1  0.267530  0.000354  0.500051  1
  Pt  Pt21  1  0.500000  0.000072  0.732946  1
  Pt  Pt22  1  0.732470  0.000354  0.500051  1
  Pt  Pt23  1  0.000000  0.499998  0.266917  1
  Pt  Pt24  1  0.255533  0.499483  0.499867  1
  Pt  Pt25  1  0.744467  0.499483  0.499867  1
  Pt  Pt26  1  0.500000  0.256318  0.499994  1
  Pt  Pt27  1  0.314269  0.999917  0.999981  1
  Pt  Pt28  1  0.685731  0.999917  0.999981  1
  Pt  Pt29  1  0.000000  0.313842  0.999774  1
  Pt  Pt30  1  0.000000  0.686762  0.999742  1
  Pt  Pt31  1  0.000000  0.999896  0.312989  1
  Pt  Pt32  1  0.000000  0.999925  0.687284  1
