# generated using pymatgen
data_Zr5Fe16(CoP4)3
_symmetry_space_group_name_H-M   'P 1'
_cell_length_a   11.78920307
_cell_length_b   11.79820084
_cell_length_c   3.64077000
_cell_angle_alpha   90.00000000
_cell_angle_beta   90.00000000
_cell_angle_gamma   119.96210230
_symmetry_Int_Tables_number   1
_chemical_formula_structural   Zr5Fe16(CoP4)3
_chemical_formula_sum   'Zr5 Fe16 Co3 P12'
_cell_volume   438.72242329
_cell_formula_units_Z   1
loop_
 _symmetry_equiv_pos_site_id
 _symmetry_equiv_pos_as_xyz
  1  'x, y, z'
loop_
 _atom_site_type_symbol
 _atom_site_label
 _atom_site_symmetry_multiplicity
 _atom_site_fract_x
 _atom_site_fract_y
 _atom_site_fract_z
 _atom_site_occupancy
  Zr  Zr0  1  0.333956  0.665938  0.500000  1
  Zr  Zr1  1  0.665592  0.334281  0.500000  1
  Zr  Zr2  1  0.812248  0.999934  0.000000  1
  Zr  Zr3  1  0.000413  0.811856  0.000000  1
  Zr  Zr4  1  0.188217  0.188503  0.000000  1
  Fe  Fe5  1  0.623737  0.802604  0.500000  1
  Fe  Fe6  1  0.198343  0.820929  0.500000  1
  Fe  Fe7  1  0.179114  0.376770  0.500000  1
  Fe  Fe8  1  0.376901  0.180111  0.500000  1
  Fe  Fe9  1  0.803902  0.621644  0.500000  1
  Fe  Fe10  1  0.817612  0.196751  0.500000  1
  Fe  Fe11  1  0.282913  0.999840  0.000000  1
  Fe  Fe12  1  0.998799  0.282775  0.000000  1
  Fe  Fe13  1  0.718255  0.717094  0.000000  1
  Fe  Fe14  1  0.445478  0.002244  0.500000  1
  Fe  Fe15  1  0.997666  0.443470  0.500000  1
  Fe  Fe16  1  0.556858  0.556463  0.500000  1
  Fe  Fe17  1  0.514966  0.875160  0.000000  1
  Fe  Fe18  1  0.124865  0.639193  0.000000  1
  Fe  Fe19  1  0.361401  0.485018  0.000000  1
  Fe  Fe20  1  0.485361  0.361063  0.000000  1
  Co  Co21  1  0.874885  0.513514  0.000000  1
  Co  Co22  1  0.637993  0.124711  0.000000  1
  Co  Co23  1  0.000082  0.000428  0.500000  1
  P  P24  1  0.180293  0.000092  0.500000  1
  P  P25  1  0.999130  0.180367  0.500000  1
  P  P26  1  0.820502  0.819395  0.500000  1
  P  P27  1  0.520297  0.687121  0.000000  1
  P  P28  1  0.312814  0.831947  0.000000  1
  P  P29  1  0.167643  0.479945  0.000000  1
  P  P30  1  0.478794  0.167822  0.000000  1
  P  P31  1  0.686269  0.520278  0.000000  1
  P  P32  1  0.831860  0.312047  0.000000  1
  P  P33  1  0.632211  0.997528  0.500000  1
  P  P34  1  0.002514  0.634534  0.500000  1
  P  P35  1  0.368118  0.368629  0.500000  1
