# generated using pymatgen
data_Dy4Fe15P12Ru5
_symmetry_space_group_name_H-M   'P 1'
_cell_length_a   3.72175000
_cell_length_b   10.39701914
_cell_length_c   11.85348426
_cell_angle_alpha   90.05323903
_cell_angle_beta   90.00000000
_cell_angle_gamma   90.00000000
_symmetry_Int_Tables_number   1
_chemical_formula_structural   Dy4Fe15P12Ru5
_chemical_formula_sum   'Dy4 Fe15 P12 Ru5'
_cell_volume   458.67163168
_cell_formula_units_Z   1
loop_
 _symmetry_equiv_pos_site_id
 _symmetry_equiv_pos_as_xyz
  1  'x, y, z'
loop_
 _atom_site_type_symbol
 _atom_site_label
 _atom_site_symmetry_multiplicity
 _atom_site_fract_x
 _atom_site_fract_y
 _atom_site_fract_z
 _atom_site_occupancy
  Dy  Dy0  1  0.250000  0.583130  0.705588  1
  Dy  Dy1  1  0.250000  0.919223  0.203964  1
  Dy  Dy2  1  0.750000  0.416982  0.291495  1
  Dy  Dy3  1  0.750000  0.082186  0.796645  1
  Fe  Fe4  1  0.250000  0.094750  0.989629  1
  Fe  Fe5  1  0.750000  0.597680  0.511104  1
  Fe  Fe6  1  0.750000  0.905742  0.010394  1
  Fe  Fe7  1  0.250000  0.220980  0.172487  1
  Fe  Fe8  1  0.250000  0.277328  0.678831  1
  Fe  Fe9  1  0.750000  0.782039  0.824533  1
  Fe  Fe10  1  0.750000  0.721152  0.324132  1
  Fe  Fe11  1  0.250000  0.876806  0.704617  1
  Fe  Fe12  1  0.250000  0.623695  0.201279  1
  Fe  Fe13  1  0.750000  0.118994  0.297306  1
  Fe  Fe14  1  0.750000  0.378304  0.798597  1
  Fe  Fe15  1  0.250000  0.463130  0.932952  1
  Fe  Fe16  1  0.250000  0.035855  0.434137  1
  Fe  Fe17  1  0.750000  0.538279  0.066887  1
  Fe  Fe18  1  0.750000  0.961184  0.567973  1
  P  P19  1  0.250000  0.424600  0.113351  1
  P  P20  1  0.250000  0.074936  0.614568  1
  P  P21  1  0.750000  0.575912  0.886252  1
  P  P22  1  0.750000  0.925138  0.385830  1
  P  P23  1  0.250000  0.266793  0.868946  1
  P  P24  1  0.250000  0.226233  0.360721  1
  P  P25  1  0.750000  0.733758  0.132523  1
  P  P26  1  0.750000  0.766267  0.632173  1
  P  P27  1  0.250000  0.602477  0.390409  1
  P  P28  1  0.250000  0.905018  0.896285  1
  P  P29  1  0.750000  0.400867  0.610334  1
  P  P30  1  0.750000  0.097507  0.106788  1
  Ru  Ru31  1  0.250000  0.708019  0.986863  1
  Ru  Ru32  1  0.250000  0.793553  0.488514  1
  Ru  Ru33  1  0.750000  0.292515  0.011970  1
  Ru  Ru34  1  0.750000  0.203217  0.514832  1
  Ru  Ru35  1  0.250000  0.405752  0.487091  1
