# generated using pymatgen
data_SrCdHgPd
_symmetry_space_group_name_H-M   'P 1'
_cell_length_a   5.83607996
_cell_length_b   5.83608033
_cell_length_c   8.15109401
_cell_angle_alpha   89.43197864
_cell_angle_beta   90.56801927
_cell_angle_gamma   134.28376451
_symmetry_Int_Tables_number   1
_chemical_formula_structural   SrCdHgPd
_chemical_formula_sum   'Sr2 Cd2 Hg2 Pd2'
_cell_volume   198.73754815
_cell_formula_units_Z   2
loop_
 _symmetry_equiv_pos_site_id
 _symmetry_equiv_pos_as_xyz
  1  'x, y, z'
loop_
 _atom_site_type_symbol
 _atom_site_label
 _atom_site_symmetry_multiplicity
 _atom_site_fract_x
 _atom_site_fract_y
 _atom_site_fract_z
 _atom_site_occupancy
  Sr  Sr0  1  0.934804  0.065196  0.257879  1
  Sr  Sr1  1  0.065196  0.934804  0.742121  1
  Cd  Cd2  1  0.645634  0.354366  0.052742  1
  Cd  Cd3  1  0.354366  0.645634  0.947258  1
  Hg  Hg4  1  0.642855  0.357145  0.444964  1
  Hg  Hg5  1  0.357145  0.642855  0.555036  1
  Pd  Pd6  1  0.220978  0.779022  0.244642  1
  Pd  Pd7  1  0.779022  0.220978  0.755358  1
