# generated using pymatgen
data_Pr3(AlSi)2
_symmetry_space_group_name_H-M   'P 1'
_cell_length_a   4.12195058
_cell_length_b   4.45547112
_cell_length_c   9.91229308
_cell_angle_alpha   102.98785856
_cell_angle_beta   102.00056193
_cell_angle_gamma   90.00000336
_symmetry_Int_Tables_number   1
_chemical_formula_structural   Pr3(AlSi)2
_chemical_formula_sum   'Pr3 Al2 Si2'
_cell_volume   173.29922493
_cell_formula_units_Z   1
loop_
 _symmetry_equiv_pos_site_id
 _symmetry_equiv_pos_as_xyz
  1  'x, y, z'
loop_
 _atom_site_type_symbol
 _atom_site_label
 _atom_site_symmetry_multiplicity
 _atom_site_fract_x
 _atom_site_fract_y
 _atom_site_fract_z
 _atom_site_occupancy
  Pr  Pr0  1  0.500001  0.000000  0.000000  1
  Pr  Pr1  1  0.185943  0.185942  0.371884  1
  Pr  Pr2  1  0.814058  0.814057  0.628116  1
  Al  Al3  1  0.067535  0.567534  0.135070  1
  Al  Al4  1  0.932466  0.432465  0.864930  1
  Si  Si5  1  0.643872  0.643870  0.287743  1
  Si  Si6  1  0.356129  0.356129  0.712257  1
