# generated using pymatgen
data_CuP4Se4Br
_symmetry_space_group_name_H-M   'P 1'
_cell_length_a   9.84329400
_cell_length_b   9.84329381
_cell_length_c   12.60994600
_cell_angle_alpha   90.00022119
_cell_angle_beta   90.00022119
_cell_angle_gamma   98.59912684
_symmetry_Int_Tables_number   1
_chemical_formula_structural   CuP4Se4Br
_chemical_formula_sum   'Cu4 P16 Se16 Br4'
_cell_volume   1208.04867249
_cell_formula_units_Z   4
loop_
 _symmetry_equiv_pos_site_id
 _symmetry_equiv_pos_as_xyz
  1  'x, y, z'
loop_
 _atom_site_type_symbol
 _atom_site_label
 _atom_site_symmetry_multiplicity
 _atom_site_fract_x
 _atom_site_fract_y
 _atom_site_fract_z
 _atom_site_occupancy
  Cu  Cu0  1  0.900652  0.099360  0.500007  1
  Cu  Cu1  1  0.599343  0.400647  0.999999  1
  Cu  Cu2  1  0.400647  0.599343  0.999999  1
  Cu  Cu3  1  0.099360  0.900652  0.500007  1
  P  P4  1  0.356450  0.721795  0.144974  1
  P  P5  1  0.856459  0.221797  0.355027  1
  P  P6  1  0.221797  0.856459  0.355027  1
  P  P7  1  0.035745  0.253801  0.245390  1
  P  P8  1  0.778207  0.143548  0.644972  1
  P  P9  1  0.746211  0.964267  0.754612  1
  P  P10  1  0.643547  0.278211  0.855023  1
  P  P11  1  0.278211  0.643547  0.855023  1
  P  P12  1  0.964267  0.746211  0.754612  1
  P  P13  1  0.464265  0.246210  0.745396  1
  P  P14  1  0.721795  0.356450  0.144974  1
  P  P15  1  0.246210  0.464265  0.745396  1
  P  P16  1  0.535735  0.753789  0.254603  1
  P  P17  1  0.253801  0.035745  0.245390  1
  P  P18  1  0.753789  0.535735  0.254603  1
  P  P19  1  0.143548  0.778207  0.644972  1
  Se  Se20  1  0.832355  0.332371  0.750002  1
  Se  Se21  1  0.667652  0.167637  0.249988  1
  Se  Se22  1  0.469423  0.469423  0.690324  1
  Se  Se23  1  0.647741  0.053769  0.899682  1
  Se  Se24  1  0.053769  0.647741  0.899682  1
  Se  Se25  1  0.530574  0.530574  0.309674  1
  Se  Se26  1  0.332371  0.832355  0.750002  1
  Se  Se27  1  0.167637  0.667652  0.249988  1
  Se  Se28  1  0.969427  0.969427  0.809678  1
  Se  Se29  1  0.446236  0.852239  0.399682  1
  Se  Se30  1  0.946240  0.352263  0.100317  1
  Se  Se31  1  0.147742  0.553758  0.600320  1
  Se  Se32  1  0.030585  0.030585  0.190330  1
  Se  Se33  1  0.352263  0.946240  0.100317  1
  Se  Se34  1  0.553758  0.147742  0.600320  1
  Se  Se35  1  0.852239  0.446236  0.399682  1
  Br  Br36  1  0.846319  0.846319  0.476762  1
  Br  Br37  1  0.153686  0.153686  0.523247  1
  Br  Br38  1  0.346325  0.346325  0.023226  1
  Br  Br39  1  0.653674  0.653674  0.976776  1
