# generated using pymatgen
data_Y4TmNb3(Ni4As3)4
_symmetry_space_group_name_H-M   'P 1'
_cell_length_a   12.71863028
_cell_length_b   12.71862952
_cell_length_c   3.90119800
_cell_angle_alpha   90.00000000
_cell_angle_beta   90.00000000
_cell_angle_gamma   120.02424992
_symmetry_Int_Tables_number   1
_chemical_formula_structural   Y4TmNb3(Ni4As3)4
_chemical_formula_sum   'Y4 Tm1 Nb3 Ni16 As12'
_cell_volume   546.39046193
_cell_formula_units_Z   1
loop_
 _symmetry_equiv_pos_site_id
 _symmetry_equiv_pos_as_xyz
  1  'x, y, z'
loop_
 _atom_site_type_symbol
 _atom_site_label
 _atom_site_symmetry_multiplicity
 _atom_site_fract_x
 _atom_site_fract_y
 _atom_site_fract_z
 _atom_site_occupancy
  Y  Y0  1  0.814692  0.000200  0.500000  1
  Y  Y1  1  0.000200  0.814692  0.500000  1
  Y  Y2  1  0.333209  0.666541  0.000000  1
  Y  Y3  1  0.666541  0.333209  0.000000  1
  Tm  Tm4  1  0.185625  0.185625  0.500000  1
  Nb  Nb5  1  0.561940  0.561940  0.000000  1
  Nb  Nb6  1  0.437625  0.000164  0.000000  1
  Nb  Nb7  1  0.000164  0.437625  0.000000  1
  Ni  Ni8  1  0.720884  0.720884  0.500000  1
  Ni  Ni9  1  0.278837  0.000380  0.500000  1
  Ni  Ni10  1  0.000380  0.278837  0.500000  1
  Ni  Ni11  1  0.182177  0.374598  0.000000  1
  Ni  Ni12  1  0.624577  0.806680  0.000000  1
  Ni  Ni13  1  0.193285  0.817956  0.000000  1
  Ni  Ni14  1  0.806680  0.624577  0.000000  1
  Ni  Ni15  1  0.817956  0.193285  0.000000  1
  Ni  Ni16  1  0.374598  0.182177  0.000000  1
  Ni  Ni17  1  0.361003  0.482980  0.500000  1
  Ni  Ni18  1  0.516774  0.877996  0.500000  1
  Ni  Ni19  1  0.121963  0.638781  0.500000  1
  Ni  Ni20  1  0.877996  0.516774  0.500000  1
  Ni  Ni21  1  0.638781  0.121963  0.500000  1
  Ni  Ni22  1  0.482980  0.361003  0.500000  1
  Ni  Ni23  1  0.000600  0.000600  0.000000  1
  As  As24  1  0.822199  0.822199  0.000000  1
  As  As25  1  0.178230  0.000868  0.000000  1
  As  As26  1  0.000868  0.178230  0.000000  1
  As  As27  1  0.169115  0.479984  0.500000  1
  As  As28  1  0.520055  0.689191  0.500000  1
  As  As29  1  0.310755  0.830974  0.500000  1
  As  As30  1  0.689191  0.520055  0.500000  1
  As  As31  1  0.830974  0.310755  0.500000  1
  As  As32  1  0.479984  0.169115  0.500000  1
  As  As33  1  0.360271  0.360271  0.000000  1
  As  As34  1  0.638803  0.000087  0.000000  1
  As  As35  1  0.000087  0.638803  0.000000  1
