# generated using pymatgen
data_La8Er2(GaSn)3
_symmetry_space_group_name_H-M   'P 1'
_cell_length_a   9.25102169
_cell_length_b   9.25101104
_cell_length_c   9.34243279
_cell_angle_alpha   96.63609365
_cell_angle_beta   96.63472042
_cell_angle_gamma   140.05028780
_symmetry_Int_Tables_number   1
_chemical_formula_structural   La8Er2(GaSn)3
_chemical_formula_sum   'La8 Er2 Ga3 Sn3'
_cell_volume   483.13249097
_cell_formula_units_Z   1
loop_
 _symmetry_equiv_pos_site_id
 _symmetry_equiv_pos_as_xyz
  1  'x, y, z'
loop_
 _atom_site_type_symbol
 _atom_site_label
 _atom_site_symmetry_multiplicity
 _atom_site_fract_x
 _atom_site_fract_y
 _atom_site_fract_z
 _atom_site_occupancy
  La  La0  1  0.913501  0.217831  0.131351  1
  La  La1  1  0.218886  0.087907  0.306800  1
  La  La2  1  0.785523  0.907776  0.693301  1
  La  La3  1  0.084538  0.781639  0.866166  1
  La  La4  1  0.718376  0.415472  0.133840  1
  La  La5  1  0.282157  0.586501  0.868646  1
  La  La6  1  0.592231  0.714485  0.306699  1
  La  La7  1  0.412091  0.281108  0.693193  1
  Er  Er8  1  0.746201  0.255697  0.500001  1
  Er  Er9  1  0.244298  0.753801  0.500002  1
  Ga  Ga10  1  0.750117  0.749878  0.999996  1
  Ga  Ga11  1  0.250106  0.249894  0.999997  1
  Ga  Ga12  1  0.847651  0.652348  0.499996  1
  Sn  Sn13  1  0.655409  0.153169  0.808581  1
  Sn  Sn14  1  0.346828  0.844582  0.191430  1
  Sn  Sn15  1  0.152087  0.347911  0.500001  1
