# generated using pymatgen
data_Nb8CdNiS16
_symmetry_space_group_name_H-M   'P 1'
_cell_length_a   6.75452800
_cell_length_b   6.75452901
_cell_length_c   12.80733700
_cell_angle_alpha   90.00000000
_cell_angle_beta   90.00000000
_cell_angle_gamma   119.99999507
_symmetry_Int_Tables_number   1
_chemical_formula_structural   Nb8CdNiS16
_chemical_formula_sum   'Nb8 Cd1 Ni1 S16'
_cell_volume   506.03384872
_cell_formula_units_Z   1
loop_
 _symmetry_equiv_pos_site_id
 _symmetry_equiv_pos_as_xyz
  1  'x, y, z'
loop_
 _atom_site_type_symbol
 _atom_site_label
 _atom_site_symmetry_multiplicity
 _atom_site_fract_x
 _atom_site_fract_y
 _atom_site_fract_z
 _atom_site_occupancy
  Nb  Nb0  1  0.000000  0.000000  0.230897  1
  Nb  Nb1  1  0.000000  0.000000  0.769103  1
  Nb  Nb2  1  0.504161  0.008322  0.231006  1
  Nb  Nb3  1  0.991678  0.495839  0.231006  1
  Nb  Nb4  1  0.504161  0.495839  0.231006  1
  Nb  Nb5  1  0.495839  0.991678  0.768994  1
  Nb  Nb6  1  0.008322  0.504161  0.768994  1
  Nb  Nb7  1  0.495839  0.504161  0.768994  1
  Cd  Cd8  1  0.000000  0.000000  0.500000  1
  Ni  Ni9  1  0.000000  0.000000  0.000000  1
  S  S10  1  0.333333  0.666667  0.891339  1
  S  S11  1  0.666667  0.333333  0.108661  1
  S  S12  1  0.666667  0.333333  0.355444  1
  S  S13  1  0.333333  0.666667  0.644556  1
  S  S14  1  0.168172  0.831828  0.353080  1
  S  S15  1  0.168172  0.336344  0.353080  1
  S  S16  1  0.663656  0.831828  0.353080  1
  S  S17  1  0.831828  0.168172  0.646920  1
  S  S18  1  0.831828  0.663656  0.646920  1
  S  S19  1  0.336344  0.168172  0.646920  1
  S  S20  1  0.833047  0.166953  0.888845  1
  S  S21  1  0.833047  0.666094  0.888845  1
  S  S22  1  0.333906  0.166953  0.888845  1
  S  S23  1  0.166953  0.833047  0.111155  1
  S  S24  1  0.166953  0.333906  0.111155  1
  S  S25  1  0.666094  0.833047  0.111155  1
