# generated using pymatgen
data_Nb12V3Co8ReC4
_symmetry_space_group_name_H-M   'P 1'
_cell_length_a   8.17067074
_cell_length_b   8.10121729
_cell_length_c   8.10121700
_cell_angle_alpha   59.99999711
_cell_angle_beta   60.28078988
_cell_angle_gamma   60.28078863
_symmetry_Int_Tables_number   1
_chemical_formula_structural   Nb12V3Co8ReC4
_chemical_formula_sum   'Nb12 V3 Co8 Re1 C4'
_cell_volume   380.77942237
_cell_formula_units_Z   1
loop_
 _symmetry_equiv_pos_site_id
 _symmetry_equiv_pos_as_xyz
  1  'x, y, z'
loop_
 _atom_site_type_symbol
 _atom_site_label
 _atom_site_symmetry_multiplicity
 _atom_site_fract_x
 _atom_site_fract_y
 _atom_site_fract_z
 _atom_site_occupancy
  Nb  Nb0  1  0.693056  0.306127  0.694690  1
  Nb  Nb1  1  0.942475  0.557376  0.557376  1
  Nb  Nb2  1  0.556944  0.943873  0.943873  1
  Nb  Nb3  1  0.942475  0.557376  0.942774  1
  Nb  Nb4  1  0.556944  0.555310  0.943873  1
  Nb  Nb5  1  0.942475  0.942774  0.557376  1
  Nb  Nb6  1  0.693056  0.694690  0.306127  1
  Nb  Nb7  1  0.307525  0.692624  0.692624  1
  Nb  Nb8  1  0.693056  0.306127  0.306127  1
  Nb  Nb9  1  0.307525  0.307226  0.692624  1
  Nb  Nb10  1  0.556944  0.943873  0.555310  1
  Nb  Nb11  1  0.307525  0.692624  0.307226  1
  V  V12  1  0.125000  0.125000  0.125000  1
  V  V13  1  0.125000  0.625000  0.125000  1
  V  V14  1  0.125000  0.125000  0.625000  1
  Co  Co15  1  0.321208  0.329093  0.329093  1
  Co  Co16  1  0.229276  0.923574  0.923574  1
  Co  Co17  1  0.928792  0.229394  0.920907  1
  Co  Co18  1  0.928792  0.920907  0.229394  1
  Co  Co19  1  0.321208  0.020606  0.329093  1
  Co  Co20  1  0.321208  0.329093  0.020606  1
  Co  Co21  1  0.020724  0.326426  0.326426  1
  Co  Co22  1  0.928792  0.920907  0.920907  1
  Re  Re23  1  0.625000  0.125000  0.125000  1
  C  C24  1  0.625000  0.625000  0.625000  1
  C  C25  1  0.125000  0.625000  0.625000  1
  C  C26  1  0.625000  0.125000  0.625000  1
  C  C27  1  0.625000  0.625000  0.125000  1
