# generated using pymatgen
data_Ho5Sc5(In2Au)4
_symmetry_space_group_name_H-M   'P 1'
_cell_length_a   3.60134800
_cell_length_b   7.97367055
_cell_length_c   17.98557003
_cell_angle_alpha   89.92459828
_cell_angle_beta   90.00000000
_cell_angle_gamma   90.00000000
_symmetry_Int_Tables_number   1
_chemical_formula_structural   Ho5Sc5(In2Au)4
_chemical_formula_sum   'Ho5 Sc5 In8 Au4'
_cell_volume   516.47250688
_cell_formula_units_Z   1
loop_
 _symmetry_equiv_pos_site_id
 _symmetry_equiv_pos_as_xyz
  1  'x, y, z'
loop_
 _atom_site_type_symbol
 _atom_site_label
 _atom_site_symmetry_multiplicity
 _atom_site_fract_x
 _atom_site_fract_y
 _atom_site_fract_z
 _atom_site_occupancy
  Ho  Ho0  1  0.000000  0.000000  0.000000  1
  Ho  Ho1  1  0.000000  0.753690  0.783990  1
  Ho  Ho2  1  0.000000  0.246310  0.216010  1
  Ho  Ho3  1  0.000000  0.254999  0.713154  1
  Ho  Ho4  1  0.000000  0.745001  0.286846  1
  Sc  Sc5  1  0.000000  0.500000  0.500000  1
  Sc  Sc6  1  0.000000  0.875877  0.578733  1
  Sc  Sc7  1  0.000000  0.124123  0.421267  1
  Sc  Sc8  1  0.000000  0.374233  0.919439  1
  Sc  Sc9  1  0.000000  0.625767  0.080561  1
  In  In10  1  0.500000  0.797224  0.441430  1
  In  In11  1  0.500000  0.202776  0.558570  1
  In  In12  1  0.500000  0.307473  0.060224  1
  In  In13  1  0.500000  0.692527  0.939776  1
  In  In14  1  0.500000  0.921161  0.147703  1
  In  In15  1  0.500000  0.078839  0.852297  1
  In  In16  1  0.500000  0.422629  0.357433  1
  In  In17  1  0.500000  0.577371  0.642567  1
  Au  Au18  1  0.500000  0.960339  0.691687  1
  Au  Au19  1  0.500000  0.039661  0.308313  1
  Au  Au20  1  0.500000  0.460062  0.805812  1
  Au  Au21  1  0.500000  0.539938  0.194188  1
