# generated using pymatgen
data_Cs2AlH5
_symmetry_space_group_name_H-M   'P 1'
_cell_length_a   6.39860754
_cell_length_b   3.91479651
_cell_length_c   6.40069677
_cell_angle_alpha   89.81139013
_cell_angle_beta   89.66435511
_cell_angle_gamma   89.93342496
_symmetry_Int_Tables_number   1
_chemical_formula_structural   Cs2AlH5
_chemical_formula_sum   'Cs2 Al1 H5'
_cell_volume   160.32890644
_cell_formula_units_Z   1
loop_
 _symmetry_equiv_pos_site_id
 _symmetry_equiv_pos_as_xyz
  1  'x, y, z'
loop_
 _atom_site_type_symbol
 _atom_site_label
 _atom_site_symmetry_multiplicity
 _atom_site_fract_x
 _atom_site_fract_y
 _atom_site_fract_z
 _atom_site_occupancy
  Cs  Cs0  1  0.178891  0.094405  0.937120  1
  Cs  Cs1  1  0.678195  0.095130  0.436592  1
  Al  Al2  1  0.178015  0.594771  0.437142  1
  H  H3  1  0.178215  0.094662  0.437324  1
  H  H4  1  0.985232  0.593343  0.629947  1
  H  H5  1  0.986771  0.597492  0.245450  1
  H  H6  1  0.369867  0.592151  0.628790  1
  H  H7  1  0.371213  0.596106  0.244498  1
