# generated using pymatgen
data_La2NdIrO8
_symmetry_space_group_name_H-M   'P 1'
_cell_length_a   6.32329600
_cell_length_b   7.54862459
_cell_length_c   7.56727250
_cell_angle_alpha   69.95244570
_cell_angle_beta   90.00000000
_cell_angle_gamma   90.00000000
_symmetry_Int_Tables_number   1
_chemical_formula_structural   La2NdIrO8
_chemical_formula_sum   'La4 Nd2 Ir2 O16'
_cell_volume   339.31664531
_cell_formula_units_Z   2
loop_
 _symmetry_equiv_pos_site_id
 _symmetry_equiv_pos_as_xyz
  1  'x, y, z'
loop_
 _atom_site_type_symbol
 _atom_site_label
 _atom_site_symmetry_multiplicity
 _atom_site_fract_x
 _atom_site_fract_y
 _atom_site_fract_z
 _atom_site_occupancy
  La  La0  1  0.250000  0.396946  0.396279  1
  La  La1  1  0.750000  0.603054  0.603721  1
  La  La2  1  0.250000  0.330069  0.895048  1
  La  La3  1  0.750000  0.669931  0.104952  1
  Nd  Nd4  1  0.750000  0.107490  0.660306  1
  Nd  Nd5  1  0.250000  0.892510  0.339694  1
  Ir  Ir6  1  0.250000  0.817584  0.817931  1
  Ir  Ir7  1  0.750000  0.182416  0.182069  1
  O  O8  1  0.999220  0.332959  0.663847  1
  O  O9  1  0.499220  0.667041  0.336153  1
  O  O10  1  0.000780  0.667041  0.336153  1
  O  O11  1  0.500780  0.332959  0.663847  1
  O  O12  1  0.946891  0.811020  0.803955  1
  O  O13  1  0.446891  0.188980  0.196045  1
  O  O14  1  0.053109  0.188980  0.196045  1
  O  O15  1  0.553109  0.811020  0.803955  1
  O  O16  1  0.750000  0.965751  0.413406  1
  O  O17  1  0.250000  0.034249  0.586594  1
  O  O18  1  0.750000  0.339222  0.339090  1
  O  O19  1  0.250000  0.660778  0.660910  1
  O  O20  1  0.750000  0.413513  0.966414  1
  O  O21  1  0.250000  0.586487  0.033586  1
  O  O22  1  0.750000  0.034402  0.025067  1
  O  O23  1  0.250000  0.965598  0.974933  1
