# generated using pymatgen
data_CaTa4Cd3O14
_symmetry_space_group_name_H-M   'P 1'
_cell_length_a   7.40201832
_cell_length_b   7.48609780
_cell_length_c   7.40201800
_cell_angle_alpha   60.37084337
_cell_angle_beta   60.00000144
_cell_angle_gamma   60.37084036
_symmetry_Int_Tables_number   1
_chemical_formula_structural   CaTa4Cd3O14
_chemical_formula_sum   'Ca1 Ta4 Cd3 O14'
_cell_volume   291.64365214
_cell_formula_units_Z   1
loop_
 _symmetry_equiv_pos_site_id
 _symmetry_equiv_pos_as_xyz
  1  'x, y, z'
loop_
 _atom_site_type_symbol
 _atom_site_label
 _atom_site_symmetry_multiplicity
 _atom_site_fract_x
 _atom_site_fract_y
 _atom_site_fract_z
 _atom_site_occupancy
  Ca  Ca0  1  0.125000  0.625000  0.125000  1
  Ta  Ta1  1  0.625000  0.625000  0.125000  1
  Ta  Ta2  1  0.625000  0.125000  0.625000  1
  Ta  Ta3  1  0.125000  0.625000  0.625000  1
  Ta  Ta4  1  0.625000  0.625000  0.625000  1
  Cd  Cd5  1  0.125000  0.125000  0.625000  1
  Cd  Cd6  1  0.625000  0.125000  0.125000  1
  Cd  Cd7  1  0.125000  0.125000  0.125000  1
  O  O8  1  0.306919  0.688930  0.306919  1
  O  O9  1  0.559901  0.938766  0.559901  1
  O  O10  1  0.308567  0.311234  0.690099  1
  O  O11  1  0.690099  0.311234  0.308567  1
  O  O12  1  0.306919  0.688930  0.697232  1
  O  O13  1  0.697232  0.688930  0.306919  1
  O  O14  1  0.941433  0.938766  0.559901  1
  O  O15  1  0.552768  0.561070  0.943081  1
  O  O16  1  0.995467  0.013599  0.995467  1
  O  O17  1  0.254533  0.236401  0.254533  1
  O  O18  1  0.690099  0.311234  0.690099  1
  O  O19  1  0.943081  0.561070  0.552768  1
  O  O20  1  0.559901  0.938766  0.941433  1
  O  O21  1  0.943081  0.561070  0.943081  1
