# generated using pymatgen
data_Pr2Th(Ga2Ni3)3
_symmetry_space_group_name_H-M   'P 1'
_cell_length_a   8.87613500
_cell_length_b   8.87613577
_cell_length_c   4.17170100
_cell_angle_alpha   90.00000000
_cell_angle_beta   90.00000000
_cell_angle_gamma   120.00000085
_symmetry_Int_Tables_number   1
_chemical_formula_structural   Pr2Th(Ga2Ni3)3
_chemical_formula_sum   'Pr2 Th1 Ga6 Ni9'
_cell_volume   284.63718594
_cell_formula_units_Z   1
loop_
 _symmetry_equiv_pos_site_id
 _symmetry_equiv_pos_as_xyz
  1  'x, y, z'
loop_
 _atom_site_type_symbol
 _atom_site_label
 _atom_site_symmetry_multiplicity
 _atom_site_fract_x
 _atom_site_fract_y
 _atom_site_fract_z
 _atom_site_occupancy
  Pr  Pr0  1  0.333333  0.666667  0.500000  1
  Pr  Pr1  1  0.666667  0.333333  0.500000  1
  Th  Th2  1  0.000000  0.000000  0.000000  1
  Ga  Ga3  1  0.277037  0.000000  0.500000  1
  Ga  Ga4  1  0.000000  0.277037  0.500000  1
  Ga  Ga5  1  0.722963  0.722963  0.500000  1
  Ga  Ga6  1  0.521854  0.000000  0.000000  1
  Ga  Ga7  1  0.000000  0.521854  0.000000  1
  Ga  Ga8  1  0.478146  0.478146  0.000000  1
  Ni  Ni9  1  0.170607  0.367353  0.000000  1
  Ni  Ni10  1  0.632647  0.803254  0.000000  1
  Ni  Ni11  1  0.196746  0.829393  0.000000  1
  Ni  Ni12  1  0.803254  0.632647  0.000000  1
  Ni  Ni13  1  0.829393  0.196746  0.000000  1
  Ni  Ni14  1  0.367353  0.170607  0.000000  1
  Ni  Ni15  1  0.714008  0.000000  0.500000  1
  Ni  Ni16  1  0.000000  0.714008  0.500000  1
  Ni  Ni17  1  0.285992  0.285992  0.500000  1
