# generated using pymatgen
data_PrNdSbSe
_symmetry_space_group_name_H-M   'P 1'
_cell_length_a   7.59470058
_cell_length_b   7.59470035
_cell_length_c   7.59469940
_cell_angle_alpha   33.82172925
_cell_angle_beta   33.82173523
_cell_angle_gamma   33.82173371
_symmetry_Int_Tables_number   1
_chemical_formula_structural   PrNdSbSe
_chemical_formula_sum   'Pr1 Nd1 Sb1 Se1'
_cell_volume   120.93933206
_cell_formula_units_Z   1
loop_
 _symmetry_equiv_pos_site_id
 _symmetry_equiv_pos_as_xyz
  1  'x, y, z'
loop_
 _atom_site_type_symbol
 _atom_site_label
 _atom_site_symmetry_multiplicity
 _atom_site_fract_x
 _atom_site_fract_y
 _atom_site_fract_z
 _atom_site_occupancy
  Pr  Pr0  1  0.503834  0.503834  0.503834  1
  Nd  Nd1  1  0.996171  0.996171  0.996171  1
  Sb  Sb2  1  0.749187  0.749187  0.749187  1
  Se  Se3  1  0.250808  0.250808  0.250808  1
