# generated using pymatgen
data_Lu4Np(MnB3)2
_symmetry_space_group_name_H-M   'P 1'
_cell_length_a   5.39166619
_cell_length_b   5.39166643
_cell_length_c   7.92400900
_cell_angle_alpha   70.11028404
_cell_angle_beta   70.11028312
_cell_angle_gamma   59.99999517
_symmetry_Int_Tables_number   1
_chemical_formula_structural   Lu4Np(MnB3)2
_chemical_formula_sum   'Lu4 Np1 Mn2 B6'
_cell_volume   183.45242613
_cell_formula_units_Z   1
loop_
 _symmetry_equiv_pos_site_id
 _symmetry_equiv_pos_as_xyz
  1  'x, y, z'
loop_
 _atom_site_type_symbol
 _atom_site_label
 _atom_site_symmetry_multiplicity
 _atom_site_fract_x
 _atom_site_fract_y
 _atom_site_fract_z
 _atom_site_occupancy
  Lu  Lu0  1  0.252909  0.252909  0.241273  1
  Lu  Lu1  1  0.747091  0.747091  0.758727  1
  Lu  Lu2  1  0.414047  0.414047  0.757859  1
  Lu  Lu3  1  0.585953  0.585953  0.242141  1
  Np  Np4  1  0.000000  0.000000  0.000000  1
  Mn  Mn5  1  0.103793  0.103793  0.688621  1
  Mn  Mn6  1  0.896207  0.896207  0.311379  1
  B  B7  1  0.167117  0.832883  0.500000  1
  B  B8  1  0.832883  0.500000  0.500000  1
  B  B9  1  0.500000  0.167117  0.500000  1
  B  B10  1  0.167117  0.500000  0.500000  1
  B  B11  1  0.500000  0.832883  0.500000  1
  B  B12  1  0.832883  0.167117  0.500000  1
