# generated using pymatgen
data_Sr2Ta3Ni9P7
_symmetry_space_group_name_H-M   'P 1'
_cell_length_a   3.76772100
_cell_length_b   9.42882081
_cell_length_c   9.42882000
_cell_angle_alpha   120.00000419
_cell_angle_beta   90.00000000
_cell_angle_gamma   90.00000000
_symmetry_Int_Tables_number   1
_chemical_formula_structural   Sr2Ta3Ni9P7
_chemical_formula_sum   'Sr2 Ta3 Ni9 P7'
_cell_volume   290.08420092
_cell_formula_units_Z   1
loop_
 _symmetry_equiv_pos_site_id
 _symmetry_equiv_pos_as_xyz
  1  'x, y, z'
loop_
 _atom_site_type_symbol
 _atom_site_label
 _atom_site_symmetry_multiplicity
 _atom_site_fract_x
 _atom_site_fract_y
 _atom_site_fract_z
 _atom_site_occupancy
  Sr  Sr0  1  0.000000  0.666667  0.333333  1
  Sr  Sr1  1  0.500000  0.333333  0.666667  1
  Ta  Ta2  1  0.500000  0.778172  0.894233  1
  Ta  Ta3  1  0.500000  0.116063  0.221828  1
  Ta  Ta4  1  0.500000  0.105767  0.883937  1
  Ni  Ni5  1  0.000000  0.573559  0.937969  1
  Ni  Ni6  1  0.000000  0.364410  0.426441  1
  Ni  Ni7  1  0.000000  0.062031  0.635590  1
  Ni  Ni8  1  0.000000  0.872817  0.150461  1
  Ni  Ni9  1  0.000000  0.277645  0.127183  1
  Ni  Ni10  1  0.000000  0.849539  0.722355  1
  Ni  Ni11  1  0.500000  0.946439  0.383677  1
  Ni  Ni12  1  0.500000  0.437237  0.053561  1
  Ni  Ni13  1  0.500000  0.616323  0.562763  1
  P  P14  1  0.500000  0.706375  0.111023  1
  P  P15  1  0.500000  0.404648  0.293625  1
  P  P16  1  0.500000  0.888977  0.595352  1
  P  P17  1  0.000000  0.000000  0.000000  1
  P  P18  1  0.000000  0.590959  0.692485  1
  P  P19  1  0.000000  0.101527  0.409041  1
  P  P20  1  0.000000  0.307515  0.898473  1
