# generated using pymatgen
data_Ba6ScFe3O13
_symmetry_space_group_name_H-M   'P 1'
_cell_length_a   11.27734467
_cell_length_b   11.27734483
_cell_length_c   5.74412600
_cell_angle_alpha   90.00000000
_cell_angle_beta   90.00000000
_cell_angle_gamma   150.40282118
_symmetry_Int_Tables_number   1
_chemical_formula_structural   Ba6ScFe3O13
_chemical_formula_sum   'Ba6 Sc1 Fe3 O13'
_cell_volume   360.80775670
_cell_formula_units_Z   1
loop_
 _symmetry_equiv_pos_site_id
 _symmetry_equiv_pos_as_xyz
  1  'x, y, z'
loop_
 _atom_site_type_symbol
 _atom_site_label
 _atom_site_symmetry_multiplicity
 _atom_site_fract_x
 _atom_site_fract_y
 _atom_site_fract_z
 _atom_site_occupancy
  Ba  Ba0  1  0.502096  0.497904  0.000000  1
  Ba  Ba1  1  0.002059  0.997941  0.500000  1
  Ba  Ba2  1  0.180869  0.819131  0.500000  1
  Ba  Ba3  1  0.682150  0.317850  0.000000  1
  Ba  Ba4  1  0.315150  0.684850  0.000000  1
  Ba  Ba5  1  0.816634  0.183366  0.500000  1
  Sc  Sc6  1  0.905573  0.094427  0.000000  1
  Fe  Fe7  1  0.394813  0.605187  0.500000  1
  Fe  Fe8  1  0.093849  0.906151  0.000000  1
  Fe  Fe9  1  0.606109  0.393891  0.500000  1
  O  O10  1  0.640633  0.822279  0.732916  1
  O  O11  1  0.177721  0.359367  0.267084  1
  O  O12  1  0.827885  0.645570  0.737179  1
  O  O13  1  0.354430  0.172115  0.262821  1
  O  O14  1  0.177721  0.359367  0.732916  1
  O  O15  1  0.640633  0.822279  0.267084  1
  O  O16  1  0.354430  0.172115  0.737179  1
  O  O17  1  0.827885  0.645570  0.262821  1
  O  O18  1  0.305532  0.694468  0.500000  1
  O  O19  1  0.811460  0.188540  0.000000  1
  O  O20  1  0.183944  0.816056  0.000000  1
  O  O21  1  0.694785  0.305215  0.500000  1
  O  O22  1  0.003640  0.996360  0.000000  1
