# generated using pymatgen
data_Yb12IrPdRu2
_symmetry_space_group_name_H-M   'P 1'
_cell_length_a   6.26742897
_cell_length_b   7.63009723
_cell_length_c   9.29572100
_cell_angle_alpha   90.00000000
_cell_angle_beta   90.00000000
_cell_angle_gamma   89.67378045
_symmetry_Int_Tables_number   1
_chemical_formula_structural   Yb12IrPdRu2
_chemical_formula_sum   'Yb12 Ir1 Pd1 Ru2'
_cell_volume   444.52432775
_cell_formula_units_Z   1
loop_
 _symmetry_equiv_pos_site_id
 _symmetry_equiv_pos_as_xyz
  1  'x, y, z'
loop_
 _atom_site_type_symbol
 _atom_site_label
 _atom_site_symmetry_multiplicity
 _atom_site_fract_x
 _atom_site_fract_y
 _atom_site_fract_z
 _atom_site_occupancy
  Yb  Yb0  1  0.339523  0.667480  0.072939  1
  Yb  Yb1  1  0.158166  0.168088  0.430314  1
  Yb  Yb2  1  0.658139  0.325639  0.559679  1
  Yb  Yb3  1  0.848143  0.836912  0.939953  1
  Yb  Yb4  1  0.658139  0.325639  0.940321  1
  Yb  Yb5  1  0.848143  0.836912  0.560047  1
  Yb  Yb6  1  0.339523  0.667480  0.427061  1
  Yb  Yb7  1  0.158166  0.168088  0.069686  1
  Yb  Yb8  1  0.867390  0.540730  0.250000  1
  Yb  Yb9  1  0.630089  0.039030  0.250000  1
  Yb  Yb10  1  0.129589  0.455391  0.750000  1
  Yb  Yb11  1  0.362932  0.965856  0.750000  1
  Ir  Ir12  1  0.946656  0.122803  0.750000  1
  Pd  Pd13  1  0.553685  0.621448  0.750000  1
  Ru  Ru14  1  0.044563  0.879077  0.250000  1
  Ru  Ru15  1  0.457154  0.379431  0.250000  1
