# generated using pymatgen
data_CaPrAl3O7
_symmetry_space_group_name_H-M   'P 1'
_cell_length_a   7.83733800
_cell_length_b   5.18749585
_cell_length_c   7.84625395
_cell_angle_alpha   90.22416543
_cell_angle_beta   90.00000000
_cell_angle_gamma   90.00000000
_symmetry_Int_Tables_number   1
_chemical_formula_structural   CaPrAl3O7
_chemical_formula_sum   'Ca2 Pr2 Al6 O14'
_cell_volume   318.99610122
_cell_formula_units_Z   2
loop_
 _symmetry_equiv_pos_site_id
 _symmetry_equiv_pos_as_xyz
  1  'x, y, z'
loop_
 _atom_site_type_symbol
 _atom_site_label
 _atom_site_symmetry_multiplicity
 _atom_site_fract_x
 _atom_site_fract_y
 _atom_site_fract_z
 _atom_site_occupancy
  Ca  Ca0  1  0.162269  0.518493  0.422250  1
  Ca  Ca1  1  0.662269  0.481507  0.577750  1
  Pr  Pr2  1  0.841882  0.508253  0.094405  1
  Pr  Pr3  1  0.341882  0.491747  0.905595  1
  Al  Al4  1  0.357314  0.961392  0.602980  1
  Al  Al5  1  0.857314  0.038608  0.397020  1
  Al  Al6  1  0.644288  0.958300  0.889716  1
  Al  Al7  1  0.144288  0.041700  0.110284  1
  Al  Al8  1  0.500305  0.997777  0.244692  1
  Al  Al9  1  0.000305  0.002223  0.755308  1
  O  O10  1  0.355499  0.298058  0.616741  1
  O  O11  1  0.855499  0.701942  0.383259  1
  O  O12  1  0.637521  0.294944  0.898355  1
  O  O13  1  0.137521  0.705056  0.101645  1
  O  O14  1  0.009875  0.185869  0.262329  1
  O  O15  1  0.509875  0.814131  0.737671  1
  O  O16  1  0.399132  0.815119  0.404146  1
  O  O17  1  0.899132  0.184881  0.595854  1
  O  O18  1  0.581210  0.792828  0.080594  1
  O  O19  1  0.081210  0.207172  0.919406  1
  O  O20  1  0.344223  0.191562  0.144518  1
  O  O21  1  0.844223  0.808438  0.855482  1
  O  O22  1  0.666481  0.194018  0.327222  1
  O  O23  1  0.166481  0.805982  0.672778  1
