# generated using pymatgen
data_Al5Zn(PdPt4)2
_symmetry_space_group_name_H-M   'P 1'
_cell_length_a   4.07479600
_cell_length_b   5.45779762
_cell_length_c   10.70074324
_cell_angle_alpha   90.08869855
_cell_angle_beta   90.00000000
_cell_angle_gamma   90.00000000
_symmetry_Int_Tables_number   1
_chemical_formula_structural   Al5Zn(PdPt4)2
_chemical_formula_sum   'Al5 Zn1 Pd2 Pt8'
_cell_volume   237.97795140
_cell_formula_units_Z   1
loop_
 _symmetry_equiv_pos_site_id
 _symmetry_equiv_pos_as_xyz
  1  'x, y, z'
loop_
 _atom_site_type_symbol
 _atom_site_label
 _atom_site_symmetry_multiplicity
 _atom_site_fract_x
 _atom_site_fract_y
 _atom_site_fract_z
 _atom_site_occupancy
  Al  Al0  1  0.000000  0.998630  0.000489  1
  Al  Al1  1  0.000000  0.491928  0.497183  1
  Al  Al2  1  0.500000  0.830893  0.639744  1
  Al  Al3  1  0.500000  0.669479  0.145048  1
  Al  Al4  1  0.500000  0.330233  0.859369  1
  Zn  Zn5  1  0.500000  0.171586  0.360805  1
  Pd  Pd6  1  0.000000  0.994822  0.503245  1
  Pd  Pd7  1  0.000000  0.500486  0.998140  1
  Pt  Pt8  1  0.500000  0.197657  0.102500  1
  Pt  Pt9  1  0.500000  0.803848  0.893812  1
  Pt  Pt10  1  0.500000  0.690935  0.395610  1
  Pt  Pt11  1  0.500000  0.305908  0.609838  1
  Pt  Pt12  1  0.000000  0.916539  0.231922  1
  Pt  Pt13  1  0.000000  0.088269  0.768751  1
  Pt  Pt14  1  0.000000  0.419587  0.262380  1
  Pt  Pt15  1  0.000000  0.589203  0.731164  1
