# generated using pymatgen
data_Sm7Pu(BeSi3)4
_symmetry_space_group_name_H-M   'P 1'
_cell_length_a   7.90312300
_cell_length_b   7.90312164
_cell_length_c   8.36674800
_cell_angle_alpha   90.00000000
_cell_angle_beta   90.00000000
_cell_angle_gamma   120.00000153
_symmetry_Int_Tables_number   1
_chemical_formula_structural   Sm7Pu(BeSi3)4
_chemical_formula_sum   'Sm7 Pu1 Be4 Si12'
_cell_volume   452.56891499
_cell_formula_units_Z   1
loop_
 _symmetry_equiv_pos_site_id
 _symmetry_equiv_pos_as_xyz
  1  'x, y, z'
loop_
 _atom_site_type_symbol
 _atom_site_label
 _atom_site_symmetry_multiplicity
 _atom_site_fract_x
 _atom_site_fract_y
 _atom_site_fract_z
 _atom_site_occupancy
  Sm  Sm0  1  0.499941  0.999882  0.250000  1
  Sm  Sm1  1  0.500060  0.000120  0.750000  1
  Sm  Sm2  1  0.000118  0.500059  0.250000  1
  Sm  Sm3  1  0.999880  0.499940  0.750000  1
  Sm  Sm4  1  0.499941  0.500059  0.250000  1
  Sm  Sm5  1  0.500060  0.499940  0.750000  1
  Sm  Sm6  1  0.000000  0.000000  0.250000  1
  Pu  Pu7  1  0.000000  0.000000  0.750000  1
  Be  Be8  1  0.333333  0.666667  0.000214  1
  Be  Be9  1  0.666667  0.333333  0.000013  1
  Be  Be10  1  0.666667  0.333333  0.499987  1
  Be  Be11  1  0.333333  0.666667  0.499786  1
  Si  Si12  1  0.171737  0.343473  0.998215  1
  Si  Si13  1  0.828258  0.656517  0.998537  1
  Si  Si14  1  0.656527  0.828263  0.998215  1
  Si  Si15  1  0.828258  0.656517  0.501463  1
  Si  Si16  1  0.343483  0.171742  0.998537  1
  Si  Si17  1  0.171737  0.343473  0.501785  1
  Si  Si18  1  0.171737  0.828263  0.998215  1
  Si  Si19  1  0.343483  0.171742  0.501463  1
  Si  Si20  1  0.828258  0.171742  0.998537  1
  Si  Si21  1  0.656527  0.828263  0.501785  1
  Si  Si22  1  0.828258  0.171742  0.501463  1
  Si  Si23  1  0.171737  0.828263  0.501785  1
