# generated using pymatgen
data_Hf3Sc8NbGa20
_symmetry_space_group_name_H-M   'P 1'
_cell_length_a   5.73532584
_cell_length_b   9.16231700
_cell_length_c   11.00002151
_cell_angle_alpha   90.00000000
_cell_angle_beta   89.90840757
_cell_angle_gamma   90.00000000
_symmetry_Int_Tables_number   1
_chemical_formula_structural   Hf3Sc8NbGa20
_chemical_formula_sum   'Hf3 Sc8 Nb1 Ga20'
_cell_volume   578.03799903
_cell_formula_units_Z   1
loop_
 _symmetry_equiv_pos_site_id
 _symmetry_equiv_pos_as_xyz
  1  'x, y, z'
loop_
 _atom_site_type_symbol
 _atom_site_label
 _atom_site_symmetry_multiplicity
 _atom_site_fract_x
 _atom_site_fract_y
 _atom_site_fract_z
 _atom_site_occupancy
  Hf  Hf0  1  0.856755  0.750000  0.067087  1
  Hf  Hf1  1  0.643286  0.750000  0.566620  1
  Hf  Hf2  1  0.142673  0.250000  0.932575  1
  Sc  Sc3  1  0.884402  0.504986  0.354770  1
  Sc  Sc4  1  0.612385  0.998339  0.853257  1
  Sc  Sc5  1  0.114981  0.002384  0.645917  1
  Sc  Sc6  1  0.383753  0.497587  0.144723  1
  Sc  Sc7  1  0.114981  0.497616  0.645917  1
  Sc  Sc8  1  0.383753  0.002413  0.144723  1
  Sc  Sc9  1  0.884402  0.995014  0.354770  1
  Sc  Sc10  1  0.612385  0.501661  0.853257  1
  Nb  Nb11  1  0.362822  0.250000  0.432158  1
  Ga  Ga12  1  0.873591  0.051528  0.096662  1
  Ga  Ga13  1  0.626308  0.446779  0.591082  1
  Ga  Ga14  1  0.125010  0.550806  0.905288  1
  Ga  Ga15  1  0.374049  0.953004  0.405752  1
  Ga  Ga16  1  0.125010  0.949194  0.905288  1
  Ga  Ga17  1  0.374049  0.546996  0.405752  1
  Ga  Ga18  1  0.873591  0.448472  0.096662  1
  Ga  Ga19  1  0.626308  0.053221  0.591082  1
  Ga  Ga20  1  0.154254  0.750000  0.254811  1
  Ga  Ga21  1  0.345830  0.750000  0.754713  1
  Ga  Ga22  1  0.845930  0.250000  0.744142  1
  Ga  Ga23  1  0.650457  0.250000  0.247629  1
  Ga  Ga24  1  0.391340  0.750000  0.003425  1
  Ga  Ga25  1  0.112209  0.750000  0.503908  1
  Ga  Ga26  1  0.607302  0.250000  0.998549  1
  Ga  Ga27  1  0.903520  0.250000  0.495757  1
  Ga  Ga28  1  0.620850  0.750000  0.291733  1
  Ga  Ga29  1  0.875189  0.750000  0.791290  1
  Ga  Ga30  1  0.376035  0.250000  0.705518  1
  Ga  Ga31  1  0.122593  0.250000  0.215183  1
