# generated using pymatgen
data_KZr2V3O12
_symmetry_space_group_name_H-M   'P 1'
_cell_length_a   9.98723567
_cell_length_b   9.98723609
_cell_length_c   9.98723581
_cell_angle_alpha   56.27377091
_cell_angle_beta   56.27377060
_cell_angle_gamma   56.27376977
_symmetry_Int_Tables_number   1
_chemical_formula_structural   KZr2V3O12
_chemical_formula_sum   'K2 Zr4 V6 O24'
_cell_volume   643.67055438
_cell_formula_units_Z   2
loop_
 _symmetry_equiv_pos_site_id
 _symmetry_equiv_pos_as_xyz
  1  'x, y, z'
loop_
 _atom_site_type_symbol
 _atom_site_label
 _atom_site_symmetry_multiplicity
 _atom_site_fract_x
 _atom_site_fract_y
 _atom_site_fract_z
 _atom_site_occupancy
  K  K0  1  0.500000  0.500000  0.500000  1
  K  K1  1  0.000000  0.000000  0.000000  1
  Zr  Zr2  1  0.646995  0.646995  0.646995  1
  Zr  Zr3  1  0.853005  0.853005  0.853005  1
  Zr  Zr4  1  0.353005  0.353005  0.353005  1
  Zr  Zr5  1  0.146995  0.146995  0.146995  1
  V  V6  1  0.464887  0.035113  0.750000  1
  V  V7  1  0.035113  0.750000  0.464887  1
  V  V8  1  0.750000  0.464887  0.035113  1
  V  V9  1  0.535113  0.964887  0.250000  1
  V  V10  1  0.964887  0.250000  0.535113  1
  V  V11  1  0.250000  0.535113  0.964887  1
  O  O12  1  0.494552  0.855190  0.733994  1
  O  O13  1  0.855190  0.733994  0.494552  1
  O  O14  1  0.733994  0.494552  0.855190  1
  O  O15  1  0.644810  0.005448  0.766006  1
  O  O16  1  0.005448  0.766006  0.644810  1
  O  O17  1  0.766006  0.644810  0.005448  1
  O  O18  1  0.505448  0.144810  0.266006  1
  O  O19  1  0.144810  0.266006  0.505448  1
  O  O20  1  0.266006  0.505448  0.144810  1
  O  O21  1  0.355190  0.994552  0.233994  1
  O  O22  1  0.994552  0.233994  0.355190  1
  O  O23  1  0.233994  0.355190  0.994552  1
  O  O24  1  0.568618  0.783925  0.431908  1
  O  O25  1  0.783925  0.431908  0.568618  1
  O  O26  1  0.431908  0.568618  0.783925  1
  O  O27  1  0.716075  0.931382  0.068092  1
  O  O28  1  0.931382  0.068092  0.716075  1
  O  O29  1  0.068092  0.716075  0.931382  1
  O  O30  1  0.431382  0.216075  0.568092  1
  O  O31  1  0.216075  0.568092  0.431382  1
  O  O32  1  0.568092  0.431382  0.216075  1
  O  O33  1  0.283925  0.068618  0.931908  1
  O  O34  1  0.068618  0.931908  0.283925  1
  O  O35  1  0.931908  0.283925  0.068618  1
