# generated using pymatgen
data_LaPr7MgCdIr2
_symmetry_space_group_name_H-M   'P 1'
_cell_length_a   10.09128252
_cell_length_b   10.09128302
_cell_length_c   10.10564500
_cell_angle_alpha   59.95291280
_cell_angle_beta   59.95291116
_cell_angle_gamma   59.91106102
_symmetry_Int_Tables_number   1
_chemical_formula_structural   LaPr7MgCdIr2
_chemical_formula_sum   'La2 Pr14 Mg2 Cd2 Ir4'
_cell_volume   726.67458841
_cell_formula_units_Z   2
loop_
 _symmetry_equiv_pos_site_id
 _symmetry_equiv_pos_as_xyz
  1  'x, y, z'
loop_
 _atom_site_type_symbol
 _atom_site_label
 _atom_site_symmetry_multiplicity
 _atom_site_fract_x
 _atom_site_fract_y
 _atom_site_fract_z
 _atom_site_occupancy
  La  La0  1  0.345890  0.345890  0.346588  1
  La  La1  1  0.345890  0.345890  0.961632  1
  Pr  Pr2  1  0.346645  0.957527  0.347913  1
  Pr  Pr3  1  0.957527  0.346645  0.347913  1
  Pr  Pr4  1  0.811188  0.189140  0.189492  1
  Pr  Pr5  1  0.189140  0.811188  0.810180  1
  Pr  Pr6  1  0.189140  0.811188  0.189492  1
  Pr  Pr7  1  0.811188  0.189140  0.810180  1
  Pr  Pr8  1  0.190811  0.190811  0.809189  1
  Pr  Pr9  1  0.811807  0.811807  0.188193  1
  Pr  Pr10  1  0.939411  0.561655  0.561745  1
  Pr  Pr11  1  0.561655  0.939411  0.937188  1
  Pr  Pr12  1  0.561655  0.939411  0.561745  1
  Pr  Pr13  1  0.939411  0.561655  0.937188  1
  Pr  Pr14  1  0.563575  0.563575  0.936425  1
  Pr  Pr15  1  0.939322  0.939322  0.560678  1
  Mg  Mg16  1  0.575830  0.575830  0.578600  1
  Mg  Mg17  1  0.575830  0.575830  0.269739  1
  Cd  Cd18  1  0.581873  0.258447  0.579839  1
  Cd  Cd19  1  0.258447  0.581873  0.579839  1
  Ir  Ir20  1  0.142872  0.142872  0.139460  1
  Ir  Ir21  1  0.142872  0.142872  0.574796  1
  Ir  Ir22  1  0.143368  0.574648  0.140992  1
  Ir  Ir23  1  0.574648  0.143368  0.140992  1
