# generated using pymatgen
data_V11ReSi3As
_symmetry_space_group_name_H-M   'P 1'
_cell_length_a   4.75587700
_cell_length_b   4.70096900
_cell_length_c   9.40033800
_cell_angle_alpha   90.00000000
_cell_angle_beta   90.00000000
_cell_angle_gamma   90.00000000
_symmetry_Int_Tables_number   1
_chemical_formula_structural   V11ReSi3As
_chemical_formula_sum   'V11 Re1 Si3 As1'
_cell_volume   210.16552199
_cell_formula_units_Z   1
loop_
 _symmetry_equiv_pos_site_id
 _symmetry_equiv_pos_as_xyz
  1  'x, y, z'
loop_
 _atom_site_type_symbol
 _atom_site_label
 _atom_site_symmetry_multiplicity
 _atom_site_fract_x
 _atom_site_fract_y
 _atom_site_fract_z
 _atom_site_occupancy
  V  V0  1  0.999715  0.500000  0.128268  1
  V  V1  1  0.998275  0.500000  0.624327  1
  V  V2  1  0.500816  0.249329  0.747398  1
  V  V3  1  0.500816  0.249329  0.252602  1
  V  V4  1  0.755063  0.000000  0.000000  1
  V  V5  1  0.999715  0.500000  0.871732  1
  V  V6  1  0.998275  0.500000  0.375673  1
  V  V7  1  0.500816  0.750671  0.747398  1
  V  V8  1  0.500816  0.750671  0.252602  1
  V  V9  1  0.247279  0.000000  0.000000  1
  V  V10  1  0.248633  0.000000  0.500000  1
  Re  Re11  1  0.749696  0.000000  0.500000  1
  Si  Si12  1  0.493616  0.500000  0.500000  1
  Si  Si13  1  0.003951  0.000000  0.752006  1
  Si  Si14  1  0.003951  0.000000  0.247994  1
  As  As15  1  0.498568  0.500000  0.000000  1
