# generated using pymatgen
data_AcEr2(GaIr2)3
_symmetry_space_group_name_H-M   'P 1'
_cell_length_a   5.56275000
_cell_length_b   5.56265006
_cell_length_c   15.78752100
_cell_angle_alpha   90.00000000
_cell_angle_beta   90.00000000
_cell_angle_gamma   119.99911955
_symmetry_Int_Tables_number   1
_chemical_formula_structural   AcEr2(GaIr2)3
_chemical_formula_sum   'Ac2 Er4 Ga6 Ir12'
_cell_volume   423.07728415
_cell_formula_units_Z   2
loop_
 _symmetry_equiv_pos_site_id
 _symmetry_equiv_pos_as_xyz
  1  'x, y, z'
loop_
 _atom_site_type_symbol
 _atom_site_label
 _atom_site_symmetry_multiplicity
 _atom_site_fract_x
 _atom_site_fract_y
 _atom_site_fract_z
 _atom_site_occupancy
  Ac  Ac0  1  0.333351  0.666681  0.750000  1
  Ac  Ac1  1  0.666649  0.333319  0.250000  1
  Er  Er2  1  0.333291  0.666601  0.539008  1
  Er  Er3  1  0.666709  0.333399  0.460992  1
  Er  Er4  1  0.666709  0.333399  0.039008  1
  Er  Er5  1  0.333291  0.666601  0.960992  1
  Ga  Ga6  1  0.999499  0.000138  0.250000  1
  Ga  Ga7  1  0.000501  0.999862  0.750000  1
  Ga  Ga8  1  0.333557  0.666462  0.250000  1
  Ga  Ga9  1  0.666443  0.333538  0.750000  1
  Ga  Ga10  1  0.000000  0.000000  0.000000  1
  Ga  Ga11  1  0.000000  0.000000  0.500000  1
  Ir  Ir12  1  0.169646  0.339291  0.123585  1
  Ir  Ir13  1  0.830354  0.660709  0.876415  1
  Ir  Ir14  1  0.660683  0.830331  0.123591  1
  Ir  Ir15  1  0.830354  0.660709  0.623585  1
  Ir  Ir16  1  0.339317  0.169669  0.876409  1
  Ir  Ir17  1  0.169646  0.339291  0.376415  1
  Ir  Ir18  1  0.169648  0.830336  0.123596  1
  Ir  Ir19  1  0.339317  0.169669  0.623591  1
  Ir  Ir20  1  0.830352  0.169664  0.876404  1
  Ir  Ir21  1  0.660683  0.830331  0.376409  1
  Ir  Ir22  1  0.830352  0.169664  0.623596  1
  Ir  Ir23  1  0.169648  0.830336  0.376404  1
