# generated using pymatgen
data_Ba2GaGeI
_symmetry_space_group_name_H-M   'P 1'
_cell_length_a   4.53343700
_cell_length_b   4.53343709
_cell_length_c   19.55954600
_cell_angle_alpha   90.00000000
_cell_angle_beta   90.00000000
_cell_angle_gamma   119.99999205
_symmetry_Int_Tables_number   1
_chemical_formula_structural   Ba2GaGeI
_chemical_formula_sum   'Ba4 Ga2 Ge2 I2'
_cell_volume   348.13253679
_cell_formula_units_Z   2
loop_
 _symmetry_equiv_pos_site_id
 _symmetry_equiv_pos_as_xyz
  1  'x, y, z'
loop_
 _atom_site_type_symbol
 _atom_site_label
 _atom_site_symmetry_multiplicity
 _atom_site_fract_x
 _atom_site_fract_y
 _atom_site_fract_z
 _atom_site_occupancy
  Ba  Ba0  1  0.000000  0.000000  0.119554  1
  Ba  Ba1  1  0.000000  0.000000  0.380446  1
  Ba  Ba2  1  0.000000  0.000000  0.619159  1
  Ba  Ba3  1  0.000000  0.000000  0.880841  1
  Ga  Ga4  1  0.666668  0.333335  0.520610  1
  Ga  Ga5  1  0.666668  0.333335  0.979390  1
  Ge  Ge6  1  0.333333  0.666667  0.019267  1
  Ge  Ge7  1  0.333333  0.666667  0.480733  1
  I  I8  1  0.666668  0.333335  0.250000  1
  I  I9  1  0.333333  0.666667  0.750000  1
