# generated using pymatgen
data_Tb5Y15(FeHg3)2
_symmetry_space_group_name_H-M   'P 1'
_cell_length_a   9.62788983
_cell_length_b   9.62292604
_cell_length_c   9.66722189
_cell_angle_alpha   90.00000177
_cell_angle_beta   89.85797100
_cell_angle_gamma   119.98294169
_symmetry_Int_Tables_number   1
_chemical_formula_structural   Tb5Y15(FeHg3)2
_chemical_formula_sum   'Tb5 Y15 Fe2 Hg6'
_cell_volume   775.78865749
_cell_formula_units_Z   1
loop_
 _symmetry_equiv_pos_site_id
 _symmetry_equiv_pos_as_xyz
  1  'x, y, z'
loop_
 _atom_site_type_symbol
 _atom_site_label
 _atom_site_symmetry_multiplicity
 _atom_site_fract_x
 _atom_site_fract_y
 _atom_site_fract_z
 _atom_site_occupancy
  Tb  Tb0  1  0.212029  0.787708  0.435441  1
  Tb  Tb1  1  0.212029  0.424322  0.435441  1
  Tb  Tb2  1  0.575710  0.787856  0.435483  1
  Tb  Tb3  1  0.787523  0.212260  0.564744  1
  Tb  Tb4  1  0.787523  0.575262  0.564744  1
  Y  Y5  1  0.999596  0.999798  0.499879  1
  Y  Y6  1  0.999955  0.999978  0.000037  1
  Y  Y7  1  0.541760  0.458108  0.250113  1
  Y  Y8  1  0.541760  0.083651  0.250113  1
  Y  Y9  1  0.916347  0.458174  0.250105  1
  Y  Y10  1  0.458085  0.541843  0.749886  1
  Y  Y11  1  0.458085  0.916242  0.749886  1
  Y  Y12  1  0.083747  0.541874  0.749883  1
  Y  Y13  1  0.422785  0.211392  0.563383  1
  Y  Y14  1  0.788218  0.211697  0.936386  1
  Y  Y15  1  0.788218  0.576520  0.936386  1
  Y  Y16  1  0.424277  0.212138  0.935981  1
  Y  Y17  1  0.211925  0.788116  0.063843  1
  Y  Y18  1  0.211925  0.423810  0.063843  1
  Y  Y19  1  0.576159  0.788080  0.063785  1
  Fe  Fe20  1  0.333348  0.666674  0.252959  1
  Fe  Fe21  1  0.668489  0.334244  0.747700  1
  Hg  Hg22  1  0.881854  0.118159  0.249426  1
  Hg  Hg23  1  0.881854  0.763696  0.249426  1
  Hg  Hg24  1  0.236543  0.118272  0.249508  1
  Hg  Hg25  1  0.118280  0.881972  0.750441  1
  Hg  Hg26  1  0.118280  0.236307  0.750441  1
  Hg  Hg27  1  0.763696  0.881848  0.750738  1
