# generated using pymatgen
data_ErPaPdPtPb
_symmetry_space_group_name_H-M   'P 1'
_cell_length_a   7.91739009
_cell_length_b   7.89690909
_cell_length_c   3.63304400
_cell_angle_alpha   90.00000000
_cell_angle_beta   90.00000000
_cell_angle_gamma   90.34137775
_symmetry_Int_Tables_number   1
_chemical_formula_structural   ErPaPdPtPb
_chemical_formula_sum   'Er2 Pa2 Pd2 Pt2 Pb2'
_cell_volume   227.14445023
_cell_formula_units_Z   2
loop_
 _symmetry_equiv_pos_site_id
 _symmetry_equiv_pos_as_xyz
  1  'x, y, z'
loop_
 _atom_site_type_symbol
 _atom_site_label
 _atom_site_symmetry_multiplicity
 _atom_site_fract_x
 _atom_site_fract_y
 _atom_site_fract_z
 _atom_site_occupancy
  Er  Er0  1  0.834012  0.671710  0.500000  1
  Er  Er1  1  0.322978  0.828576  0.500000  1
  Pa  Pa2  1  0.664325  0.169410  0.500000  1
  Pa  Pa3  1  0.173027  0.331748  0.500000  1
  Pd  Pd4  1  0.628120  0.881910  0.000000  1
  Pd  Pd5  1  0.869283  0.361931  0.000000  1
  Pt  Pt6  1  0.374761  0.135544  0.000000  1
  Pt  Pt7  1  0.126490  0.611996  0.000000  1
  Pb  Pb8  1  0.999700  0.992533  0.000000  1
  Pb  Pb9  1  0.507306  0.514643  0.000000  1
