# generated using pymatgen
data_AcYbZnIn3
_symmetry_space_group_name_H-M   'P 1'
_cell_length_a   4.91521400
_cell_length_b   4.91521470
_cell_length_c   7.92856800
_cell_angle_alpha   90.00000000
_cell_angle_beta   90.00000000
_cell_angle_gamma   119.99999527
_symmetry_Int_Tables_number   1
_chemical_formula_structural   AcYbZnIn3
_chemical_formula_sum   'Ac1 Yb1 Zn1 In3'
_cell_volume   165.88622789
_cell_formula_units_Z   1
loop_
 _symmetry_equiv_pos_site_id
 _symmetry_equiv_pos_as_xyz
  1  'x, y, z'
loop_
 _atom_site_type_symbol
 _atom_site_label
 _atom_site_symmetry_multiplicity
 _atom_site_fract_x
 _atom_site_fract_y
 _atom_site_fract_z
 _atom_site_occupancy
  Ac  Ac0  1  0.000000  0.000000  0.236850  1
  Yb  Yb1  1  0.000000  0.000000  0.758598  1
  Zn  Zn2  1  0.333333  0.666667  0.016779  1
  In  In3  1  0.333333  0.666667  0.468583  1
  In  In4  1  0.666667  0.333333  0.958389  1
  In  In5  1  0.666667  0.333333  0.560802  1
