# generated using pymatgen
data_LuMgCo4
_symmetry_space_group_name_H-M   'P 1'
_cell_length_a   4.94873295
_cell_length_b   4.94900462
_cell_length_c   4.94877600
_cell_angle_alpha   59.99947424
_cell_angle_beta   59.99833394
_cell_angle_gamma   59.99899825
_symmetry_Int_Tables_number   1
_chemical_formula_structural   LuMgCo4
_chemical_formula_sum   'Lu1 Mg1 Co4'
_cell_volume   85.70066551
_cell_formula_units_Z   1
loop_
 _symmetry_equiv_pos_site_id
 _symmetry_equiv_pos_as_xyz
  1  'x, y, z'
loop_
 _atom_site_type_symbol
 _atom_site_label
 _atom_site_symmetry_multiplicity
 _atom_site_fract_x
 _atom_site_fract_y
 _atom_site_fract_z
 _atom_site_occupancy
  Lu  Lu0  1  0.000001  0.999983  0.000012  1
  Mg  Mg1  1  0.749993  0.750012  0.749998  1
  Co  Co2  1  0.874120  0.375291  0.375294  1
  Co  Co3  1  0.375289  0.874121  0.375288  1
  Co  Co4  1  0.375296  0.375295  0.874113  1
  Co  Co5  1  0.375299  0.375298  0.375294  1
