# generated using pymatgen
data_La10Pb6Br
_symmetry_space_group_name_H-M   'P 1'
_cell_length_a   6.91081300
_cell_length_b   9.64613694
_cell_length_c   9.64553300
_cell_angle_alpha   119.99905716
_cell_angle_beta   90.00067155
_cell_angle_gamma   89.99907620
_symmetry_Int_Tables_number   1
_chemical_formula_structural   La10Pb6Br
_chemical_formula_sum   'La10 Pb6 Br1'
_cell_volume   556.85683321
_cell_formula_units_Z   1
loop_
 _symmetry_equiv_pos_site_id
 _symmetry_equiv_pos_as_xyz
  1  'x, y, z'
loop_
 _atom_site_type_symbol
 _atom_site_label
 _atom_site_symmetry_multiplicity
 _atom_site_fract_x
 _atom_site_fract_y
 _atom_site_fract_z
 _atom_site_occupancy
  La  La0  1  0.500049  0.333426  0.666561  1
  La  La1  1  0.500036  0.666613  0.333342  1
  La  La2  1  0.999939  0.666814  0.333267  1
  La  La3  1  0.999929  0.333167  0.666901  1
  La  La4  1  0.760622  0.253749  0.000004  1
  La  La5  1  0.760666  0.746222  0.746241  1
  La  La6  1  0.760606  0.000019  0.253685  1
  La  La7  1  0.239258  0.746284  0.000003  1
  La  La8  1  0.239382  0.253734  0.253751  1
  La  La9  1  0.239468  0.999952  0.746170  1
  Pb  Pb10  1  0.750902  0.611594  0.999994  1
  Pb  Pb11  1  0.751380  0.388496  0.388510  1
  Pb  Pb12  1  0.751097  0.000030  0.611629  1
  Pb  Pb13  1  0.249097  0.388436  0.000027  1
  Pb  Pb14  1  0.248667  0.611538  0.611573  1
  Pb  Pb15  1  0.248872  0.000018  0.388421  1
  Br  Br16  1  0.500030  0.999912  0.999917  1
