# generated using pymatgen
data_LaTb3B10
_symmetry_space_group_name_H-M   'P 1'
_cell_length_a   7.19269700
_cell_length_b   7.18827545
_cell_length_c   7.21373136
_cell_angle_alpha   77.07151817
_cell_angle_beta   90.00000000
_cell_angle_gamma   90.00000000
_symmetry_Int_Tables_number   1
_chemical_formula_structural   LaTb3B10
_chemical_formula_sum   'La2 Tb6 B20'
_cell_volume   363.51737298
_cell_formula_units_Z   2
loop_
 _symmetry_equiv_pos_site_id
 _symmetry_equiv_pos_as_xyz
  1  'x, y, z'
loop_
 _atom_site_type_symbol
 _atom_site_label
 _atom_site_symmetry_multiplicity
 _atom_site_fract_x
 _atom_site_fract_y
 _atom_site_fract_z
 _atom_site_occupancy
  La  La0  1  0.312308  0.216551  0.377629  1
  La  La1  1  0.812308  0.783449  0.122371  1
  Tb  Tb2  1  0.316224  0.751913  0.253919  1
  Tb  Tb3  1  0.816224  0.248087  0.246081  1
  Tb  Tb4  1  0.684446  0.246094  0.743936  1
  Tb  Tb5  1  0.184446  0.753906  0.756064  1
  Tb  Tb6  1  0.693175  0.763051  0.629739  1
  Tb  Tb7  1  0.193175  0.236949  0.870261  1
  B  B8  1  0.503279  0.315871  0.036186  1
  B  B9  1  0.003279  0.684129  0.463814  1
  B  B10  1  0.496535  0.685797  0.957828  1
  B  B11  1  0.996535  0.314203  0.542172  1
  B  B12  1  0.482629  0.926394  0.920701  1
  B  B13  1  0.982629  0.073606  0.579299  1
  B  B14  1  0.506404  0.078319  0.063555  1
  B  B15  1  0.006404  0.921681  0.436445  1
  B  B16  1  0.327850  0.496597  0.038875  1
  B  B17  1  0.827850  0.503403  0.461125  1
  B  B18  1  0.673579  0.504350  0.958847  1
  B  B19  1  0.173579  0.495650  0.541153  1
  B  B20  1  0.911192  0.497227  0.910291  1
  B  B21  1  0.411192  0.502773  0.589709  1
  B  B22  1  0.091131  0.499139  0.090063  1
  B  B23  1  0.591131  0.500861  0.409937  1
  B  B24  1  0.961902  0.496006  0.674740  1
  B  B25  1  0.461902  0.503994  0.825260  1
  B  B26  1  0.039347  0.502782  0.328082  1
  B  B27  1  0.539347  0.497218  0.171918  1
