# generated using pymatgen
data_Nd8Sc12Si15Os
_symmetry_space_group_name_H-M   'P 1'
_cell_length_a   7.21718725
_cell_length_b   7.56674944
_cell_length_c   14.17342900
_cell_angle_alpha   90.00000000
_cell_angle_beta   90.00000000
_cell_angle_gamma   90.13043163
_symmetry_Int_Tables_number   1
_chemical_formula_structural   Nd8Sc12Si15Os
_chemical_formula_sum   'Nd8 Sc12 Si15 Os1'
_cell_volume   774.01813044
_cell_formula_units_Z   1
loop_
 _symmetry_equiv_pos_site_id
 _symmetry_equiv_pos_as_xyz
  1  'x, y, z'
loop_
 _atom_site_type_symbol
 _atom_site_label
 _atom_site_symmetry_multiplicity
 _atom_site_fract_x
 _atom_site_fract_y
 _atom_site_fract_z
 _atom_site_occupancy
  Nd  Nd0  1  0.011297  0.176909  0.096701  1
  Nd  Nd1  1  0.990555  0.828536  0.902407  1
  Nd  Nd2  1  0.488003  0.673761  0.903372  1
  Nd  Nd3  1  0.990555  0.828536  0.597593  1
  Nd  Nd4  1  0.510968  0.325929  0.096429  1
  Nd  Nd5  1  0.011297  0.176909  0.403299  1
  Nd  Nd6  1  0.510968  0.325929  0.403571  1
  Nd  Nd7  1  0.488003  0.673761  0.596628  1
  Sc  Sc8  1  0.152933  0.488512  0.750000  1
  Sc  Sc9  1  0.839706  0.498300  0.250000  1
  Sc  Sc10  1  0.339420  0.002210  0.250000  1
  Sc  Sc11  1  0.669153  0.003139  0.750000  1
  Sc  Sc12  1  0.318366  0.171969  0.627862  1
  Sc  Sc13  1  0.671844  0.826015  0.373485  1
  Sc  Sc14  1  0.171577  0.677348  0.373870  1
  Sc  Sc15  1  0.671844  0.826015  0.126515  1
  Sc  Sc16  1  0.837089  0.318111  0.628089  1
  Sc  Sc17  1  0.318366  0.171969  0.872138  1
  Sc  Sc18  1  0.837089  0.318111  0.871911  1
  Sc  Sc19  1  0.171577  0.677348  0.126130  1
  Si  Si20  1  0.968011  0.877714  0.250000  1
  Si  Si21  1  0.468204  0.620711  0.250000  1
  Si  Si22  1  0.530023  0.384023  0.750000  1
  Si  Si23  1  0.287970  0.877770  0.750000  1
  Si  Si24  1  0.711488  0.122031  0.250000  1
  Si  Si25  1  0.212249  0.378158  0.250000  1
  Si  Si26  1  0.779916  0.619930  0.750000  1
  Si  Si27  1  0.154541  0.467969  0.537142  1
  Si  Si28  1  0.849319  0.537807  0.461197  1
  Si  Si29  1  0.349555  0.964028  0.459823  1
  Si  Si30  1  0.849319  0.537807  0.038803  1
  Si  Si31  1  0.651366  0.035023  0.538397  1
  Si  Si32  1  0.154541  0.467969  0.962858  1
  Si  Si33  1  0.651366  0.035023  0.961603  1
  Si  Si34  1  0.349555  0.964028  0.040177  1
  Os  Os35  1  0.031966  0.120696  0.750000  1
