# generated using pymatgen
data_NaHo3Ir8
_symmetry_space_group_name_H-M   'P 1'
_cell_length_a   5.33435500
_cell_length_b   5.33435480
_cell_length_c   8.67403700
_cell_angle_alpha   90.00000000
_cell_angle_beta   90.00000000
_cell_angle_gamma   119.99999504
_symmetry_Int_Tables_number   1
_chemical_formula_structural   NaHo3Ir8
_chemical_formula_sum   'Na1 Ho3 Ir8'
_cell_volume   213.75473137
_cell_formula_units_Z   1
loop_
 _symmetry_equiv_pos_site_id
 _symmetry_equiv_pos_as_xyz
  1  'x, y, z'
loop_
 _atom_site_type_symbol
 _atom_site_label
 _atom_site_symmetry_multiplicity
 _atom_site_fract_x
 _atom_site_fract_y
 _atom_site_fract_z
 _atom_site_occupancy
  Na  Na0  1  0.333333  0.666667  0.438834  1
  Ho  Ho1  1  0.333333  0.666667  0.083795  1
  Ho  Ho2  1  0.666667  0.333333  0.556114  1
  Ho  Ho3  1  0.666667  0.333333  0.929799  1
  Ir  Ir4  1  0.000000  0.000000  0.998148  1
  Ir  Ir5  1  0.000000  0.000000  0.498628  1
  Ir  Ir6  1  0.830631  0.661263  0.248141  1
  Ir  Ir7  1  0.170909  0.829091  0.750086  1
  Ir  Ir8  1  0.658182  0.829091  0.750086  1
  Ir  Ir9  1  0.338737  0.169369  0.248141  1
  Ir  Ir10  1  0.830631  0.169369  0.248141  1
  Ir  Ir11  1  0.170909  0.341818  0.750086  1
