# generated using pymatgen
data_Cs5K(TcH9)3
_symmetry_space_group_name_H-M   'P 1'
_cell_length_a   10.35423980
_cell_length_b   10.35423926
_cell_length_c   6.09211500
_cell_angle_alpha   90.00000000
_cell_angle_beta   90.00000000
_cell_angle_gamma   121.31020477
_symmetry_Int_Tables_number   1
_chemical_formula_structural   Cs5K(TcH9)3
_chemical_formula_sum   'Cs5 K1 Tc3 H27'
_cell_volume   558.01851722
_cell_formula_units_Z   1
loop_
 _symmetry_equiv_pos_site_id
 _symmetry_equiv_pos_as_xyz
  1  'x, y, z'
loop_
 _atom_site_type_symbol
 _atom_site_label
 _atom_site_symmetry_multiplicity
 _atom_site_fract_x
 _atom_site_fract_y
 _atom_site_fract_z
 _atom_site_occupancy
  Cs  Cs0  1  0.256234  0.995536  0.500000  1
  Cs  Cs1  1  0.995536  0.256234  0.500000  1
  Cs  Cs2  1  0.591546  0.997131  0.000000  1
  Cs  Cs3  1  0.997131  0.591546  0.000000  1
  Cs  Cs4  1  0.415192  0.415192  0.000000  1
  K  K5  1  0.733717  0.733717  0.500000  1
  Tc  Tc6  1  0.986160  0.986160  0.000000  1
  Tc  Tc7  1  0.346044  0.669962  0.500000  1
  Tc  Tc8  1  0.669962  0.346044  0.500000  1
  H  H9  1  0.869582  0.983395  0.196728  1
  H  H10  1  0.983395  0.869582  0.196728  1
  H  H11  1  0.869582  0.983395  0.803272  1
  H  H12  1  0.983395  0.869582  0.803272  1
  H  H13  1  0.108008  0.108008  0.189890  1
  H  H14  1  0.108008  0.108008  0.810110  1
  H  H15  1  0.147305  0.986557  0.000000  1
  H  H16  1  0.986557  0.147305  0.000000  1
  H  H17  1  0.821241  0.821241  0.000000  1
  H  H18  1  0.244449  0.546106  0.297774  1
  H  H19  1  0.475412  0.696843  0.305428  1
  H  H20  1  0.244449  0.546106  0.702226  1
  H  H21  1  0.546106  0.244449  0.702226  1
  H  H22  1  0.319986  0.767075  0.299415  1
  H  H23  1  0.475412  0.696843  0.694572  1
  H  H24  1  0.696843  0.475412  0.694572  1
  H  H25  1  0.546106  0.244449  0.297774  1
  H  H26  1  0.319986  0.767075  0.700585  1
  H  H27  1  0.696843  0.475412  0.305428  1
  H  H28  1  0.767075  0.319986  0.700585  1
  H  H29  1  0.767075  0.319986  0.299415  1
  H  H30  1  0.371248  0.523602  0.500000  1
  H  H31  1  0.486780  0.850675  0.500000  1
  H  H32  1  0.523602  0.371248  0.500000  1
  H  H33  1  0.167997  0.631359  0.500000  1
  H  H34  1  0.850675  0.486780  0.500000  1
  H  H35  1  0.631359  0.167997  0.500000  1
