# generated using pymatgen
data_TmU3O8
_symmetry_space_group_name_H-M   'P 1'
_cell_length_a   5.38039676
_cell_length_b   5.38039676
_cell_length_c   5.38039676
_cell_angle_alpha   89.95699132
_cell_angle_beta   89.95699132
_cell_angle_gamma   89.95699132
_symmetry_Int_Tables_number   1
_chemical_formula_structural   TmU3O8
_chemical_formula_sum   'Tm1 U3 O8'
_cell_volume   155.75519470
_cell_formula_units_Z   1
loop_
 _symmetry_equiv_pos_site_id
 _symmetry_equiv_pos_as_xyz
  1  'x, y, z'
loop_
 _atom_site_type_symbol
 _atom_site_label
 _atom_site_symmetry_multiplicity
 _atom_site_fract_x
 _atom_site_fract_y
 _atom_site_fract_z
 _atom_site_occupancy
  Tm  Tm0  1  0.000000  0.000000  0.000000  1
  U  U1  1  0.500001  0.500001  0.000000  1
  U  U2  1  0.500001  0.000000  0.500001  1
  U  U3  1  0.000000  0.500001  0.500001  1
  O  O4  1  0.249709  0.249709  0.249709  1
  O  O5  1  0.253428  0.747312  0.248764  1
  O  O6  1  0.747312  0.248764  0.253428  1
  O  O7  1  0.751237  0.746573  0.252689  1
  O  O8  1  0.248764  0.253428  0.747312  1
  O  O9  1  0.252689  0.751237  0.746573  1
  O  O10  1  0.746573  0.252689  0.751237  1
  O  O11  1  0.750292  0.750292  0.750292  1
