# generated using pymatgen
data_NdEr2Be2(PPd5)4
_symmetry_space_group_name_H-M   'P 1'
_cell_length_a   8.67874193
_cell_length_b   8.59792136
_cell_length_c   8.59792247
_cell_angle_alpha   60.62287918
_cell_angle_beta   59.68856325
_cell_angle_gamma   59.68855981
_symmetry_Int_Tables_number   1
_chemical_formula_structural   NdEr2Be2(PPd5)4
_chemical_formula_sum   'Nd1 Er2 Be2 P4 Pd20'
_cell_volume   453.57727961
_cell_formula_units_Z   1
loop_
 _symmetry_equiv_pos_site_id
 _symmetry_equiv_pos_as_xyz
  1  'x, y, z'
loop_
 _atom_site_type_symbol
 _atom_site_label
 _atom_site_symmetry_multiplicity
 _atom_site_fract_x
 _atom_site_fract_y
 _atom_site_fract_z
 _atom_site_occupancy
  Nd  Nd0  1  0.750000  0.750000  0.750000  1
  Er  Er1  1  0.250000  0.250000  0.250000  1
  Er  Er2  1  0.000000  0.000000  0.000000  1
  Be  Be3  1  0.733147  0.266853  0.266853  1
  Be  Be4  1  0.266853  0.733147  0.733147  1
  P  P5  1  0.265957  0.734043  0.265957  1
  P  P6  1  0.734043  0.265957  0.734043  1
  P  P7  1  0.265957  0.265957  0.734043  1
  P  P8  1  0.734043  0.734043  0.265957  1
  Pd  Pd9  1  0.386248  0.381657  0.381657  1
  Pd  Pd10  1  0.609806  0.615510  0.615510  1
  Pd  Pd11  1  0.381657  0.386248  0.850439  1
  Pd  Pd12  1  0.381657  0.850439  0.386248  1
  Pd  Pd13  1  0.615510  0.609806  0.159171  1
  Pd  Pd14  1  0.615510  0.159171  0.609806  1
  Pd  Pd15  1  0.850439  0.381657  0.381657  1
  Pd  Pd16  1  0.159171  0.615510  0.615510  1
  Pd  Pd17  1  0.343101  0.001157  0.001157  1
  Pd  Pd18  1  0.654585  0.001157  0.001157  1
  Pd  Pd19  1  0.001157  0.343101  0.654585  1
  Pd  Pd20  1  0.001157  0.654585  0.343101  1
  Pd  Pd21  1  0.997647  0.342499  0.003768  1
  Pd  Pd22  1  0.656086  0.003768  0.342499  1
  Pd  Pd23  1  0.003768  0.656086  0.997647  1
  Pd  Pd24  1  0.342499  0.997647  0.656086  1
  Pd  Pd25  1  0.997647  0.003768  0.342499  1
  Pd  Pd26  1  0.003768  0.997647  0.656086  1
  Pd  Pd27  1  0.656086  0.342499  0.003768  1
  Pd  Pd28  1  0.342499  0.656086  0.997647  1
