# generated using pymatgen
data_TbHo2PaPt4
_symmetry_space_group_name_H-M   'P 1'
_cell_length_a   4.54562500
_cell_length_b   5.60018732
_cell_length_c   6.97657898
_cell_angle_alpha   91.08749782
_cell_angle_beta   90.00000000
_cell_angle_gamma   90.00000000
_symmetry_Int_Tables_number   1
_chemical_formula_structural   TbHo2PaPt4
_chemical_formula_sum   'Tb1 Ho2 Pa1 Pt4'
_cell_volume   177.56625719
_cell_formula_units_Z   1
loop_
 _symmetry_equiv_pos_site_id
 _symmetry_equiv_pos_as_xyz
  1  'x, y, z'
loop_
 _atom_site_type_symbol
 _atom_site_label
 _atom_site_symmetry_multiplicity
 _atom_site_fract_x
 _atom_site_fract_y
 _atom_site_fract_z
 _atom_site_occupancy
  Tb  Tb0  1  0.250000  0.140461  0.183806  1
  Ho  Ho1  1  0.750000  0.643389  0.315683  1
  Ho  Ho2  1  0.750000  0.856431  0.820363  1
  Pa  Pa3  1  0.250000  0.357745  0.682552  1
  Pt  Pt4  1  0.250000  0.838631  0.550372  1
  Pt  Pt5  1  0.250000  0.652052  0.037976  1
  Pt  Pt6  1  0.750000  0.167610  0.463946  1
  Pt  Pt7  1  0.750000  0.343682  0.945301  1
