# generated using pymatgen
data_Er2Pa2Ga20Pt11
_symmetry_space_group_name_H-M   'P 1'
_cell_length_a   4.25276739
_cell_length_b   10.88778064
_cell_length_c   13.64439183
_cell_angle_alpha   82.59233241
_cell_angle_beta   81.03431003
_cell_angle_gamma   78.73774854
_symmetry_Int_Tables_number   1
_chemical_formula_structural   Er2Pa2Ga20Pt11
_chemical_formula_sum   'Er2 Pa2 Ga20 Pt11'
_cell_volume   608.87124070
_cell_formula_units_Z   1
loop_
 _symmetry_equiv_pos_site_id
 _symmetry_equiv_pos_as_xyz
  1  'x, y, z'
loop_
 _atom_site_type_symbol
 _atom_site_label
 _atom_site_symmetry_multiplicity
 _atom_site_fract_x
 _atom_site_fract_y
 _atom_site_fract_z
 _atom_site_occupancy
  Er  Er0  1  0.773854  0.629444  0.822848  1
  Er  Er1  1  0.226146  0.370556  0.177152  1
  Pa  Pa2  1  0.121003  0.089706  0.668290  1
  Pa  Pa3  1  0.878997  0.910294  0.331710  1
  Ga  Ga4  1  0.006585  0.073885  0.912946  1
  Ga  Ga5  1  0.993415  0.926115  0.087054  1
  Ga  Ga6  1  0.065939  0.673402  0.194719  1
  Ga  Ga7  1  0.934061  0.326598  0.805281  1
  Ga  Ga8  1  0.103424  0.340880  0.452272  1
  Ga  Ga9  1  0.896576  0.659120  0.547728  1
  Ga  Ga10  1  0.201031  0.605261  0.992677  1
  Ga  Ga11  1  0.798969  0.394739  0.007323  1
  Ga  Ga12  1  0.257652  0.781504  0.703193  1
  Ga  Ga13  1  0.742348  0.218496  0.296807  1
  Ga  Ga14  1  0.302785  0.897193  0.497238  1
  Ga  Ga15  1  0.697215  0.102807  0.502762  1
  Ga  Ga16  1  0.385438  0.529185  0.699940  1
  Ga  Ga17  1  0.614562  0.470815  0.300060  1
  Ga  Ga18  1  0.397632  0.204973  0.999762  1
  Ga  Ga19  1  0.602368  0.795027  0.000238  1
  Ga  Ga20  1  0.542413  0.288022  0.627152  1
  Ga  Ga21  1  0.457587  0.711978  0.372848  1
  Ga  Ga22  1  0.636211  0.930024  0.797555  1
  Ga  Ga23  1  0.363789  0.069976  0.202445  1
  Pt  Pt24  1  0.500000  0.500000  0.500000  1
  Pt  Pt25  1  0.026569  0.575181  0.371681  1
  Pt  Pt26  1  0.973431  0.424819  0.628319  1
  Pt  Pt27  1  0.137674  0.834158  0.890493  1
  Pt  Pt28  1  0.862326  0.165842  0.109507  1
  Pt  Pt29  1  0.242685  0.123096  0.391532  1
  Pt  Pt30  1  0.757315  0.876904  0.608468  1
  Pt  Pt31  1  0.345277  0.420297  0.889148  1
  Pt  Pt32  1  0.654723  0.579703  0.110852  1
  Pt  Pt33  1  0.510070  0.168427  0.811434  1
  Pt  Pt34  1  0.489930  0.831573  0.188566  1
