# generated using pymatgen
data_TbAl7Ag5
_symmetry_space_group_name_H-M   'P 1'
_cell_length_a   7.06440564
_cell_length_b   7.06440699
_cell_length_c   7.06440708
_cell_angle_alpha   133.73914583
_cell_angle_beta   100.21270260
_cell_angle_gamma   97.54592603
_symmetry_Int_Tables_number   1
_chemical_formula_structural   TbAl7Ag5
_chemical_formula_sum   'Tb1 Al7 Ag5'
_cell_volume   234.15661714
_cell_formula_units_Z   1
loop_
 _symmetry_equiv_pos_site_id
 _symmetry_equiv_pos_as_xyz
  1  'x, y, z'
loop_
 _atom_site_type_symbol
 _atom_site_label
 _atom_site_symmetry_multiplicity
 _atom_site_fract_x
 _atom_site_fract_y
 _atom_site_fract_z
 _atom_site_occupancy
  Tb  Tb0  1  0.001443  0.000000  0.001443  1
  Al  Al1  1  0.357080  0.000000  0.357080  1
  Al  Al2  1  0.649681  0.000000  0.649681  1
  Al  Al3  1  0.651284  0.647241  0.004044  1
  Al  Al4  1  0.356802  0.352759  0.004044  1
  Al  Al5  1  0.223104  0.500000  0.723104  1
  Al  Al6  1  0.204997  0.710338  0.494660  1
  Al  Al7  1  0.784322  0.289662  0.494660  1
  Ag  Ag8  1  0.487032  0.989323  0.995539  1
  Ag  Ag9  1  0.487032  0.491493  0.497709  1
  Ag  Ag10  1  0.006216  0.508507  0.995539  1
  Ag  Ag11  1  0.006216  0.010677  0.497709  1
  Ag  Ag12  1  0.784791  0.500000  0.284791  1
