# generated using pymatgen
data_Nd4AlNi13
_symmetry_space_group_name_H-M   'P 1'
_cell_length_a   4.99011467
_cell_length_b   4.99011441
_cell_length_c   12.58279290
_cell_angle_alpha   78.67271765
_cell_angle_beta   78.67271680
_cell_angle_gamma   60.79897719
_symmetry_Int_Tables_number   1
_chemical_formula_structural   Nd4AlNi13
_chemical_formula_sum   'Nd4 Al1 Ni13'
_cell_volume   266.32150059
_cell_formula_units_Z   1
loop_
 _symmetry_equiv_pos_site_id
 _symmetry_equiv_pos_as_xyz
  1  'x, y, z'
loop_
 _atom_site_type_symbol
 _atom_site_label
 _atom_site_symmetry_multiplicity
 _atom_site_fract_x
 _atom_site_fract_y
 _atom_site_fract_z
 _atom_site_occupancy
  Nd  Nd0  1  0.946981  0.946981  0.159741  1
  Nd  Nd1  1  0.053019  0.053019  0.840259  1
  Nd  Nd2  1  0.852643  0.852643  0.442255  1
  Nd  Nd3  1  0.147357  0.147357  0.557745  1
  Al  Al4  1  0.500000  0.500000  0.000000  1
  Ni  Ni5  1  0.500000  0.500000  0.500000  1
  Ni  Ni6  1  0.722448  0.722448  0.835232  1
  Ni  Ni7  1  0.277552  0.277552  0.164768  1
  Ni  Ni8  1  0.612846  0.612846  0.163926  1
  Ni  Ni9  1  0.387154  0.387154  0.836074  1
  Ni  Ni10  1  0.000000  0.500000  0.000000  1
  Ni  Ni11  1  0.500000  0.000000  0.000000  1
  Ni  Ni12  1  0.391361  0.391361  0.326630  1
  Ni  Ni13  1  0.889865  0.391597  0.326885  1
  Ni  Ni14  1  0.391597  0.889865  0.326885  1
  Ni  Ni15  1  0.608639  0.608639  0.673370  1
  Ni  Ni16  1  0.110135  0.608403  0.673115  1
  Ni  Ni17  1  0.608403  0.110135  0.673115  1
