# generated using pymatgen
data_Y3Ho9Fe2I17
_symmetry_space_group_name_H-M   'P 1'
_cell_length_a   9.72314912
_cell_length_b   11.70332772
_cell_length_c   11.68898644
_cell_angle_alpha   93.49484374
_cell_angle_beta   104.81451401
_cell_angle_gamma   113.92392882
_symmetry_Int_Tables_number   1
_chemical_formula_structural   Y3Ho9Fe2I17
_chemical_formula_sum   'Y3 Ho9 Fe2 I17'
_cell_volume   1154.85045113
_cell_formula_units_Z   1
loop_
 _symmetry_equiv_pos_site_id
 _symmetry_equiv_pos_as_xyz
  1  'x, y, z'
loop_
 _atom_site_type_symbol
 _atom_site_label
 _atom_site_symmetry_multiplicity
 _atom_site_fract_x
 _atom_site_fract_y
 _atom_site_fract_z
 _atom_site_occupancy
  Y  Y0  1  0.053736  0.504679  0.320641  1
  Y  Y1  1  0.991106  0.807506  0.589572  1
  Y  Y2  1  0.657963  0.241599  0.279507  1
  Ho  Ho3  1  0.008953  0.191810  0.411489  1
  Ho  Ho4  1  0.217397  0.672652  0.979928  1
  Ho  Ho5  1  0.252003  0.974132  0.887401  1
  Ho  Ho6  1  0.343561  0.757608  0.719939  1
  Ho  Ho7  1  0.951170  0.501160  0.682464  1
  Ho  Ho8  1  0.746750  0.022867  0.111038  1
  Ho  Ho9  1  0.135191  0.285752  0.153503  1
  Ho  Ho10  1  0.780023  0.327760  0.016709  1
  Ho  Ho11  1  0.859467  0.713778  0.847078  1
  Fe  Fe12  1  0.103550  0.737796  0.786036  1
  Fe  Fe13  1  0.895928  0.261925  0.213985  1
  I  I14  1  0.784112  0.527350  0.417613  1
  I  I15  1  0.647093  0.420371  0.763587  1
  I  I16  1  0.844234  0.898336  0.327963  1
  I  I17  1  0.325582  0.214696  0.366036  1
  I  I18  1  0.156588  0.102523  0.672378  1
  I  I19  1  0.585167  0.052853  0.843721  1
  I  I20  1  0.762552  0.191626  0.538722  1
  I  I21  1  0.553060  0.713745  0.955569  1
  I  I22  1  0.352424  0.577743  0.235117  1
  I  I23  1  0.216348  0.470841  0.582534  1
  I  I24  1  0.055072  0.368015  0.898212  1
  I  I25  1  0.448432  0.286373  0.044732  1
  I  I26  1  0.001712  0.001834  0.001116  1
  I  I27  1  0.241288  0.809814  0.461430  1
  I  I28  1  0.416709  0.947454  0.156002  1
  I  I29  1  0.670257  0.784515  0.633318  1
  I  I30  1  0.942571  0.630885  0.102661  1
