# generated using pymatgen
data_Mn3AgF10
_symmetry_space_group_name_H-M   'P 1'
_cell_length_a   10.49567944
_cell_length_b   8.88715873
_cell_length_c   7.72874569
_cell_angle_alpha   78.00242040
_cell_angle_beta   55.91924067
_cell_angle_gamma   46.07833939
_symmetry_Int_Tables_number   1
_chemical_formula_structural   Mn3AgF10
_chemical_formula_sum   'Mn6 Ag2 F20'
_cell_volume   409.84579369
_cell_formula_units_Z   2
loop_
 _symmetry_equiv_pos_site_id
 _symmetry_equiv_pos_as_xyz
  1  'x, y, z'
loop_
 _atom_site_type_symbol
 _atom_site_label
 _atom_site_symmetry_multiplicity
 _atom_site_fract_x
 _atom_site_fract_y
 _atom_site_fract_z
 _atom_site_occupancy
  Mn  Mn0  1  0.504432  0.495568  0.495568  1
  Mn  Mn1  1  0.754432  0.745568  0.745568  1
  Mn  Mn2  1  0.259604  0.244010  0.740054  1
  Mn  Mn3  1  0.756332  0.740054  0.244010  1
  Mn  Mn4  1  0.509946  0.493668  0.990396  1
  Mn  Mn5  1  0.005990  0.990396  0.493668  1
  Ag  Ag6  1  0.998446  0.001554  0.001554  1
  Ag  Ag7  1  0.248446  0.251554  0.251554  1
  F  F8  1  0.149820  0.125141  0.845225  1
  F  F9  1  0.879814  0.845225  0.125141  1
  F  F10  1  0.404775  0.370186  0.100180  1
  F  F11  1  0.124859  0.100180  0.370186  1
  F  F12  1  0.805843  0.201216  0.782663  1
  F  F13  1  0.210278  0.782663  0.201216  1
  F  F14  1  0.467337  0.039722  0.444157  1
  F  F15  1  0.048784  0.444157  0.039722  1
  F  F16  1  0.835883  0.661499  0.467719  1
  F  F17  1  0.034899  0.467719  0.661499  1
  F  F18  1  0.782281  0.215101  0.414117  1
  F  F19  1  0.588501  0.414117  0.215101  1
  F  F20  1  0.634191  0.629313  0.365053  1
  F  F21  1  0.371442  0.365053  0.629313  1
  F  F22  1  0.884947  0.878558  0.615809  1
  F  F23  1  0.620687  0.615809  0.878558  1
  F  F24  1  0.478088  0.023826  0.824358  1
  F  F25  1  0.673728  0.824358  0.023826  1
  F  F26  1  0.425642  0.576272  0.771912  1
  F  F27  1  0.226174  0.771912  0.576272  1
