# generated using pymatgen
data_La3Yb5Pd24Pb
_symmetry_space_group_name_H-M   'P 1'
_cell_length_a   8.44764239
_cell_length_b   8.44764319
_cell_length_c   8.47901400
_cell_angle_alpha   90.08542508
_cell_angle_beta   89.91457491
_cell_angle_gamma   89.37313842
_symmetry_Int_Tables_number   1
_chemical_formula_structural   La3Yb5Pd24Pb
_chemical_formula_sum   'La3 Yb5 Pd24 Pb1'
_cell_volume   605.04749264
_cell_formula_units_Z   1
loop_
 _symmetry_equiv_pos_site_id
 _symmetry_equiv_pos_as_xyz
  1  'x, y, z'
loop_
 _atom_site_type_symbol
 _atom_site_label
 _atom_site_symmetry_multiplicity
 _atom_site_fract_x
 _atom_site_fract_y
 _atom_site_fract_z
 _atom_site_occupancy
  La  La0  1  0.252525  0.747475  0.256170  1
  La  La1  1  0.254100  0.745900  0.743795  1
  La  La2  1  0.746312  0.253688  0.256118  1
  Yb  Yb3  1  0.253037  0.251559  0.249322  1
  Yb  Yb4  1  0.747349  0.749176  0.751084  1
  Yb  Yb5  1  0.748441  0.746963  0.249322  1
  Yb  Yb6  1  0.749046  0.250954  0.745321  1
  Yb  Yb7  1  0.250824  0.252651  0.751084  1
  Pd  Pd8  1  0.267644  0.497045  0.000602  1
  Pd  Pd9  1  0.732532  0.499520  0.995224  1
  Pd  Pd10  1  0.007415  0.267315  0.501428  1
  Pd  Pd11  1  0.500480  0.267468  0.995224  1
  Pd  Pd12  1  0.988216  0.733147  0.501227  1
  Pd  Pd13  1  0.502955  0.732356  0.000602  1
  Pd  Pd14  1  0.500557  0.999201  0.267665  1
  Pd  Pd15  1  0.266853  0.011784  0.501227  1
  Pd  Pd16  1  0.501450  0.004827  0.732152  1
  Pd  Pd17  1  0.732685  0.992585  0.501428  1
  Pd  Pd18  1  0.000799  0.499443  0.267665  1
  Pd  Pd19  1  0.995173  0.498550  0.732152  1
  Pd  Pd20  1  0.255892  0.492972  0.500479  1
  Pd  Pd21  1  0.744353  0.502606  0.503091  1
  Pd  Pd22  1  0.497394  0.255647  0.503091  1
  Pd  Pd23  1  0.507028  0.744108  0.500479  1
  Pd  Pd24  1  0.500299  0.499701  0.255637  1
  Pd  Pd25  1  0.502842  0.497158  0.744241  1
  Pd  Pd26  1  0.317161  0.006369  0.999688  1
  Pd  Pd27  1  0.683295  0.996806  0.996994  1
  Pd  Pd28  1  0.003194  0.316705  0.996994  1
  Pd  Pd29  1  0.993631  0.682839  0.999688  1
  Pd  Pd30  1  0.000050  0.999950  0.317233  1
  Pd  Pd31  1  0.996968  0.003032  0.684190  1
  Pb  Pb32  1  0.999498  0.000502  0.999378  1
