# generated using pymatgen
data_Er4MnV(B8Rh)2
_symmetry_space_group_name_H-M   'P 1'
_cell_length_a   3.48255600
_cell_length_b   5.92891699
_cell_length_c   11.48461756
_cell_angle_alpha   89.58734996
_cell_angle_beta   90.00000000
_cell_angle_gamma   90.00000000
_symmetry_Int_Tables_number   1
_chemical_formula_structural   Er4MnV(B8Rh)2
_chemical_formula_sum   'Er4 Mn1 V1 B16 Rh2'
_cell_volume   237.12576911
_cell_formula_units_Z   1
loop_
 _symmetry_equiv_pos_site_id
 _symmetry_equiv_pos_as_xyz
  1  'x, y, z'
loop_
 _atom_site_type_symbol
 _atom_site_label
 _atom_site_symmetry_multiplicity
 _atom_site_fract_x
 _atom_site_fract_y
 _atom_site_fract_z
 _atom_site_occupancy
  Er  Er0  1  0.500000  0.123720  0.852120  1
  Er  Er1  1  0.500000  0.873509  0.147680  1
  Er  Er2  1  0.500000  0.630635  0.652847  1
  Er  Er3  1  0.500000  0.370590  0.348382  1
  Mn  Mn4  1  0.500000  0.623012  0.917923  1
  V  V5  1  0.500000  0.375549  0.080904  1
  B  B6  1  0.000000  0.288906  0.689189  1
  B  B7  1  0.000000  0.712291  0.311729  1
  B  B8  1  0.000000  0.782506  0.817791  1
  B  B9  1  0.000000  0.213146  0.184555  1
  B  B10  1  0.000000  0.365222  0.530460  1
  B  B11  1  0.000000  0.634671  0.469392  1
  B  B12  1  0.000000  0.862084  0.966580  1
  B  B13  1  0.000000  0.134629  0.030344  1
  B  B14  1  0.000000  0.024947  0.305589  1
  B  B15  1  0.000000  0.972829  0.695029  1
  B  B16  1  0.000000  0.524268  0.191123  1
  B  B17  1  0.000000  0.479733  0.809319  1
  B  B18  1  0.000000  0.113912  0.452205  1
  B  B19  1  0.000000  0.886096  0.548546  1
  B  B20  1  0.000000  0.615420  0.043910  1
  B  B21  1  0.000000  0.389917  0.951448  1
  Rh  Rh22  1  0.500000  0.142719  0.595548  1
  Rh  Rh23  1  0.500000  0.859689  0.407388  1
