# generated using pymatgen
data_Sr6InGe5Rh12
_symmetry_space_group_name_H-M   'P 1'
_cell_length_a   5.81760800
_cell_length_b   5.81760586
_cell_length_c   15.83011800
_cell_angle_alpha   90.00000000
_cell_angle_beta   90.00000000
_cell_angle_gamma   119.99998943
_symmetry_Int_Tables_number   1
_chemical_formula_structural   Sr6InGe5Rh12
_chemical_formula_sum   'Sr6 In1 Ge5 Rh12'
_cell_volume   463.98461381
_cell_formula_units_Z   1
loop_
 _symmetry_equiv_pos_site_id
 _symmetry_equiv_pos_as_xyz
  1  'x, y, z'
loop_
 _atom_site_type_symbol
 _atom_site_label
 _atom_site_symmetry_multiplicity
 _atom_site_fract_x
 _atom_site_fract_y
 _atom_site_fract_z
 _atom_site_occupancy
  Sr  Sr0  1  0.666667  0.333333  0.959342  1
  Sr  Sr1  1  0.666667  0.333333  0.541976  1
  Sr  Sr2  1  0.333333  0.666667  0.040658  1
  Sr  Sr3  1  0.666667  0.333333  0.751210  1
  Sr  Sr4  1  0.333333  0.666667  0.458024  1
  Sr  Sr5  1  0.333333  0.666667  0.248790  1
  In  In6  1  0.000000  0.000000  0.500000  1
  Ge  Ge7  1  0.666667  0.333333  0.244651  1
  Ge  Ge8  1  0.000000  0.000000  0.247291  1
  Ge  Ge9  1  0.000000  0.000000  0.752709  1
  Ge  Ge10  1  0.333333  0.666667  0.755349  1
  Ge  Ge11  1  0.000000  0.000000  0.000000  1
  Rh  Rh12  1  0.164770  0.329541  0.869558  1
  Rh  Rh13  1  0.168070  0.336140  0.639784  1
  Rh  Rh14  1  0.670459  0.835230  0.869558  1
  Rh  Rh15  1  0.336140  0.168070  0.360216  1
  Rh  Rh16  1  0.831930  0.663860  0.360216  1
  Rh  Rh17  1  0.831930  0.168070  0.360216  1
  Rh  Rh18  1  0.835230  0.164770  0.130442  1
  Rh  Rh19  1  0.329541  0.164770  0.130442  1
  Rh  Rh20  1  0.663860  0.831930  0.639784  1
  Rh  Rh21  1  0.168070  0.831930  0.639784  1
  Rh  Rh22  1  0.835230  0.670459  0.130442  1
  Rh  Rh23  1  0.164770  0.835230  0.869558  1
