# generated using pymatgen
data_Lu4Al2Ga2Ir3Pt
_symmetry_space_group_name_H-M   'P 1'
_cell_length_a   4.24744300
_cell_length_b   6.71630100
_cell_length_c   7.84672098
_cell_angle_alpha   89.95855962
_cell_angle_beta   90.00000000
_cell_angle_gamma   90.00000000
_symmetry_Int_Tables_number   1
_chemical_formula_structural   Lu4Al2Ga2Ir3Pt
_chemical_formula_sum   'Lu4 Al2 Ga2 Ir3 Pt1'
_cell_volume   223.84418005
_cell_formula_units_Z   1
loop_
 _symmetry_equiv_pos_site_id
 _symmetry_equiv_pos_as_xyz
  1  'x, y, z'
loop_
 _atom_site_type_symbol
 _atom_site_label
 _atom_site_symmetry_multiplicity
 _atom_site_fract_x
 _atom_site_fract_y
 _atom_site_fract_z
 _atom_site_occupancy
  Lu  Lu0  1  0.250000  0.031133  0.677568  1
  Lu  Lu1  1  0.250000  0.536124  0.822400  1
  Lu  Lu2  1  0.750000  0.966476  0.320760  1
  Lu  Lu3  1  0.750000  0.470157  0.178951  1
  Al  Al4  1  0.250000  0.638350  0.440803  1
  Al  Al5  1  0.750000  0.362376  0.556853  1
  Ga  Ga6  1  0.250000  0.141266  0.062770  1
  Ga  Ga7  1  0.750000  0.854870  0.939588  1
  Ir  Ir8  1  0.250000  0.263642  0.378728  1
  Ir  Ir9  1  0.250000  0.760363  0.126793  1
  Ir  Ir10  1  0.750000  0.736463  0.622837  1
  Pt  Pt11  1  0.750000  0.238780  0.871948  1
