# generated using pymatgen
data_NdLu(ScIr)2
_symmetry_space_group_name_H-M   'P 1'
_cell_length_a   7.15598500
_cell_length_b   4.24199900
_cell_length_c   8.85191100
_cell_angle_alpha   90.00000000
_cell_angle_beta   90.00000000
_cell_angle_gamma   90.00000000
_symmetry_Int_Tables_number   1
_chemical_formula_structural   NdLu(ScIr)2
_chemical_formula_sum   'Nd2 Lu2 Sc4 Ir4'
_cell_volume   268.70578845
_cell_formula_units_Z   2
loop_
 _symmetry_equiv_pos_site_id
 _symmetry_equiv_pos_as_xyz
  1  'x, y, z'
loop_
 _atom_site_type_symbol
 _atom_site_label
 _atom_site_symmetry_multiplicity
 _atom_site_fract_x
 _atom_site_fract_y
 _atom_site_fract_z
 _atom_site_occupancy
  Nd  Nd0  1  0.015468  0.750000  0.825726  1
  Nd  Nd1  1  0.515468  0.750000  0.674274  1
  Lu  Lu2  1  0.976969  0.250000  0.175524  1
  Lu  Lu3  1  0.476969  0.250000  0.324476  1
  Sc  Sc4  1  0.861704  0.250000  0.553101  1
  Sc  Sc5  1  0.361704  0.250000  0.946899  1
  Sc  Sc6  1  0.143853  0.750000  0.426859  1
  Sc  Sc7  1  0.643853  0.750000  0.073141  1
  Ir  Ir8  1  0.736233  0.250000  0.902480  1
  Ir  Ir9  1  0.236233  0.250000  0.597520  1
  Ir  Ir10  1  0.265772  0.750000  0.118178  1
  Ir  Ir11  1  0.765772  0.750000  0.381822  1
