# generated using pymatgen
data_Nd12Si3BBr12
_symmetry_space_group_name_H-M   'P 1'
_cell_length_a   10.43116225
_cell_length_b   10.34167334
_cell_length_c   10.34167145
_cell_angle_alpha   109.29526322
_cell_angle_beta   109.64660366
_cell_angle_gamma   109.64661086
_symmetry_Int_Tables_number   1
_chemical_formula_structural   Nd12Si3BBr12
_chemical_formula_sum   'Nd12 Si3 B1 Br12'
_cell_volume   856.93476609
_cell_formula_units_Z   1
loop_
 _symmetry_equiv_pos_site_id
 _symmetry_equiv_pos_as_xyz
  1  'x, y, z'
loop_
 _atom_site_type_symbol
 _atom_site_label
 _atom_site_symmetry_multiplicity
 _atom_site_fract_x
 _atom_site_fract_y
 _atom_site_fract_z
 _atom_site_occupancy
  Nd  Nd0  1  0.467278  0.493668  0.226224  1
  Nd  Nd1  1  0.750000  0.239163  0.260837  1
  Nd  Nd2  1  0.750000  0.009568  0.490432  1
  Nd  Nd3  1  0.240432  0.480864  0.490432  1
  Nd  Nd4  1  0.258947  0.732557  0.226224  1
  Nd  Nd5  1  0.032722  0.273776  0.006332  1
  Nd  Nd6  1  0.010837  0.021673  0.260837  1
  Nd  Nd7  1  0.473608  0.732557  0.006332  1
  Nd  Nd8  1  0.489163  0.239163  0.478327  1
  Nd  Nd9  1  0.026392  0.493668  0.767443  1
  Nd  Nd10  1  0.259568  0.009568  0.019136  1
  Nd  Nd11  1  0.241053  0.273776  0.767443  1
  Si  Si12  1  0.250000  0.250620  0.249380  1
  Si  Si13  1  0.499380  0.998761  0.249380  1
  Si  Si14  1  0.000620  0.250620  0.501239  1
  B  B15  1  0.250000  0.500000  0.000000  1
  Br  Br16  1  0.250000  0.755225  0.744775  1
  Br  Br17  1  0.510662  0.505773  0.757014  1
  Br  Br18  1  0.989338  0.742986  0.994227  1
  Br  Br19  1  0.746353  0.251241  0.757014  1
  Br  Br20  1  0.994775  0.989549  0.744775  1
  Br  Br21  1  0.250000  0.996234  0.503766  1
  Br  Br22  1  0.753766  0.507534  0.503766  1
  Br  Br23  1  0.504888  0.251241  0.994227  1
  Br  Br24  1  0.753647  0.742986  0.248759  1
  Br  Br25  1  0.746234  0.996234  0.992466  1
  Br  Br26  1  0.995112  0.505773  0.248759  1
  Br  Br27  1  0.505225  0.755225  0.510451  1
