# generated using pymatgen
data_Y3In3Cu2Ni
_symmetry_space_group_name_H-M   'P 1'
_cell_length_a   7.47010100
_cell_length_b   7.47010055
_cell_length_c   3.91622800
_cell_angle_alpha   90.00000000
_cell_angle_beta   90.00000000
_cell_angle_gamma   119.99999758
_symmetry_Int_Tables_number   1
_chemical_formula_structural   Y3In3Cu2Ni
_chemical_formula_sum   'Y3 In3 Cu2 Ni1'
_cell_volume   189.25681699
_cell_formula_units_Z   1
loop_
 _symmetry_equiv_pos_site_id
 _symmetry_equiv_pos_as_xyz
  1  'x, y, z'
loop_
 _atom_site_type_symbol
 _atom_site_label
 _atom_site_symmetry_multiplicity
 _atom_site_fract_x
 _atom_site_fract_y
 _atom_site_fract_z
 _atom_site_occupancy
  Y  Y0  1  0.407699  0.989526  0.500000  1
  Y  Y1  1  0.010474  0.418173  0.500000  1
  Y  Y2  1  0.581827  0.592301  0.500000  1
  In  In3  1  0.746948  0.000405  0.000000  1
  In  In4  1  0.999595  0.746543  0.000000  1
  In  In5  1  0.253457  0.253052  0.000000  1
  Cu  Cu6  1  0.666667  0.333333  0.000000  1
  Cu  Cu7  1  0.000000  0.000000  0.500000  1
  Ni  Ni8  1  0.333333  0.666667  0.000000  1
