# generated using pymatgen
data_CsV2As2H5O11
_symmetry_space_group_name_H-M   'P 1'
_cell_length_a   10.24755100
_cell_length_b   10.18789299
_cell_length_c   12.85131200
_cell_angle_alpha   52.05682580
_cell_angle_beta   90.00000000
_cell_angle_gamma   90.00000000
_symmetry_Int_Tables_number   1
_chemical_formula_structural   CsV2As2H5O11
_chemical_formula_sum   'Cs4 V8 As8 H20 O44'
_cell_volume   1058.08426400
_cell_formula_units_Z   4
loop_
 _symmetry_equiv_pos_site_id
 _symmetry_equiv_pos_as_xyz
  1  'x, y, z'
loop_
 _atom_site_type_symbol
 _atom_site_label
 _atom_site_symmetry_multiplicity
 _atom_site_fract_x
 _atom_site_fract_y
 _atom_site_fract_z
 _atom_site_occupancy
  Cs  Cs0  1  0.683276  0.620400  0.986180  1
  Cs  Cs1  1  0.816724  0.620400  0.486180  1
  Cs  Cs2  1  0.183276  0.379600  0.513820  1
  Cs  Cs3  1  0.316724  0.379600  0.013820  1
  V  V4  1  0.730895  0.283312  0.903896  1
  V  V5  1  0.955838  0.976800  0.893125  1
  V  V6  1  0.230895  0.716688  0.596104  1
  V  V7  1  0.455838  0.023200  0.606875  1
  V  V8  1  0.544162  0.976800  0.393125  1
  V  V9  1  0.769105  0.283312  0.403896  1
  V  V10  1  0.044162  0.023200  0.106875  1
  V  V11  1  0.269105  0.716688  0.096104  1
  As  As12  1  0.026325  0.353840  0.796514  1
  As  As13  1  0.182478  0.845340  0.786059  1
  As  As14  1  0.526325  0.646160  0.703486  1
  As  As15  1  0.682478  0.154660  0.713941  1
  As  As16  1  0.317522  0.845340  0.286059  1
  As  As17  1  0.473675  0.353840  0.296514  1
  As  As18  1  0.817522  0.154660  0.213941  1
  As  As19  1  0.973675  0.646160  0.203486  1
  H  H20  1  0.483073  0.157117  0.951411  1
  H  H21  1  0.365807  0.342353  0.776935  1
  H  H22  1  0.196163  0.034786  0.941075  1
  H  H23  1  0.464920  0.925627  0.899127  1
  H  H24  1  0.865807  0.657647  0.723065  1
  H  H25  1  0.912998  0.807907  0.719141  1
  H  H26  1  0.412998  0.192093  0.780859  1
  H  H27  1  0.964920  0.074373  0.600873  1
  H  H28  1  0.696163  0.965214  0.558925  1
  H  H29  1  0.983073  0.842883  0.548589  1
  H  H30  1  0.016927  0.157117  0.451411  1
  H  H31  1  0.303837  0.034786  0.441075  1
  H  H32  1  0.035080  0.925627  0.399127  1
  H  H33  1  0.587002  0.807907  0.219141  1
  H  H34  1  0.087002  0.192093  0.280859  1
  H  H35  1  0.134193  0.342353  0.276935  1
  H  H36  1  0.535080  0.074373  0.100873  1
  H  H37  1  0.803837  0.965214  0.058925  1
  H  H38  1  0.634193  0.657647  0.223065  1
  H  H39  1  0.516927  0.842883  0.048589  1
  O  O40  1  0.096947  0.250950  0.950361  1
  O  O41  1  0.439955  0.861291  0.992866  1
  O  O42  1  0.364407  0.219015  0.831563  1
  O  O43  1  0.238909  0.715093  0.945069  1
  O  O44  1  0.135977  0.941753  0.999785  1
  O  O45  1  0.662950  0.277712  0.762173  1
  O  O46  1  0.618980  0.493814  0.830356  1
  O  O47  1  0.877652  0.436503  0.796340  1
  O  O48  1  0.377652  0.563497  0.703660  1
  O  O49  1  0.118980  0.506186  0.669644  1
  O  O50  1  0.026271  0.919466  0.779091  1
  O  O51  1  0.162950  0.722288  0.737827  1
  O  O52  1  0.778711  0.984339  0.814978  1
  O  O53  1  0.493415  0.780591  0.740029  1
  O  O54  1  0.864407  0.780985  0.668437  1
  O  O55  1  0.993415  0.219409  0.759971  1
  O  O56  1  0.278711  0.015661  0.685022  1
  O  O57  1  0.526272  0.080534  0.720909  1
  O  O58  1  0.596947  0.749050  0.549639  1
  O  O59  1  0.060045  0.861291  0.492866  1
  O  O60  1  0.261091  0.715093  0.445069  1
  O  O61  1  0.364023  0.941753  0.499785  1
  O  O62  1  0.635977  0.058247  0.500215  1
  O  O63  1  0.738909  0.284907  0.554931  1
  O  O64  1  0.939955  0.138709  0.507134  1
  O  O65  1  0.403053  0.250950  0.450361  1
  O  O66  1  0.473729  0.919466  0.279091  1
  O  O67  1  0.721289  0.984339  0.314978  1
  O  O68  1  0.006585  0.780591  0.240029  1
  O  O69  1  0.135593  0.219015  0.331563  1
  O  O70  1  0.506585  0.219409  0.259971  1
  O  O71  1  0.221289  0.015661  0.185022  1
  O  O72  1  0.837050  0.277712  0.262173  1
  O  O73  1  0.973729  0.080534  0.220909  1
  O  O74  1  0.881020  0.493814  0.330356  1
  O  O75  1  0.622348  0.436503  0.296340  1
  O  O76  1  0.122348  0.563497  0.203660  1
  O  O77  1  0.381020  0.506186  0.169644  1
  O  O78  1  0.337050  0.722288  0.237827  1
  O  O79  1  0.864023  0.058247  0.000215  1
  O  O80  1  0.761091  0.284907  0.054931  1
  O  O81  1  0.635593  0.780985  0.168437  1
  O  O82  1  0.560045  0.138709  0.007134  1
  O  O83  1  0.903053  0.749050  0.049639  1
