# generated using pymatgen
data_Sc18Tc7MoP2
_symmetry_space_group_name_H-M   'P 1'
_cell_length_a   8.60750500
_cell_length_b   8.60750612
_cell_length_c   8.57528100
_cell_angle_alpha   90.00000000
_cell_angle_beta   90.00000000
_cell_angle_gamma   119.99999953
_symmetry_Int_Tables_number   1
_chemical_formula_structural   Sc18Tc7MoP2
_chemical_formula_sum   'Sc18 Tc7 Mo1 P2'
_cell_volume   550.21650998
_cell_formula_units_Z   1
loop_
 _symmetry_equiv_pos_site_id
 _symmetry_equiv_pos_as_xyz
  1  'x, y, z'
loop_
 _atom_site_type_symbol
 _atom_site_label
 _atom_site_symmetry_multiplicity
 _atom_site_fract_x
 _atom_site_fract_y
 _atom_site_fract_z
 _atom_site_occupancy
  Sc  Sc0  1  0.197577  0.802423  0.452134  1
  Sc  Sc1  1  0.197577  0.395153  0.452134  1
  Sc  Sc2  1  0.604847  0.802423  0.452134  1
  Sc  Sc3  1  0.802423  0.197577  0.547866  1
  Sc  Sc4  1  0.802423  0.604847  0.547866  1
  Sc  Sc5  1  0.395153  0.197577  0.547866  1
  Sc  Sc6  1  0.801654  0.198346  0.952419  1
  Sc  Sc7  1  0.801654  0.603308  0.952419  1
  Sc  Sc8  1  0.396692  0.198346  0.952419  1
  Sc  Sc9  1  0.198346  0.801654  0.047581  1
  Sc  Sc10  1  0.198346  0.396692  0.047581  1
  Sc  Sc11  1  0.603308  0.801654  0.047581  1
  Sc  Sc12  1  0.538292  0.461708  0.250109  1
  Sc  Sc13  1  0.538292  0.076582  0.250109  1
  Sc  Sc14  1  0.923418  0.461708  0.250109  1
  Sc  Sc15  1  0.461708  0.538292  0.749891  1
  Sc  Sc16  1  0.461708  0.923418  0.749891  1
  Sc  Sc17  1  0.076582  0.538292  0.749891  1
  Tc  Tc18  1  0.891832  0.108168  0.249506  1
  Tc  Tc19  1  0.891832  0.783663  0.249506  1
  Tc  Tc20  1  0.216337  0.108168  0.249506  1
  Tc  Tc21  1  0.108168  0.891832  0.750494  1
  Tc  Tc22  1  0.108168  0.216337  0.750494  1
  Tc  Tc23  1  0.783663  0.891832  0.750494  1
  Tc  Tc24  1  0.000000  0.000000  0.500000  1
  Mo  Mo25  1  0.000000  0.000000  0.000000  1
  P  P26  1  0.333333  0.666667  0.250210  1
  P  P27  1  0.666667  0.333333  0.749790  1
