# generated using pymatgen
data_Gd4Al24Pd7Au2
_symmetry_space_group_name_H-M   'P 1'
_cell_length_a   7.59333155
_cell_length_b   7.59281457
_cell_length_c   13.20865600
_cell_angle_alpha   84.50112218
_cell_angle_beta   101.02680525
_cell_angle_gamma   119.84370520
_symmetry_Int_Tables_number   1
_chemical_formula_structural   Gd4Al24Pd7Au2
_chemical_formula_sum   'Gd4 Al24 Pd7 Au2'
_cell_volume   648.35543762
_cell_formula_units_Z   1
loop_
 _symmetry_equiv_pos_site_id
 _symmetry_equiv_pos_as_xyz
  1  'x, y, z'
loop_
 _atom_site_type_symbol
 _atom_site_label
 _atom_site_symmetry_multiplicity
 _atom_site_fract_x
 _atom_site_fract_y
 _atom_site_fract_z
 _atom_site_occupancy
  Gd  Gd0  1  0.437777  0.830182  0.808989  1
  Gd  Gd1  1  0.562223  0.169818  0.191011  1
  Gd  Gd2  1  0.767815  0.501456  0.809445  1
  Gd  Gd3  1  0.232185  0.498544  0.190555  1
  Al  Al4  1  0.482600  0.165559  0.945127  1
  Al  Al5  1  0.517400  0.834441  0.054873  1
  Al  Al6  1  0.015993  0.160961  0.562372  1
  Al  Al7  1  0.984007  0.839039  0.437628  1
  Al  Al8  1  0.353209  0.839909  0.560151  1
  Al  Al9  1  0.646791  0.160091  0.439849  1
  Al  Al10  1  0.616424  0.840186  0.326730  1
  Al  Al11  1  0.383576  0.159814  0.673270  1
  Al  Al12  1  0.052842  0.492868  0.673570  1
  Al  Al13  1  0.947158  0.507132  0.326430  1
  Al  Al14  1  0.737329  0.846527  0.671949  1
  Al  Al15  1  0.262671  0.153473  0.328051  1
  Al  Al16  1  0.147858  0.500695  0.944855  1
  Al  Al17  1  0.852142  0.499305  0.055145  1
  Al  Al18  1  0.817921  0.832995  0.954945  1
  Al  Al19  1  0.182079  0.167005  0.045055  1
  Al  Al20  1  0.304672  0.500249  0.436841  1
  Al  Al21  1  0.695328  0.499751  0.563159  1
  Al  Al22  1  0.103499  0.835727  0.183457  1
  Al  Al23  1  0.896501  0.164273  0.816543  1
  Al  Al24  1  0.304943  0.365263  0.818077  1
  Al  Al25  1  0.695057  0.634737  0.181923  1
  Al  Al26  1  0.103300  0.957747  0.816054  1
  Al  Al27  1  0.896700  0.042253  0.183946  1
  Pd  Pd28  1  0.170846  0.828497  0.999787  1
  Pd  Pd29  1  0.829154  0.171503  0.000213  1
  Pd  Pd30  1  0.294477  0.832835  0.363114  1
  Pd  Pd31  1  0.705523  0.167165  0.636886  1
  Pd  Pd32  1  0.045380  0.825491  0.636563  1
  Pd  Pd33  1  0.954620  0.174509  0.363437  1
  Pd  Pd34  1  0.500000  0.500000  0.000000  1
  Au  Au35  1  0.388521  0.508158  0.637319  1
  Au  Au36  1  0.611479  0.491842  0.362681  1
