# generated using pymatgen
data_Dy13YAu20
_symmetry_space_group_name_H-M   'P 1'
_cell_length_a   8.73765525
_cell_length_b   8.73765661
_cell_length_c   10.42119500
_cell_angle_alpha   90.00040294
_cell_angle_beta   90.00040114
_cell_angle_gamma   107.03540694
_symmetry_Int_Tables_number   1
_chemical_formula_structural   Dy13YAu20
_chemical_formula_sum   'Dy13 Y1 Au20'
_cell_volume   760.71428821
_cell_formula_units_Z   1
loop_
 _symmetry_equiv_pos_site_id
 _symmetry_equiv_pos_as_xyz
  1  'x, y, z'
loop_
 _atom_site_type_symbol
 _atom_site_label
 _atom_site_symmetry_multiplicity
 _atom_site_fract_x
 _atom_site_fract_y
 _atom_site_fract_z
 _atom_site_occupancy
  Dy  Dy0  1  0.306455  0.693545  0.000000  1
  Dy  Dy1  1  0.806491  0.193509  0.500000  1
  Dy  Dy2  1  0.193500  0.806500  0.500000  1
  Dy  Dy3  1  0.999916  0.000084  0.000000  1
  Dy  Dy4  1  0.499928  0.500072  0.500000  1
  Dy  Dy5  1  0.002565  0.502579  0.249982  1
  Dy  Dy6  1  0.997507  0.497396  0.749971  1
  Dy  Dy7  1  0.497421  0.997435  0.750018  1
  Dy  Dy8  1  0.502604  0.002493  0.250029  1
  Dy  Dy9  1  0.313169  0.312981  0.188169  1
  Dy  Dy10  1  0.687019  0.686831  0.811831  1
  Dy  Dy11  1  0.187108  0.187009  0.688174  1
  Dy  Dy12  1  0.812991  0.812892  0.311826  1
  Y  Y13  1  0.693500  0.306500  0.000000  1
  Au  Au14  1  0.860035  0.149158  0.209841  1
  Au  Au15  1  0.140252  0.850797  0.790461  1
  Au  Au16  1  0.640089  0.350844  0.709241  1
  Au  Au17  1  0.649156  0.359911  0.290759  1
  Au  Au18  1  0.359786  0.649210  0.290417  1
  Au  Au19  1  0.350790  0.640214  0.709583  1
  Au  Au20  1  0.850842  0.139965  0.790159  1
  Au  Au21  1  0.149203  0.859748  0.209539  1
  Au  Au22  1  0.937467  0.645454  0.002281  1
  Au  Au23  1  0.063309  0.355084  0.997713  1
  Au  Au24  1  0.562827  0.855019  0.502286  1
  Au  Au25  1  0.144981  0.437173  0.497714  1
  Au  Au26  1  0.437169  0.144989  0.497771  1
  Au  Au27  1  0.855011  0.562831  0.502229  1
  Au  Au28  1  0.354546  0.062533  0.997719  1
  Au  Au29  1  0.644916  0.936691  0.002287  1
  Au  Au30  1  0.105196  0.105205  0.397180  1
  Au  Au31  1  0.894795  0.894804  0.602820  1
  Au  Au32  1  0.394346  0.394892  0.897056  1
  Au  Au33  1  0.605108  0.605654  0.102944  1
