# generated using pymatgen
data_Tb2Cr3NiP7Rh8
_symmetry_space_group_name_H-M   'P 1'
_cell_length_a   3.82406105
_cell_length_b   9.53705629
_cell_length_c   9.57563867
_cell_angle_alpha   120.38399798
_cell_angle_beta   90.01461004
_cell_angle_gamma   89.99015326
_symmetry_Int_Tables_number   1
_chemical_formula_structural   Tb2Cr3NiP7Rh8
_chemical_formula_sum   'Tb2 Cr3 Ni1 P7 Rh8'
_cell_volume   301.26177092
_cell_formula_units_Z   1
loop_
 _symmetry_equiv_pos_site_id
 _symmetry_equiv_pos_as_xyz
  1  'x, y, z'
loop_
 _atom_site_type_symbol
 _atom_site_label
 _atom_site_symmetry_multiplicity
 _atom_site_fract_x
 _atom_site_fract_y
 _atom_site_fract_z
 _atom_site_occupancy
  Tb  Tb0  1  0.261892  0.664783  0.332622  1
  Tb  Tb1  1  0.761894  0.334938  0.666708  1
  Cr  Cr2  1  0.762181  0.105281  0.864818  1
  Cr  Cr3  1  0.761975  0.123024  0.220486  1
  Cr  Cr4  1  0.761875  0.776533  0.905138  1
  Ni  Ni5  1  0.261377  0.882706  0.163262  1
  P  P6  1  0.261916  0.993642  0.010200  1
  P  P7  1  0.761958  0.882914  0.593795  1
  P  P8  1  0.762046  0.397808  0.286770  1
  P  P9  1  0.761684  0.716906  0.117766  1
  P  P10  1  0.261631  0.111305  0.403544  1
  P  P11  1  0.261957  0.590500  0.707039  1
  P  P12  1  0.262019  0.296899  0.883571  1
  Rh  Rh13  1  0.261980  0.847640  0.732934  1
  Rh  Rh14  1  0.262142  0.267436  0.111135  1
  Rh  Rh15  1  0.761933  0.613666  0.560926  1
  Rh  Rh16  1  0.762012  0.441842  0.054844  1
  Rh  Rh17  1  0.761715  0.945150  0.382801  1
  Rh  Rh18  1  0.261921  0.367278  0.435681  1
  Rh  Rh19  1  0.261855  0.570166  0.937291  1
  Rh  Rh20  1  0.262037  0.069582  0.628669  1
