# generated using pymatgen
data_Tb3Dy3(GaC3)2
_symmetry_space_group_name_H-M   'P 1'
_cell_length_a   3.58540400
_cell_length_b   7.07259920
_cell_length_c   9.90493736
_cell_angle_alpha   89.95308602
_cell_angle_beta   90.00000000
_cell_angle_gamma   90.00000000
_symmetry_Int_Tables_number   1
_chemical_formula_structural   Tb3Dy3(GaC3)2
_chemical_formula_sum   'Tb3 Dy3 Ga2 C6'
_cell_volume   251.17056023
_cell_formula_units_Z   1
loop_
 _symmetry_equiv_pos_site_id
 _symmetry_equiv_pos_as_xyz
  1  'x, y, z'
loop_
 _atom_site_type_symbol
 _atom_site_label
 _atom_site_symmetry_multiplicity
 _atom_site_fract_x
 _atom_site_fract_y
 _atom_site_fract_z
 _atom_site_occupancy
  Tb  Tb0  1  0.500000  0.509963  0.196729  1
  Tb  Tb1  1  0.000000  0.750173  0.459553  1
  Tb  Tb2  1  0.000000  0.250067  0.540527  1
  Dy  Dy3  1  0.500000  0.488400  0.803134  1
  Dy  Dy4  1  0.500000  0.988867  0.197189  1
  Dy  Dy5  1  0.500000  0.011063  0.802589  1
  Ga  Ga6  1  0.000000  0.751342  0.000984  1
  Ga  Ga7  1  0.000000  0.248658  0.998314  1
  C  C8  1  0.500000  0.509363  0.567308  1
  C  C9  1  0.500000  0.491027  0.434106  1
  C  C10  1  0.500000  0.990954  0.566568  1
  C  C11  1  0.500000  0.009273  0.433318  1
  C  C12  1  0.000000  0.751095  0.209154  1
  C  C13  1  0.000000  0.249755  0.790526  1
