# generated using pymatgen
data_Li4PaNi9P7
_symmetry_space_group_name_H-M   'P 1'
_cell_length_a   9.12688500
_cell_length_b   9.12688588
_cell_length_c   3.67895300
_cell_angle_alpha   90.00000000
_cell_angle_beta   90.00000000
_cell_angle_gamma   120.00000042
_symmetry_Int_Tables_number   1
_chemical_formula_structural   Li4PaNi9P7
_chemical_formula_sum   'Li4 Pa1 Ni9 P7'
_cell_volume   265.39948044
_cell_formula_units_Z   1
loop_
 _symmetry_equiv_pos_site_id
 _symmetry_equiv_pos_as_xyz
  1  'x, y, z'
loop_
 _atom_site_type_symbol
 _atom_site_label
 _atom_site_symmetry_multiplicity
 _atom_site_fract_x
 _atom_site_fract_y
 _atom_site_fract_z
 _atom_site_occupancy
  Li  Li0  1  0.887811  0.784222  0.500000  1
  Li  Li1  1  0.896411  0.112189  0.500000  1
  Li  Li2  1  0.215778  0.103589  0.500000  1
  Li  Li3  1  0.666667  0.333333  0.500000  1
  Pa  Pa4  1  0.333333  0.666667  0.000000  1
  Ni  Ni5  1  0.715568  0.882863  0.000000  1
  Ni  Ni6  1  0.167295  0.284432  0.000000  1
  Ni  Ni7  1  0.117137  0.832705  0.000000  1
  Ni  Ni8  1  0.626816  0.570934  0.000000  1
  Ni  Ni9  1  0.944119  0.373184  0.000000  1
  Ni  Ni10  1  0.429066  0.055881  0.000000  1
  Ni  Ni11  1  0.569523  0.964414  0.500000  1
  Ni  Ni12  1  0.394890  0.430477  0.500000  1
  Ni  Ni13  1  0.035586  0.605110  0.500000  1
  P  P14  1  0.591189  0.713761  0.500000  1
  P  P15  1  0.122573  0.408811  0.500000  1
  P  P16  1  0.286239  0.877427  0.500000  1
  P  P17  1  0.000000  0.000000  0.000000  1
  P  P18  1  0.876825  0.577003  0.000000  1
  P  P19  1  0.700178  0.123175  0.000000  1
  P  P20  1  0.422997  0.299822  0.000000  1
