# generated using pymatgen
data_Nd3HoScPt3O14
_symmetry_space_group_name_H-M   'P 1'
_cell_length_a   7.39014945
_cell_length_b   7.43994265
_cell_length_c   7.39015000
_cell_angle_alpha   60.22114399
_cell_angle_beta   59.99999753
_cell_angle_gamma   60.22114737
_symmetry_Int_Tables_number   1
_chemical_formula_structural   Nd3HoScPt3O14
_chemical_formula_sum   'Nd3 Ho1 Sc1 Pt3 O14'
_cell_volume   288.27347107
_cell_formula_units_Z   1
loop_
 _symmetry_equiv_pos_site_id
 _symmetry_equiv_pos_as_xyz
  1  'x, y, z'
loop_
 _atom_site_type_symbol
 _atom_site_label
 _atom_site_symmetry_multiplicity
 _atom_site_fract_x
 _atom_site_fract_y
 _atom_site_fract_z
 _atom_site_occupancy
  Nd  Nd0  1  0.625000  0.625000  0.125000  1
  Nd  Nd1  1  0.125000  0.625000  0.625000  1
  Nd  Nd2  1  0.625000  0.625000  0.625000  1
  Ho  Ho3  1  0.625000  0.125000  0.625000  1
  Sc  Sc4  1  0.125000  0.625000  0.125000  1
  Pt  Pt5  1  0.125000  0.125000  0.625000  1
  Pt  Pt6  1  0.625000  0.125000  0.125000  1
  Pt  Pt7  1  0.125000  0.125000  0.125000  1
  O  O8  1  0.506074  0.481777  0.506074  1
  O  O9  1  0.743926  0.768223  0.743926  1
  O  O10  1  0.457400  0.058627  0.457400  1
  O  O11  1  0.214794  0.793821  0.214794  1
  O  O12  1  0.473409  0.456179  0.035206  1
  O  O13  1  0.035206  0.456179  0.473409  1
  O  O14  1  0.457400  0.058627  0.026573  1
  O  O15  1  0.026573  0.058627  0.457400  1
  O  O16  1  0.035206  0.456179  0.035206  1
  O  O17  1  0.792600  0.191373  0.223427  1
  O  O18  1  0.214794  0.793821  0.776591  1
  O  O19  1  0.792600  0.191373  0.792600  1
  O  O20  1  0.223427  0.191373  0.792600  1
  O  O21  1  0.776591  0.793821  0.214794  1
