# generated using pymatgen
data_Nd4Cd2Cu3Ru
_symmetry_space_group_name_H-M   'P 1'
_cell_length_a   7.66058552
_cell_length_b   7.66058552
_cell_length_c   3.91369100
_cell_angle_alpha   90.00000000
_cell_angle_beta   90.00000000
_cell_angle_gamma   89.85050381
_symmetry_Int_Tables_number   1
_chemical_formula_structural   Nd4Cd2Cu3Ru
_chemical_formula_sum   'Nd4 Cd2 Cu3 Ru1'
_cell_volume   229.67249359
_cell_formula_units_Z   1
loop_
 _symmetry_equiv_pos_site_id
 _symmetry_equiv_pos_as_xyz
  1  'x, y, z'
loop_
 _atom_site_type_symbol
 _atom_site_label
 _atom_site_symmetry_multiplicity
 _atom_site_fract_x
 _atom_site_fract_y
 _atom_site_fract_z
 _atom_site_occupancy
  Nd  Nd0  1  0.687799  0.187799  0.000000  1
  Nd  Nd1  1  0.324971  0.824971  0.000000  1
  Nd  Nd2  1  0.162846  0.319667  0.000000  1
  Nd  Nd3  1  0.819667  0.662846  0.000000  1
  Cd  Cd4  1  0.496540  0.500711  0.500000  1
  Cd  Cd5  1  0.000711  0.996540  0.500000  1
  Cu  Cu6  1  0.122426  0.622426  0.500000  1
  Cu  Cu7  1  0.385304  0.120147  0.500000  1
  Cu  Cu8  1  0.620147  0.885304  0.500000  1
  Ru  Ru9  1  0.879590  0.379590  0.500000  1
