# generated using pymatgen
data_La11Pr5Hg4(OsPd)2
_symmetry_space_group_name_H-M   'P 1'
_cell_length_a   10.10523442
_cell_length_b   10.08327425
_cell_length_c   10.20854302
_cell_angle_alpha   59.59436618
_cell_angle_beta   59.64907768
_cell_angle_gamma   59.86770816
_symmetry_Int_Tables_number   1
_chemical_formula_structural   La11Pr5Hg4(OsPd)2
_chemical_formula_sum   'La11 Pr5 Hg4 Os2 Pd2'
_cell_volume   730.56442129
_cell_formula_units_Z   1
loop_
 _symmetry_equiv_pos_site_id
 _symmetry_equiv_pos_as_xyz
  1  'x, y, z'
loop_
 _atom_site_type_symbol
 _atom_site_label
 _atom_site_symmetry_multiplicity
 _atom_site_fract_x
 _atom_site_fract_y
 _atom_site_fract_z
 _atom_site_occupancy
  La  La0  1  0.346832  0.346552  0.357501  1
  La  La1  1  0.349118  0.348755  0.944748  1
  La  La2  1  0.343373  0.957522  0.348539  1
  La  La3  1  0.957857  0.343019  0.347261  1
  La  La4  1  0.815541  0.190412  0.193423  1
  La  La5  1  0.189345  0.815147  0.801044  1
  La  La6  1  0.190372  0.816510  0.192766  1
  La  La7  1  0.814388  0.188575  0.801675  1
  La  La8  1  0.189885  0.188828  0.810959  1
  La  La9  1  0.800238  0.801071  0.198313  1
  La  La10  1  0.937038  0.557308  0.567435  1
  Pr  Pr11  1  0.558365  0.936474  0.937400  1
  Pr  Pr12  1  0.559686  0.937150  0.567527  1
  Pr  Pr13  1  0.937248  0.558236  0.938100  1
  Pr  Pr14  1  0.563264  0.564478  0.938998  1
  Pr  Pr15  1  0.937615  0.937360  0.562748  1
  Hg  Hg16  1  0.582658  0.583502  0.583474  1
  Hg  Hg17  1  0.583722  0.583640  0.249276  1
  Hg  Hg18  1  0.585077  0.247312  0.583615  1
  Hg  Hg19  1  0.247445  0.585202  0.584070  1
  Os  Os20  1  0.144121  0.143802  0.135731  1
  Os  Os21  1  0.142221  0.143974  0.578418  1
  Pd  Pd22  1  0.148164  0.577029  0.138006  1
  Pd  Pd23  1  0.576423  0.148138  0.138974  1
