# generated using pymatgen
data_Tb8Hg2OsPd
_symmetry_space_group_name_H-M   'P 1'
_cell_length_a   9.66648795
_cell_length_b   9.66648704
_cell_length_c   9.73386500
_cell_angle_alpha   59.76915301
_cell_angle_beta   59.76915616
_cell_angle_gamma   59.68244621
_symmetry_Int_Tables_number   1
_chemical_formula_structural   Tb8Hg2OsPd
_chemical_formula_sum   'Tb16 Hg4 Os2 Pd2'
_cell_volume   639.34855324
_cell_formula_units_Z   2
loop_
 _symmetry_equiv_pos_site_id
 _symmetry_equiv_pos_as_xyz
  1  'x, y, z'
loop_
 _atom_site_type_symbol
 _atom_site_label
 _atom_site_symmetry_multiplicity
 _atom_site_fract_x
 _atom_site_fract_y
 _atom_site_fract_z
 _atom_site_occupancy
  Tb  Tb0  1  0.351773  0.351773  0.356288  1
  Tb  Tb1  1  0.351773  0.351773  0.940167  1
  Tb  Tb2  1  0.346668  0.949727  0.351803  1
  Tb  Tb3  1  0.949727  0.346668  0.351803  1
  Tb  Tb4  1  0.815095  0.187936  0.191807  1
  Tb  Tb5  1  0.187936  0.815095  0.805163  1
  Tb  Tb6  1  0.187936  0.815095  0.191807  1
  Tb  Tb7  1  0.815095  0.187936  0.805163  1
  Tb  Tb8  1  0.188893  0.188893  0.811107  1
  Tb  Tb9  1  0.807349  0.807349  0.192651  1
  Tb  Tb10  1  0.937780  0.556049  0.567134  1
  Tb  Tb11  1  0.556049  0.937780  0.939037  1
  Tb  Tb12  1  0.556049  0.937780  0.567134  1
  Tb  Tb13  1  0.937780  0.556049  0.939037  1
  Tb  Tb14  1  0.563820  0.563820  0.936180  1
  Tb  Tb15  1  0.939065  0.939065  0.560935  1
  Hg  Hg16  1  0.584563  0.584563  0.584621  1
  Hg  Hg17  1  0.584563  0.584563  0.246252  1
  Hg  Hg18  1  0.585911  0.243283  0.585402  1
  Hg  Hg19  1  0.243283  0.585911  0.585402  1
  Os  Os20  1  0.145291  0.145291  0.136413  1
  Os  Os21  1  0.145291  0.145291  0.573005  1
  Pd  Pd22  1  0.146758  0.571554  0.140844  1
  Pd  Pd23  1  0.571554  0.146758  0.140844  1
