# generated using pymatgen
data_Tb3YbPd2(PtO7)2
_symmetry_space_group_name_H-M   'P 1'
_cell_length_a   7.27930624
_cell_length_b   7.26865909
_cell_length_c   7.27453200
_cell_angle_alpha   59.97327785
_cell_angle_beta   60.02170254
_cell_angle_gamma   59.99950343
_symmetry_Int_Tables_number   1
_chemical_formula_structural   Tb3YbPd2(PtO7)2
_chemical_formula_sum   'Tb3 Yb1 Pd2 Pt2 O14'
_cell_volume   272.15485780
_cell_formula_units_Z   1
loop_
 _symmetry_equiv_pos_site_id
 _symmetry_equiv_pos_as_xyz
  1  'x, y, z'
loop_
 _atom_site_type_symbol
 _atom_site_label
 _atom_site_symmetry_multiplicity
 _atom_site_fract_x
 _atom_site_fract_y
 _atom_site_fract_z
 _atom_site_occupancy
  Tb  Tb0  1  0.625000  0.625000  0.125000  1
  Tb  Tb1  1  0.625000  0.625000  0.625000  1
  Tb  Tb2  1  0.625000  0.125000  0.625000  1
  Yb  Yb3  1  0.125000  0.625000  0.625000  1
  Pd  Pd4  1  0.625000  0.125000  0.125000  1
  Pd  Pd5  1  0.125000  0.625000  0.125000  1
  Pt  Pt6  1  0.125000  0.125000  0.125000  1
  Pt  Pt7  1  0.125000  0.125000  0.625000  1
  O  O8  1  0.035878  0.459261  0.463147  1
  O  O9  1  0.785747  0.786278  0.213987  1
  O  O10  1  0.787052  0.212770  0.214377  1
  O  O11  1  0.462948  0.037230  0.464199  1
  O  O12  1  0.035878  0.459261  0.041714  1
  O  O13  1  0.746793  0.751848  0.750679  1
  O  O14  1  0.034954  0.045923  0.459562  1
  O  O15  1  0.214122  0.790739  0.208286  1
  O  O16  1  0.215046  0.204077  0.790438  1
  O  O17  1  0.503207  0.498152  0.499321  1
  O  O18  1  0.787052  0.212770  0.785801  1
  O  O19  1  0.462948  0.037230  0.035623  1
  O  O20  1  0.464253  0.463722  0.036013  1
  O  O21  1  0.214122  0.790739  0.786853  1
