# generated using pymatgen
data_Ho2Tm8Tl7InPt4
_symmetry_space_group_name_H-M   'P 1'
_cell_length_a   3.62500000
_cell_length_b   8.14972011
_cell_length_c   18.22169268
_cell_angle_alpha   89.91775911
_cell_angle_beta   90.00000000
_cell_angle_gamma   90.00000000
_symmetry_Int_Tables_number   1
_chemical_formula_structural   Ho2Tm8Tl7InPt4
_chemical_formula_sum   'Ho2 Tm8 Tl7 In1 Pt4'
_cell_volume   538.31809046
_cell_formula_units_Z   1
loop_
 _symmetry_equiv_pos_site_id
 _symmetry_equiv_pos_as_xyz
  1  'x, y, z'
loop_
 _atom_site_type_symbol
 _atom_site_label
 _atom_site_symmetry_multiplicity
 _atom_site_fract_x
 _atom_site_fract_y
 _atom_site_fract_z
 _atom_site_occupancy
  Ho  Ho0  1  0.000000  0.999646  0.000066  1
  Ho  Ho1  1  0.000000  0.503213  0.499727  1
  Tm  Tm2  1  0.000000  0.114799  0.412525  1
  Tm  Tm3  1  0.000000  0.886135  0.586778  1
  Tm  Tm4  1  0.000000  0.386160  0.911556  1
  Tm  Tm5  1  0.000000  0.613377  0.088438  1
  Tm  Tm6  1  0.000000  0.244122  0.221747  1
  Tm  Tm7  1  0.000000  0.755464  0.779081  1
  Tm  Tm8  1  0.000000  0.254597  0.720368  1
  Tm  Tm9  1  0.000000  0.743653  0.279511  1
  Tl  Tl10  1  0.500000  0.423523  0.354018  1
  Tl  Tl11  1  0.500000  0.580032  0.646487  1
  Tl  Tl12  1  0.500000  0.078961  0.853194  1
  Tl  Tl13  1  0.500000  0.920915  0.147278  1
  Tl  Tl14  1  0.500000  0.293430  0.064136  1
  Tl  Tl15  1  0.500000  0.705670  0.936153  1
  Tl  Tl16  1  0.500000  0.206582  0.563623  1
  In  In17  1  0.500000  0.796259  0.434257  1
  Pt  Pt18  1  0.500000  0.022802  0.304501  1
  Pt  Pt19  1  0.500000  0.972637  0.696840  1
  Pt  Pt20  1  0.500000  0.472709  0.802318  1
  Pt  Pt21  1  0.500000  0.525312  0.197399  1
