# generated using pymatgen
data_Ho3Tm(CI)2
_symmetry_space_group_name_H-M   'P 1'
_cell_length_a   3.74038800
_cell_length_b   3.74038798
_cell_length_c   14.65024200
_cell_angle_alpha   90.00000000
_cell_angle_beta   90.00000000
_cell_angle_gamma   120.00000021
_symmetry_Int_Tables_number   1
_chemical_formula_structural   Ho3Tm(CI)2
_chemical_formula_sum   'Ho3 Tm1 C2 I2'
_cell_volume   177.50424213
_cell_formula_units_Z   1
loop_
 _symmetry_equiv_pos_site_id
 _symmetry_equiv_pos_as_xyz
  1  'x, y, z'
loop_
 _atom_site_type_symbol
 _atom_site_label
 _atom_site_symmetry_multiplicity
 _atom_site_fract_x
 _atom_site_fract_y
 _atom_site_fract_z
 _atom_site_occupancy
  Ho  Ho0  1  0.333333  0.666667  0.585257  1
  Ho  Ho1  1  0.666667  0.333333  0.414513  1
  Ho  Ho2  1  0.666667  0.333333  0.084972  1
  Tm  Tm3  1  0.333333  0.666667  0.915895  1
  C  C4  1  0.000000  0.000000  0.997854  1
  C  C5  1  0.000000  0.000000  0.500014  1
  I  I6  1  0.333333  0.666667  0.249565  1
  I  I7  1  0.666667  0.333333  0.751931  1
