# generated using pymatgen
data_Pa4Al21Pt10
_symmetry_space_group_name_H-M   'P 1'
_cell_length_a   10.91288167
_cell_length_b   10.91288239
_cell_length_c   16.11054966
_cell_angle_alpha   55.79141301
_cell_angle_beta   55.79141036
_cell_angle_gamma   22.41931535
_symmetry_Int_Tables_number   1
_chemical_formula_structural   Pa4Al21Pt10
_chemical_formula_sum   'Pa4 Al21 Pt10'
_cell_volume   599.61897453
_cell_formula_units_Z   1
loop_
 _symmetry_equiv_pos_site_id
 _symmetry_equiv_pos_as_xyz
  1  'x, y, z'
loop_
 _atom_site_type_symbol
 _atom_site_label
 _atom_site_symmetry_multiplicity
 _atom_site_fract_x
 _atom_site_fract_y
 _atom_site_fract_z
 _atom_site_occupancy
  Pa  Pa0  1  0.878996  0.878996  0.333910  1
  Pa  Pa1  1  0.121004  0.121004  0.666090  1
  Pa  Pa2  1  0.227797  0.227797  0.176180  1
  Pa  Pa3  1  0.772203  0.772203  0.823820  1
  Al  Al4  1  0.457541  0.457541  0.373597  1
  Al  Al5  1  0.542459  0.542459  0.626403  1
  Al  Al6  1  0.803107  0.803107  0.001244  1
  Al  Al7  1  0.196893  0.196893  0.998756  1
  Al  Al8  1  0.698713  0.698713  0.498027  1
  Al  Al9  1  0.301287  0.301287  0.501973  1
  Al  Al10  1  0.885328  0.885328  0.550112  1
  Al  Al11  1  0.114672  0.114672  0.449888  1
  Al  Al12  1  0.614179  0.614179  0.301194  1
  Al  Al13  1  0.385821  0.385821  0.698806  1
  Al  Al14  1  0.746942  0.746942  0.295690  1
  Al  Al15  1  0.253058  0.253058  0.704310  1
  Al  Al16  1  0.601386  0.601386  0.004965  1
  Al  Al17  1  0.398614  0.398614  0.995035  1
  Al  Al18  1  0.993345  0.993345  0.089503  1
  Al  Al19  1  0.006655  0.006655  0.910497  1
  Al  Al20  1  0.936463  0.936463  0.795553  1
  Al  Al21  1  0.063537  0.063537  0.204447  1
  Al  Al22  1  0.500000  0.500000  0.500000  1
  Al  Al23  1  0.371961  0.371961  0.192186  1
  Al  Al24  1  0.628039  0.628039  0.807814  1
  Pt  Pt25  1  0.492658  0.492658  0.188906  1
  Pt  Pt26  1  0.507342  0.507342  0.811094  1
  Pt  Pt27  1  0.865845  0.865845  0.103634  1
  Pt  Pt28  1  0.134155  0.134155  0.896366  1
  Pt  Pt29  1  0.748268  0.748268  0.616028  1
  Pt  Pt30  1  0.251732  0.251732  0.383972  1
  Pt  Pt31  1  0.657837  0.657837  0.111591  1
  Pt  Pt32  1  0.342163  0.342163  0.888409  1
  Pt  Pt33  1  0.973745  0.973745  0.614368  1
  Pt  Pt34  1  0.026255  0.026255  0.385632  1
