# generated using pymatgen
data_Rb5LaO4
_symmetry_space_group_name_H-M   'P 1'
_cell_length_a   6.70625500
_cell_length_b   8.75799000
_cell_length_c   9.38729300
_cell_angle_alpha   90.00000000
_cell_angle_beta   90.00000000
_cell_angle_gamma   90.00000000
_symmetry_Int_Tables_number   1
_chemical_formula_structural   Rb5LaO4
_chemical_formula_sum   'Rb10 La2 O8'
_cell_volume   551.34682951
_cell_formula_units_Z   2
loop_
 _symmetry_equiv_pos_site_id
 _symmetry_equiv_pos_as_xyz
  1  'x, y, z'
loop_
 _atom_site_type_symbol
 _atom_site_label
 _atom_site_symmetry_multiplicity
 _atom_site_fract_x
 _atom_site_fract_y
 _atom_site_fract_z
 _atom_site_occupancy
  Rb  Rb0  1  0.255466  0.762201  0.810619  1
  Rb  Rb1  1  0.255466  0.237799  0.810619  1
  Rb  Rb2  1  0.811398  0.500000  0.000000  1
  Rb  Rb3  1  0.255466  0.762201  0.189381  1
  Rb  Rb4  1  0.255466  0.237799  0.189381  1
  Rb  Rb5  1  0.744534  0.737799  0.310619  1
  Rb  Rb6  1  0.744534  0.262201  0.310619  1
  Rb  Rb7  1  0.188602  0.000000  0.500000  1
  Rb  Rb8  1  0.744534  0.737799  0.689381  1
  Rb  Rb9  1  0.744534  0.262201  0.689381  1
  La  La10  1  0.781241  0.000000  0.000000  1
  La  La11  1  0.218759  0.500000  0.500000  1
  O  O12  1  0.967611  0.000000  0.790678  1
  O  O13  1  0.599349  0.778489  0.000000  1
  O  O14  1  0.599349  0.221511  0.000000  1
  O  O15  1  0.967611  0.000000  0.209322  1
  O  O16  1  0.032389  0.500000  0.290678  1
  O  O17  1  0.400651  0.721511  0.500000  1
  O  O18  1  0.400651  0.278489  0.500000  1
  O  O19  1  0.032389  0.500000  0.709322  1
