# generated using pymatgen
data_Nd4GaCo4Tc
_symmetry_space_group_name_H-M   'P 1'
_cell_length_a   5.67318427
_cell_length_b   5.67318382
_cell_length_c   7.26567446
_cell_angle_alpha   88.07926776
_cell_angle_beta   91.92073085
_cell_angle_gamma   121.05645834
_symmetry_Int_Tables_number   1
_chemical_formula_structural   Nd4GaCo4Tc
_chemical_formula_sum   'Nd4 Ga1 Co4 Tc1'
_cell_volume   200.17773501
_cell_formula_units_Z   1
loop_
 _symmetry_equiv_pos_site_id
 _symmetry_equiv_pos_as_xyz
  1  'x, y, z'
loop_
 _atom_site_type_symbol
 _atom_site_label
 _atom_site_symmetry_multiplicity
 _atom_site_fract_x
 _atom_site_fract_y
 _atom_site_fract_z
 _atom_site_occupancy
  Nd  Nd0  1  0.661978  0.338022  0.913327  1
  Nd  Nd1  1  0.338022  0.661978  0.086673  1
  Nd  Nd2  1  0.837563  0.162437  0.396615  1
  Nd  Nd3  1  0.162437  0.837563  0.603385  1
  Ga  Ga4  1  0.500000  0.500000  0.500000  1
  Co  Co5  1  0.672129  0.837528  0.751656  1
  Co  Co6  1  0.837528  0.672129  0.248344  1
  Co  Co7  1  0.327871  0.162472  0.248344  1
  Co  Co8  1  0.162472  0.327871  0.751656  1
  Tc  Tc9  1  0.000000  0.000000  0.000000  1
