# generated using pymatgen
data_Ac2Eu3Si4
_symmetry_space_group_name_H-M   'P 1'
_cell_length_a   8.22215700
_cell_length_b   8.22215700
_cell_length_c   15.25369500
_cell_angle_alpha   90.00000000
_cell_angle_beta   90.00000000
_cell_angle_gamma   90.00000000
_symmetry_Int_Tables_number   1
_chemical_formula_structural   Ac2Eu3Si4
_chemical_formula_sum   'Ac8 Eu12 Si16'
_cell_volume   1031.20874871
_cell_formula_units_Z   4
loop_
 _symmetry_equiv_pos_site_id
 _symmetry_equiv_pos_as_xyz
  1  'x, y, z'
loop_
 _atom_site_type_symbol
 _atom_site_label
 _atom_site_symmetry_multiplicity
 _atom_site_fract_x
 _atom_site_fract_y
 _atom_site_fract_z
 _atom_site_occupancy
  Ac  Ac0  1  0.133607  0.509847  0.293381  1
  Ac  Ac1  1  0.866393  0.490153  0.793381  1
  Ac  Ac2  1  0.009847  0.366393  0.043381  1
  Ac  Ac3  1  0.990153  0.633607  0.543381  1
  Ac  Ac4  1  0.490153  0.866393  0.206619  1
  Ac  Ac5  1  0.509847  0.133607  0.706619  1
  Ac  Ac6  1  0.366393  0.009847  0.956619  1
  Ac  Ac7  1  0.633607  0.990153  0.456619  1
  Eu  Eu8  1  0.183647  0.816353  0.750000  1
  Eu  Eu9  1  0.816353  0.183647  0.250000  1
  Eu  Eu10  1  0.316353  0.316353  0.500000  1
  Eu  Eu11  1  0.683647  0.683647  0.000000  1
  Eu  Eu12  1  0.132930  0.993386  0.374843  1
  Eu  Eu13  1  0.867070  0.006614  0.874843  1
  Eu  Eu14  1  0.493386  0.367070  0.124843  1
  Eu  Eu15  1  0.506614  0.632930  0.624843  1
  Eu  Eu16  1  0.006614  0.867070  0.125157  1
  Eu  Eu17  1  0.993386  0.132930  0.625157  1
  Eu  Eu18  1  0.367070  0.493386  0.875157  1
  Eu  Eu19  1  0.632930  0.506614  0.375157  1
  Si  Si20  1  0.343860  0.710983  0.443144  1
  Si  Si21  1  0.656140  0.289017  0.943144  1
  Si  Si22  1  0.210983  0.156140  0.193144  1
  Si  Si23  1  0.789017  0.843860  0.693144  1
  Si  Si24  1  0.289017  0.656140  0.056856  1
  Si  Si25  1  0.710983  0.343860  0.556856  1
  Si  Si26  1  0.156140  0.210983  0.806856  1
  Si  Si27  1  0.843860  0.789017  0.306856  1
  Si  Si28  1  0.290367  0.921233  0.556882  1
  Si  Si29  1  0.709633  0.078767  0.056882  1
  Si  Si30  1  0.421233  0.209633  0.306882  1
  Si  Si31  1  0.578767  0.790367  0.806882  1
  Si  Si32  1  0.078767  0.709633  0.943118  1
  Si  Si33  1  0.921233  0.290367  0.443118  1
  Si  Si34  1  0.209633  0.421233  0.693118  1
  Si  Si35  1  0.790367  0.578767  0.193118  1
