# generated using pymatgen
data_YHo2Er5(Si3Rh)4
_symmetry_space_group_name_H-M   'P 1'
_cell_length_a   8.15461501
_cell_length_b   8.15461618
_cell_length_c   7.84186600
_cell_angle_alpha   90.00000000
_cell_angle_beta   90.00000000
_cell_angle_gamma   120.01270363
_symmetry_Int_Tables_number   1
_chemical_formula_structural   YHo2Er5(Si3Rh)4
_chemical_formula_sum   'Y1 Ho2 Er5 Si12 Rh4'
_cell_volume   451.54540463
_cell_formula_units_Z   1
loop_
 _symmetry_equiv_pos_site_id
 _symmetry_equiv_pos_as_xyz
  1  'x, y, z'
loop_
 _atom_site_type_symbol
 _atom_site_label
 _atom_site_symmetry_multiplicity
 _atom_site_fract_x
 _atom_site_fract_y
 _atom_site_fract_z
 _atom_site_occupancy
  Y  Y0  1  0.000083  0.999917  0.250000  1
  Ho  Ho1  1  0.999959  0.000041  0.750000  1
  Ho  Ho2  1  0.491435  0.508565  0.250000  1
  Er  Er3  1  0.491446  0.983089  0.250000  1
  Er  Er4  1  0.016911  0.508554  0.250000  1
  Er  Er5  1  0.508664  0.491336  0.750000  1
  Er  Er6  1  0.982566  0.491205  0.750000  1
  Er  Er7  1  0.508795  0.017434  0.750000  1
  Si  Si8  1  0.832980  0.167020  0.501256  1
  Si  Si9  1  0.832937  0.665828  0.501498  1
  Si  Si10  1  0.334172  0.167063  0.501498  1
  Si  Si11  1  0.832980  0.167020  0.998744  1
  Si  Si12  1  0.832937  0.665828  0.998502  1
  Si  Si13  1  0.334172  0.167063  0.998502  1
  Si  Si14  1  0.167183  0.832817  0.000935  1
  Si  Si15  1  0.665612  0.832882  0.000563  1
  Si  Si16  1  0.167118  0.334388  0.000563  1
  Si  Si17  1  0.167183  0.832817  0.499065  1
  Si  Si18  1  0.665612  0.832882  0.499437  1
  Si  Si19  1  0.167118  0.334388  0.499437  1
  Rh  Rh20  1  0.666849  0.333151  0.466375  1
  Rh  Rh21  1  0.666849  0.333151  0.033625  1
  Rh  Rh22  1  0.333219  0.666781  0.964693  1
  Rh  Rh23  1  0.333219  0.666781  0.535307  1
