# generated using pymatgen
data_Er3Mg(Pd2Au)4
_symmetry_space_group_name_H-M   'P 1'
_cell_length_a   5.98582500
_cell_length_b   5.98127464
_cell_length_c   7.94298400
_cell_angle_alpha   90.00049812
_cell_angle_beta   90.00012443
_cell_angle_gamma   89.97340816
_symmetry_Int_Tables_number   1
_chemical_formula_structural   Er3Mg(Pd2Au)4
_chemical_formula_sum   'Er3 Mg1 Pd8 Au4'
_cell_volume   284.38153969
_cell_formula_units_Z   1
loop_
 _symmetry_equiv_pos_site_id
 _symmetry_equiv_pos_as_xyz
  1  'x, y, z'
loop_
 _atom_site_type_symbol
 _atom_site_label
 _atom_site_symmetry_multiplicity
 _atom_site_fract_x
 _atom_site_fract_y
 _atom_site_fract_z
 _atom_site_occupancy
  Er  Er0  1  0.249853  0.250020  0.999988  1
  Er  Er1  1  0.750170  0.750011  0.999973  1
  Er  Er2  1  0.749812  0.750012  0.500005  1
  Mg  Mg3  1  0.250232  0.249993  0.500006  1
  Pd  Pd4  1  0.497806  0.002161  0.253015  1
  Pd  Pd5  1  0.497822  0.497866  0.253001  1
  Pd  Pd6  1  0.002174  0.002158  0.253143  1
  Pd  Pd7  1  0.002201  0.497803  0.253148  1
  Pd  Pd8  1  0.002160  0.002174  0.746868  1
  Pd  Pd9  1  0.002170  0.497786  0.746848  1
  Pd  Pd10  1  0.497823  0.002164  0.746988  1
  Pd  Pd11  1  0.497851  0.497857  0.747004  1
  Au  Au12  1  0.749991  0.250000  0.000015  1
  Au  Au13  1  0.250008  0.750003  0.999994  1
  Au  Au14  1  0.749908  0.250001  0.499989  1
  Au  Au15  1  0.250016  0.749990  0.500015  1
