# generated using pymatgen
data_Tb2AlRu2
_symmetry_space_group_name_H-M   'P 1'
_cell_length_a   5.56409437
_cell_length_b   5.56409336
_cell_length_c   5.56409386
_cell_angle_alpha   137.01370275
_cell_angle_beta   116.44458028
_cell_angle_gamma   79.81373883
_symmetry_Int_Tables_number   1
_chemical_formula_structural   Tb2AlRu2
_chemical_formula_sum   'Tb2 Al1 Ru2'
_cell_volume   101.98441252
_cell_formula_units_Z   1
loop_
 _symmetry_equiv_pos_site_id
 _symmetry_equiv_pos_as_xyz
  1  'x, y, z'
loop_
 _atom_site_type_symbol
 _atom_site_label
 _atom_site_symmetry_multiplicity
 _atom_site_fract_x
 _atom_site_fract_y
 _atom_site_fract_z
 _atom_site_occupancy
  Tb  Tb0  1  0.294253  0.794253  0.500000  1
  Tb  Tb1  1  0.705747  0.205747  0.500000  1
  Al  Al2  1  0.000000  0.000000  0.000000  1
  Ru  Ru3  1  0.271476  0.500000  0.771476  1
  Ru  Ru4  1  0.728524  0.500000  0.228524  1
