# generated using pymatgen
data_Tb7Y(HgPd)2
_symmetry_space_group_name_H-M   'P 1'
_cell_length_a   9.70786776
_cell_length_b   9.70786725
_cell_length_c   9.71515600
_cell_angle_alpha   59.97516035
_cell_angle_beta   59.97516208
_cell_angle_gamma   60.04967975
_symmetry_Int_Tables_number   1
_chemical_formula_structural   Tb7Y(HgPd)2
_chemical_formula_sum   'Tb14 Y2 Hg4 Pd4'
_cell_volume   647.41383915
_cell_formula_units_Z   2
loop_
 _symmetry_equiv_pos_site_id
 _symmetry_equiv_pos_as_xyz
  1  'x, y, z'
loop_
 _atom_site_type_symbol
 _atom_site_label
 _atom_site_symmetry_multiplicity
 _atom_site_fract_x
 _atom_site_fract_y
 _atom_site_fract_z
 _atom_site_occupancy
  Tb  Tb0  1  0.356125  0.356125  0.356141  1
  Tb  Tb1  1  0.356125  0.356125  0.931609  1
  Tb  Tb2  1  0.356141  0.931609  0.356125  1
  Tb  Tb3  1  0.931609  0.356141  0.356125  1
  Tb  Tb4  1  0.810765  0.189235  0.189235  1
  Tb  Tb5  1  0.189235  0.810765  0.810765  1
  Tb  Tb6  1  0.189235  0.810765  0.189235  1
  Tb  Tb7  1  0.810765  0.189235  0.810765  1
  Tb  Tb8  1  0.189361  0.189361  0.810639  1
  Tb  Tb9  1  0.810639  0.810639  0.189361  1
  Tb  Tb10  1  0.935612  0.564388  0.564388  1
  Tb  Tb11  1  0.564388  0.935612  0.935612  1
  Tb  Tb12  1  0.564388  0.935612  0.564388  1
  Tb  Tb13  1  0.935612  0.564388  0.935612  1
  Y  Y14  1  0.564362  0.564362  0.935638  1
  Y  Y15  1  0.935638  0.935638  0.564362  1
  Hg  Hg16  1  0.586573  0.586573  0.586860  1
  Hg  Hg17  1  0.586573  0.586573  0.239995  1
  Hg  Hg18  1  0.586860  0.239995  0.586573  1
  Hg  Hg19  1  0.239995  0.586860  0.586573  1
  Pd  Pd20  1  0.145527  0.145527  0.146016  1
  Pd  Pd21  1  0.145527  0.145527  0.562930  1
  Pd  Pd22  1  0.146016  0.562930  0.145527  1
  Pd  Pd23  1  0.562930  0.146016  0.145527  1
