# generated using pymatgen
data_Ca4TaV(SbPt)6
_symmetry_space_group_name_H-M   'P 1'
_cell_length_a   7.90492391
_cell_length_b   7.90962975
_cell_length_c   7.91442000
_cell_angle_alpha   99.62550100
_cell_angle_beta   99.62715403
_cell_angle_gamma   119.94578576
_symmetry_Int_Tables_number   1
_chemical_formula_structural   Ca4TaV(SbPt)6
_chemical_formula_sum   'Ca4 Ta1 V1 Sb6 Pt6'
_cell_volume   404.13630621
_cell_formula_units_Z   1
loop_
 _symmetry_equiv_pos_site_id
 _symmetry_equiv_pos_as_xyz
  1  'x, y, z'
loop_
 _atom_site_type_symbol
 _atom_site_label
 _atom_site_symmetry_multiplicity
 _atom_site_fract_x
 _atom_site_fract_y
 _atom_site_fract_z
 _atom_site_occupancy
  Ca  Ca0  1  0.330212  0.163118  0.500312  1
  Ca  Ca1  1  0.002566  0.503820  0.500691  1
  Ca  Ca2  1  0.163632  0.330082  0.999057  1
  Ca  Ca3  1  0.503496  0.002207  0.999753  1
  Ta  Ta4  1  0.829632  0.670143  0.999325  1
  V  V5  1  0.669561  0.831323  0.499557  1
  Sb  Sb6  1  0.916616  0.091640  0.248563  1
  Sb  Sb7  1  0.263373  0.749282  0.249702  1
  Sb  Sb8  1  0.578249  0.414098  0.259704  1
  Sb  Sb9  1  0.091676  0.917248  0.746848  1
  Sb  Sb10  1  0.748847  0.260093  0.748517  1
  Sb  Sb11  1  0.410225  0.577435  0.756702  1
  Pt  Pt12  1  0.175230  0.007013  0.114956  1
  Pt  Pt13  1  0.871169  0.406092  0.114908  1
  Pt  Pt14  1  0.572806  0.714147  0.144607  1
  Pt  Pt15  1  0.998200  0.166443  0.612010  1
  Pt  Pt16  1  0.412187  0.869911  0.612734  1
  Pt  Pt17  1  0.712318  0.575906  0.642055  1
