# generated using pymatgen
data_Sm2CrCo11As7
_symmetry_space_group_name_H-M   'P 1'
_cell_length_a   3.78227200
_cell_length_b   9.40927585
_cell_length_c   9.43161601
_cell_angle_alpha   119.80332461
_cell_angle_beta   90.00000000
_cell_angle_gamma   90.00000000
_symmetry_Int_Tables_number   1
_chemical_formula_structural   Sm2CrCo11As7
_chemical_formula_sum   'Sm2 Cr1 Co11 As7'
_cell_volume   291.26144023
_cell_formula_units_Z   1
loop_
 _symmetry_equiv_pos_site_id
 _symmetry_equiv_pos_as_xyz
  1  'x, y, z'
loop_
 _atom_site_type_symbol
 _atom_site_label
 _atom_site_symmetry_multiplicity
 _atom_site_fract_x
 _atom_site_fract_y
 _atom_site_fract_z
 _atom_site_occupancy
  Sm  Sm0  1  0.000000  0.667920  0.337132  1
  Sm  Sm1  1  0.500000  0.331530  0.665749  1
  Cr  Cr2  1  0.500000  0.781511  0.897340  1
  Co  Co3  1  0.000000  0.569056  0.942377  1
  Co  Co4  1  0.000000  0.373229  0.429427  1
  Co  Co5  1  0.000000  0.057353  0.625475  1
  Co  Co6  1  0.500000  0.122038  0.222100  1
  Co  Co7  1  0.500000  0.098897  0.876187  1
  Co  Co8  1  0.000000  0.878621  0.156170  1
  Co  Co9  1  0.000000  0.277859  0.122379  1
  Co  Co10  1  0.000000  0.846538  0.725720  1
  Co  Co11  1  0.500000  0.949435  0.380979  1
  Co  Co12  1  0.500000  0.429883  0.049319  1
  Co  Co13  1  0.500000  0.619015  0.568303  1
  As  As14  1  0.000000  0.003696  0.002708  1
  As  As15  1  0.500000  0.705949  0.114907  1
  As  As16  1  0.500000  0.402175  0.290927  1
  As  As17  1  0.500000  0.889643  0.597728  1
  As  As18  1  0.000000  0.589452  0.702249  1
  As  As19  1  0.000000  0.112608  0.406489  1
  As  As20  1  0.000000  0.293590  0.886335  1
