# generated using pymatgen
data_Er2GaNiRu2
_symmetry_space_group_name_H-M   'P 1'
_cell_length_a   5.40210956
_cell_length_b   5.18422777
_cell_length_c   5.40210902
_cell_angle_alpha   123.06904426
_cell_angle_beta   120.17065116
_cell_angle_gamma   88.43443430
_symmetry_Int_Tables_number   1
_chemical_formula_structural   Er2GaNiRu2
_chemical_formula_sum   'Er2 Ga1 Ni1 Ru2'
_cell_volume   103.04640829
_cell_formula_units_Z   1
loop_
 _symmetry_equiv_pos_site_id
 _symmetry_equiv_pos_as_xyz
  1  'x, y, z'
loop_
 _atom_site_type_symbol
 _atom_site_label
 _atom_site_symmetry_multiplicity
 _atom_site_fract_x
 _atom_site_fract_y
 _atom_site_fract_z
 _atom_site_occupancy
  Er  Er0  1  0.375437  0.122127  0.246690  1
  Er  Er1  1  0.624563  0.877873  0.753310  1
  Ga  Ga2  1  0.000000  0.000000  0.500000  1
  Ni  Ni3  1  0.000000  0.500000  0.000000  1
  Ru  Ru4  1  0.000000  0.500000  0.500000  1
  Ru  Ru5  1  0.500000  0.500000  0.000000  1
