# generated using pymatgen
data_Li4PrSm3(Si2Ge)2
_symmetry_space_group_name_H-M   'P 1'
_cell_length_a   9.49754961
_cell_length_b   9.49754953
_cell_length_c   6.75776500
_cell_angle_alpha   90.00000000
_cell_angle_beta   90.00000000
_cell_angle_gamma   153.18833540
_symmetry_Int_Tables_number   1
_chemical_formula_structural   Li4PrSm3(Si2Ge)2
_chemical_formula_sum   'Li4 Pr1 Sm3 Si4 Ge2'
_cell_volume   274.95385661
_cell_formula_units_Z   1
loop_
 _symmetry_equiv_pos_site_id
 _symmetry_equiv_pos_as_xyz
  1  'x, y, z'
loop_
 _atom_site_type_symbol
 _atom_site_label
 _atom_site_symmetry_multiplicity
 _atom_site_fract_x
 _atom_site_fract_y
 _atom_site_fract_z
 _atom_site_occupancy
  Li  Li0  1  0.811870  0.188130  0.558756  1
  Li  Li1  1  0.188597  0.811403  0.439986  1
  Li  Li2  1  0.188597  0.811403  0.060014  1
  Li  Li3  1  0.811870  0.188130  0.941244  1
  Pr  Pr4  1  0.656135  0.343865  0.750000  1
  Sm  Sm5  1  0.551129  0.448871  0.250000  1
  Sm  Sm6  1  0.448140  0.551860  0.750000  1
  Sm  Sm7  1  0.344396  0.655604  0.250000  1
  Si  Si8  1  0.941264  0.058736  0.073772  1
  Si  Si9  1  0.057696  0.942304  0.926969  1
  Si  Si10  1  0.057696  0.942304  0.573031  1
  Si  Si11  1  0.941264  0.058736  0.426228  1
  Ge  Ge12  1  0.719564  0.280436  0.250000  1
  Ge  Ge13  1  0.281784  0.718216  0.750000  1
