# generated using pymatgen
data_DyTm4Ni19
_symmetry_space_group_name_H-M   'P 1'
_cell_length_a   4.88734365
_cell_length_b   4.88734457
_cell_length_c   16.30092413
_cell_angle_alpha   81.37827779
_cell_angle_beta   81.37827569
_cell_angle_gamma   60.00000572
_symmetry_Int_Tables_number   1
_chemical_formula_structural   DyTm4Ni19
_chemical_formula_sum   'Dy1 Tm4 Ni19'
_cell_volume   332.11051281
_cell_formula_units_Z   1
loop_
 _symmetry_equiv_pos_site_id
 _symmetry_equiv_pos_as_xyz
  1  'x, y, z'
loop_
 _atom_site_type_symbol
 _atom_site_label
 _atom_site_symmetry_multiplicity
 _atom_site_fract_x
 _atom_site_fract_y
 _atom_site_fract_z
 _atom_site_occupancy
  Dy  Dy0  1  0.921682  0.921682  0.234956  1
  Tm  Tm1  1  0.000125  0.000125  0.999624  1
  Tm  Tm2  1  0.078204  0.078204  0.765388  1
  Tm  Tm3  1  0.847943  0.847943  0.456172  1
  Tm  Tm4  1  0.151839  0.151839  0.544482  1
  Ni  Ni5  1  0.500013  0.500013  0.499961  1
  Ni  Ni6  1  0.749614  0.749615  0.751158  1
  Ni  Ni7  1  0.250388  0.250388  0.248834  1
  Ni  Ni8  1  0.666759  0.666759  0.999726  1
  Ni  Ni9  1  0.333294  0.333294  0.000115  1
  Ni  Ni10  1  0.583873  0.583873  0.248382  1
  Ni  Ni11  1  0.416103  0.416103  0.751689  1
  Ni  Ni12  1  0.375170  0.375170  0.372441  1
  Ni  Ni13  1  0.877220  0.375170  0.372441  1
  Ni  Ni14  1  0.375170  0.877220  0.372441  1
  Ni  Ni15  1  0.624750  0.624750  0.627815  1
  Ni  Ni16  1  0.122684  0.624750  0.627815  1
  Ni  Ni17  1  0.624750  0.122684  0.627815  1
  Ni  Ni18  1  0.459270  0.459270  0.122684  1
  Ni  Ni19  1  0.958775  0.459270  0.122684  1
  Ni  Ni20  1  0.459270  0.958775  0.122684  1
  Ni  Ni21  1  0.540917  0.540917  0.876898  1
  Ni  Ni22  1  0.041269  0.540917  0.876898  1
  Ni  Ni23  1  0.540917  0.041269  0.876898  1
