# generated using pymatgen
data_KRbBeI4
_symmetry_space_group_name_H-M   'P 1'
_cell_length_a   7.88495028
_cell_length_b   8.17601300
_cell_length_c   10.03224426
_cell_angle_alpha   90.00000000
_cell_angle_beta   108.24715001
_cell_angle_gamma   90.00000000
_symmetry_Int_Tables_number   1
_chemical_formula_structural   KRbBeI4
_chemical_formula_sum   'K2 Rb2 Be2 I8'
_cell_volume   614.23108494
_cell_formula_units_Z   2
loop_
 _symmetry_equiv_pos_site_id
 _symmetry_equiv_pos_as_xyz
  1  'x, y, z'
loop_
 _atom_site_type_symbol
 _atom_site_label
 _atom_site_symmetry_multiplicity
 _atom_site_fract_x
 _atom_site_fract_y
 _atom_site_fract_z
 _atom_site_occupancy
  K  K0  1  0.279464  0.737357  0.950160  1
  K  K1  1  0.720536  0.237357  0.049840  1
  Rb  Rb2  1  0.230488  0.739374  0.430475  1
  Rb  Rb3  1  0.769512  0.239374  0.569525  1
  Be  Be4  1  0.712470  0.758737  0.804060  1
  Be  Be5  1  0.287530  0.258737  0.195940  1
  I  I6  1  0.527753  0.511887  0.756018  1
  I  I7  1  0.472247  0.011887  0.243982  1
  I  I8  1  0.497105  0.489065  0.252942  1
  I  I9  1  0.502895  0.989065  0.747058  1
  I  I10  1  0.884887  0.773011  0.050909  1
  I  I11  1  0.115113  0.273011  0.949091  1
  I  I12  1  0.897621  0.765169  0.647828  1
  I  I13  1  0.102379  0.265169  0.352172  1
