# generated using pymatgen
data_Pu4Re3TcB16
_symmetry_space_group_name_H-M   'P 1'
_cell_length_a   3.58392300
_cell_length_b   5.98963195
_cell_length_c   11.59718841
_cell_angle_alpha   89.95261562
_cell_angle_beta   90.00000000
_cell_angle_gamma   90.00000000
_symmetry_Int_Tables_number   1
_chemical_formula_structural   Pu4Re3TcB16
_chemical_formula_sum   'Pu4 Re3 Tc1 B16'
_cell_volume   248.94956463
_cell_formula_units_Z   1
loop_
 _symmetry_equiv_pos_site_id
 _symmetry_equiv_pos_as_xyz
  1  'x, y, z'
loop_
 _atom_site_type_symbol
 _atom_site_label
 _atom_site_symmetry_multiplicity
 _atom_site_fract_x
 _atom_site_fract_y
 _atom_site_fract_z
 _atom_site_occupancy
  Pu  Pu0  1  0.500000  0.373665  0.150831  1
  Pu  Pu1  1  0.500000  0.626272  0.849247  1
  Pu  Pu2  1  0.500000  0.126256  0.650121  1
  Pu  Pu3  1  0.500000  0.873601  0.349750  1
  Re  Re4  1  0.500000  0.635272  0.590439  1
  Re  Re5  1  0.500000  0.135446  0.909729  1
  Re  Re6  1  0.500000  0.864367  0.090218  1
  Tc  Tc7  1  0.500000  0.364972  0.409753  1
  B  B8  1  0.000000  0.114578  0.047216  1
  B  B9  1  0.000000  0.885518  0.952789  1
  B  B10  1  0.000000  0.385739  0.546906  1
  B  B11  1  0.000000  0.614079  0.452925  1
  B  B12  1  0.000000  0.135064  0.468299  1
  B  B13  1  0.000000  0.865144  0.531515  1
  B  B14  1  0.000000  0.365107  0.968460  1
  B  B15  1  0.000000  0.634727  0.031490  1
  B  B16  1  0.000000  0.025798  0.192248  1
  B  B17  1  0.000000  0.974629  0.807769  1
  B  B18  1  0.000000  0.474408  0.692137  1
  B  B19  1  0.000000  0.524981  0.307898  1
  B  B20  1  0.000000  0.212503  0.313866  1
  B  B21  1  0.000000  0.787969  0.686427  1
  B  B22  1  0.000000  0.287778  0.813371  1
  B  B23  1  0.000000  0.712126  0.186595  1
