# generated using pymatgen
data_PrU3(AsSe)4
_symmetry_space_group_name_H-M   'P 1'
_cell_length_a   3.99646500
_cell_length_b   3.99654000
_cell_length_c   17.20232316
_cell_angle_alpha   89.98982329
_cell_angle_beta   90.00000000
_cell_angle_gamma   90.00000000
_symmetry_Int_Tables_number   1
_chemical_formula_structural   PrU3(AsSe)4
_chemical_formula_sum   'Pr1 U3 As4 Se4'
_cell_volume   274.75605583
_cell_formula_units_Z   1
loop_
 _symmetry_equiv_pos_site_id
 _symmetry_equiv_pos_as_xyz
  1  'x, y, z'
loop_
 _atom_site_type_symbol
 _atom_site_label
 _atom_site_symmetry_multiplicity
 _atom_site_fract_x
 _atom_site_fract_y
 _atom_site_fract_z
 _atom_site_occupancy
  Pr  Pr0  1  0.250000  0.247538  0.865892  1
  U  U1  1  0.750000  0.747863  0.629885  1
  U  U2  1  0.250000  0.252105  0.364430  1
  U  U3  1  0.750000  0.752594  0.141104  1
  As  As4  1  0.250000  0.749502  0.008653  1
  As  As5  1  0.750000  0.250841  0.008650  1
  As  As6  1  0.250000  0.750160  0.496633  1
  As  As7  1  0.750000  0.249530  0.496623  1
  Se  Se8  1  0.750000  0.747072  0.807894  1
  Se  Se9  1  0.250000  0.252745  0.187260  1
  Se  Se10  1  0.750000  0.752460  0.318367  1
  Se  Se11  1  0.250000  0.247590  0.674609  1
