# generated using pymatgen
data_Tm7Lu(BBr6)2
_symmetry_space_group_name_H-M   'P 1'
_cell_length_a   3.90116500
_cell_length_b   13.00461444
_cell_length_c   13.45942549
_cell_angle_alpha   89.94610395
_cell_angle_beta   90.00000000
_cell_angle_gamma   90.00000000
_symmetry_Int_Tables_number   1
_chemical_formula_structural   Tm7Lu(BBr6)2
_chemical_formula_sum   'Tm7 Lu1 B2 Br12'
_cell_volume   682.83870552
_cell_formula_units_Z   1
loop_
 _symmetry_equiv_pos_site_id
 _symmetry_equiv_pos_as_xyz
  1  'x, y, z'
loop_
 _atom_site_type_symbol
 _atom_site_label
 _atom_site_symmetry_multiplicity
 _atom_site_fract_x
 _atom_site_fract_y
 _atom_site_fract_z
 _atom_site_occupancy
  Tm  Tm0  1  0.000000  0.100531  0.079896  1
  Tm  Tm1  1  0.000000  0.899469  0.920124  1
  Tm  Tm2  1  0.000000  0.600128  0.420418  1
  Tm  Tm3  1  0.500000  0.121841  0.856786  1
  Tm  Tm4  1  0.500000  0.878166  0.143214  1
  Tm  Tm5  1  0.500000  0.621527  0.643234  1
  Tm  Tm6  1  0.500000  0.378093  0.357094  1
  Lu  Lu7  1  0.000000  0.400166  0.579345  1
  B  B8  1  0.500000  0.000035  0.999965  1
  B  B9  1  0.500000  0.499495  0.500415  1
  Br  Br10  1  0.500000  0.269447  0.681263  1
  Br  Br11  1  0.500000  0.731608  0.317919  1
  Br  Br12  1  0.500000  0.768120  0.817715  1
  Br  Br13  1  0.500000  0.231848  0.182293  1
  Br  Br14  1  0.000000  0.261071  0.930981  1
  Br  Br15  1  0.000000  0.738952  0.068973  1
  Br  Br16  1  0.000000  0.480325  0.239267  1
  Br  Br17  1  0.000000  0.518939  0.760412  1
  Br  Br18  1  0.000000  0.980327  0.260903  1
  Br  Br19  1  0.000000  0.019761  0.739065  1
  Br  Br20  1  0.000000  0.239290  0.431775  1
  Br  Br21  1  0.000000  0.760859  0.568944  1
