# generated using pymatgen
data_Eu2ZrMnO6
_symmetry_space_group_name_H-M   'P 1'
_cell_length_a   5.63612800
_cell_length_b   5.88279033
_cell_length_c   7.97996942
_cell_angle_alpha   88.90514430
_cell_angle_beta   90.00000000
_cell_angle_gamma   90.00000000
_symmetry_Int_Tables_number   1
_chemical_formula_structural   Eu2ZrMnO6
_chemical_formula_sum   'Eu4 Zr2 Mn2 O12'
_cell_volume   264.53683231
_cell_formula_units_Z   2
loop_
 _symmetry_equiv_pos_site_id
 _symmetry_equiv_pos_as_xyz
  1  'x, y, z'
loop_
 _atom_site_type_symbol
 _atom_site_label
 _atom_site_symmetry_multiplicity
 _atom_site_fract_x
 _atom_site_fract_y
 _atom_site_fract_z
 _atom_site_occupancy
  Eu  Eu0  1  0.009449  0.944777  0.773235  1
  Eu  Eu1  1  0.509449  0.555223  0.226765  1
  Eu  Eu2  1  0.490551  0.444777  0.773235  1
  Eu  Eu3  1  0.990551  0.055223  0.226765  1
  Zr  Zr4  1  0.500000  0.000000  0.500000  1
  Zr  Zr5  1  0.000000  0.500000  0.500000  1
  Mn  Mn6  1  0.000000  0.500000  0.000000  1
  Mn  Mn7  1  0.500000  0.000000  0.000000  1
  O  O8  1  0.693478  0.304030  0.446841  1
  O  O9  1  0.193478  0.195970  0.553159  1
  O  O10  1  0.781413  0.813587  0.042148  1
  O  O11  1  0.281413  0.686413  0.957852  1
  O  O12  1  0.306522  0.695970  0.553159  1
  O  O13  1  0.806522  0.804030  0.446841  1
  O  O14  1  0.218587  0.186413  0.957852  1
  O  O15  1  0.718587  0.313587  0.042148  1
  O  O16  1  0.091501  0.469290  0.244720  1
  O  O17  1  0.591501  0.030710  0.755280  1
  O  O18  1  0.408499  0.969290  0.244720  1
  O  O19  1  0.908499  0.530710  0.755280  1
