# generated using pymatgen
data_Er6Tm2Sc12Si15Ni
_symmetry_space_group_name_H-M   'P 1'
_cell_length_a   7.01872402
_cell_length_b   7.39713811
_cell_length_c   13.87281402
_cell_angle_alpha   89.99367971
_cell_angle_beta   89.99854679
_cell_angle_gamma   89.96066109
_symmetry_Int_Tables_number   1
_chemical_formula_structural   Er6Tm2Sc12Si15Ni
_chemical_formula_sum   'Er6 Tm2 Sc12 Si15 Ni1'
_cell_volume   720.25511669
_cell_formula_units_Z   1
loop_
 _symmetry_equiv_pos_site_id
 _symmetry_equiv_pos_as_xyz
  1  'x, y, z'
loop_
 _atom_site_type_symbol
 _atom_site_label
 _atom_site_symmetry_multiplicity
 _atom_site_fract_x
 _atom_site_fract_y
 _atom_site_fract_z
 _atom_site_occupancy
  Er  Er0  1  0.489724  0.678188  0.904427  1
  Er  Er1  1  0.989770  0.823711  0.595026  1
  Er  Er2  1  0.511032  0.322369  0.095573  1
  Er  Er3  1  0.010886  0.178894  0.404242  1
  Er  Er4  1  0.511010  0.322366  0.404424  1
  Er  Er5  1  0.489732  0.678187  0.595576  1
  Tm  Tm6  1  0.010882  0.178925  0.095775  1
  Tm  Tm7  1  0.989767  0.823696  0.904956  1
  Sc  Sc8  1  0.163469  0.509172  0.750009  1
  Sc  Sc9  1  0.838818  0.497192  0.249990  1
  Sc  Sc10  1  0.338801  0.005777  0.249992  1
  Sc  Sc11  1  0.670981  0.998438  0.750011  1
  Sc  Sc12  1  0.316112  0.172128  0.627839  1
  Sc  Sc13  1  0.671313  0.826187  0.374337  1
  Sc  Sc14  1  0.170426  0.677097  0.374141  1
  Sc  Sc15  1  0.671317  0.826199  0.125657  1
  Sc  Sc16  1  0.837051  0.319127  0.627909  1
  Sc  Sc17  1  0.316069  0.172105  0.872169  1
  Sc  Sc18  1  0.837072  0.319108  0.872096  1
  Sc  Sc19  1  0.170413  0.677117  0.125845  1
  Si  Si20  1  0.969228  0.886965  0.249982  1
  Si  Si21  1  0.469615  0.614160  0.249996  1
  Si  Si22  1  0.532568  0.385940  0.750003  1
  Si  Si23  1  0.282771  0.872901  0.750023  1
  Si  Si24  1  0.713264  0.132282  0.249974  1
  Si  Si25  1  0.213134  0.370467  0.249975  1
  Si  Si26  1  0.782384  0.626294  0.750024  1
  Si  Si27  1  0.160302  0.466583  0.538566  1
  Si  Si28  1  0.840626  0.535242  0.462483  1
  Si  Si29  1  0.342723  0.965766  0.461354  1
  Si  Si30  1  0.840657  0.535242  0.037517  1
  Si  Si31  1  0.658046  0.034690  0.540017  1
  Si  Si32  1  0.160277  0.466592  0.961434  1
  Si  Si33  1  0.658135  0.034650  0.959976  1
  Si  Si34  1  0.342628  0.965798  0.038654  1
  Ni  Ni35  1  0.029002  0.100448  0.750027  1
