# generated using pymatgen
data_Dy3Cu2Ni7
_symmetry_space_group_name_H-M   'P 1'
_cell_length_a   4.99494100
_cell_length_b   4.99494143
_cell_length_c   16.24998200
_cell_angle_alpha   90.00000000
_cell_angle_beta   90.00000000
_cell_angle_gamma   120.00000380
_symmetry_Int_Tables_number   1
_chemical_formula_structural   Dy3Cu2Ni7
_chemical_formula_sum   'Dy6 Cu4 Ni14'
_cell_volume   351.11085941
_cell_formula_units_Z   2
loop_
 _symmetry_equiv_pos_site_id
 _symmetry_equiv_pos_as_xyz
  1  'x, y, z'
loop_
 _atom_site_type_symbol
 _atom_site_label
 _atom_site_symmetry_multiplicity
 _atom_site_fract_x
 _atom_site_fract_y
 _atom_site_fract_z
 _atom_site_occupancy
  Dy  Dy0  1  0.333333  0.666667  0.458628  1
  Dy  Dy1  1  0.666667  0.333333  0.958628  1
  Dy  Dy2  1  0.666667  0.333333  0.541372  1
  Dy  Dy3  1  0.333333  0.666667  0.041372  1
  Dy  Dy4  1  0.666667  0.333333  0.750000  1
  Dy  Dy5  1  0.333333  0.666667  0.250000  1
  Cu  Cu6  1  0.666667  0.333333  0.250000  1
  Cu  Cu7  1  0.333333  0.666667  0.750000  1
  Cu  Cu8  1  0.000000  0.000000  0.750000  1
  Cu  Cu9  1  0.000000  0.000000  0.250000  1
  Ni  Ni10  1  0.832823  0.665647  0.374341  1
  Ni  Ni11  1  0.334353  0.167177  0.374341  1
  Ni  Ni12  1  0.000000  0.000000  0.000000  1
  Ni  Ni13  1  0.000000  0.000000  0.500000  1
  Ni  Ni14  1  0.832823  0.167177  0.125659  1
  Ni  Ni15  1  0.665647  0.832823  0.625659  1
  Ni  Ni16  1  0.167177  0.334353  0.625659  1
  Ni  Ni17  1  0.832823  0.665647  0.125659  1
  Ni  Ni18  1  0.334353  0.167177  0.125659  1
  Ni  Ni19  1  0.665647  0.832823  0.874341  1
  Ni  Ni20  1  0.167177  0.334353  0.874341  1
  Ni  Ni21  1  0.167177  0.832823  0.625659  1
  Ni  Ni22  1  0.167177  0.832823  0.874341  1
  Ni  Ni23  1  0.832823  0.167177  0.374341  1
