# generated using pymatgen
data_YPa3Ge6Os7
_symmetry_space_group_name_H-M   'P 1'
_cell_length_a   7.28467647
_cell_length_b   7.28467684
_cell_length_c   7.28467663
_cell_angle_alpha   109.54225188
_cell_angle_beta   109.54225516
_cell_angle_gamma   109.54224151
_symmetry_Int_Tables_number   1
_chemical_formula_structural   YPa3Ge6Os7
_chemical_formula_sum   'Y1 Pa3 Ge6 Os7'
_cell_volume   296.79841086
_cell_formula_units_Z   1
loop_
 _symmetry_equiv_pos_site_id
 _symmetry_equiv_pos_as_xyz
  1  'x, y, z'
loop_
 _atom_site_type_symbol
 _atom_site_label
 _atom_site_symmetry_multiplicity
 _atom_site_fract_x
 _atom_site_fract_y
 _atom_site_fract_z
 _atom_site_occupancy
  Y  Y0  1  0.500000  0.500000  0.500000  1
  Pa  Pa1  1  0.000000  0.000000  0.500000  1
  Pa  Pa2  1  0.000000  0.500000  0.000000  1
  Pa  Pa3  1  0.500000  0.000000  0.000000  1
  Ge  Ge4  1  0.685869  0.685869  0.996032  1
  Ge  Ge5  1  0.314131  0.003968  0.314131  1
  Ge  Ge6  1  0.003968  0.314131  0.314131  1
  Ge  Ge7  1  0.314131  0.314131  0.003968  1
  Ge  Ge8  1  0.685869  0.996032  0.685869  1
  Ge  Ge9  1  0.996032  0.685869  0.685869  1
  Os  Os10  1  0.753118  0.246882  0.500000  1
  Os  Os11  1  0.753118  0.500000  0.246882  1
  Os  Os12  1  0.500000  0.246882  0.753118  1
  Os  Os13  1  0.246882  0.500000  0.753118  1
  Os  Os14  1  0.246882  0.753118  0.500000  1
  Os  Os15  1  0.500000  0.753118  0.246882  1
  Os  Os16  1  0.000000  0.000000  0.000000  1
