# generated using pymatgen
data_Dy2Ho5Tm(WO6)4
_symmetry_space_group_name_H-M   'P 1'
_cell_length_a   5.38166300
_cell_length_b   7.69073470
_cell_length_c   11.43524016
_cell_angle_alpha   75.41134453
_cell_angle_beta   89.97545865
_cell_angle_gamma   89.93049943
_symmetry_Int_Tables_number   1
_chemical_formula_structural   Dy2Ho5Tm(WO6)4
_chemical_formula_sum   'Dy2 Ho5 Tm1 W4 O24'
_cell_volume   458.03276083
_cell_formula_units_Z   1
loop_
 _symmetry_equiv_pos_site_id
 _symmetry_equiv_pos_as_xyz
  1  'x, y, z'
loop_
 _atom_site_type_symbol
 _atom_site_label
 _atom_site_symmetry_multiplicity
 _atom_site_fract_x
 _atom_site_fract_y
 _atom_site_fract_z
 _atom_site_occupancy
  Dy  Dy0  1  0.684267  0.499673  0.749688  1
  Dy  Dy1  1  0.316362  0.499652  0.250687  1
  Ho  Ho2  1  0.740565  0.000215  0.749231  1
  Ho  Ho3  1  0.259297  0.000473  0.250929  1
  Ho  Ho4  1  0.182917  0.794523  0.577896  1
  Ho  Ho5  1  0.816103  0.794455  0.077959  1
  Ho  Ho6  1  0.184454  0.205375  0.922042  1
  Tm  Tm7  1  0.816862  0.206762  0.421499  1
  W  W8  1  0.255915  0.723876  0.884970  1
  W  W9  1  0.743788  0.723994  0.385038  1
  W  W10  1  0.256215  0.275853  0.614148  1
  W  W11  1  0.744681  0.275590  0.115591  1
  O  O12  1  0.043437  0.940193  0.895361  1
  O  O13  1  0.534752  0.847430  0.930417  1
  O  O14  1  0.952505  0.941854  0.395738  1
  O  O15  1  0.458051  0.791723  0.726476  1
  O  O16  1  0.462791  0.845548  0.430591  1
  O  O17  1  0.980287  0.711089  0.771204  1
  O  O18  1  0.541561  0.791359  0.226844  1
  O  O19  1  0.848273  0.635062  0.548582  1
  O  O20  1  0.360525  0.489831  0.885152  1
  O  O21  1  0.020228  0.712109  0.271651  1
  O  O22  1  0.360031  0.509877  0.613965  1
  O  O23  1  0.848905  0.364450  0.951963  1
  O  O24  1  0.151455  0.634582  0.048495  1
  O  O25  1  0.642121  0.488919  0.385449  1
  O  O26  1  0.981049  0.288662  0.728653  1
  O  O27  1  0.640048  0.509905  0.114880  1
  O  O28  1  0.149275  0.364697  0.450952  1
  O  O29  1  0.458585  0.208056  0.772667  1
  O  O30  1  0.019499  0.288120  0.230165  1
  O  O31  1  0.536794  0.154284  0.567723  1
  O  O32  1  0.543455  0.207852  0.274841  1
  O  O33  1  0.043610  0.060702  0.603349  1
  O  O34  1  0.464778  0.153432  0.070390  1
  O  O35  1  0.956556  0.059823  0.104814  1
